#------------------------------------------------------------------------------
#$Date: 2021-04-02 12:20:39 +0300 (Fri, 02 Apr 2021) $
#$Revision: 263550 $
#$URL: file:///home/coder/svn-repositories/cod/cif/1/56/14/1561465.cif $
#------------------------------------------------------------------------------
#
# This file is available in the Crystallography Open Database (COD),
# http://www.crystallography.net/
#
# All data on this site have been placed in the public domain by the
# contributors.
#
data_1561465
loop_
_publ_author_name
'Latshaw, Allison M.'
'Wilkins, Branford O.'
'Morrison, Gregory'
'Smith, Mark D.'
'zur Loye, Hans-Conrad'
_publ_contact_author_address
;University of South Carolina
Department of Chemistry and Biochemistry
631 Sumter St.
Columbia, SC 29208
;
_publ_contact_author_email       zurloye@mailbox.sc.edu
_publ_contact_author_fax         +1-803-777-8508
_publ_contact_author_name        'Hans-Conrad zur Loye'
_publ_contact_author_phone       +1-803-777-6916
_publ_section_title
;
 A5RE4X[TO4]4 crystal growth: Fluoride flux synthesis of Na5Ln4F[GeO4]4
 (Ln=Pr, Nd), the first quaternary germanate oxyfluorides
;
_journal_name_full               'Journal of Solid State Chemistry'
_journal_page_first              200
_journal_page_last               203
_journal_paper_doi               10.1016/j.jssc.2016.04.038
_journal_volume                  239
_journal_year                    2016
_chemical_formula_moiety         '0.5(F2 Ge8 Na10 Nd8 O32)'
_chemical_formula_sum            'F Ge4 Na5 Nd4 O16'
_chemical_formula_weight         1257.27
_space_group_crystal_system      tetragonal
_space_group_IT_number           82
_space_group_name_Hall           'I -4'
_space_group_name_H-M_alt        'I -4'
_audit_creation_date             2015-08-11
_audit_creation_method
;
Olex2 1.2
(compiled 2015.01.26 svn.r3150 for OlexSys, GUI svn.r4998)
;
_cell_angle_alpha                90
_cell_angle_beta                 90
_cell_angle_gamma                90
_cell_formula_units_Z            2
_cell_length_a                   12.0642(17)
_cell_length_b                   12.0642(17)
_cell_length_c                   5.6674(11)
_cell_measurement_reflns_used    3488
_cell_measurement_temperature    293(2)
_cell_measurement_theta_max      28.2996
_cell_measurement_theta_min      2.3875
_cell_volume                     824.9(2)
_computing_cell_refinement       'SAINT-Plus Version 6.45 (Bruker, 2001)'
_computing_data_collection       'SMART Version 5.625 (Bruker, 2001)'
_computing_data_reduction        'SAINT-Plus Version 6.45 (Bruker, 2001)'
_computing_molecular_graphics    'Olex2 (Dolomanov et al., 2009)'
_computing_publication_material  'Olex2 (Dolomanov et al., 2009)'
_computing_structure_refinement  'ShelXL (Sheldrick, 2008)'
_computing_structure_solution    'ShelXT (Sheldrick, 2015)'
_diffrn_ambient_temperature      293(2)
_diffrn_measured_fraction_theta_full 0.998
_diffrn_measured_fraction_theta_max 0.998
_diffrn_measurement_device_type  'Bruker SMART APEX CCD diffractometer'
_diffrn_measurement_method       'omega and phi scans'
_diffrn_radiation_type           MoK\a
_diffrn_radiation_wavelength     0.71073
_diffrn_reflns_av_R_equivalents  0.0425
_diffrn_reflns_av_unetI/netI     0.0319
_diffrn_reflns_Laue_measured_fraction_full 0.998
_diffrn_reflns_Laue_measured_fraction_max 0.998
_diffrn_reflns_limit_h_max       16
_diffrn_reflns_limit_h_min       -16
_diffrn_reflns_limit_k_max       16
_diffrn_reflns_limit_k_min       -16
_diffrn_reflns_limit_l_max       7
_diffrn_reflns_limit_l_min       -7
_diffrn_reflns_number            5462
_diffrn_reflns_point_group_measured_fraction_full 0.999
_diffrn_reflns_point_group_measured_fraction_max 0.999
_diffrn_reflns_theta_full        25.242
_diffrn_reflns_theta_max         28.255
_diffrn_reflns_theta_min         2.387
_diffrn_source                   'sealed tube'
_exptl_absorpt_coefficient_mu    19.754
_exptl_absorpt_correction_T_max  0.7457
_exptl_absorpt_correction_T_min  0.3749
_exptl_absorpt_correction_type   multi-scan
_exptl_absorpt_process_details   'SADABS Version 2.05 (Bruker, 2001)'
_exptl_crystal_colour            blue-purple
_exptl_crystal_density_diffrn    5.062
_exptl_crystal_description       plate
_exptl_crystal_F_000             1120
_exptl_crystal_size_max          0.14
_exptl_crystal_size_mid          0.04
_exptl_crystal_size_min          0.04
_refine_diff_density_max         0.934
_refine_diff_density_min         -1.203
_refine_diff_density_rms         0.299
_refine_ls_abs_structure_details
;
 Refined as an inversion twin.
;
_refine_ls_abs_structure_Flack   0.07(6)
_refine_ls_extinction_coef       0.0044(3)
_refine_ls_extinction_expression Fc^*^=kFc[1+0.001xFc^2^\l^3^/sin(2\q)]^-1/4^
_refine_ls_extinction_method     'SHELXL-2014/7 (Sheldrick 2014'
_refine_ls_goodness_of_fit_ref   1.105
_refine_ls_hydrogen_treatment    undef
_refine_ls_matrix_type           full
_refine_ls_number_parameters     70
_refine_ls_number_reflns         1005
_refine_ls_number_restraints     0
_refine_ls_restrained_S_all      1.105
_refine_ls_R_factor_all          0.0212
_refine_ls_R_factor_gt           0.0209
_refine_ls_shift/su_max          0.001
_refine_ls_shift/su_mean         0.000
_refine_ls_structure_factor_coef Fsqd
_refine_ls_weighting_details
'w=1/[\s^2^(Fo^2^)+(0.0110P)^2^+20.0000P] where P=(Fo^2^+2Fc^2^)/3'
_refine_ls_weighting_scheme      calc
_refine_ls_wR_factor_gt          0.0559
_refine_ls_wR_factor_ref         0.0561
_reflns_Friedel_coverage         0.815
_reflns_Friedel_fraction_full    1.000
_reflns_Friedel_fraction_max     1.000
_reflns_number_gt                997
_reflns_number_total             1005
_reflns_threshold_expression     'I > 2\s(I)'
_cod_data_source_file            JSSC-2016-239-200.cif
_cod_data_source_block           Na5Nd4F[GeO4]4
_cod_original_cell_volume        824.9(3)
_cod_database_code               1561465
_shelx_space_group_comment
;
The symmetry employed for this shelxl refinement is uniquely defined
by the following loop, which should always be used as a source of
symmetry information in preference to the above space-group names.
They are only intended as comments.
;
_olex2_refinement_description
;
1. Twinned data refinement
 Scales: 0.93(6) 0.07(6)
;
_shelx_res_file
;
    aml1125a.res created by SHELXL-2014/7

TITL aml1125a_a.res in I-4
REM Old TITL AML1125a in I-4 #82
REM SHELXT solution in I-4
REM R1 0.090, Rweak 0.037, Alpha 0.001, Orientation as input
REM Flack x = 0.165 ( 0.022 ) from Parsons' quotients
REM Formula found by SHELXT: O17 F Na4 Ge4 Nd4
CELL 0.71073 12.0642 12.0642 5.6674 90 90 90
ZERR 2 0.0017 0.0017 0.0011 0 0 0
LATT -2
SYMM -X,-Y,+Z
SYMM +Y,-X,-Z
SYMM -Y,+X,-Z
SFAC F Ge Na Nd O
UNIT 2 8 10 8 32

L.S. 10
PLAN  5
LIST 4
fmap 2
acta
TWIN -1 0 0 0 -1 0 0 0 -1 2
REM <olex2.extras>
REM <HklSrc "%.\\AML1125a.hkl">
REM </olex2.extras>

WGHT    0.011000   20.000000
EXTI    0.004381
BASF   0.06842
FVAR       0.23267
NA1   3    0.500000    0.500000    0.500000    10.25000    0.02363    0.02363 =
         0.05018    0.00000    0.00000    0.00000
NA2   3    0.087514    0.604488    0.483135    11.00000    0.01441    0.01628 =
         0.03760   -0.00303    0.00201   -0.00010
ND01  4    0.615040    0.682263   -0.023919    11.00000    0.00834    0.00912 =
         0.01074   -0.00012    0.00031    0.00011
GE1   2    0.396963    0.747247    0.489885    11.00000    0.00910    0.00950 =
         0.00937   -0.00032   -0.00021    0.00094
F1    1    0.500000    0.500000    0.000000    10.25000    0.00955    0.00955 =
         0.03193    0.00000    0.00000    0.00000
O1    5    0.451498    0.678392    0.730338    11.00000    0.00900    0.01452 =
         0.01404   -0.00026   -0.00284   -0.00723
O2    5    0.392120    0.890282    0.527502    11.00000    0.00956    0.00603 =
         0.02922   -0.00336   -0.00076    0.00100
O4    5    0.467005    0.709203    0.231047    11.00000    0.00715    0.02587 =
         0.01376   -0.00292    0.00289   -0.00578
O3    5    0.260078    0.703226    0.424914    11.00000    0.00717    0.01671 =
         0.01337   -0.00824    0.00090    0.00250
HKLF 4

REM  aml1125a_a.res in I-4
REM R1 =  0.0209 for     997 Fo > 4sig(Fo)  and  0.0212 for all    1005 data
REM     70 parameters refined using      0 restraints

END

WGHT      0.0046      9.1052

REM Highest difference peak  0.934,  deepest hole -1.203,  1-sigma level  0.299
Q1    1   0.6151  0.6806 -0.1751  11.00000  0.05    0.93
Q2    1   0.6081  0.6596  0.1390  11.00000  0.05    0.85
Q3    1   0.5805  0.6932  0.1188  11.00000  0.05    0.80
Q4    1   0.4800  0.7122  0.3693  11.00000  0.05    0.78
Q5    1   0.2562  0.6837  0.2827  11.00000  0.05    0.77
;
_shelx_res_checksum              6812
_shelx_hkl_file
;
   1  -1   0  882.01   35.90
  -1   1   0  873.31   39.50
  -1  -1   0  926.61   35.40
  -1  -1   0  859.61   30.60
   1  -1   0  852.41   35.00
   1   1   0  865.91   30.80
  -1   1   0  808.62   37.40
   0   2   0 1520.85   57.99
   2   0   0 1535.35   60.49
   0  -2   0 1544.05   61.79
   2   0   0 1603.84   50.09
  -2   0   0 1539.25   58.19
  -2   2   0  322.37   22.50
  -2   2   0  355.26   28.00
  -2  -2   0  332.97   22.20
   2  -2   0  323.17   22.80
  -2  -2   0  330.97   34.80
   2  -2   0  333.67   23.80
  -2  -2   0  321.97   16.50
   2   2   0  302.57   17.70
  -1   3   0 1263.47   60.29
   1  -3   0 1212.18   59.19
   3   1   0 1217.08   43.10
  -3  -1   0  976.50   79.99
   1  -3   0 1264.97   55.49
  -3  -1   0 1264.57   49.70
   3   1   0 1278.17   56.69
  -1   3   0 1266.07   46.10
   3  -1   0 1655.73   59.89
  -1  -3   0 1622.64   81.49
  -1  -3   0 1588.94   65.19
   3  -1   0 1656.43   69.99
  -3   1   0 1577.34   72.09
  -1  -3   0 1625.34   60.99
  -1  -3   0 1579.74   66.59
   3   3   0 1769.12   65.39
   3  -3   0 1729.13   78.19
  -3   3   0 1719.13   80.39
  -3   3   0 1766.42   86.69
  -3  -3   0 1631.34   75.39
  -3  -3   0 1515.05  103.69
   3  -3   0 1701.03   77.49
  -3  -3   0 1667.63   62.39
  -2   4   0   23.70    7.40
  -4  -2   0   21.50    1.90
   4   2   0   19.20    1.90
   2  -4   0   24.50    3.20
   2  -4   0   14.60    3.80
   4   2   0   12.90    4.80
   0  -4   0 1915.21   84.99
   4   0   0 2030.50   66.49
  -4   0   0 1611.94  113.49
   0   4   0 2018.40   81.99
   0  -4   0 1888.41   81.69
  -4   0   0 1892.81   78.79
   4   0   0 1917.81   83.39
   0  -4   0 2032.90   81.79
  -4   2   0 5540.65  241.18
   4  -2   0 5896.91  191.48
  -2  -4   0 5904.41  190.68
   4  -2   0 6362.56  212.88
  -2  -4   0 6430.86  192.18
  -2  -4   0 5341.07  236.18
  -4   2   0 5770.62  215.18
  -4  -4   0   16.30    1.40
  -4  -4   0   12.80    1.00
   4  -4   0   17.90    1.90
  -4   4   0   28.70    9.40
   4   4   0   17.70    1.60
   3  -5   0  604.34   48.00
  -5  -3   0  612.34   33.50
  -5  -3   0  628.54   68.79
   3  -5   0  662.23   46.00
   5   3   0  670.03   46.40
   5   3   0  647.34   32.90
  -3   5   0  652.83   53.19
  -5  -1   0 1948.80  138.99
   5   1   0 2384.56   78.29
   1  -5   0 2390.16   84.99
   1  -5   0 2200.68  104.69
  -1   5   0 2288.27  104.19
  -5  -1   0 2404.36   92.59
   5   1   0 2413.76  104.19
   1  -5   0 2349.96   99.79
   5  -1   0 1881.81   72.19
  -5   1   0 1856.51   88.79
  -1  -5   0 1929.31   86.89
   1   5   0 1918.01   81.59
   5  -1   0 1896.51   89.99
  -5   1   0 1842.92  120.69
  -1  -5   0 1877.81   93.09
  -1  -5   0 1882.61   85.29
  -3  -5   0 3202.68  114.39
   3   5   0 3173.88  120.49
  -3  -5   0 3216.98  131.19
  -5   3   0 3381.96  154.38
   5  -3   0 3059.59  133.09
   5  -3   0 3211.48  124.99
  -5   3   0 3031.40  141.99
  -3  -5   0 2833.72  156.08
  -5  -5   0 3860.61  134.59
   5  -5   0 3828.22  159.08
  -5  -5   0 3804.02  159.58
  -5  -5   0 3393.36  202.98
  -5   5   0 3913.21  175.58
  -5   5   0 3805.02  147.09
   5  -5   0 3886.91  161.88
   5   5   0 3967.60  136.99
   4  -6   0 2473.65  121.69
  -6  -4   0 2355.76   92.19
   6   4   0 2440.06  116.19
   6   4   0 2456.25   90.69
  -4   6   0 2272.77  124.99
  -6  -4   0 2215.18  159.68
  -2   6   0 4785.72  194.58
   2  -6   0 4565.34  187.08
   6   2   0 4903.71  186.88
   6   2   0 5014.50  150.28
   2  -6   0 5005.30  184.38
  -6  -2   0 4227.28  241.88
  -6  -2   0 4704.23  165.48
   6   0   0  762.72   52.29
  -6   0   0  794.02   77.49
   6   0   0  763.62   36.40
   0   6   0  730.93   49.99
   0  -6   0  803.92   55.99
   0  -6   0  712.93   48.00
  -6   0   0  783.12   47.90
   0  -6   0  772.02   43.10
   6  -2   0  268.27   23.10
  -2  -6   0  297.87   32.40
  -6   2   0  333.47   39.00
   2   6   0  281.47   26.60
  -6   2   0  310.87   33.00
  -2  -6   0  267.37   26.90
  -2  -6   0  274.17   27.10
   6  -2   0  264.37   28.80
   6  -4   0 1165.38   67.59
  -4  -6   0 1070.29   67.39
  -6   4   0 1225.38   74.59
   6  -4   0 1085.59   70.49
  -4  -6   0 1042.50   86.89
  -4  -6   0 1074.19   53.39
  -6   4   0 1054.59   77.29
   4   6   0 1077.19   58.89
  -6  -6   0  250.07   30.60
   6   6   0  318.87   26.10
  -6  -6   0  241.88   45.40
  -6  -6   0  260.57   20.70
   6  -6   0  289.77   32.40
   6  -6   0  227.88   28.60
  -6   6   0  292.67   37.90
   7   5   0 1692.03   97.09
  -7  -5   0 1547.45   70.09
  -5   7   0 1579.74  105.49
   7   5   0 1675.63   71.69
  -7  -5   0 1545.05  132.29
   5  -7   0 1534.65   92.79
   5  -7   0 1653.13   99.99
   7   3   0 2463.25   87.79
   3  -7   0 2327.77  124.29
  -3   7   0 2475.65  129.99
  -7  -3   0 2443.76   97.09
   3  -7   0 2373.56  114.59
   7   3   0 2392.56  118.09
  -7  -3   0 2133.89  161.08
   1  -7   0 2583.84   96.49
  -7  -1   0 2552.94  107.99
  -7  -1   0 2510.65  169.48
   7   1   0 2689.63   90.29
   1  -7   0 2565.14  126.39
   7   1   0 2490.85  120.79
   1  -7   0 2319.47  116.69
  -1   7   0 2500.65  122.19
  -1  -7   0 2069.49  103.79
   7  -1   0 1936.71  103.99
  -7   1   0 2204.08  143.19
  -1  -7   0 2164.08  102.29
  -7   1   0 1978.30  100.69
  -1  -7   0 2064.39  100.99
   1   7   0 2048.20   97.39
   7  -1   0 2072.19   81.99
  -3  -7   0 3128.49  124.69
   3   7   0 3334.37  138.19
   3   7   0 3264.17   97.49
  -7   3   0 3080.89  152.38
  -3  -7   0 3002.60  160.68
  -3  -7   0 3332.27  144.89
   7  -3   0 3228.28  147.89
   7  -3   0 3203.78  130.79
  -7   3   0 3394.96  169.98
  -5  -7   0 3493.05  203.68
   5   7   0 3974.70  151.78
   7  -5   0 4007.90  165.58
   7  -5   0 4015.40  177.58
  -7   5   0 4038.60  170.28
  -5  -7   0 3830.32  143.59
  -7   5   0 3891.21  188.28
  -5  -7   0 4066.19  175.08
  -8  -6   0  142.79   15.30
   6  -8   0  251.27   32.80
   8   6   0  161.18   15.90
   8   6   0  153.48   28.70
  -6   8   0  154.68   31.20
  -8  -6   0  173.28   44.00
   6  -8   0  188.18   26.70
   4  -8   0   27.00    8.20
  -8  -4   0   34.10    1.80
  -2   8   0   31.90    9.90
   2  -8   0   26.30    3.10
   8   2   0   28.40    9.70
   0  -8   0  695.23   53.69
   0  -8   0  746.73   60.79
   0   8   0  699.63   55.19
   8   0   0  726.83   38.60
  -8   0   0  781.42   81.89
   0  -8   0  800.02   46.00
  -8   0   0  736.83   51.09
   8   0   0  748.33   59.19
  -2  -8   0 2493.25  126.09
  -8   2   0 2352.66  122.09
  -8   2   0 2482.85  150.18
  -2  -8   0 2318.57  116.09
   8  -2   0 2357.36  123.29
   8  -2   0 2353.56  100.39
   2   8   0 2374.06  109.89
  -2  -8   0 2326.37  115.29
  -8   4   0 1155.78   80.59
   4   8   0 1022.70   41.20
  -4  -8   0 1029.60   57.29
   8  -4   0 1059.19   75.79
  -4  -8   0 1076.59   73.29
  -4  -8   0 1114.19   87.79
   8  -4   0 1053.39   65.29
   4   8   0 1056.89   66.79
  -8   4   0 1004.30   79.49
  -6  -8   0  243.28   21.80
  -6  -8   0  274.87   42.10
  -8   6   0  213.58   36.60
  -6  -8   0  261.47   33.40
   8  -6   0  223.48   30.60
   8  -6   0  295.27   30.80
   6   8   0  286.67   27.70
   8  -8   0  973.40   74.79
  -8  -8   0  861.61   97.59
   8  -8   0  904.81   74.19
   8   8   0  851.81   76.59
   8   8   0  892.31   56.39
  -8   8   0  824.72   80.49
   7  -9   0  902.81   73.39
   7  -9   0  900.81   76.29
  -9  -7   0  941.21  105.99
   9   7   0  885.51   76.89
  -7   9   0  909.11   83.39
   9   5   0 3732.13  181.08
  -9  -5   0 3967.30  145.09
   5  -9   0 3779.22  176.68
  -5   9   0 3626.24  190.58
  -9  -5   0 3500.15  234.78
   5  -9   0 3821.82  186.78
  -9  -3   0 1756.02  150.28
   3  -9   0 1668.53   99.39
   9   3   0 1743.93  106.59
   3  -9   0 1801.92  114.89
  -3   9   0 1863.01  116.69
  -9  -3   0 1703.73   83.29
  -9  -1   0 1590.14  133.39
   9   1   0 1462.25   62.59
   1  -9   0 1433.56   87.49
  -1   9   0 1468.65   95.89
   1  -9   0 1455.55   98.29
   9   1   0 1416.46   91.79
  -9  -1   0 1407.86   78.19
   1   9   0  726.83   57.19
  -1  -9   0  781.12   59.59
   9  -1   0  763.62   44.30
  -1  -9   0  761.22   62.49
   9  -1   0  736.83   61.79
  -1  -9   0  820.12   53.69
  -9   1   0  713.93   56.19
  -9   1   0  902.21   86.99
  -9   3   0  453.75   49.00
  -9   3   0  355.76   41.80
  -3  -9   0  390.06   41.20
   3   9   0  374.36   40.50
   3   9   0  393.96   35.30
   9  -3   0  346.07   30.40
   9  -3   0  363.66   41.40
  -3  -9   0  380.16   40.80
   5   9   0 1348.17   79.69
   5   9   0 1306.07   53.79
  -5  -9   0 1228.88   86.79
   9  -5   0 1457.95   83.89
   9  -5   0 1336.07   92.99
  -9   5   0 1433.96  103.59
  -5  -9   0 1335.67  105.19
   9  -7   0 1906.01  118.89
  -7  -9   0 1793.92  116.29
   7   9   0 1887.31   98.59
  -7  -9   0 1954.90  148.29
  -9   7   0 1856.61  128.49
   9  -7   0 1960.00  112.99
   9   9   0  676.23   68.89
   9  -9   0  643.14   63.09
   9  -9   0  665.53   62.09
  -9   9   0  662.83   71.79
  -9  -9   0  697.13   86.79
 -10  -8   0  163.98   41.70
  -8  10   0  148.49   32.00
  10   8   0  184.98   35.70
   8 -10   0  153.68   28.20
   8 -10   0  111.19   24.10
  10   6   0  125.79   28.30
 -10  -6   0  171.08   47.10
   6 -10   0  144.29   19.60
   6 -10   0  118.09   28.10
  -6  10   0  131.69   30.50
 -10  -4   0  553.64   40.20
  10   4   0  584.04   59.09
  -4  10   0  606.54   62.99
 -10  -4   0  530.35   76.69
   4 -10   0  595.74   55.59
   4 -10   0  633.44   66.39
   2 -10   0 3067.69  164.98
   2 -10   0 2948.61  153.78
  -2  10   0 3173.08  166.28
 -10  -2   0 3044.00  132.99
 -10  -2   0 3211.48  212.68
  10   2   0 3122.09  157.38
   0 -10   0 1715.63  102.79
   0 -10   0 1760.82  112.29
 -10   0   0 2070.79  151.58
  10   0   0 1742.63  109.49
 -10   0   0 1728.03   96.69
   0  10   0 1743.13  107.29
  -2 -10   0  464.15   40.50
  -2 -10   0  479.45   48.40
  10  -2   0  410.56   46.00
  -2 -10   0  406.76   43.50
 -10   2   0  467.45   46.50
 -10   2   0  530.55   57.69
   2  10   0  436.36   42.30
  -4 -10   0   40.50   11.90
   4  10   0   34.10    4.40
  10  -4   0   36.80    3.00
   4  10   0   45.70    4.60
 -10   4   0   56.69    7.40
 -10   6   0  227.08   38.40
   6  10   0  219.68   26.20
  10  -6   0  218.08   26.10
  -6 -10   0  203.28   29.00
  10  -6   0  251.17   33.90
  -6 -10   0  233.98   32.70
  -8 -10   0   80.29    7.00
  10  -8   0   56.39    3.10
 -10   8   0   57.49    7.10
 -10  10   0   75.29    7.20
  10 -10   0   71.89    4.00
  10  10   0   50.59   12.30
  -9  11   0 1567.24  126.59
   9 -11   0 1567.44  110.89
  11   9   0 1446.06  116.09
 -11  -9   0 1430.56  144.49
   9 -11   0 1508.25  111.89
  11   7   0  872.01   81.39
   7 -11   0  845.92   79.09
   7 -11   0  835.32   71.09
 -11  -7   0  790.32  101.09
  -7  11   0  800.92   81.29
   5 -11   0   33.70    2.50
 -11  -3   0   64.79   18.40
  11   3   0   40.80    5.50
   3 -11   0   55.69   16.50
 -11  -3   0   27.20    2.30
  -1  11   0   25.80    3.40
   1 -11   0   32.10    9.10
  11   1   0   22.30    2.20
   1  11   0  536.35   52.49
  11  -1   0  525.15   57.49
  -1 -11   0  569.04   54.29
 -11   1   0  590.74   51.89
  -1 -11   0  614.44   58.89
 -11   1   0  654.53   72.59
  11  -3   0  161.08   30.60
   3  11   0  115.89   26.30
   3  11   0  138.59   18.50
  -3 -11   0  151.48   19.50
  -3 -11   0  158.08   28.80
 -11   3   0  139.49   25.90
 -11   3   0  144.59   20.60
  11  -5   0 1279.77   98.29
  -5 -11   0 1254.87   93.09
   5  11   0 1262.77   83.89
  -5 -11   0 1287.47   98.69
 -11   5   0 1214.28   97.49
  -7 -11   0 2640.84  156.98
   7  11   0 2721.73  135.79
 -11   7   0 2678.03  166.78
  11  -7   0 2792.42  160.98
  -7 -11   0 2902.91  184.48
 -11   9   0   53.19    5.60
 -11  11   0  113.89    9.30
 -11 -11   0  148.49   14.90
  11  11   0  101.89   12.20
  10 -12   0 1143.39   99.39
 -12 -10   0 1409.36  142.99
 -10  12   0 1334.67  114.99
  10 -12   0 1162.28   97.09
  12  10   0 1289.77  109.79
 -12  -8   0  108.29   13.10
   8 -12   0  113.79   13.90
  -8  12   0  131.89   29.50
   8 -12   0   66.89    6.40
  12   8   0  100.39   24.60
 -12  -6   0 2927.41  225.98
  -6  12   0 3005.30  182.18
   6 -12   0 3077.69  179.78
  12   6   0 3050.69  179.28
   6 -12   0 2968.50  165.78
   4 -12   0   74.79    5.80
 -12  -4   0   77.59   24.50
  12   4   0   64.39   18.20
   4 -12   0   65.19    8.70
  -4  12   0   82.59   21.00
   2 -12   0 1154.98   95.79
   2 -12   0 1200.98   87.99
  -2  12   0 1094.99   91.29
 -12  -2   0 1075.19   70.19
 -12  -2   0 1117.79  116.79
  12   2   0 1111.69   91.19
 -12   0   0   61.99    4.20
  12   0   0   45.70    5.40
   0 -12   0   54.29    7.00
   0  12   0   43.00    4.30
  12  -2   0   68.69   16.60
 -12   2   0   77.19   10.30
 -12   2   0   77.39   18.50
   2  12   0   53.89   12.20
  -2 -12   0   84.99   11.30
  -4 -12   0 1641.84  111.49
   4  12   0 1556.34  101.79
  12  -4   0 1589.94  114.59
 -12   4   0 1596.94  112.69
  12  -6   0   36.50    2.90
  -6 -12   0   54.99    4.50
  -6 -12   0   46.40    3.40
 -12   6   0   55.09    5.00
  12  -8   0 2333.57  148.49
  -8 -12   0 2399.56  151.88
  -8 -12   0 2239.18  163.68
 -12   8   0 2103.59  148.29
  12 -10   0  301.27   37.50
  10  12   0  287.77   39.50
 -10 -12   0  354.56   49.50
 -12  10   0  330.97   43.90
   9 -13   0  303.17   36.60
 -13  -9   0  492.75   65.39
  -9  13   0  341.17   44.60
  13   9   0  384.76   48.70
   9 -13   0  226.58   44.10
  13   7   0  182.38   37.20
  -7  13   0  230.58   41.30
 -13  -7   0  200.38   46.10
   7 -13   0  225.78   29.90
   7 -13   0  188.18   24.50
   5 -13   0   63.59    4.70
 -13  -5   0   56.69    5.10
  13   5   0   48.20   13.40
   3 -13   0  638.24   61.19
  -3  13   0  593.74   64.39
  13   3   0  591.94   63.89
 -13  -3   0  642.44   85.49
   3 -13   0  552.94   64.49
  -1  13   0    5.30    2.90
  -1 -13   0 1070.99   90.29
  13  -1   0 1033.00   90.39
 -13   1   0 1120.39  104.69
 -13   1   0 1060.19   80.69
  -1 -13   0 1147.19   87.99
   1  13   0 1064.89   86.49
  13  -3   0 1666.83  120.29
  -3 -13   0 1680.13  114.79
 -13   3   0 1520.55  106.69
   3  13   0 1665.33  114.19
   5  13   0  176.28   22.30
  -5 -13   0  187.38   24.20
  13  -5   0  213.98   38.50
 -13   5   0  230.58   29.10
  13  -7   0  283.77   38.10
 -13   7   0  320.57   39.80
  -7 -13   0  230.98   32.70
  -7 -13   0  281.57   36.80
   9  13   0  134.69   28.30
  13  -9   0  124.79   17.00
  -9 -13   0  181.78   22.10
 -13   9   0  142.79   16.90
 -14  -6   0  876.71  106.59
  14   6   0  841.42   85.59
   6 -14   0  727.63   75.89
  -6  14   0  928.01   87.59
   6 -14   0  940.71   88.39
 -14  -4   0   90.29    9.40
  14   4   0   73.89   10.70
   4 -14   0   65.89    5.60
  -4  14   0   58.29    7.70
   4 -14   0   82.39    6.20
   2 -14   0  284.57   36.60
  -2  14   0  204.68   38.30
 -14  -2   0  349.57   49.30
  14   2   0  339.17   45.00
   2 -14   0  275.77   46.50
 -14   0   0 3910.71  239.08
   0  14   0 3838.02  203.38
  14   0   0 3746.03  208.18
   0 -14   0 3544.65  199.08
   0 -14   0 3666.83  195.68
 -14   0   0 3643.84  177.48
  -2 -14   0  330.37   39.90
  14  -2   0  298.67   41.70
   2  14   0  342.87   44.80
 -14   2   0  292.57   33.30
 -14   2   0  195.58   40.40
   4  14   0 1603.64  112.79
  -4 -14   0 1851.41  125.69
  14  -4   0 1764.12  129.49
 -14   4   0 1776.12  121.49
  -6 -14   0   48.40    3.50
   5 -15   0   52.89    7.00
 -15  -5   0   72.79    5.80
   5 -15   0   51.99    4.50
  15   5   0   64.09    6.10
   3 -15   0   -1.60    2.90
   1 -15   0   68.09    4.20
   1 -15   0   49.80    3.50
   1  15   0  100.69   20.80
  15  -1   0   61.09    7.10
 -15   1   0   49.20    7.10
  -1 -15   0   56.89    7.60
  15  -3   0  239.88   31.20
 -15   3   0  252.07   31.40
   3  15   0  197.58   26.10
  -3 -15   0  208.58   29.10
 -15   5   0    4.00    3.80
  16   0   0  790.42   80.49
   0  16   0  727.93   77.09
 -16   0   0  648.14   86.99
   0 -16   0  866.31   78.19
   0  -1  -1 1029.10   44.10
   0  -1  -1 1035.90   42.90
  -1   0  -1 1103.99   44.90
   1   0  -1 1091.39   43.50
  -1   0  -1 1062.59   38.50
   1   0  -1 1159.78   42.50
   0   1  -1 1058.19   42.10
   0   1  -1 1102.79   41.60
   0   1   1 1097.39   50.09
   0  -1   1 1074.99   49.20
  -1   0   1 1133.59   52.19
   1   0   1 1094.49   44.90
   1   0   1 1028.60   49.60
   0  -1   1 1124.79   45.00
  -1   0   1 1131.09   40.80
   0   1   1 1089.99   41.40
   1  -2  -1 1651.23   67.09
  -2  -1  -1 1627.64   65.09
  -1   2  -1 1638.24   65.99
  -2  -1  -1 1563.94   76.19
   1  -2  -1 1752.22   58.09
   1  -2  -1 1587.74   65.49
  -2  -1  -1 1659.33   54.59
  -1   2  -1 1601.44   61.09
   2   1  -1 1595.04   61.69
  -2  -1   1 1663.23   64.79
  -2  -1   1 1653.63   55.99
  -2  -1   1 1496.05   58.89
   2   1   1 1674.33   65.59
  -2  -1   1 1608.04   79.59
   1  -2   1 1514.25   68.39
   1  -2   1 1721.33   65.69
  -1   2   1 1664.73   69.29
   2  -1  -1 1629.74   60.69
  -1  -2  -1 1537.05   72.19
  -2   1  -1 1632.44   55.29
   1   2  -1 1699.13   54.99
   1   2  -1 1641.74   63.29
   2  -1  -1 1633.74   63.99
  -2   1  -1 1664.73   67.69
  -1  -2  -1 1548.84   64.09
  -1  -2  -1 1481.15   61.69
   2  -1   1 1616.04   70.29
  -2   1   1 1605.34   60.29
  -2   1   1 1607.04   71.99
  -2   1   1 1590.14   65.59
   2  -1   1 1678.23   70.99
  -1  -2   1 1658.23   66.79
  -1  -2   1 1554.64   74.69
   2  -3  -1 4135.69  135.79
  -3  -2  -1 3790.02  120.39
   3   2  -1 3912.41  129.39
   2  -3  -1 3984.60  140.99
  -3  -2  -1 3744.83  165.68
  -2   3  -1 3985.20  150.58
  -3  -2  -1 3926.31  136.69
   2  -3   1 3833.52  134.19
  -2   3   1 4083.29  143.79
   3   2   1 4002.60  142.39
  -3  -2   1 3358.06  170.78
  -3  -2   1 4245.08  144.29
   2  -3   1 4144.09  137.39
  -2   3   1 3807.32  125.59
   2  -3   1 3474.05  146.59
   3   0  -1 2441.06   92.29
   0  -3  -1 2523.85   86.99
   0   3  -1 2370.06   90.19
  -3   0  -1 2428.16   94.49
   0  -3  -1 2323.17   95.39
   0   3  -1 2525.05   94.09
  -3   0  -1 2455.75   75.99
   0  -3  -1 2608.84   96.49
   3   0  -1 2432.26   87.59
  -3   0  -1 2485.95  110.29
   0  -3   1 2508.25   99.29
   3   0   1 2462.25   98.89
  -3   0   1 2355.36  111.79
   0   3   1 2481.55   98.69
   0  -3   1 2512.55   97.59
  -3   0   1 2318.07   91.49
  -3   2  -1 3497.95  136.29
  -3   2  -1 3676.43  133.89
  -2  -3  -1 3756.52  129.49
   3  -2  -1 3550.34  126.79
   3  -2  -1 3798.82  129.29
  -2  -3  -1 3542.35  149.49
  -2  -3  -1 3328.87  121.29
  -2  -3  -1 3813.42  128.39
   3  -2   1 3528.25  118.39
  -3   2   1 3348.17  134.09
  -2  -3   1 3241.88  157.78
  -3   2   1 3682.53  141.49
  -2  -3   1 3696.53  134.49
   3  -2   1 3568.44  139.29
   4   3  -1 1550.04   66.49
  -3   4  -1 1555.74   86.49
   3  -4  -1 1462.55   77.39
   3  -4  -1 1469.95   67.89
  -4  -3  -1 1422.96   95.39
  -4  -3  -1 1441.86   66.69
  -4  -3  -1 1549.74   56.39
   3  -4   1 1499.75   75.09
  -4  -3   1 1485.25   74.59
   3  -4   1 1332.27   76.29
  -4  -3   1 1389.86  106.09
  -3   4   1 1558.04   81.09
   4   3   1 1573.84   74.29
  -4  -3   1 1485.45   49.60
   3  -4   1 1493.25   58.49
  -3   4   1 1533.05   68.29
   4   1  -1 7302.57  217.28
   1  -4  -1 6593.34  234.28
  -1   4  -1 6690.63  245.38
   4   1  -1 6994.10  239.08
  -4  -1  -1 6293.77  272.47
  -4  -1  -1 7223.58  233.48
  -1   4  -1 6837.52  229.88
   1  -4  -1 7529.35  231.98
  -4  -1   1 6508.85  280.77
  -1   4   1 7737.63  243.78
   1  -4   1 7375.86  242.28
   4   1   1 7245.38  243.88
   1  -4   1 7261.27  245.18
  -4  -1   1 6641.74  223.38
  -1  -4  -1   81.49   11.20
  -1  -4  -1  101.79   13.20
  -4   1  -1   79.39   13.10
   4  -1  -1   84.59   10.90
  -1  -4  -1   80.89    9.50
  -4   1  -1   82.69   12.90
   4  -1  -1   90.69   11.20
   1   4  -1   81.59   13.20
   1   4  -1   97.29   10.00
  -1  -4  -1   70.89   12.20
  -1  -4   1   78.59   11.70
   4  -1   1   86.29    7.00
  -4   1   1   80.79   15.60
   4  -1   1   66.39   12.90
  -4   1   1   74.89   12.90
  -1  -4   1  105.89   14.50
  -3  -4  -1 3444.96  160.28
   4  -3  -1 3656.93  135.09
  -3  -4  -1 3771.12  126.29
   3   4  -1 3222.98  114.69
  -3  -4  -1 3614.04  135.59
  -4   3  -1 3504.65  148.39
  -4   3  -1 3410.96  132.09
   3   4  -1 3621.04  128.59
   4  -3  -1 3672.83  134.59
  -3  -4  -1 3561.24  129.59
   4  -3   1 3301.47  128.49
  -4   3   1 3638.04  144.99
  -4   3   1 3402.26  145.59
  -3  -4   1 3121.39  177.68
  -3  -4   1 3127.39  137.19
   4  -3   1 3871.51  149.99
   4  -5  -1  347.07   35.60
   5   4  -1  290.57   26.10
   4  -5  -1  311.27   27.50
   5   4  -1  332.87   26.40
  -5  -4  -1  292.87   25.20
  -4   5  -1  360.76   40.10
  -5  -4  -1  321.97   44.30
  -5  -4   1  378.26   55.59
  -5  -4   1  333.17   15.80
  -5  -4   1  338.37   32.90
   4  -5   1  330.47   33.40
   5   4   1  333.47   21.40
  -4   5   1  327.17   25.10
   4  -5   1  324.67   33.80
  -4   5   1  308.17   34.60
   4  -5   1  311.37   17.10
   5   4   1  337.47   32.10
   5   2  -1  339.47   25.10
   5   2  -1  311.77   29.60
   2  -5  -1  318.97   24.90
  -5  -2  -1  386.86   46.90
  -2   5  -1  391.86   38.00
   2  -5  -1  376.06   35.70
  -5  -2  -1  313.47   26.20
  -2   5   1  303.67   31.70
  -2   5   1  341.47   23.40
   5   2   1  353.96   14.50
  -5  -2   1  333.27   46.50
  -5  -2   1  326.67   19.30
   5   2   1  329.47   30.70
   2  -5   1  359.86   32.80
   2  -5   1  340.37   31.60
   2  -5   1  383.56   21.00
   0  -5  -1  338.97   24.60
   0   5  -1  300.77   28.90
  -5   0  -1  310.97   37.40
   0   5  -1  350.46   30.60
   0  -5  -1  335.17   28.70
  -5   0  -1  268.07   25.60
   5   0  -1  289.57   23.10
   0  -5  -1  295.57   29.70
   5   0  -1  288.37   26.20
  -5   0   1  349.47   40.80
  -5   0   1  322.07   26.70
   0   5   1  293.57   25.20
   5   0   1  319.57   30.50
   0  -5   1  289.27   27.60
  -2  -5  -1   31.70    4.00
   5  -2  -1   30.60    8.00
  -2  -5  -1   28.80    3.60
   2   5  -1   23.00    6.50
  -2  -5  -1   28.80    3.90
   5  -2  -1   30.70    4.30
  -2  -5  -1   30.70    4.50
  -5   2  -1   24.00    7.40
  -5   2  -1   45.70    4.80
   2   5  -1   28.60    3.20
  -2  -5   1   47.80    6.70
  -5   2   1   34.60    4.00
   5  -2   1   36.00    3.50
  -2  -5   1   24.00    8.10
   5  -2   1   33.70    9.70
  -5   2   1   38.60    5.20
  -4  -5  -1  227.98   24.20
   4   5  -1  241.08   14.60
   5  -4  -1  225.78   23.50
  -5   4  -1  274.17   33.00
   4   5  -1  226.38   23.10
  -4  -5  -1  229.08   31.70
   5  -4  -1  252.57   27.80
  -5   4  -1  249.68   19.70
  -4  -5  -1  217.68   20.90
  -4  -5  -1  224.88   20.40
  -5   4   1  228.08   29.00
  -5   4   1  242.38   24.00
   5  -4   1  187.78   25.00
   5  -4   1  235.58   23.60
  -4  -5   1  238.18   26.70
  -4  -5   1  292.87   44.40
  -6  -5  -1 3583.64  210.68
   6   5  -1 4214.88  147.49
  -6  -5  -1 3970.10  149.49
   5  -6  -1 3828.72  168.38
  -5   6  -1 3701.03  184.88
   5  -6  -1 3940.61  161.78
   6   5   1 3915.61  168.08
  -6  -5   1 3551.94  232.78
  -5   6   1 3928.91  181.98
   6   5   1 4043.60  134.09
   5  -6   1 3563.24  167.88
   5  -6   1 3981.20  176.78
  -6  -5   1 4086.79  170.58
  -5   6   1 3938.61  155.48
  -6  -5   1 3842.82  126.19
  -6  -3  -1  554.44   38.40
   6   3  -1  529.25   44.80
  -6  -3  -1  532.35   66.99
  -3   6  -1  630.14   56.29
   3  -6  -1  574.14   49.40
   6   3  -1  542.15   35.90
   3  -6  -1  509.95   38.30
   3  -6   1  517.35   44.90
   3  -6   1  560.84   48.70
  -6  -3   1  550.94   69.49
  -3   6   1  557.54   32.70
   6   3   1  540.45   24.50
  -3   6   1  532.45   47.80
   6   3   1  524.55   44.30
  -6  -3   1  542.45   27.20
   6   1  -1 7886.41  280.37
   1  -6  -1 7560.04  274.07
   6   1  -1 8336.27  249.08
   1  -6  -1 9017.40  276.87
  -1   6  -1 7344.77  288.07
  -6  -1  -1 8043.80  271.07
   6   1   1 8274.17  288.97
   1  -6   1 6614.04  281.07
   1  -6   1 7610.34  270.87
  -1   6   1 8076.89  281.07
   1  -6   1 8420.96  286.67
  -6  -1   1 8098.49  261.47
  -6  -1   1 7615.04  350.26
  -1   6   1 8564.14  277.47
   6  -1  -1  889.51   56.09
  -1  -6  -1  896.11   55.69
   1   6  -1  916.21   57.19
  -1  -6  -1  927.81   55.09
  -6   1  -1  825.72   56.29
  -6   1  -1  884.01   70.79
  -1  -6  -1  894.91   51.59
   6  -1  -1  898.61   50.19
   1   6  -1  941.41   58.59
  -1  -6  -1  909.91   59.09
  -6   1   1  930.61   78.29
  -6   1   1  847.32   56.29
  -1  -6   1  903.81   69.79
   6  -1   1  971.60   63.59
   6  -1   1  861.01   39.00
  -1  -6   1  910.61   58.49
   3   6  -1  130.99   12.90
  -3  -6  -1  123.89   15.00
   6  -3  -1  134.19   16.80
  -3  -6  -1  104.19   14.50
  -3  -6  -1  114.69   15.00
  -6   3  -1  132.39   22.60
   6  -3  -1  127.59   16.50
  -6   3  -1  151.48   17.00
  -3  -6  -1   89.89   19.20
   3   6  -1   98.09   17.30
   6  -3   1  102.89   11.20
  -6   3   1  112.29   15.40
  -3  -6   1  168.98   33.40
  -6   3   1  102.29   19.30
  -3  -6   1  125.29   18.30
   6  -3   1   94.69   19.90
  -6   5  -1 1492.35  100.69
  -6   5  -1 1482.35   68.39
   6  -5  -1 1480.15   83.59
   5   6  -1 1571.54   59.99
  -5  -6  -1 1567.74   75.79
   6  -5  -1 1553.64   89.89
   5   6  -1 1514.85   78.09
  -5  -6  -1 1643.34  114.69
  -5  -6   1 1567.14  132.99
  -6   5   1 1583.64   89.09
  -6   5   1 1491.65   97.09
  -5  -6   1 1393.36   85.49
   6  -5   1 1369.36   84.49
   6  -5   1 1522.15   92.69
   6  -7  -1  178.78   21.50
  -7  -6  -1  157.98   38.50
   6  -7  -1  169.58   29.40
   7   6  -1  163.48   18.10
  -6   7  -1  177.88   33.70
  -7  -6  -1  162.68   17.60
   6  -7   1  197.18   23.80
  -6   7   1  142.99   28.60
   7   6   1  114.79   12.90
   6  -7   1   94.09   22.80
  -7  -6   1  193.98   48.70
   7   6   1  174.08   25.50
  -7  -6   1  116.99   23.60
   7   4  -1  566.14   49.90
  -4   7  -1  540.95   55.99
   7   4  -1  531.45   36.70
   4  -7  -1  527.75   50.09
   4  -7  -1  518.65   41.10
  -7  -4  -1  549.65   39.70
  -7  -4  -1  552.74   71.39
  -7  -4   1  580.44   77.59
   4  -7   1  576.04   53.59
  -4   7   1  492.45   51.09
   7   4   1  540.45   27.00
   4  -7   1  555.74   50.39
   7   4   1  469.55   44.90
  -7  -4   1  508.15   27.10
  -4   7   1  560.94   33.40
  -7  -2  -1  755.02   49.99
  -7  -2  -1  562.74   71.59
   2  -7  -1  789.12   61.49
   7   2  -1  746.13   55.49
   7   2  -1  767.72   44.20
  -2   7  -1  865.91   67.09
   2  -7  -1  752.12   48.70
  -2   7   1  797.32   60.69
   7   2   1  721.13   55.89
   2  -7   1  848.02   63.99
  -2   7   1  785.42   42.40
  -7  -2   1  758.02   40.90
   2  -7   1  807.82   58.89
  -7  -2   1  859.21   92.39
  -7   0  -1  153.38   20.00
   0  -7  -1  146.09   17.80
   0  -7  -1  181.78   28.10
   7   0  -1  156.38   16.70
  -7   0  -1  136.09   31.80
   0   7  -1  166.18   27.20
   0   7  -1  201.88   23.20
   7   0  -1  142.69   20.00
   0  -7   1  209.38   22.60
  -7   0   1  193.38   40.60
   0   7   1  173.48   12.40
   0   7   1  160.48   17.40
   0  -7   1  139.39   20.90
  -7   0   1  187.48   20.70
   0   7   1  144.49   24.60
   7   0   1  179.98   25.30
  -7   2  -1 3527.65  156.98
  -2  -7  -1 3696.23  146.09
   2   7  -1 3491.95  145.99
  -2  -7  -1 3624.54  160.88
   2   7  -1 3457.65  147.49
  -2  -7  -1 3624.04  147.79
   7  -2  -1 3698.73  154.08
   7  -2  -1 3692.03  138.29
  -2  -7  -1 3590.64  150.78
  -7   2  -1 3347.06  172.18
  -2  -7   1 3524.65  154.78
   7  -2   1 3645.84  162.48
  -2  -7   1 3446.56  185.48
  -7   2   1 3535.85  192.48
  -7   2   1 3325.97  155.48
  -4  -7  -1 1585.94   82.29
  -4  -7  -1 1679.03   91.49
  -4  -7  -1 1780.72   86.09
   4   7  -1 1763.22   76.49
   7  -4  -1 1743.13   92.09
   4   7  -1 1667.13   86.29
  -7   4  -1 1620.54  104.19
  -4  -7  -1 1830.82  113.59
  -7   4  -1 1773.42   92.49
   7  -4  -1 1638.44   91.69
  -4  -7   1 1570.64   93.99
  -7   4   1 1651.43  102.59
  -4  -7   1 1729.93  133.19
   7  -4   1 1699.83  101.59
   7  -4   1 1390.46   82.79
  -7   4   1 1830.72  112.89
   7  -6  -1   46.00   12.10
   6   7  -1   61.59    7.20
  -7   6  -1   41.50   15.00
  -6  -7  -1  100.09   27.70
   7  -6  -1   51.39    6.30
  -6  -7  -1   62.89    6.50
   6   7   1   58.49    6.60
  -6  -7   1   37.70    9.60
  -6  -7   1   54.39    5.40
  -7   6   1   67.09   18.80
   7  -6   1   50.59   15.50
   6   7   1   52.79   15.30
  -7   8  -1  183.18   36.30
   7  -8  -1  152.98   22.00
   8   7  -1  154.88   16.80
  -8  -7  -1  144.39   16.20
   7  -8  -1  165.78   30.80
  -8  -7  -1  161.48   42.30
  -7   8   1  102.79   23.90
   7  -8   1  169.18   19.80
   7  -8   1  113.49   26.40
  -8  -7   1  188.98   48.40
   8   7   1  132.79   26.70
   5  -8  -1 3099.69  143.19
   8   5  -1 3319.17  156.88
   5  -8  -1 3183.28  157.08
  -5   8  -1 3331.87  176.88
  -8  -5  -1 2913.01  205.88
   8   5  -1 3427.16  129.19
  -8  -5  -1 3100.99  132.09
   5  -8   1 2922.11  157.68
   8   5   1 3232.58  154.88
  -5   8   1 3176.48  167.48
  -8  -5   1 3262.77  228.08
   5  -8   1 2517.15  147.29
   3  -8  -1  454.05   38.80
  -8  -3  -1  305.37   57.19
   8   3  -1  419.46   42.30
  -3   8  -1  471.55   51.09
  -8  -3  -1  475.05   37.80
   8   3  -1  450.25   32.50
   3  -8  -1  496.85   49.50
   8   3   1  512.55   48.30
  -8  -3   1  452.75   28.30
  -8  -3   1  541.95   75.29
   3  -8   1  462.85   49.30
  -3   8   1  421.26   46.00
   3  -8   1  411.36   42.40
   1  -8  -1  142.99   17.10
  -8  -1  -1  113.39   30.80
  -8  -1  -1  157.28   20.20
   8   1  -1  174.18   23.60
   8   1  -1  178.48   17.10
   1  -8  -1  176.18   29.30
  -1   8  -1  190.18   25.50
  -8  -1   1  170.98   17.10
  -1   8   1  163.38   26.20
   8   1   1  136.19   25.00
   1  -8   1   80.79   19.60
   1  -8   1  183.08   29.80
   1  -8   1  116.29   13.90
  -1   8   1  135.79   14.50
  -8  -1   1  147.09   38.10
  -8   1  -1 2805.62  135.39
   8  -1  -1 2888.61  138.19
   1   8  -1 2962.30  138.79
   8  -1  -1 2985.40  118.49
  -8   1  -1 2787.42  169.08
  -1  -8  -1 2949.90  131.89
   1   8  -1 2886.51  139.69
  -1  -8  -1 2851.81  128.29
  -1  -8  -1 2818.82  137.79
  -1  -8   1 2949.80  139.09
  -8   1   1 2826.82  182.48
   1   8   1 2962.70  135.59
   1   8   1 2952.40   87.99
  -8   1   1 2899.11  135.19
   8  -1   1 3047.40  147.19
  -1  -8   1 2863.31  143.29
  -3  -8  -1  270.07   26.60
  -8   3  -1  210.78   28.10
   8  -3  -1  252.37   26.60
  -3  -8  -1  263.57   31.60
   3   8  -1  278.17   26.60
  -8   3  -1  296.47   33.00
   3   8  -1  262.57   30.20
  -3  -8  -1  293.57   31.10
   8  -3  -1  232.98   28.40
  -3  -8  -1  236.28   27.20
  -8   3   1  350.76   40.80
  -8   3   1  271.77   33.50
   8  -3   1  252.07   33.60
  -3  -8   1  245.48   30.90
  -3  -8   1  281.37   36.90
  -5  -8  -1 3230.68  135.69
  -8   5  -1 3163.28  168.28
   8  -5  -1 3233.88  148.79
  -5  -8  -1 3390.76  180.58
   5   8  -1 3153.98  139.59
   8  -5  -1 3168.28  151.08
  -5  -8  -1 3221.08  150.58
   8  -5   1 2851.41  157.48
  -5  -8   1 3084.99  153.38
   8  -5   1 3027.90  143.09
  -8   5   1 3263.77  172.38
  -5  -8   1 2915.41  190.68
  -8   5   1 3166.08  162.88
   8  -7  -1  111.39   23.30
   7   8  -1  131.69   16.10
  -8   7  -1  133.39   29.30
  -7  -8  -1  161.48   37.00
   8  -7  -1  142.19   18.30
  -7  -8  -1  125.39   13.90
  -7  -8   1  111.99   24.40
   7   8   1  102.29   22.90
   8  -7   1  196.38   22.30
   7   8   1  105.49   15.40
  -7  -8   1  147.39   37.60
   8  -7   1   80.69   19.50
  -8   7   1  122.59   28.50
   9   8  -1 2686.83  161.08
   9   8  -1 2788.62  127.99
  -8   9  -1 2918.71  180.48
  -9  -8  -1 2867.41  203.68
   8  -9  -1 3086.09  155.18
   8  -9  -1 2927.31  156.48
   8  -9   1 2735.43  161.28
  -8   9   1 2485.95  162.08
  -9  -8   1 2656.93  205.88
   9   8   1 3023.00  162.58
   8  -9   1 2872.31  157.78
   9   6  -1 2296.67  104.59
  -9  -6  -1 2200.58  105.99
   9   6  -1 2305.17  132.59
   6  -9  -1 2285.77  132.99
   6  -9  -1 2369.36  122.39
  -9  -6  -1 1994.90  169.48
  -6   9  -1 2309.47  148.49
   6  -9   1 2193.38  135.49
   6  -9   1 2248.97  132.59
   9   6   1 2284.57  131.49
  -6   9   1 2255.77  143.39
  -9  -6   1 2236.08  183.98
   9   4  -1  216.68   21.10
   4  -9  -1  214.58   25.50
  -9  -4  -1  175.98   48.50
  -9  -4  -1  234.88   24.10
  -4   9  -1  261.97   41.30
   9   4  -1  235.58   31.80
   4  -9  -1  216.98   36.20
   9   4   1  188.48   32.30
   4  -9   1  213.08   30.20
  -4   9   1  232.58   38.00
  -9  -4   1  170.28   50.09
   4  -9   1  235.38   39.80
   2  -9  -1  277.87   35.50
  -2   9  -1  322.27   38.80
   9   2  -1  300.07   25.00
   2  -9  -1  297.37   30.20
  -9  -2  -1  189.88   45.80
   9   2  -1  278.27   33.90
  -9  -2  -1  272.77   29.00
  -2   9   1  312.67   39.00
  -9  -2   1  288.27   23.90
   2  -9   1  288.37   34.90
   2  -9   1  288.87   38.10
   9   2   1  286.37   36.00
  -9  -2   1  281.87   61.49
   0   9  -1  232.98   37.50
  -9   0  -1  268.27   49.40
  -9   0  -1  218.98   26.40
   9   0  -1  241.18   22.30
   0  -9  -1  258.27   27.30
   0   9  -1  282.17   32.60
   0  -9  -1  263.07   32.90
   9   0  -1  228.18   29.40
  -9   0   1  238.38   23.70
   9   0   1  218.48   32.20
   0   9   1  179.18   20.20
   0  -9   1  206.88   22.10
   0  -9   1  205.38   28.50
  -9   0   1  257.27   51.79
   0   9   1  271.07   33.40
   9  -2  -1   21.70    2.50
   2   9   1    9.40   10.40
   4   9  -1  135.39   24.60
  -9   4  -1  175.68   30.90
   9  -4  -1  158.18   18.10
  -4  -9  -1  161.98   19.30
  -4  -9  -1  165.38   22.30
  -4  -9  -1  156.68   19.50
   9  -4  -1  144.59   20.70
  -9   4  -1  137.59   19.70
  -4  -9  -1  186.88   26.80
   9  -4   1  138.89   28.10
  -4  -9   1  161.48   24.70
  -4  -9   1  125.69   25.90
  -9   4   1  203.68   26.60
  -9   4   1  191.58   31.80
   9  -6  -1 1744.73  103.79
   9  -6  -1 1761.02  107.89
  -6  -9  -1 1806.62  108.89
  -6  -9  -1 1739.33  127.99
   6   9  -1 1818.22   99.89
  -6  -9  -1 1736.63   91.89
  -9   6  -1 1596.04  117.49
  -9   6   1 1743.23  118.59
   6   9   1 1754.02   90.39
   9  -6   1 1735.03  114.69
  -6  -9   1 1754.12  110.29
   9  -6   1 1769.72  103.79
  -6  -9   1 1693.23  137.89
   9  -8  -1 1819.62  113.19
   9  -8  -1 1804.72  111.39
  -9   8  -1 1838.02  131.89
   8   9  -1 1876.21  100.69
  -8  -9  -1 1783.82  145.69
  -8  -9   1 1890.31  159.48
   9  -8   1 1921.91  116.89
  -9   8   1 1770.52  126.09
   8   9   1 1792.62  117.29
   9  -8   1 1623.84  117.79
  -8  -9   1 1793.82  118.99
  10   9  -1  222.58   40.00
   9 -10  -1  215.48   26.30
  -9  10  -1  262.67   45.70
   9 -10  -1  222.18   27.30
 -10  -9  -1  266.67   55.59
  -9  10   1  214.88   39.50
   9 -10   1  231.88   38.70
   9 -10   1  257.47   34.30
 -10  -9   1  284.87   56.79
  10   9   1  213.38   30.90
  -7  10  -1  105.39   26.20
   7 -10  -1  120.39   24.50
   7 -10  -1  111.79   14.30
  10   7  -1  100.69   22.30
 -10  -7  -1  115.19   35.80
  -7  10   1   79.79   20.40
   7 -10   1  124.19   15.00
 -10  -7   1  110.09   14.80
  10   7   1  106.39   24.80
   7 -10   1  118.59   26.30
 -10  -5  -1   66.29   19.50
 -10  -5  -1  115.09   12.10
  10   5  -1   70.79   18.20
   5 -10  -1  102.89   11.80
  -5  10  -1  124.89   28.90
   5 -10  -1  107.89   25.30
  10   5  -1   61.99   12.80
  -5  10   1   78.89   20.50
   5 -10   1   64.39   18.50
   5 -10   1   79.99   19.30
  10   5   1  124.99   27.70
 -10  -5   1  133.09   37.30
  10   3  -1 1563.94   76.39
  -3  10  -1 1523.05  109.39
   3 -10  -1 1546.95  106.59
  10   3  -1 1605.74  104.09
 -10  -3  -1 1319.57  136.19
   3 -10  -1 1655.63   98.99
 -10  -3  -1 1492.75   85.69
  10   3   1 1573.24  103.49
   3 -10   1 1472.15   99.19
 -10  -3   1 1742.83  157.68
  -3  10   1 1533.35  108.29
   3 -10   1 1598.34  111.29
  -1  10  -1  285.17   35.00
 -10  -1  -1  228.68   26.30
   1 -10  -1  222.08   25.70
   1 -10  -1  225.98   36.90
  10   1  -1  219.58   29.80
 -10  -1  -1  272.77   55.59
  10   1  -1  221.48   21.90
 -10  -1   1  207.98   20.80
  10   1   1  219.98   31.60
 -10  -1   1  207.18   52.49
   1 -10   1  172.68   33.40
  -1  10   1  192.48   32.20
   1 -10   1  220.08   30.50
 -10   1  -1 4757.92  208.28
  -1 -10  -1 4914.31  202.88
  -1 -10  -1 4668.23  209.58
  10  -1  -1 4851.91  178.98
   1  10  -1 4955.70  215.68
   1  10  -1 4678.13  209.88
  10  -1  -1 4734.43  212.38
 -10   1  -1 5076.79  258.37
  -1 -10   1 4904.51  214.58
 -10   1   1 4298.07  195.18
 -10   1   1 4821.32  275.37
   1  10   1 4879.21  206.08
  10  -1   1 4793.22  220.08
 -10   3  -1  192.78   32.40
  -3 -10  -1  239.28   30.00
   3  10  -1  267.37   34.70
  10  -3  -1  189.38   27.70
  10  -3  -1  268.27   27.10
  -3 -10  -1  278.87   31.40
 -10   3  -1  287.77   34.40
  -3 -10  -1  250.67   29.90
  -3 -10   1  289.97   33.60
   3  10   1  236.58   35.00
  10  -3   1  240.68   34.40
  -3 -10   1  234.28   31.60
 -10   3   1  295.27   38.40
 -10   3   1  253.27   31.80
   5  10  -1 1108.59   77.39
  10  -5  -1 1113.79   77.19
  -5 -10  -1 1147.89   71.69
  -5 -10  -1 1169.88   95.19
  -5 -10  -1 1167.58   82.79
 -10   5  -1 1043.90   88.09
  10  -5  -1  977.20   78.49
  -5 -10   1 1026.10   81.89
 -10   5   1 1134.59   90.69
  10  -5   1 1053.49   87.19
   5  10   1 1066.49   73.89
  -5 -10   1 1117.59   96.99
   7  10  -1   74.19    7.00
 -10   7  -1   81.99   22.20
  10  -7  -1   71.89    9.30
  -7 -10  -1   77.69    7.70
  10  -7  -1   64.59    8.20
  -7 -10   1   66.09    5.20
 -10   7   1   68.09    9.20
   7  10   1   64.29    8.80
  -7 -10   1   66.19    7.10
  10  -7   1   57.39    6.70
 -10   9  -1   55.69    4.50
 -10   9   1   79.39   21.80
 -10  11  -1 1485.65  123.09
 -11 -10  -1 1433.96  139.49
  11  10  -1 1454.95  117.69
  10 -11  -1 1315.07  100.49
  10 -11  -1 1245.88  100.99
 -11 -10   1 1497.75  145.59
  10 -11   1 1547.95  117.59
 -10  11   1 1361.66  117.79
  11  10   1 1460.75  113.69
  11   8  -1  320.17   43.30
  -8  11  -1  342.97   47.90
   8 -11  -1  317.17   40.90
 -11  -8  -1  328.07   66.29
   8 -11  -1  338.87   36.40
   8 -11   1  277.07   35.40
  -8  11   1  375.96   50.69
 -11  -8   1  381.46   70.79
  11   8   1  325.17   42.40
   8 -11   1  329.57   41.10
   6 -11  -1  133.29   16.70
 -11  -6  -1  206.48   53.39
  -6  11  -1  152.98   31.20
   6 -11  -1  200.38   37.20
  11   6  -1  149.79   30.20
 -11  -6   1  149.49   41.80
   6 -11   1  181.18   23.90
  11   6   1  170.38   33.20
   6 -11   1  134.39   28.60
  -6  11   1  166.58   34.40
 -11  -4  -1  374.36   35.00
  -4  11  -1  448.66   52.59
  11   4  -1  454.55   52.09
   4 -11  -1  399.76   42.20
   4 -11  -1  436.16   51.79
 -11  -4  -1  350.46   70.29
   4 -11   1  405.86   51.29
 -11  -4   1  402.96   74.69
   4 -11   1  352.06   43.00
  11   4   1  379.26   47.40
  -4  11   1  440.46   54.79
 -11  -2  -1  298.97   31.10
   2 -11  -1  297.87   45.50
   2 -11  -1  283.47   32.20
  11   2  -1  293.97   37.40
  -2  11  -1  251.67   33.00
 -11  -2  -1  268.27   57.09
   2 -11   1  295.57   38.70
 -11  -2   1  344.67   65.99
  -2  11   1  304.87   41.60
  11   2   1  277.17   39.00
   2 -11   1  272.77   45.60
  11   0  -1  365.36   44.10
   0  11  -1  435.06   45.00
 -11   0  -1  507.85   64.19
 -11   0  -1  428.46   42.90
   0 -11  -1  431.66   49.90
   0 -11  -1  407.16   41.20
   0  11  -1  370.76   48.80
  11   0   1  391.96   48.40
 -11   0   1  416.26   62.79
 -11   0   1  369.66   34.90
   0  11   1  392.96   45.90
   0 -11   1  397.76   46.10
   2  11  -1 1852.41  114.09
  11  -2  -1 1801.12   94.69
  -2 -11  -1 1748.43  106.79
 -11   2  -1 1778.22  113.29
 -11   2  -1 1895.21  131.19
  -2 -11  -1 1880.91  103.99
  11  -2  -1 1787.92  114.59
  -2 -11  -1 1739.73  111.09
   2  11   1 1761.32  106.59
  -2 -11   1 1656.93  110.59
 -11   2   1 1839.82  109.69
 -11   2   1 1873.51  146.89
  11  -2   1 1705.13  117.09
  -4 -11  -1 2898.21  143.79
 -11   4  -1 2540.35  153.78
   4  11  -1 2785.02  147.79
  -4 -11  -1 2933.11  158.58
  11  -4  -1 3058.09  142.59
  11  -4  -1 2761.22  153.18
  -4 -11  -1 2802.72  147.59
   4  11   1 2751.02  141.59
 -11   4   1 2823.32  159.38
  -4 -11   1 2870.81  157.88
 -11   4   1 2783.32  174.58
  -4 -11   1 2753.52  161.78
  11  -4   1 2815.62  163.98
  11  -6  -1   55.59    6.00
   6  11  -1   52.19    4.10
  -6 -11  -1   61.19    7.30
  -6 -11  -1   58.29    4.00
 -11   6  -1   60.69    4.80
  11  -6   1   50.69    5.80
  -6 -11   1   58.79    5.60
  -6 -11   1   64.79    6.70
 -11   6   1   59.09    6.60
  11  -8  -1  124.09   23.90
   8  11  -1  123.39   22.00
 -11   8  -1  213.48   39.00
  11  -8  -1  191.78   23.80
  -8 -11  -1  168.08   24.90
   8  11   1  149.39   20.70
  11  -8   1  180.38   25.50
  -8 -11   1  129.29   28.80
 -11   8   1  219.48   39.90
  -8 -11   1  181.68   23.90
 -10 -11  -1   10.60    4.10
  11 -10  -1    9.70    3.10
 -10 -11   1    8.30    4.20
  12   9  -1  127.69   27.90
  -9  12  -1  135.49   16.70
 -12  -9  -1  221.48   27.00
  -9  12   1  184.08   25.90
   9 -12   1   73.89   23.90
 -12  -9   1  147.49   21.10
   9 -12   1  156.48   19.50
  12   9   1  143.99   17.10
   7 -12  -1  147.09   19.10
  12   7  -1  120.69   26.00
   7 -12  -1  162.68   21.60
  -7  12  -1  142.99   19.00
 -12  -7  -1  163.68   39.00
 -12  -7   1  175.68   44.30
  -7  12   1  166.98   35.80
   7 -12   1  118.59   20.90
  12   7   1  120.29   25.90
   7 -12   1  154.78   21.20
  -5  12  -1  377.26   47.10
 -12  -5  -1  296.37   65.39
   5 -12  -1  418.26   44.80
   5 -12  -1  388.96   50.09
  12   5  -1  424.96   51.19
 -12  -5   1  438.76   67.29
   5 -12   1  335.27   44.10
   5 -12   1  379.86   48.50
  12   5   1  386.56   49.10
  -5  12   1  444.76   56.99
 -12  -3  -1 2270.47  119.09
 -12  -3  -1 2517.55  196.38
  -3  12  -1 2533.05  155.08
   3 -12  -1 2489.55  133.89
   3 -12  -1 2161.08  145.29
  12   3  -1 2303.87  141.49
 -12  -3   1 2406.66  192.18
   3 -12   1 1932.11  137.39
  12   3   1 2334.37  146.89
  -3  12   1 2215.28  147.09
   3 -12   1 2189.18  147.19
 -12  -1  -1  753.52   88.29
  12   1  -1  803.92   72.79
   1 -12  -1  742.43   62.99
  -1  12  -1  779.52   71.69
   1 -12  -1  724.33   72.19
  -1  12  -1  712.13   75.19
 -12  -1  -1  791.92   62.39
 -12  -1   1  868.51   98.59
  -1  12   1  804.12   73.39
   1 -12   1  840.72   74.19
  12   1   1  723.23   72.69
  12  -1  -1   33.90    2.80
  -1 -12  -1   28.10    2.40
   1  12   1   30.00    3.10
  -1 -12   1   33.70    2.40
   3  12  -1  236.98   31.60
  12  -3  -1  257.67   33.80
 -12   3  -1  247.08   34.40
 -12   3  -1  177.98   35.40
  -3 -12  -1  278.07   32.30
  -3 -12  -1  270.57   30.90
 -12   3   1  227.88   33.30
   3  12   1  241.28   30.20
  -3 -12   1  273.67   36.90
 -12   3   1  234.08   30.80
  12  -3   1  241.28   33.60
 -12   5  -1   62.99    4.60
  12  -5  -1   73.39    8.20
   5  12  -1   54.89    7.00
  -5 -12  -1   68.79    7.40
  -5 -12  -1   43.10    3.60
  -5 -12   1   46.50    4.30
  12  -5   1   57.99    7.20
  -5 -12   1   49.20    4.10
 -12   5   1   72.89    6.90
 -12   7  -1  745.53   77.49
  -7 -12  -1  799.32   73.39
  -7 -12  -1  808.82   82.19
   7  12  -1  772.62   65.49
  12  -7  -1  753.62   69.89
  -7 -12   1  765.22   77.09
  -7 -12   1  817.72   81.79
  12  -7   1  777.02   77.19
 -12   7   1  878.61   83.19
  12  -9  -1   17.50    2.90
  13   8  -1   68.09   14.20
 -13  -8  -1   86.89    8.70
  -8  13  -1  111.99   12.30
  -8  13   1   83.69    4.80
  13   8   1   65.29    7.10
   6 -13  -1 1637.14  124.89
  -6  13  -1 1681.83  130.59
   6 -13  -1 1654.23  113.79
  13   6  -1 1537.25  122.09
 -13  -6  -1 1735.23  166.28
  -6  13   1 1520.05  124.69
   6 -13   1 1712.23  128.59
 -13  -6   1 1635.34  160.08
  13   6   1 1687.73  125.59
   6 -13   1 1549.24  116.09
  -4  13  -1 1119.19   98.79
  13   4  -1 1105.59   94.69
   4 -13  -1 1142.99  100.29
   4 -13  -1 1114.59   84.49
 -13  -4  -1 1234.68  131.89
  -4  13   1 1225.38  104.49
  13   4   1 1113.19   98.09
 -13  -4   1 1096.69  123.69
   4 -13   1 1173.18  102.79
   4 -13   1  977.40   92.29
   2 -13  -1 1027.70   78.59
 -13  -2  -1  952.10   70.09
   2 -13  -1  917.51   86.49
  13   2  -1  877.31   80.99
  -2  13  -1  985.90   85.99
 -13  -2  -1 1104.89  116.19
  -2  13  -1 1083.09  100.09
  -2  13   1  890.31   83.89
   2 -13   1  940.51   82.99
 -13  -2   1  986.00  109.89
  13   2   1  952.90   88.39
   0 -13  -1 1111.69   82.09
   0  13  -1 1024.70   92.89
   0 -13  -1 1010.20   87.69
 -13   0  -1 1057.19  103.49
 -13   0  -1 1030.70   78.09
  13   0  -1 1030.40   87.49
  13   0   1 1047.50   92.89
   0  13   1  976.80   84.09
 -13   0   1 1183.18  113.19
   0 -13   1 1050.39   89.09
   2  13  -1  320.07   42.60
  -2 -13  -1  279.67   33.90
 -13   2  -1  231.98   40.90
  -2 -13  -1  342.97   38.00
 -13   2  -1  322.07   37.50
  13  -2  -1  325.57   41.20
 -13   2   1  233.08   34.60
   2  13   1  248.88   32.60
  13  -2   1  295.97   40.70
 -13   2   1  314.07   34.20
  -2 -13   1  323.17   40.30
 -13   4  -1  158.68   22.10
   4  13  -1  167.18   30.60
  -4 -13  -1  210.98   25.60
  13  -4  -1  172.58   21.60
  13  -4   1  177.18   35.80
 -13   4   1  233.78   27.00
  -4 -13   1  183.58   26.90
   4  13   1  160.48   28.90
  -6 -13  -1   83.09    9.50
   6  13  -1   66.49    8.90
 -13   6  -1   96.29    8.80
  -6 -13  -1   95.39    8.10
  13  -6  -1   87.39    9.40
 -13   6   1   92.49    8.20
  -6 -13   1  105.39   14.10
  13  -6   1   92.39   20.90
  13  -8  -1  576.54   58.69
   8  13  -1  367.26   46.30
  -8 -13  -1  520.75   61.89
 -13   8  -1  606.64   66.39
  13  -8   1  588.44   63.99
  -8 -13   1  514.35   59.99
 -13   8   1  584.64   63.49
   8  13   1  401.56   51.79
  -8 -13   1  571.04   65.99
  14   7  -1  153.58   21.20
   7 -14  -1  120.49   13.90
 -14  -7  -1  179.28   22.20
  14   7   1  166.48   21.80
 -14  -7   1  152.78   16.90
  -7  14   1  139.79   14.70
 -14  -5  -1  168.68   17.50
  14   5  -1  133.09   28.70
   5 -14  -1  160.48   31.00
  14   5   1  163.28   34.30
   5 -14   1  131.39   27.20
  -5  14   1  124.19   15.20
 -14  -5   1  156.58   20.50
   5 -14   1  141.99   30.50
  -3  14  -1  426.76   61.09
  -3  14  -1  622.14   72.99
   3 -14  -1  514.85   59.89
 -14  -3  -1  607.64   77.59
  14   3  -1  526.15   58.59
   3 -14  -1  490.45   51.29
  -3  14   1  526.05   60.39
   3 -14   1  456.25   52.79
 -14  -3   1  519.55   69.89
  14   3   1  537.95   64.79
   1 -14  -1  133.29   16.40
 -14  -1  -1  116.39   11.10
  -1  14  -1  122.19   15.90
   1 -14  -1  136.19   14.50
  14   1  -1  113.99   16.00
 -14  -1  -1   89.99   12.00
 -14  -1   1   87.39   12.70
   1 -14   1   95.09   10.10
  -1  14   1  108.99   23.30
  14   1   1   91.99   26.20
 -14   1  -1  408.56   45.30
 -14   1  -1  383.66   54.89
  14  -1  -1  420.66   50.29
   1  14  -1  407.46   51.69
  -1 -14  -1  435.46   50.39
  -1 -14  -1  461.75   47.90
  14  -1   1  436.26   53.99
   1  14   1  396.46   48.10
 -14   1   1  406.36   58.59
  -1 -14   1  435.96   50.49
  14  -3  -1  428.76   50.19
  -3 -14  -1  458.55   50.99
   3  14  -1  470.15   53.99
 -14   3  -1  425.06   49.90
  -3 -14  -1  508.45   50.59
 -14   3   1  489.45   47.80
  -3 -14   1  462.85   53.39
  14  -3   1  448.96   56.39
  14  -5  -1   54.79    5.30
  14  -5   1   70.59    3.90
  -5 -14   1   69.29    5.70
  14  -7  -1  347.87   44.50
  -7 -14  -1  512.65   56.89
 -14   7  -1  497.15   57.39
  14  -7   1  524.95   60.99
  -7 -14   1  495.75   57.99
 -14   7   1  474.95   53.19
  -4  15  -1  351.56   57.39
  15   4  -1  461.55   54.69
 -15  -4  -1  450.95   60.19
  -4  15  -1  560.84   67.99
   4 -15  -1  474.05   56.99
  -4  15   1  384.96   59.39
 -15  -4   1  493.95   66.59
  15   4   1  536.55   63.99
   4 -15   1  479.35   55.09
   2 -15  -1  525.25   59.99
  15   2  -1  551.84   61.99
  -2  15  -1  452.05   55.69
 -15  -2  -1  330.17   59.89
   2 -15   1  436.76   50.49
  -2  15   1  301.67   48.30
 -15  -2   1  388.56   59.69
  15   2   1  477.15   58.69
  15   0  -1   52.69    4.40
   0 -15  -1   59.09    7.70
 -15   0  -1   85.99    8.30
   0  15  -1   71.99    6.10
   0 -15  -1   65.59    5.40
   0 -15   1   73.09    7.40
  15   0   1   59.19    3.80
   2  15  -1  147.79   16.40
  -2 -15  -1  115.79   12.40
  -2 -15  -1  102.49   11.30
 -15   2  -1  102.39   20.30
  15  -2  -1  105.89   12.80
  -2 -15   1  120.19   16.30
  15  -2   1  122.39   15.90
   4  15  -1 1335.47  106.09
  -4 -15  -1 1384.16  106.19
 -15   4  -1 1448.06  113.09
  15  -4  -1 1522.25  116.59
  15  -4   1 1402.26  120.29
  -4 -15   1 1542.75  119.89
 -15   4   1 1480.55  105.89
   4  15   1 1323.07  103.59
   0   0  -2 9999.00  296.57
   0   0  -2 9985.40  310.57
   0   0   2 9986.40  313.27
   0   0   2 9703.73  344.77
   1  -1  -2  142.39   14.60
   1   1  -2  142.79   12.20
   1   1  -2  145.69   15.50
  -1   1  -2  129.39   13.00
  -1  -1  -2  131.49   14.60
   1  -1  -2  129.59   14.50
  -1   1  -2  152.08   15.00
  -1  -1  -2  144.29   13.70
   1   1   2  156.18   12.20
  -1   1   2  144.99    7.90
   1   1   2  157.38   19.00
   1  -1   2  170.68   15.80
  -1   1   2  159.78   18.90
  -1  -1   2  152.48   13.40
   1  -1   2  121.49   16.10
  -1  -1   2  156.08   19.30
   0   2  -2 1043.90   51.49
   0  -2  -2 1081.29   53.49
  -2   0  -2 1110.39   45.90
   2   0  -2 1042.20   52.59
   2   0  -2 1137.69   50.09
  -2   0  -2 1101.09   55.79
   0   2  -2 1069.59   48.50
   0  -2  -2 1065.79   54.79
  -2   0   2 1088.69   64.79
   2   0   2 1093.39   54.19
   2   0   2 1057.59   62.19
   0   2   2 1057.09   61.59
  -2   0   2 1093.99   45.50
   0  -2   2 1092.29   61.09
   0  -2   2 1154.68   54.39
  -2   2  -2  338.57   27.40
  -2   2  -2  329.57   23.40
   2  -2  -2  313.97   27.40
  -2  -2  -2  403.16   29.70
   2  -2  -2  327.67   16.20
  -2  -2  -2  463.35   27.20
   2   2  -2  415.66   30.00
   2  -2  -2  332.77   27.30
  -2   2   2  434.16   34.30
  -2  -2   2  311.97   24.70
  -2  -2   2  308.57   32.50
   2  -2   2  408.26   31.20
   2   2   2  321.77   32.70
   2   2   2  338.07   23.80
   2  -2   2  471.15   34.30
  -3  -1  -2 1242.18   61.59
  -1   3  -2 1126.39   55.49
   3   1  -2 1162.38   47.70
  -3  -1  -2 1200.48   46.20
  -1   3  -2 1065.09   54.69
   3   1  -2 1183.38   58.19
   1  -3  -2 1002.30   57.29
   1  -3  -2 1087.79   59.89
   3   1   2 1025.60   68.79
  -3  -1   2 1113.99   53.69
  -3  -1   2 1085.09   71.39
   3   1   2 1091.99   58.09
   1  -3   2 1164.08   60.59
   1  -3   2 1163.38   61.59
  -1   3   2 1125.39   64.09
   1   3  -2  427.66   31.10
   3  -1  -2  383.26   30.20
  -3   1  -2  341.77   21.50
  -1  -3  -2  478.75   32.40
  -1  -3  -2  481.25   33.20
  -3   1  -2  352.46   30.30
   3  -1  -2  364.76   22.80
   1   3  -2  470.55   23.70
  -1  -3   2  344.27   28.90
   3  -1   2  482.65   35.60
  -3   1   2  472.65   39.00
  -1  -3   2  361.56   33.70
   1   3   2  353.96   33.90
   3  -1   2  461.15   36.20
   1   3   2  364.06   21.30
  -3   3  -2 2799.22  105.39
  -3  -3  -2 2622.14  103.79
  -3  -3  -2 2926.41  138.19
  -3  -3  -2 2713.53  113.69
   3   3  -2 2956.00  113.89
  -3   3  -2 2773.92  120.09
   3  -3  -2 2793.12  117.59
   3  -3  -2 2869.31  101.79
   3  -3   2 2919.21  125.89
  -3  -3   2 3006.10  119.09
  -3   3   2 2815.92  106.59
   3  -3   2 2811.62  118.29
   3   3   2 2880.21  112.89
  -3   3   2 2718.93  120.29
  -3  -3   2 2627.64  140.69
  -3   3   2 2964.40  127.29
  -3  -3   2 2821.52  104.59
  -2   4  -2  268.37   25.20
  -4  -2  -2  352.16   37.80
  -2   4  -2  295.67   27.80
   2  -4  -2  268.37   16.70
   2  -4  -2  263.07   28.00
  -4  -2  -2  353.86   20.40
   2  -4  -2  295.77   28.90
  -4  -2  -2  330.67   28.90
   4   2  -2  325.27   27.90
  -4  -2   2  258.27   24.50
  -4  -2   2  286.67   17.60
   2  -4   2  336.37   31.90
  -4  -2   2  294.97   24.10
  -4  -2   2  307.77   37.30
   4   2   2  290.27   27.00
   2  -4   2  328.37   25.70
  -2   4   2  324.17   29.40
  -4   0  -2 2684.83   84.99
   0  -4  -2 2719.33   93.69
   0  -4  -2 2613.44  111.79
   0   4  -2 2733.03  102.29
   0  -4  -2 2829.52  114.69
   4   0  -2 2626.14  104.19
  -4   0  -2 2812.22  114.89
   0   4  -2 2681.03  108.29
   4   0  -2 2697.63  106.79
   4   0   2 2670.53  116.59
  -4   0   2 2658.83  131.89
   0  -4   2 2594.84  118.19
   0  -4   2 2647.04  115.19
  -4   0   2 2455.95  102.89
   0   4   2 2715.33  120.29
  -4   0   2 2569.84  103.39
   2   4  -2 7575.64  251.37
   4  -2  -2 7951.70  255.57
  -2  -4  -2 7821.82  262.17
   4  -2  -2 7877.61  256.57
  -4   2  -2 7544.95  232.68
   2   4  -2 8221.68  237.08
  -4   2  -2 7761.52  269.37
  -2  -4  -2 6912.41  249.58
  -4   2   2 7235.98  263.37
   2   4   2 7931.91  295.67
  -2  -4   2 7091.89  296.67
  -2  -4   2 8021.50  271.77
  -4   2   2 7397.16  244.88
  -4   2   2 8094.09  293.27
   4  -2   2 7789.62  281.87
   4  -2   2 8318.47  283.27
   2   4   2 7592.44  255.77
  -4  -4  -2  121.69   24.30
   4  -4  -2  173.88   22.30
  -4  -4  -2  116.69   15.70
   4   4  -2  118.09   15.70
  -4  -4  -2  119.39   12.00
  -4   4  -2  197.58   25.00
  -4  -4   2  174.08   32.00
  -4   4   2  117.49   15.60
   4  -4   2  102.59   19.50
  -4  -4   2  180.18   21.80
   4  -4   2  108.79   13.20
  -4   4   2  125.09   21.60
   3  -5  -2  896.31   62.99
  -5  -3  -2  949.40   39.80
  -3   5  -2  929.01   64.39
  -5  -3  -2  906.31   77.89
  -3   5  -2  932.31   58.49
  -5  -3  -2  913.31   56.89
   5   3  -2  905.21   54.79
   3  -5  -2  937.61   46.20
  -3   5   2  854.11   62.09
  -3   5   2  961.30   58.29
  -5  -3   2  954.50   58.59
  -5  -3   2  896.31   82.19
   5   3   2  911.51   57.59
   3  -5   2  843.22   61.59
  -3   5   2  928.61   51.29
   3  -5   2  878.71   48.20
  -1   5  -2  109.89   13.80
  -5  -1  -2   66.89   13.10
   1  -5  -2   76.29   15.00
  -5  -1  -2  107.09   22.80
   5   1  -2   77.39   13.60
   1  -5  -2   73.69    7.60
   5   1  -2   77.99   11.30
  -1   5  -2   70.29   14.20
   1  -5  -2   83.99   18.00
  -1   5   2   86.59   12.80
  -5  -1   2   87.19   10.00
   1  -5   2   62.29   14.10
   1  -5   2   89.29   11.50
  -5  -1   2   75.69   20.20
   5   1   2   81.79   15.30
  -1  -5  -2 1736.33   89.19
   1   5  -2 1932.31   75.79
  -5   1  -2 1900.51  102.49
  -1  -5  -2 1918.41   77.79
  -5   1  -2 1903.31   64.19
  -5   1  -2 1937.31   94.09
   1   5  -2 1767.22   87.99
  -1  -5  -2 1825.22   92.99
   5  -1  -2 1965.50   88.99
   5  -1  -2 1896.51   84.49
   5  -1   2 1885.51   98.49
  -5   1   2 1852.61  108.59
   1   5   2 1990.70   99.89
  -1  -5   2 2025.50  106.49
  -1  -5   2 1965.40   95.69
  -5   1   2 1768.92   88.19
   3   5  -2 1695.43   84.09
  -3  -5  -2 1618.04   82.89
  -3  -5  -2 1669.33   80.39
   5  -3  -2 1726.23   88.19
  -3  -5  -2 1617.94   98.89
  -5   3  -2 1749.72   73.19
  -5   3  -2 1723.83   94.39
   5  -3  -2 1763.02   78.29
   5  -3   2 1691.73   96.79
   5  -3   2 1667.23   86.69
  -3  -5   2 1761.22  115.89
  -5   3   2 1643.54   90.89
  -5   3   2 1687.33   95.59
   3   5   2 1745.63   80.09
  -3  -5   2 1692.73   88.79
   5  -5  -2 3655.23  159.68
   5  -5  -2 3741.43  144.59
  -5  -5  -2 3702.23  193.28
  -5  -5  -2 3618.84  150.18
  -5   5  -2 3586.24  148.99
  -5   5  -2 3641.24  172.38
   5   5  -2 3642.34  146.79
  -5  -5  -2 3811.82  133.29
  -5   5   2 3679.13  167.78
   5  -5   2 3882.71  172.68
  -5   5   2 3693.53  162.18
  -5  -5   2 3316.47  205.18
   5  -5   2 3730.73  145.29
  -5  -5   2 3748.82  160.88
   5   5   2 3670.13  154.28
   4  -6  -2  954.30   53.59
  -6  -4  -2  958.20   61.19
  -6  -4  -2 1039.20   91.89
   4  -6  -2  980.60   71.59
  -6  -4  -2 1043.80   42.50
   6   4  -2 1037.90   62.09
  -4   6  -2  987.00   75.59
  -4   6  -2  922.11   65.59
  -6  -4   2  931.01   94.19
   6   4   2  952.80   64.89
   4  -6   2  989.90   72.09
  -4   6   2  946.51   60.09
  -6  -4   2  902.61   63.39
  -4   6   2  992.60   72.69
   4  -6   2  992.30   49.90
  -6  -2  -2 3025.20  131.09
  -2   6  -2 3048.40  142.59
   6   2  -2 2974.00  131.19
   2  -6  -2 3130.99  115.69
  -6  -2  -2 2981.40  169.48
   6   2  -2 3024.00  122.59
   2  -6  -2 2823.52  138.59
  -2   6  -2 3023.60  133.59
  -6  -2   2 2979.30  176.08
   2  -6   2 3098.19  125.39
  -2   6   2 3045.40  130.69
  -2   6   2 2980.10  109.19
  -6  -2   2 2962.70  107.39
   2  -6   2 2991.50  139.69
  -2   6   2 3081.89  141.29
   6   2   2 2968.00  137.99
   6   0  -2 1015.40   59.39
   0  -6  -2 1067.69   52.49
   0  -6  -2 1102.59   70.99
   6   0  -2 1000.70   60.29
   0  -6  -2 1065.59   66.69
  -6   0  -2 1140.09   83.09
   0   6  -2 1162.68   62.49
  -6   0  -2 1070.29   66.19
   0   6  -2 1023.90   64.69
  -6   0   2 1027.60   59.79
   6   0   2 1087.79   70.59
   0  -6   2  909.41   67.29
   0  -6   2 1154.78   70.19
  -6   0   2 1038.10   83.39
   0   6   2 1045.50   65.29
   2   6  -2  272.77   29.30
  -6   2  -2  273.07   30.80
  -2  -6  -2  280.17   23.80
  -2  -6  -2  275.67   29.00
  -6   2  -2  274.97   29.40
   2   6  -2  306.97   19.20
  -2  -6  -2  272.87   28.00
   6  -2  -2  257.07   24.70
  -6   2  -2  262.17   17.30
   6  -2  -2  248.68   27.50
  -2  -6   2  296.07   35.20
  -2  -6   2  233.18   27.80
  -6   2   2  304.57   32.80
   2   6   2  270.37   33.00
  -6   2   2  292.07   36.20
   6  -2   2  299.17   34.70
   6  -4  -2  260.47   24.80
   4   6  -2  309.17   31.50
  -6   4  -2  328.07   27.30
   6  -4  -2  315.97   34.20
  -4  -6  -2  321.77   31.10
  -4  -6  -2  308.37   38.20
  -4  -6  -2  358.56   29.60
  -6   4  -2  333.87   38.10
  -4  -6   2  323.37   46.10
  -6   4   2  349.57   35.40
  -4  -6   2  279.87   32.40
  -6   4   2  382.56   40.60
   6  -4   2  297.27   27.20
   4   6   2  303.37   29.00
   6  -4   2  310.37   36.50
  -6   6  -2  390.56   39.40
   6  -6  -2  366.86   31.70
  -6   6  -2  396.26   47.10
   6  -6  -2  374.86   42.40
  -6  -6  -2  333.87   25.30
  -6  -6  -2  351.96   49.10
  -6  -6  -2  371.86   34.90
   6   6  -2  361.26   35.10
  -6  -6   2  292.37   36.50
  -6   6   2  413.56   46.50
   6  -6   2  337.27   42.60
  -6  -6   2  343.17   62.99
  -6   6   2  337.47   33.80
   6   6   2  382.46   37.20
   7   5  -2  680.73   50.19
  -7  -5  -2  614.24   47.90
  -5   7  -2  657.93   64.99
   5  -7  -2  605.24   44.10
   5  -7  -2  660.23   61.99
  -5   7  -2  646.44   59.09
  -7  -5  -2  726.23   81.19
  -7  -5   2  607.24   53.49
   5  -7   2  577.54   56.79
  -5   7   2  706.43   64.29
  -5   7   2  634.84   47.20
   7   5   2  644.34   54.99
  -7  -5   2  672.63   87.29
  -3   7  -2 3080.59  144.79
   3  -7  -2 2948.30  120.99
  -7  -3  -2 2992.40  186.18
  -7  -3  -2 3044.50  134.19
   7   3  -2 2956.20  138.99
  -3   7  -2 2883.51  153.98
   3  -7  -2 3021.20  148.99
   7   3  -2 3052.99  126.49
  -3   7   2 3060.59  130.59
   3  -7   2 3096.19  148.19
  -7  -3   2 2784.12  189.48
  -3   7   2 3010.60  148.29
   7   3   2 3030.20  143.29
   7   1  -2 1803.62   94.39
  -7  -1  -2 1807.12  127.99
  -1   7  -2 1921.11  104.99
  -1   7  -2 1855.21  102.19
   7   1  -2 1974.10   91.39
   1  -7  -2 1937.01   83.89
   1  -7  -2 1828.12  104.79
  -7  -1  -2 1786.92   96.59
  -1   7   2 1923.41   95.19
  -7  -1   2 1926.11   85.59
   1  -7   2 1771.42  102.19
   1  -7   2 1974.50   99.19
  -7  -1   2 1948.91  136.79
   7   1   2 1907.91  105.09
  -1  -7  -2  798.12   57.09
  -1  -7  -2  774.72   58.59
  -7   1  -2  768.72   58.29
  -7   1  -2  758.52   66.69
   1   7  -2  742.63   56.09
   7  -1  -2  696.33   50.49
   7  -1  -2  754.42   52.39
   1   7  -2  861.41   51.29
  -1  -7  -2  736.73   45.70
  -7   1   2  749.23   53.79
   7  -1   2  780.82   62.19
   1   7   2  750.92   56.29
  -1  -7   2  800.22   64.79
  -1  -7   2  721.03   57.69
  -7   1   2  791.22   74.19
  -3  -7  -2 3308.47  164.38
   7  -3  -2 3507.25  145.79
  -3  -7  -2 3378.26  140.69
  -3  -7  -2 3214.18  140.79
  -3  -7  -2 3365.06  146.09
  -7   3  -2 3404.46  156.18
   3   7  -2 3320.57  145.19
  -7   3  -2 3466.05  162.18
   7  -3  -2 3536.95  145.39
  -7   3  -2 3389.36  120.49
   7  -3   2 3410.56  164.68
  -3  -7   2 3241.98  152.58
  -7   3   2 3374.06  172.58
  -7   3   2 3112.19  154.78
  -3  -7   2 3157.68  190.98
   7  -5  -2 2804.02  129.39
  -7   5  -2 2899.71  130.59
  -5  -7  -2 2801.42  129.99
  -5  -7  -2 2880.31  166.38
   7  -5  -2 3010.30  141.99
  -7   5  -2 2814.72  154.38
  -5  -7  -2 2991.80  122.79
   5   7  -2 2575.54  127.29
  -7   5   2 2923.91  153.78
   5   7   2 2862.71  134.19
  -5  -7   2 2556.34  186.98
  -5  -7   2 2880.91  143.79
  -7   5   2 2977.40  149.09
   7  -5   2 3024.30  128.59
   7  -5   2 2964.50  153.98
  -7   7  -2  264.77   42.80
   7  -7  -2  258.27   26.10
   7   7  -2  253.77   28.80
  -7   7  -2  265.47   32.80
  -7  -7  -2  229.68   25.60
  -7  -7  -2  237.78   46.20
   7  -7  -2  298.07   38.80
   7   7   2  260.37   31.20
  -7  -7   2  228.78   33.40
  -7  -7   2  271.07   60.79
   7  -7   2  248.48   35.80
  -7   7   2  203.48   35.70
   8   6  -2   88.49   11.90
  -8  -6  -2   78.29   24.00
  -6   8  -2  142.29   17.60
  -8  -6  -2  121.09   15.30
  -6   8  -2   86.09   23.60
   6  -8  -2   72.99   17.00
   6  -8  -2   95.19   11.70
  -6   8   2  105.79   25.80
  -8  -6   2   88.69   28.40
   6  -8   2  109.69   25.40
  -8  -6   2   75.59   19.80
   8   6   2   76.39   18.70
  -8  -4  -2  197.98   24.20
   8   4  -2  207.28   23.00
  -8  -4  -2  128.29   37.80
  -4   8  -2  179.98   31.90
   4  -8  -2  149.69   17.10
   4  -8  -2  141.49   30.10
  -4   8  -2  183.88   33.90
   8   4  -2  165.58   23.60
  -4   8   2  188.08   33.30
  -8  -4   2  151.58   43.00
   4  -8   2  151.58   28.30
   8   4   2  138.59   25.20
   8   2  -2  116.29   20.90
   8   2  -2  115.49   14.30
  -2   8  -2  107.99   13.40
  -8  -2  -2  147.19   36.70
   2  -8  -2   94.79   11.10
  -2   8  -2  102.59   23.90
  -8  -2  -2  105.29   18.70
   2  -8  -2   91.09   21.20
   2  -8   2   93.29   21.70
   8   2   2  110.79   22.50
  -2   8   2   93.19   22.50
  -8  -2   2   93.59   29.60
  -2   8   2  101.89   13.00
   0  -8  -2 1404.66   87.79
   0   8  -2 1587.34   93.59
  -8   0  -2 1329.87  109.29
   0   8  -2 1591.04   94.79
  -8   0  -2 1455.35   89.19
   0  -8  -2 1505.55   76.59
   8   0  -2 1442.66   78.49
   8   0  -2 1461.65   85.19
   0  -8  -2 1569.74   95.39
  -8   0   2 1533.55  121.89
   0  -8   2 1540.55   97.89
  -8   0   2 1491.85   80.39
   8   0   2 1520.35   96.39
   0  -8   2 1448.85   92.19
   0   8   2 1470.85   84.49
   8  -2  -2 1407.66   80.89
  -2  -8  -2 1242.48   81.19
  -2  -8  -2 1267.87   80.29
  -8   2  -2 1428.96   96.09
   8  -2  -2 1418.16   80.09
  -8   2  -2 1395.06   90.39
   2   8  -2 1248.68   81.49
  -2  -8  -2 1336.57   73.59
   2   8   2 1378.36   89.29
  -2  -8   2 1269.77  101.49
   8  -2   2 1339.97   91.89
  -8   2   2 1241.68   82.09
  -2  -8   2 1268.77   84.99
  -8   2   2 1326.27  104.79
  -4  -8  -2  678.23   51.69
   8  -4  -2  668.13   55.29
   4   8  -2  638.04   54.29
  -4  -8  -2  637.04   51.19
  -8   4  -2  633.94   61.99
  -4  -8  -2  648.44   62.09
   8  -4  -2  633.64   49.80
  -8   4   2  687.73   61.79
  -4  -8   2  729.93   80.19
  -8   4   2  702.43   64.39
  -4  -8   2  611.94   57.19
   8  -4   2  647.34   63.19
  -6  -8  -2  431.26   34.10
  -8   6  -2  453.05   55.39
  -6  -8  -2  507.65   60.69
  -6  -8  -2  446.26   39.90
  -8   6  -2  417.86   41.40
   8  -6  -2  462.05   40.90
   6   8  -2  360.56   38.50
   8  -6  -2  459.35   48.60
  -8   6   2  428.56   48.90
   8  -6   2  484.05   53.59
  -8   6   2  428.76   50.79
  -6  -8   2  444.76   64.49
  -6  -8   2  424.16   47.00
   6   8   2  451.45   43.30
   8  -8  -2  928.21   66.99
  -8  -8  -2  872.31   63.39
  -8   8  -2  832.62   84.39
  -8  -8  -2  983.80  102.99
   8  -8  -2  893.51   77.69
   8   8  -2  829.52   62.39
   8  -8   2  853.31   80.79
   8   8   2  888.71   71.09
  -8  -8   2  879.91  109.29
  -8  -8   2  849.52   74.79
  -8   8   2  862.41   82.49
  -9  -7  -2  433.96   66.19
  -9  -7  -2  465.65   41.80
   9   7  -2  487.15   43.20
   9   7  -2  460.55   52.89
  -7   9  -2  350.56   44.10
  -7   9  -2  425.96   56.29
   7  -9  -2  444.06   51.99
  -9  -7   2  517.85   78.09
   7  -9   2  463.65   53.19
   9   7   2  495.25   51.19
  -7   9   2  463.45   57.49
   9   5  -2 2696.33  123.29
  -9  -5  -2 2704.03  130.99
  -5   9  -2 2545.25  155.68
   9   5  -2 2855.81  147.49
   5  -9  -2 2743.43  128.39
  -5   9  -2 2601.54  163.98
  -9  -5  -2 2413.96  197.38
   5  -9  -2 2687.23  151.18
   5  -9   2 2657.63  150.48
  -5   9   2 2794.92  159.18
  -9  -5   2 2448.66  205.48
   9   5   2 2927.61  150.58
   3  -9  -2 1618.44  106.49
  -9  -3  -2 1569.44   92.99
  -3   9  -2 1558.64  113.59
  -9  -3  -2 1414.96  137.99
   3  -9  -2 1693.93   86.89
   9   3  -2 1509.85   96.89
  -3   9  -2 1702.63  112.49
   9   3  -2 1664.33   85.39
  -9  -3   2 1606.74  150.28
  -3   9   2 1583.54  107.39
   9   3   2 1665.93  106.29
   3  -9   2 1666.13  107.29
   1  -9  -2 1686.63  107.39
  -9  -1  -2 1541.85  133.59
   9   1  -2 1760.12   88.49
  -1   9  -2 1786.22  111.29
   9   1  -2 1792.82  101.49
  -1   9  -2 1543.35  108.49
   1  -9  -2 1707.93   86.99
  -9  -1  -2 1584.14   96.09
  -1   9   2 1756.72   90.69
  -9  -1   2 1621.14   81.29
  -9  -1   2 1835.22  151.98
  -1   9   2 1614.74  104.19
   1  -9   2 1938.91  115.79
  -1   9   2 1727.83   73.89
   9   1   2 1603.84  105.19
   9  -1  -2 1293.57   84.19
   9  -1  -2 1378.76   78.99
  -9   1  -2 1444.16  109.99
  -1  -9  -2 1313.07   89.09
   1   9  -2 1308.07   85.89
  -9   1  -2 1269.87   87.19
  -1  -9  -2 1298.07   84.89
  -1  -9  -2 1306.07   75.29
   1   9  -2 1364.66   92.09
  -9   1   2 1373.86   83.39
  -9   1   2 1351.06  118.19
  -1  -9   2 1361.66   99.09
  -1  -9   2 1289.37   89.39
   1   9   2 1393.46   84.69
   9  -1   2 1258.17   92.09
   3   9  -2  482.15   49.00
  -3  -9  -2  581.04   50.99
   9  -3  -2  635.84   50.69
  -3  -9  -2  590.24   50.29
  -9   3  -2  570.74   53.09
  -3  -9  -2  514.45   43.70
  -9   3  -2  529.05   54.99
   9  -3  -2  561.74   48.40
   9  -3   2  452.35   54.19
  -9   3   2  528.85   51.09
  -3  -9   2  537.45   52.99
  -9   3   2  553.24   61.09
  -3  -9   2  585.34   64.49
  -5  -9  -2 1698.13  117.09
  -5  -9  -2 1576.04   87.89
   9  -5  -2 1499.85   93.69
  -5  -9  -2 1606.24   92.59
   9  -5  -2 1547.05   98.29
  -9   5  -2 1591.44  113.19
   5   9  -2 1490.15   94.09
  -5  -9   2 1429.76  101.39
   5   9   2 1612.34   96.49
   9  -5   2 1489.65  109.79
  -9   5   2 1619.74  114.99
  -9   5   2 1511.45  106.79
  -5  -9   2 1591.94  137.89
  -7  -9  -2 1408.16   85.99
  -9   7  -2 1330.17  109.29
   9  -7  -2 1380.26   99.19
  -7  -9  -2 1385.56  118.89
   9  -7  -2 1359.16   86.29
   7   9  -2 1353.16   86.79
  -9   7   2 1274.37  102.09
   9  -7   2 1351.46  104.09
  -7  -9   2 1504.45  143.19
  -7  -9   2 1167.88   94.69
   7   9   2 1300.27   90.39
   9   9  -2  633.04   54.19
  -9  -9  -2  716.73   55.19
   9  -9  -2  598.84   60.79
  -9   9  -2  636.84   72.29
  -9  -9  -2  748.73   90.69
  -9   9   2  633.44   69.99
   9  -9   2  553.84   65.99
  -9  -9   2  709.73   70.69
   9   9   2  668.63   62.29
  -9  -9   2  641.64   86.09
  10   8  -2  172.88   27.20
 -10  -8  -2  229.98   24.20
 -10  -8  -2  198.78   48.20
  10   8  -2  194.08   36.80
   8 -10  -2  197.58   26.40
  -8  10  -2  224.88   40.90
  -8  10  -2  258.57   31.50
  -8  10   2  170.58   35.60
  10   8   2  179.88   24.60
   8 -10   2  232.78   34.10
 -10  -8   2  296.97   64.79
 -10  -6  -2  129.89   14.50
  -6  10  -2  111.09   24.80
 -10  -6  -2  109.89   28.70
   6 -10  -2  141.59   30.20
  -6  10  -2  127.19   15.60
  10   6  -2  126.19   27.40
  10   6  -2   95.89   12.50
  10   6   2  104.59   24.40
 -10  -6   2  114.89   33.30
  -6  10   2  123.69   30.10
   6 -10   2  105.29   25.30
 -10  -4  -2  403.26   76.49
 -10  -4  -2  587.54   49.70
  10   4  -2  605.64   46.50
   4 -10  -2  558.34   59.39
  10   4  -2  569.64   56.09
  -4  10  -2  620.64   66.39
  -4  10  -2  537.65   63.09
  10   4   2  602.74   60.19
 -10  -4   2  540.55   93.09
   4 -10   2  553.84   58.49
  -4  10   2  573.44   62.59
   2 -10  -2 3890.31  186.38
  10   2  -2 3873.91  154.98
  -2  10  -2 3331.37  193.58
   2 -10  -2 3957.60  162.28
 -10  -2  -2 3130.79  229.38
  -2  10  -2 4040.70  195.18
 -10  -2  -2 3542.85  166.58
  10   2  -2 3799.62  179.58
  -2  10   2 3761.02  186.68
  10   2   2 3890.21  189.68
 -10  -2   2 3543.45  247.18
 -10   0  -2 1495.15   96.29
   0  10  -2 1443.56  102.69
   0  10  -2 1167.88   93.09
  10   0  -2 1478.85   94.29
   0 -10  -2 1639.64   87.59
 -10   0  -2 1452.45  124.29
  10   0  -2 1526.55   84.69
   0 -10  -2 1582.74  103.79
 -10   0   2 1481.45  137.39
   0  10   2 1387.76   97.89
  10   0   2 1509.05  104.79
   0  10   2 1495.55   63.99
 -10   0   2 1523.75   83.89
   0  10   2 1490.75   86.39
   0 -10   2 1393.26   99.69
   2  10  -2  267.57   40.20
 -10   2  -2  275.57   35.80
  10  -2  -2  273.87   30.80
  -2 -10  -2  263.37   30.90
  10  -2  -2  282.47   28.90
  -2 -10  -2  219.68   24.20
  -2 -10  -2  292.87   35.20
 -10   2  -2  268.57   35.80
  10  -2   2  268.87   38.40
  -2 -10   2  207.38   30.90
 -10   2   2  278.77   36.80
   2  10   2  241.88   29.10
  -2 -10   2  209.28   30.10
 -10   2   2  264.37   29.50
  -4 -10  -2  137.39   16.80
  -4 -10  -2  140.59   16.40
  -4 -10  -2  164.38   20.40
  10  -4  -2  116.89   16.10
  10  -4  -2  114.19   14.80
 -10   4  -2   93.79   23.50
  -4 -10  -2  125.19   16.80
   4  10  -2   92.39   23.10
 -10   4   2  133.79   17.60
  -4 -10   2   84.89   22.60
  -4 -10   2  113.39   13.30
 -10   4   2  143.19   20.40
  10  -4   2  101.59   26.60
  -6 -10  -2  201.48   23.30
  10  -6  -2  204.58   24.40
  -6 -10  -2  253.17   34.20
   6  10  -2  193.88   31.50
  10  -6  -2  203.58   26.50
  -6 -10  -2  240.48   26.40
 -10   6  -2  218.38   39.40
  -6 -10   2  325.47   41.90
  10  -6   2  208.58   30.20
 -10   6   2  195.48   34.90
  -6 -10   2  162.58   31.80
   6  10   2  207.88   26.10
  10  -8  -2    4.10    2.50
   8  10  -2    2.70    2.00
   8  10   2   -1.30    2.20
  10 -10  -2   98.49   18.20
 -10  10  -2  154.78   19.90
 -10 -10  -2   75.59   10.00
  10  10  -2  102.99   24.80
  10 -10   2  104.39   13.90
 -10  10   2  173.98   37.60
  10  10   2   45.10   13.50
   9 -11  -2 1284.97  104.19
 -11  -9  -2 1497.45  149.19
  -9  11  -2 1506.95  125.19
  11   9  -2 1507.25  116.59
   9 -11   2 1487.65  117.79
  11   9   2 1426.76  111.49
  -9  11   2 1389.56  119.89
 -11  -9   2 1487.45  150.38
   7 -11  -2  759.22   75.99
  11   7  -2  831.82   78.29
 -11  -7  -2  797.32   60.59
  -7  11  -2  924.11   90.99
 -11  -7  -2  736.03   98.29
  -7  11  -2  861.11   83.69
   7 -11   2  703.73   72.99
  11   7   2  787.22   73.49
 -11  -7   2  883.91  109.59
  -7  11   2  711.23   78.89
   5 -11  -2  211.68   38.60
 -11  -5  -2  142.69   40.10
  11   5  -2  116.69   19.70
  11   5  -2  181.48   32.80
  -5  11  -2  231.48   29.40
 -11  -5  -2  201.08   22.30
  -5  11  -2  194.08   25.30
 -11  -5   2  182.68   49.80
   5 -11   2  159.88   32.70
  11   5   2  172.38   33.80
  -5  11   2  176.88   36.10
  11   3  -2   28.40    2.30
  -3  11   2   13.00    4.70
   1 -11  -2  196.08   34.70
  -1  11  -2  176.78   31.20
  -1  11  -2  220.78   39.90
 -11  -1  -2  186.78   26.40
  11   1  -2  179.78   24.90
  11   1  -2  151.68   18.90
 -11  -1  -2  159.28   40.30
  -1  11   2  166.88   32.20
   1 -11   2  133.99   28.50
 -11  -1   2  170.98   43.60
  11   1   2  170.38   33.40
 -11   1  -2  425.16   47.80
  11  -1  -2  459.35   41.60
  -1 -11  -2  489.65   52.79
 -11   1  -2  564.84   63.49
   1  11  -2  578.04   61.59
  -1 -11  -2  486.35   42.80
  11  -1  -2  475.35   47.80
  -1 -11   2  476.35   53.69
  11  -1   2  412.96   53.29
 -11   1   2  451.25   41.20
 -11   1   2  453.05   63.19
   1  11   2  490.75   55.19
   3  11  -2  332.87   42.50
 -11   3  -2  405.36   48.10
  11  -3  -2  371.26   37.70
  -3 -11  -2  408.06   40.30
  -3 -11  -2  401.66   43.20
  11  -3  -2  462.55   45.00
 -11   3  -2  338.07   43.60
  -3 -11  -2  461.15   43.90
   3  11   2  394.56   43.40
  11  -3   2  412.26   52.49
 -11   3   2  421.36   53.19
  -3 -11   2  386.66   47.20
 -11   3   2  379.76   41.60
  -5 -11  -2  848.92   68.19
  11  -5  -2  891.71   71.09
   5  11  -2  801.32   69.69
  -5 -11  -2  798.52   63.29
  -5 -11  -2  891.01   65.19
  11  -5  -2  927.91   72.49
  -5 -11  -2  869.11   76.49
 -11   5  -2  844.12   80.99
  -5 -11   2  933.81   89.09
 -11   5   2  924.41   80.79
  11  -5   2  813.02   80.89
  -5 -11   2  843.72   77.69
  11  -7  -2 2335.97  137.79
  -7 -11  -2 2266.87  122.99
  -7 -11  -2 2184.08  154.58
  11  -7  -2 2189.18  127.49
 -11   7  -2 2335.57  156.68
   7  11  -2 2276.77  128.69
   7  11   2 2099.19  129.39
  11  -7   2 2161.28  147.39
  -7 -11   2 2158.18  169.88
  -7 -11   2 2231.98  144.39
 -11   7   2 2013.60  142.09
 -11   9  -2  188.58   37.40
  -9 -11  -2  225.68   29.40
 -11   9   2  211.48   29.90
   9  11   2  114.79   24.60
  11  -9   2  190.88   27.50
  -9 -11   2  153.48   21.40
  -9 -11   2  184.28   35.20
   8 -12  -2   94.49    6.60
  -8  12  -2  109.59   12.70
 -12  -8  -2  146.99   40.10
  -8  12  -2  165.78   19.40
  12   8  -2  147.29   31.40
  -8  12   2  132.89   29.60
   8 -12   2  141.09   30.00
 -12  -8   2  152.28   20.30
  12   8   2   91.39   21.30
 -12  -6  -2 1901.41  188.28
  12   6  -2 1999.00  137.19
   6 -12  -2 2132.79  144.39
  -6  12  -2 2233.48  157.58
 -12  -6  -2 2128.39  118.79
  -6  12  -2 2101.79  152.58
 -12  -6   2 2279.97  201.38
   6 -12   2 2187.28  146.09
  12   6   2 2286.97  147.09
  -6  12   2 2172.78  156.48
  -4  12  -2  153.88   30.80
  12   4  -2  156.58   30.80
 -12  -4  -2  154.18   39.00
  -4  12  -2  198.98   38.50
 -12  -4  -2  190.78   22.20
   4 -12  -2  148.89   32.60
  12   4   2  202.38   38.80
 -12  -4   2  224.28   57.79
  -4  12   2  194.78   39.10
   4 -12   2  117.19   24.40
 -12  -2  -2  895.31  107.29
  12   2  -2  894.41   74.79
 -12  -2  -2  781.72   65.39
  -2  12  -2  831.42   83.19
  -2  12  -2  867.11   83.49
   2 -12  -2  797.52   75.19
  12   2   2  803.92   77.99
   2 -12   2  696.13   71.69
 -12  -2   2  820.02  107.59
  -2  12   2  875.11   81.99
   0  12  -2  136.79   31.60
   0 -12  -2  112.09   23.80
  12   0  -2  179.78   23.90
 -12   0  -2  153.18   21.80
 -12   0  -2  241.68   47.00
   0 -12   2  172.68   25.30
   0  12   2  125.89   29.20
  12   0   2  142.79   30.80
 -12   0   2  163.88   19.40
  12  -2  -2   97.09   12.70
  -2 -12  -2   98.89   13.80
  -2 -12  -2  104.39   11.10
   2  12  -2  101.79   23.70
 -12   2  -2  112.19   23.60
  -2 -12   2  121.29   26.90
 -12   2   2  113.49   14.90
   2  12   2  128.49   27.50
  12  -2   2  134.09   31.60
 -12   2   2  114.29   14.70
   4  12  -2 1332.97   99.29
  -4 -12  -2 1320.67   93.09
  12  -4  -2 1333.07   90.79
 -12   4  -2 1223.18  103.49
  12  -4  -2 1408.96   98.09
  -4 -12  -2 1357.46   91.79
 -12   4   2 1391.56  100.79
  -4 -12   2 1342.77  104.19
  12  -4   2 1170.08  103.79
   4  12   2 1288.77  101.99
 -12   6  -2   61.39    7.40
   6  12  -2   39.90    4.70
  -6 -12  -2   49.99    6.80
  -6 -12  -2   38.30    3.70
  12  -6  -2   31.00    4.30
  -6 -12   2   58.29    6.30
  12  -6   2   47.00    4.10
  -8 -12  -2 1615.24  130.89
   8  12  -2 1395.26   97.69
 -12   8  -2 1412.36  119.49
  12  -8  -2 1291.57  101.69
  -8 -12   2 1526.95  118.49
   8  12   2 1325.77  103.29
  12  -8   2 1503.65  121.09
 -12   8   2 1590.54  122.69
  -8 -12   2 1588.64  138.19
  -7  13  -2  220.68   27.40
  -7  13  -2  104.39   27.70
 -13  -7  -2  224.78   52.59
  13   7  -2  176.88   34.00
   7 -13  -2  223.68   40.70
   7 -13   2  165.58   34.60
  13   7   2  141.89   29.10
 -13  -7   2  223.18   29.60
  -7  13   2  182.68   37.90
   5 -13  -2   54.89    3.80
   5 -13   2   64.69    5.40
 -13  -5   2   59.49    5.70
 -13  -3  -2  394.76   41.50
 -13  -3  -2  413.86   61.09
  13   3  -2  370.06   45.80
  -3  13  -2  309.57   53.49
   3 -13  -2  422.06   50.69
  -3  13  -2  446.06   54.19
  13   3   2  415.56   53.29
   3 -13   2  366.86   47.00
 -13  -3   2  427.86   79.89
  -3  13   2  456.75   56.49
 -13  -1  -2    2.80    4.00
 -13   1  -2  735.63   69.29
  -1 -13  -2  761.62   73.49
 -13   1  -2  663.03   76.79
   1  13  -2  659.73   71.59
  13  -1  -2  788.62   70.09
  -1 -13   2  736.73   72.89
 -13   1   2  703.43   86.69
  13  -1   2  726.93   75.99
   1  13   2  703.63   69.59
  13  -3  -2 1141.29   88.89
  -3 -13  -2 1123.29   87.89
   3  13  -2 1153.08   94.99
 -13   3  -2 1040.20   91.29
   3  13   2 1161.88   90.39
 -13   3   2 1157.18   86.19
 -13   3   2 1092.89  115.39
  -3 -13   2 1121.69   97.09
  13  -3   2 1004.60   96.59
  -5 -13  -2  185.48   21.50
   5  13  -2  163.18   20.40
 -13   5  -2  165.98   33.70
  -5 -13  -2  148.39   19.60
  13  -5  -2  171.48   19.10
  -5 -13   2  182.18   24.60
 -13   5   2  178.18   20.00
  13  -5   2  138.19   17.90
  -7 -13  -2   91.69   12.40
 -13   7  -2  154.48   19.10
  -7 -13   2  123.19   15.20
 -13   7   2  163.18   30.40
  13  -7   2  139.99   19.00
   6 -14  -2  739.03   77.99
 -14  -6  -2  855.31  110.09
  14   6  -2  847.42   80.99
  -6  14  -2  524.45   78.49
  -6  14  -2  868.81   85.09
  -6  14   2  704.73   80.79
  14   6   2  678.83   73.89
 -14  -6   2  816.72  102.39
   4 -14  -2  169.68   22.70
 -14  -4  -2  219.18   33.00
  14   4  -2  212.68   28.30
 -14  -4  -2  174.48   21.30
  -4  14  -2  169.18   20.00
   4 -14   2  150.08   31.60
  14   4   2  186.88   26.80
 -14  -4   2  234.58   34.50
  -4  14   2  174.48   37.30
  -2  14  -2  301.87   39.90
   2 -14  -2  340.47   52.49
 -14  -2  -2  309.27   34.60
  14   2  -2  302.57   40.20
 -14  -2  -2  280.87   55.69
 -14  -2   2  347.67   46.90
  14   2   2  262.67   46.00
  -2  14   2  298.27   42.30
   2 -14   2  352.66   44.20
   0 -14  -2 2852.61  171.88
   0  14  -2 2663.43  174.28
 -14   0  -2 2651.93  154.68
  14   0  -2 2766.62  163.58
 -14   0  -2 2772.92  197.08
  14   0   2 2696.83  174.78
   0  14   2 2727.43  167.18
 -14   0   2 2619.54  208.38
   0 -14   2 2788.52  171.98
 -14   2  -2  173.78   22.10
  -2 -14  -2  160.78   20.10
  14  -2  -2  153.48   19.50
   2  14  -2  166.38   33.80
  14  -2   2  157.78   34.20
  -2 -14   2  180.28   34.80
   2  14   2  148.09   27.90
  14  -4  -2 1737.13  118.69
 -14   4  -2 1610.54  122.49
  -4 -14  -2 1524.95  107.99
   4  14  -2 1494.55  114.09
 -14   4   2 1552.34  109.99
  14  -4   2 1586.44  127.59
  -4 -14   2 1586.94  123.59
 -14   6  -2   53.79    4.50
  -6 -14   2   50.39    3.70
  14  -6   2   59.99    3.90
  15   3  -2   25.70    3.20
 -15  -3   2   33.30    5.50
   1 -15  -2  178.48   21.80
  -1  15  -2  184.08   36.10
  15   1  -2  154.68   20.10
 -15  -1  -2  147.19   15.90
  15   1   2  162.08   33.00
   1 -15   2  178.08   22.30
   1  15  -2  122.79   27.00
  -1 -15  -2  148.99   19.90
  15  -1  -2  140.29   19.50
 -15   1  -2  195.58   25.10
  -1 -15   2  148.09   15.60
  15  -1   2  154.68   20.30
   1  15   2  131.09   29.20
   3  15  -2  169.58   18.70
  -3 -15  -2  149.49   19.20
  15  -3  -2  140.49   16.50
 -15   3  -2  160.78   19.30
  -3 -15   2  139.99   28.50
  15  -3   2  164.48   34.40
   0   1  -3  605.74   40.60
  -1   0  -3  590.64   38.00
   1   0  -3  603.24   41.00
  -1   0  -3  634.54   42.30
   0   1  -3  596.24   38.90
   0  -1  -3  589.64   41.00
   1   0  -3  620.54   38.90
   0  -1  -3  590.84   40.10
   0  -1   3  680.63   37.60
  -1   0   3  586.64   31.00
   1   0   3  579.14   49.20
   1   0   3  616.74   35.50
   0  -1   3  639.64   51.19
  -1   0   3  576.74   49.20
   0   1   3  688.73   29.50
   0   1   3  647.84   52.39
   1  -2  -3 1394.26   72.39
   2   1  -3 1400.56   62.89
   2   1  -3 1406.56   72.79
  -1   2  -3 1316.27   66.99
  -1   2  -3 1430.56   69.79
   1  -2  -3 1345.97   71.49
  -2  -1  -3 1388.66   63.59
  -2  -1  -3 1371.16   73.19
  -1   2   3 1396.66   84.09
   2   1   3 1312.87   83.79
  -2  -1   3 1282.67   84.39
  -2  -1   3 1340.07   62.49
   2   1   3 1409.06   65.29
   1  -2   3 1405.96   81.79
   1  -2   3 1487.85   71.19
  -2   1  -3 2219.38   96.99
  -1  -2  -3 2046.30   89.29
   1   2  -3 1931.71   90.89
  -2   1  -3 1948.31   83.89
   2  -1  -3 2168.68   93.09
   2  -1  -3 2048.40   94.19
   1   2  -3 2039.60   83.49
  -1  -2  -3 1969.70   94.49
   2  -1   3 2036.80  108.29
   1   2   3 2062.39  110.19
   1   2   3 2068.79   76.89
  -1  -2   3 2049.20  110.29
  -2   1   3 2070.99  111.29
  -1  -2   3 2155.08   91.39
   2  -1   3 2172.68   95.69
   3   2  -3 2444.86   89.69
  -2   3  -3 2359.86  104.89
   2  -3  -3 2245.68  106.99
   2  -3  -3 2330.47  107.69
   3   2  -3 2339.37  105.39
  -2   3  -3 2263.47   97.59
  -3  -2  -3 2299.77   92.69
  -3  -2  -3 2342.77  108.99
   2  -3   3 2526.45  112.99
  -3  -2   3 2261.87  127.99
  -2   3   3 2330.17  120.79
   2  -3   3 2357.06  115.69
   3   2   3 2396.16  101.99
  -3  -2   3 2445.66  101.69
   3   2   3 2291.97  126.69
   0  -3  -3 1528.95   78.99
   0  -3  -3 1544.85   80.59
   3   0  -3 1695.23   74.29
  -3   0  -3 1629.64   83.39
   0   3  -3 1628.34   72.69
   0   3  -3 1560.74   78.29
  -3   0  -3 1580.24   67.09
   3   0  -3 1574.14   80.49
  -3   0   3 1525.05   95.09
   3   0   3 1578.64   80.69
   3   0   3 1518.75   92.19
   0  -3   3 1610.14   91.39
   0   3   3 1657.13   94.69
   0  -3   3 1608.54   81.19
  -3   0   3 1623.04   67.29
   3  -2  -3 2638.34   90.39
  -2  -3  -3 2551.64  116.59
   3  -2  -3 2722.43  115.79
  -3   2  -3 2594.24  101.39
   2   3  -3 2691.03   96.39
   2   3  -3 2511.65  112.49
  -2  -3  -3 2550.64  106.49
  -3   2  -3 2685.73  117.49
   3  -2  -3 2658.93  116.89
   2   3   3 2533.55  133.49
  -3   2   3 2564.34  131.39
   2   3   3 2570.84  101.79
  -2  -3   3 2462.45  133.59
   3  -2   3 2931.01  125.39
  -2  -3   3 2709.63  113.89
   3  -2   3 2583.14  126.89
  -3   4  -3 1088.39   61.29
   3  -4  -3 1133.09   70.69
  -4  -3  -3 1076.69   55.29
  -4  -3  -3  992.10   65.69
   3  -4  -3 1045.50   69.09
  -3   4  -3 1094.39   68.09
   4   3  -3 1073.49   67.09
  -4  -3   3 1163.18   46.50
  -4  -3   3 1093.19   61.19
   3  -4   3 1073.39   67.39
   3  -4   3 1125.59   73.19
   4   3   3 1166.68   86.39
  -4  -3   3 1096.29   86.79
  -3   4   3 1048.10   73.29
  -4  -3   3 1150.38   64.59
   4   3   3 1078.99   62.49
   1  -4  -3 4420.66  174.88
  -4  -1  -3 4468.25  174.78
  -1   4  -3 4116.29  160.48
  -1   4  -3 4319.07  162.48
   4   1  -3 4285.77  166.58
  -4  -1  -3 4235.08  143.59
   1  -4  -3 4388.06  170.78
  -1   4   3 4453.35  190.98
  -4  -1   3 4103.39  200.08
   4   1   3 4424.06  198.68
   1  -4   3 4372.76  184.88
  -4  -1   3 4478.75  162.48
   4   1   3 4490.25  174.98
   1  -4   3 4515.95  178.38
  -1  -4  -3   95.99   17.10
   1   4  -3   94.89   16.90
  -4   1  -3   96.79    9.80
   4  -1  -3   98.89   18.50
  -1  -4  -3  106.89   17.80
  -4   1  -3  110.29   18.10
   4  -1  -3  110.39   10.90
   1   4  -3  110.49   10.50
   1   4   3  108.09   21.80
   1   4   3  104.49    8.60
  -4   1   3   82.49   19.50
  -1  -4   3   67.79   16.80
  -1  -4   3  103.99   15.40
   4  -1   3   99.59   19.40
   4  -1   3  103.49   18.40
   4  -3  -3 1954.50   99.09
  -4   3  -3 1821.62   97.09
  -3  -4  -3 1805.22   95.49
   3   4  -3 1951.10   68.19
  -4   3  -3 1886.81   81.99
  -3  -4  -3 1837.62   87.99
   4  -3  -3 1867.31   72.39
   3   4  -3 1848.81   94.19
   3   4   3 1909.91  113.79
  -4   3   3 1812.92   98.29
   4  -3   3 1833.02  100.29
  -4   3   3 1933.61  109.69
   4  -3   3 1966.30  105.39
  -4   3   3 1920.91   90.39
  -3  -4   3 1866.71  117.69
   3   4   3 1914.71   86.89
  -3  -4   3 1934.61   95.99
   4  -5  -3  502.45   47.60
   5   4  -3  499.85   44.10
  -5  -4  -3  470.35   31.90
  -5  -4  -3  508.85   44.50
  -4   5  -3  555.64   42.40
  -4   5  -3  591.64   51.49
   4  -5   3  487.95   48.70
  -5  -4   3  479.35   57.69
   5   4   3  501.05   59.69
   4  -5   3  486.75   39.70
  -5  -4   3  524.25   43.20
   5   4   3  534.55   42.90
  -4   5   3  491.75   39.80
  -4   5   3  480.75   45.20
  -4   5   3  459.15   47.30
   2  -5  -3  222.38   28.00
   2  -5  -3  234.28   28.10
  -5  -2  -3  208.28   26.30
  -5  -2  -3  218.68   16.70
  -2   5  -3  272.37   26.40
  -2   5  -3  253.07   27.00
   5   2  -3  179.88   24.50
   2  -5   3  230.48   24.90
  -5  -2   3  260.77   38.30
  -5  -2   3  255.07   19.30
   5   2   3  253.07   36.10
  -5  -2   3  246.48   23.80
  -2   5   3  240.98   28.60
  -5  -2   3  241.18   23.20
   5   2   3  270.87   27.40
   2  -5   3  193.68   26.10
   0   5  -3  805.92   45.70
   0  -5  -3  764.42   55.79
   5   0  -3  816.42   55.69
   0   5  -3  748.93   52.79
   0  -5  -3  763.42   56.49
  -5   0  -3  740.73   35.50
   5   0  -3  695.53   43.40
  -5   0  -3  763.22   56.19
   0   5   3  765.52   59.89
  -5   0   3  776.32   48.80
  -5   0   3  756.32   50.99
  -5   0   3  784.02   68.49
   0  -5   3  743.43   57.99
   5   0   3  785.52   65.39
   0  -5   3  605.74   53.19
   5   0   3  853.31   58.89
   2   5  -3  101.39    8.80
   2   5  -3   72.09   16.30
   5  -2  -3  109.09   20.10
  -2  -5  -3   95.59   17.40
   5  -2  -3  114.79   11.30
  -5   2  -3  117.69   20.60
  -5   2  -3  114.19   10.90
  -2  -5  -3  105.99   13.70
  -5   2   3  117.19   15.20
  -2  -5   3   97.09   21.20
   2   5   3  125.79   24.10
   5  -2   3   90.79   18.20
   5  -2   3  103.69   20.20
  -5   2   3   83.89   20.20
  -5   2   3   92.39   17.00
   2   5   3  127.79   12.50
  -2  -5   3  145.89   20.00
  -4  -5  -3  568.24   47.70
  -4  -5  -3  547.65   40.20
  -5   4  -3  600.34   52.59
   5  -4  -3  576.64   50.19
   4   5  -3  548.05   47.20
  -5   4  -3  599.64   40.10
   5  -4   3  527.35   51.69
  -4  -5   3  612.14   50.09
   5  -4   3  567.94   46.00
  -5   4   3  586.84   52.39
   4   5   3  577.54   40.90
  -5   4   3  562.44   45.70
   4   5   3  559.94   59.19
  -5   4   3  557.64   51.49
  -4  -5   3  614.14   64.19
  -5   6  -3 3041.20  135.79
   5  -6  -3 2719.43  144.29
  -5   6  -3 2778.12  151.68
   6   5  -3 2806.72  134.19
  -6  -5  -3 2734.03  134.49
  -6  -5  -3 2908.51  176.68
  -5   6   3 2938.51  150.58
  -6  -5   3 2699.93  184.98
   6   5   3 2782.02  135.19
  -5   6   3 2875.41  143.89
   5  -6   3 2874.91  128.89
   5  -6   3 2913.51  154.08
  -6  -5   3 2868.61  140.39
  -6  -3  -3  210.48   26.30
   6   3  -3  224.88   27.00
   3  -6  -3  222.38   29.80
  -3   6  -3  213.28   26.60
  -3   6  -3  254.07   28.70
  -3   6   3  213.58   23.30
  -3   6   3  163.28   30.30
   3  -6   3  203.48   21.50
  -6  -3   3  161.68   35.30
  -6  -3   3  222.08   24.60
  -3   6   3  226.18   26.40
   6   3   3  240.48   26.50
   3  -6   3  209.98   28.80
   1  -6  -3 5385.66  214.58
  -6  -1  -3 5234.08  212.48
   6   1  -3 5494.65  202.38
   1  -6  -3 5378.16  214.58
  -1   6  -3 5371.46  200.08
  -1   6  -3 5308.37  204.28
   6   1  -3 5418.46  202.08
   1  -6   3 5320.47  219.08
  -1   6   3 5667.63  226.68
   1  -6   3 5624.14  220.88
   6   1   3 5208.28  216.48
  -6  -1   3 5179.88  191.68
  -6  -1   3 5031.40  251.87
   6   1   3 5147.19  248.28
  -6   1  -3  469.75   45.50
   6  -1  -3  518.25   45.30
   6  -1  -3  500.45   36.50
  -1  -6  -3  619.44   51.89
  -1  -6  -3  560.64   47.40
   1   6  -3  621.14   49.80
   1   6  -3  597.74   34.90
  -1  -6   3  528.45   50.29
  -6   1   3  575.64   59.39
  -1  -6   3  527.15   47.70
  -6   1   3  552.84   43.80
   1   6   3  542.65   51.09
   6  -1   3  576.54   52.19
   6  -1   3  559.54   54.79
  -3  -6  -3  378.56   33.80
  -6   3  -3  365.16   26.10
  -6   3  -3  365.96   39.70
  -3  -6  -3  316.27   33.90
   3   6  -3  353.96   36.70
   6  -3  -3  340.17   36.50
   6  -3  -3  376.86   28.40
  -6   3   3  395.06   44.90
  -3  -6   3  331.77   43.40
   3   6   3  441.26   48.20
   6  -3   3  343.47   36.70
  -6   3   3  347.27   38.10
   6  -3   3  375.06   42.70
   3   6   3  404.96   31.10
  -3  -6   3  371.36   38.20
  -6   5  -3 1101.49   64.19
   5   6  -3  983.80   70.09
   6  -5  -3  985.40   75.29
  -5  -6  -3  977.30   68.79
  -6   5  -3 1000.40   80.69
  -5  -6  -3  953.30   57.29
  -6   5   3 1033.20   78.49
  -5  -6   3 1050.79  100.59
   5   6   3 1031.70   93.59
   5   6   3  952.30   63.09
  -6   5   3 1068.29   78.69
  -5  -6   3  994.40   72.19
   6  -5   3  939.51   78.59
   6  -5   3 1048.80   66.79
  -7  -6  -3  467.85   64.79
   6  -7  -3  432.16   50.99
  -6   7  -3  531.65   58.49
   7   6  -3  502.55   48.20
  -6   7  -3  538.05   47.80
  -7  -6  -3  506.25   47.20
   6  -7   3  404.86   51.49
  -7  -6   3  496.55   69.19
  -6   7   3  480.25   54.19
   7   6   3  508.15   45.80
  -7  -6   3  465.55   48.00
  -6   7   3  468.85   46.60
  -4   7  -3  737.93   59.99
   4  -7  -3  701.23   64.19
  -7  -4  -3  722.23   79.79
  -4   7  -3  772.52   64.99
  -7  -4  -3  701.23   57.29
   7   4  -3  737.83   57.29
  -4   7   3  716.63   56.29
  -7  -4   3  621.34   52.79
   7   4   3  672.93   56.09
   4  -7   3  653.93   62.79
  -4   7   3  732.33   65.89
  -7  -4   3  627.44   78.19
  -4   7   3  696.63   51.29
  -7  -2  -3  554.74   49.70
  -2   7  -3  627.34   53.89
  -7  -2  -3  513.15   62.99
   2  -7  -3  573.94   55.69
   7   2  -3  550.74   46.80
  -2   7  -3  612.84   50.49
   7   2  -3  574.24   45.40
   7   2   3  559.34   50.69
   2  -7   3  535.15   52.49
  -2   7   3  546.15   47.70
  -7  -2   3  544.35   67.59
   2  -7   3  568.54   44.40
   7   0  -3  157.28   24.70
   0   7  -3  155.88   26.40
  -7   0  -3  120.99   21.90
   7   0  -3  165.78   18.80
   0   7  -3  121.19   14.30
   0  -7  -3  129.79   23.50
   0  -7  -3  118.69   24.40
   0   7   3  156.28   20.40
   7   0   3  154.98   32.30
  -7   0   3  112.59   29.60
  -7   0   3  121.39   15.80
   7   0   3  162.48   23.30
   0  -7   3  157.58   20.20
   0  -7   3  116.99   23.00
   2   7  -3 1727.83   97.99
   7  -2  -3 1634.44   95.09
  -2  -7  -3 1597.94   95.19
  -2  -7  -3 1795.32   99.59
  -7   2  -3 1627.44  101.79
   7  -2  -3 1703.73   85.79
  -2  -7   3 1601.84   99.09
   2   7   3 1671.33  108.29
   7  -2   3 1672.53  107.09
  -2  -7   3 1654.13  113.79
  -7   2   3 1778.92  100.99
  -7   2   3 1895.31  124.69
   7  -2   3 1764.72  108.69
   7  -4  -3 1209.78   82.59
   4   7  -3 1141.09   77.59
  -4  -7  -3 1191.28   71.69
  -7   4  -3 1209.58   88.59
  -4  -7  -3 1197.38   78.29
  -7   4   3 1229.68   91.89
  -4  -7   3 1184.78  104.59
  -7   4   3 1269.07   87.69
   7  -4   3 1169.98   78.19
   4   7   3 1243.48   70.59
   4   7   3 1243.78   97.59
   7  -4   3 1190.18   90.09
  -6  -7  -3  126.69   17.30
   6   7  -3  120.89   24.30
  -6  -7  -3   87.99   25.60
  -7   6  -3  104.19   13.40
  -7   6  -3   95.79   24.90
   7  -6  -3  129.29   27.90
  -7   6   3  109.29   25.20
  -6  -7   3  121.29   24.80
   6   7   3  158.98   19.30
  -6  -7   3  116.99   29.60
   7  -6   3   97.29   27.00
  -7   6   3  129.19   24.40
   7  -8  -3  152.48   32.50
  -8  -7  -3  173.88   21.60
  -7   8  -3  194.08   25.10
  -7   8  -3  171.08   34.70
   8   7  -3  168.88   21.70
  -8  -7  -3  185.28   41.90
   7  -8   3  108.69   28.50
  -8  -7   3  151.68   29.80
  -7   8   3  233.48   40.50
  -8  -7   3  211.18   55.09
   8   7   3  165.38   21.70
  -5   8  -3 2221.68  130.19
  -8  -5  -3 2329.37  122.69
   8   5  -3 2293.17  118.49
  -5   8  -3 2098.89  138.19
   5  -8  -3 2319.07  140.19
  -8  -5  -3 2209.28  170.08
  -8  -5   3 2361.46  187.18
   8   5   3 2296.07  128.09
   5  -8   3 2182.88  136.89
  -5   8   3 2306.67  140.19
  -8  -3  -3 1140.09   79.09
   8   3  -3 1128.99   75.39
  -3   8  -3 1205.38   86.49
   3  -8  -3 1181.48   90.69
  -3   8  -3 1267.47   87.69
   8   3  -3 1120.79   74.79
  -8  -3  -3 1088.99  106.39
  -3   8   3 1106.09   86.09
   3  -8   3 1118.69   86.19
  -3   8   3 1147.89   67.09
  -3   8   3 1118.49   73.99
   8   3   3 1062.09   78.99
  -8  -3   3  999.70  107.19
   1  -8  -3  464.25   47.90
  -8  -1  -3  527.25   50.09
  -1   8  -3  526.85   51.49
   8   1  -3  497.85   43.10
   1  -8  -3  484.55   51.69
  -8  -1  -3  509.95   62.59
   8   1  -3  507.95   45.60
  -1   8  -3  544.45   44.60
  -1   8   3  503.05   46.40
   8   1   3  484.75   50.09
   1  -8   3  529.05   55.79
   1  -8   3  489.35   45.30
  -8  -1   3  492.65   65.69
  -8   1  -3 2079.69  117.39
  -1  -8  -3 1976.40  114.49
   8  -1  -3 1986.40  107.89
   1   8  -3 1976.50  113.09
   8  -1  -3 2031.70  103.19
  -1  -8  -3 1937.21  111.99
  -1  -8   3 2117.99  129.69
  -8   1   3 1868.61  137.19
   8  -1   3 2058.69  123.49
  -8   1   3 2016.80  107.59
  -1  -8   3 2085.49  118.99
   8  -1   3 2165.78  137.89
   1   8   3 2081.49  118.49
  -3  -8  -3  192.38   22.30
  -8   3  -3  200.38   32.50
   8  -3  -3  223.68   22.90
  -3  -8  -3  173.38   24.70
   8  -3  -3  237.78   31.20
   3   8  -3  177.48   29.60
   8  -3   3  173.18   23.60
  -3  -8   3  227.68   31.40
  -8   3   3  235.68   30.10
   3   8   3  226.08   31.50
  -3  -8   3  278.77   35.00
   8  -3   3  169.88   32.50
  -8   3   3  189.78   28.00
  -5  -8  -3 2360.26  111.79
   8  -5  -3 2175.88  125.49
  -8   5  -3 2271.97  141.59
  -5  -8  -3 2065.89  117.39
   5   8  -3 2164.18  119.89
  -8   5   3 2207.58  138.09
  -5  -8   3 2146.79  127.69
  -5  -8   3 2211.68  171.28
   5   8   3 2220.58  113.09
  -8   5   3 2159.28  133.79
   8  -5   3 2174.08  137.09
   5   8   3 2270.27  150.78
   7   8  -3   59.49    7.60
  -7  -8  -3   52.19   14.10
  -8   7  -3   54.49    5.00
  -7  -8  -3   61.89    6.30
   8  -7  -3   46.20   10.20
  -8   7   3   64.19   16.20
  -7  -8   3   43.10    6.40
   8  -7   3   45.00   10.10
  -7  -8   3  147.49   39.00
  -9  -8  -3 1971.30  165.48
  -9  -8  -3 1973.20  116.09
   9   8  -3 2002.00  116.89
   8  -9  -3 2020.90  136.09
  -8   9  -3 1852.81  142.49
   9   8   3 1923.31  121.89
  -9  -8   3 1883.91  127.09
  -8   9   3 2043.70  145.19
   8  -9   3 1915.51  137.99
  -9  -8   3 1904.11  182.28
   6  -9  -3 1446.46  109.39
   9   6  -3 1400.46  101.89
   9   6  -3 1452.35   90.79
  -6   9  -3 1384.96  105.99
  -6   9  -3 1412.96  113.49
  -9  -6  -3 1410.06   92.59
  -9  -6  -3 1417.76  136.29
   9   6   3 1445.36   98.89
  -6   9   3 1469.25  112.59
   6  -9   3 1467.05  110.99
  -9  -6   3 1349.86  148.89
  -4   9  -3  269.07   35.20
   9   4  -3  232.78   29.70
   4  -9  -3  256.47   42.80
  -9  -4  -3  172.38   24.00
  -4   9  -3  278.17   34.80
   9   4  -3  242.98   29.60
  -9  -4  -3  228.18   51.19
   4  -9   3  251.97   37.20
   9   4   3  243.78   30.60
  -9  -4   3  250.37   56.39
  -4   9   3  203.08   36.30
  -2   9  -3  172.18   31.50
  -9  -2  -3  181.58   25.50
  -2   9  -3  234.98   28.90
   9   2  -3  189.28   23.90
   9   2  -3  192.88   24.10
  -9  -2  -3  185.58   43.40
   2  -9  -3  210.98   35.90
  -9  -2   3  178.78   46.80
  -2   9   3  196.78   21.90
   2  -9   3  111.19   24.70
  -2   9   3  169.68   22.50
  -2   9   3  191.08   35.90
   9   2   3  201.88   28.30
   0  -9  -3  462.75   47.50
   9   0  -3  402.26   40.70
  -9   0  -3  466.05   57.49
   0   9  -3  420.36   48.00
   0  -9  -3  394.16   44.40
   9   0  -3  433.26   39.60
  -9   0  -3  392.26   44.10
   0   9   3  438.06   41.20
   0  -9   3  355.76   45.20
   9   0   3  395.76   46.80
  -9   0   3  444.76   63.39
   2   9  -3  110.89   25.70
  -2  -9  -3  142.89   17.90
  -9   2  -3  122.19   25.10
   9  -2  -3  121.89   23.20
   9  -2  -3  140.09   16.40
  -2  -9  -3  146.49   20.30
  -9   2   3  137.19   31.90
   9  -2   3  176.18   26.20
  -9   2   3  134.09   15.90
  -2  -9   3  165.68   19.70
  -2  -9   3  119.79   26.00
   2   9   3   88.09   19.40
   9  -2   3  113.39   28.10
   4   9  -3  375.26   42.50
  -4  -9  -3  484.25   42.00
  -9   4  -3  421.96   51.19
   9  -4  -3  403.06   44.40
  -4  -9  -3  379.16   41.30
   9  -4   3  354.26   47.20
   4   9   3  398.26   48.00
  -9   4   3  344.57   41.10
  -4  -9   3  322.47   42.00
  -9   4   3  357.76   44.40
  -4  -9   3  389.76   50.79
   9  -4   3  357.16   38.60
  -6  -9  -3 1172.48   83.69
  -9   6  -3 1260.07  106.69
   9  -6  -3 1244.98   93.89
   6   9  -3 1158.08   84.79
  -6  -9   3 1317.27  129.49
   6   9   3 1120.69  107.09
  -6  -9   3 1201.28   92.29
  -9   6   3 1130.19   95.09
   9  -6   3 1212.68  100.39
  -8  -9  -3 1158.58   81.69
   9  -8  -3 1140.09   96.59
  -9   8  -3 1088.39  103.09
   8   9  -3 1187.38   85.09
  -8  -9  -3 1282.47  118.99
  -8  -9   3 1049.49   88.69
   8   9   3 1045.40   82.49
   9  -8   3  993.90   95.79
  -8  -9   3 1132.59  128.59
  -9   8   3 1084.89   98.69
  -9  10  -3  221.28   30.50
 -10  -9  -3  190.28   29.00
  10   9  -3  258.97   35.30
  10   9  -3  113.79   27.10
   9 -10  -3  182.68   24.60
 -10  -9  -3  241.68   27.50
  -9  10   3  222.68   31.00
 -10  -9   3  229.48   30.00
   9 -10   3  191.78   40.30
 -10  -7  -3  246.08   27.60
   7 -10  -3  195.18   37.70
  -7  10  -3  247.48   34.40
  -7  10  -3  202.78   22.80
  10   7  -3  285.77   37.10
  10   7  -3  208.08   24.70
 -10  -7  -3  220.78   33.60
 -10  -7   3  290.47   66.29
  10   7   3  168.98   23.80
   7 -10   3  227.18   41.60
  -7  10   3  237.68   42.50
   5 -10  -3  286.57   46.90
  10   5  -3  294.27   32.90
 -10  -5  -3  335.37   36.90
  -5  10  -3  297.97   38.40
 -10  -5  -3  244.78   56.79
  -5  10  -3  254.37   33.00
  10   5  -3  301.57   37.50
  10   5   3  303.67   37.00
   5 -10   3  268.47   39.50
  -5  10   3  271.67   44.00
 -10  -5   3  374.46   76.59
  10   3  -3  802.32   66.89
 -10  -3  -3  702.13   91.39
 -10  -3  -3  871.51   70.19
  -3  10  -3  915.41   83.89
  10   3  -3  950.00   67.39
  -3  10  -3  859.51   76.99
   3 -10  -3  925.61   81.59
  -3  10   3  883.81   81.19
 -10  -3   3  853.11  111.09
  10   3   3  879.81   75.99
   3 -10   3  857.11   78.69
   1 -10  -3  152.38   30.30
  10   1  -3  159.68   20.70
  -1  10  -3  166.08   33.60
  10   1  -3  168.18   20.00
 -10  -1  -3  174.38   39.80
 -10  -1  -3  171.78   29.30
   1 -10   3  147.59   30.30
  10   1   3  153.38   30.10
  -1  10   3  125.69   22.70
 -10  -1   3  136.09   36.50
  -1  10   3  126.69   31.60
  -1  10   3  178.28   19.00
   1  10  -3 3107.49  163.88
  -1 -10  -3 3034.90  158.48
  10  -1  -3 3173.78  152.68
 -10   1  -3 2949.41  159.98
 -10   1  -3 2994.60  183.48
  -1 -10  -3 3027.00  157.58
  10  -1  -3 3008.30  146.49
  10  -1   3 3031.60  169.68
 -10   1   3 2967.30  202.38
   1  10   3 2988.70  157.28
  -1 -10   3 2974.50  163.58
  -3 -10  -3  476.35   46.30
  10  -3  -3  448.76   44.70
 -10   3  -3  432.66   50.79
   3  10  -3  336.17   41.90
  -3 -10  -3  440.26   45.70
  10  -3  -3  409.16   39.60
 -10   3   3  526.55   49.10
   3  10   3  474.95   50.49
  10  -3   3  420.06   47.00
  10  -3   3  397.86   52.39
  -3 -10   3  502.35   54.39
 -10   3   3  479.85   57.69
  -3 -10   3  531.65   60.59
  -5 -10  -3  847.42   69.39
  10  -5  -3  988.00   78.19
 -10   5  -3  896.81   84.99
   5  10  -3  820.22   70.59
  -5 -10   3  792.02   75.09
   5  10   3  886.41   83.59
  10  -5   3  843.52   82.99
  -5 -10   3  994.90  102.59
 -10   5   3  852.31   85.39
 -10   5   3  941.21   80.29
  -7 -10  -3  173.88   21.10
   7  10  -3  108.09   21.80
 -10   7  -3  125.99   30.80
  10  -7  -3  143.49   18.80
  -7 -10   3  132.69   27.70
  10  -7   3   93.79   24.10
 -10   7   3  147.59   29.70
  10  -9  -3  326.47   41.40
  -9 -10  -3  339.37   47.60
 -10   9  -3  367.66   49.99
  -9 -10  -3  356.16   38.00
   9  10  -3  279.07   34.30
  -9 -10   3  410.06   53.09
  -9 -10   3  328.87   42.10
 -10   9   3  359.26   47.40
  10  -9   3  280.77   50.49
   8 -11  -3  537.25   59.99
  -8  11  -3  394.56   52.89
  11   8  -3  433.96   48.20
 -11  -8  -3  487.05   47.50
  11   8  -3  449.26   53.09
 -11  -8  -3  491.75   74.09
  -8  11   3  571.94   69.59
 -11  -8   3  547.85   79.99
  11   8   3  326.67   50.39
   8 -11   3  522.95   59.79
   6 -11  -3  110.29   14.50
  -6  11  -3  100.99   19.10
 -11  -6  -3  123.49   13.50
  11   6  -3  123.19   17.40
 -11  -6  -3  124.39   15.10
  -6  11  -3  100.69    7.70
   6 -11   3   89.79   22.30
  -6  11   3   76.59   16.80
 -11  -6   3  141.99   16.90
  11   6   3   96.59   13.60
  -4  11  -3  372.76   47.70
  -4  11  -3  572.14   62.79
 -11  -4  -3  368.66   70.59
  11   4  -3  476.75   44.40
  11   4  -3  529.25   52.19
 -11  -4  -3  511.45   49.40
   4 -11  -3  478.25   57.89
   4 -11   3  460.05   55.49
  -4  11   3  548.05   65.09
  11   4   3  486.25   53.69
 -11  -4   3  510.25   76.99
 -11  -2  -3  162.18   23.00
 -11  -2  -3  101.19   29.80
  11   2  -3  167.08   21.00
  -2  11  -3  158.68   34.20
  11   2  -3  183.88   22.80
   2 -11  -3  202.58   26.60
  -2  11   3  149.29   31.80
  11   2   3  173.28   23.40
 -11  -2   3  133.49   36.30
   2 -11   3  153.28   32.10
   0  11  -3  252.07   41.90
   0 -11  -3  319.47   38.80
 -11   0  -3  281.17   42.60
  11   0  -3  355.46   37.20
  11   0  -3  309.67   33.00
 -11   0  -3  334.77   39.60
   0 -11   3  306.27   40.30
   0  11   3  291.67   24.70
  11   0   3  331.47   43.10
 -11   0   3  255.67   56.19
   0  11   3  277.17   45.60
  -2 -11  -3 1454.05  100.49
  11  -2  -3 1425.16   93.39
 -11   2  -3 1379.26  105.29
  11  -2  -3 1482.25   95.39
   2  11  -3 1368.16  103.89
  -2 -11  -3 1372.26   97.49
  -2 -11   3 1301.57  102.29
   2  11   3 1456.35  101.69
 -11   2   3 1502.65  133.39
  11  -2   3 1340.87  109.49
  -4 -11  -3 1937.81  118.99
  -4 -11  -3 2084.29  119.69
  11  -4  -3 1976.90  120.19
 -11   4  -3 1990.60  137.89
   4  11  -3 1898.71  123.59
  11  -4   3 2090.59  144.29
 -11   4   3 2053.89  157.38
   4  11   3 1958.70  132.29
  -4 -11   3 1869.61  130.69
 -11   4   3 2040.80  127.39
 -11   6  -3   83.89   19.40
   6  11  -3   85.49   17.50
  11  -6  -3   75.19    7.90
 -11   6   3  101.29   12.90
   6  11   3   70.39   16.60
  -6 -11   3   61.79    4.90
  11  -6   3  117.49   29.10
  -8 -11  -3  126.09   16.60
 -11   8  -3  113.69   16.00
  -8 -11  -3  117.89   11.00
  -8 -11   3  113.89   14.30
  11  -8   3   77.79   22.10
  -8 -11   3  147.79   30.00
 -11   8   3  121.39   14.20
  -7  12  -3  135.49   11.30
 -12  -7  -3  140.99   21.20
  12   7  -3  156.88   21.70
 -12  -7  -3  168.68   19.10
   7 -12  -3  173.08   22.10
 -12  -7   3  214.98   30.50
  -7  12   3  123.49   26.90
   7 -12   3  127.39   13.10
  12   7   3   66.69   23.20
 -12  -5  -3  223.68   53.69
   5 -12  -3  262.37   46.00
  12   5  -3  209.88   31.40
  -5  12  -3  216.48   26.60
 -12  -5  -3  316.17   34.50
  12   5  -3  306.47   37.60
 -12  -5   3  290.77   69.49
   5 -12   3  212.28   38.90
  -5  12   3  291.97   49.10
  12   5   3  207.88   35.30
  -3  12  -3 1742.23  134.89
  12   3  -3 1681.53  100.69
 -12  -3  -3 1683.43  109.99
  12   3  -3 1637.44  112.29
 -12  -3  -3 1441.96  148.79
   3 -12  -3 1725.43  123.69
   3 -12   3 1787.42  133.59
  -3  12   3 1790.62  132.19
  12   3   3 1814.02  126.89
 -12  -3   3 1703.13  175.38
 -12  -1  -3  719.63   66.29
  12   1  -3  691.73   62.69
 -12  -1  -3  657.93   79.19
  12   1  -3  619.64   54.99
   1 -12  -3  632.94   64.59
  -1  12  -3  806.02   80.19
   1 -12   3  582.14   68.29
  12   1   3  677.43   70.39
 -12  -1   3  600.94   86.39
  -1  12   3  705.53   73.39
  12  -1  -3   72.69   14.10
 -12   1  -3  142.29   28.30
   1  12  -3  139.69   31.80
  -1 -12  -3  140.89   17.70
 -12   1  -3   87.29   10.20
  12  -1   3  117.39   15.80
   1  12   3  131.39   11.70
   1  12   3   90.09   27.50
 -12   1   3   83.89    9.70
  -1 -12   3   97.99   26.10
  -3 -12  -3  365.46   40.70
 -12   3  -3  406.26   48.80
  -3 -12  -3  421.36   43.00
  12  -3  -3  270.07   35.10
   3  12  -3  366.16   47.00
 -12   3   3  286.27   43.10
  -3 -12   3  278.27   40.00
  12  -3   3  367.96   50.29
   5  12  -3  111.99   24.40
 -12   5  -3   83.89   19.20
  -5 -12  -3  121.39   12.00
  12  -5   3   88.69    9.20
  -5 -12   3   85.69    8.70
 -12   5   3   99.39   12.60
 -12   7  -3  449.66   57.89
   7  12  -3  418.36   46.70
  -7 -12  -3  472.65   47.80
  12  -7  -3  321.77   47.90
   7  12   3  372.36   55.49
  -7 -12   3  497.65   64.19
 -12   7   3  446.96   50.59
  12  -7   3  412.46   53.59
  -7 -12   3  429.76   51.19
  -6  13  -3 1116.09  105.79
 -13  -6  -3 1092.49   82.19
 -13  -6  -3  780.72  106.59
  13   6  -3 1165.88   97.29
   6 -13  -3 1280.47  107.29
  -6  13  -3  871.81  100.49
 -13  -6   3 1340.87  152.48
  -6  13   3 1207.98  112.89
   6 -13   3 1144.49  101.99
  13   6   3  968.80   93.49
 -13  -4  -3  585.14   82.39
 -13  -4  -3  852.21   71.29
   4 -13  -3  872.61   83.59
  -4  13  -3  886.81   89.29
  13   4  -3  847.62   74.89
  13   4   3  768.82   77.39
  -4  13   3  888.01   90.29
 -13  -4   3  955.90  121.79
   4 -13   3  864.31   89.49
 -13  -2  -3  598.54   58.29
 -13  -2  -3  582.84   78.09
  -2  13  -3  621.74   70.19
   2 -13  -3  640.84   65.99
  13   2  -3  624.44   59.59
 -13  -2   3  701.43   93.19
  13   2   3  555.14   63.19
   2 -13   3  468.75   61.49
  -2  13   3  572.24   67.29
   0 -13  -3  729.43   70.49
 -13   0  -3  634.64   80.69
 -13   0  -3  718.83   68.39
   0  13  -3  757.22   78.99
  13   0  -3  662.93   61.79
 -13   0   3  643.14   88.19
   0  13   3  662.43   71.79
  13   0   3  677.93   70.99
   0 -13   3  750.42   76.29
 -13   2  -3  425.46   50.39
  -2 -13  -3  531.15   54.89
   2  13  -3  531.65   60.79
 -13   2   3  301.27   65.29
   2  13   3  447.26   28.40
   2  13   3  460.05   55.99
  13  -2   3  557.64   65.69
  -2 -13   3  473.45   57.29
 -13   4  -3  176.28   34.60
   4  13  -3  126.19   26.20
  -4 -13  -3  165.58   18.30
  13  -4   3  157.58   33.10
  -4 -13   3  148.79   31.50
 -13   6  -3  170.08   19.20
  13  -6  -3   86.59   27.40
  -6 -13  -3  222.18   26.60
   6  13  -3  180.58   32.20
  -6 -13   3  200.28   27.90
 -13   6   3  200.98   22.90
  13  -6   3  169.88   21.40
   3 -14  -3  326.67   39.40
 -14  -3  -3  202.98   44.90
 -14  -3  -3  194.28   23.00
  -3  14  -3  371.56   44.30
  14   3  -3  226.38   29.90
  14   3   3  200.38   40.00
   3 -14   3  279.07   36.60
 -14  -3   3  218.48   31.30
  -3  14   3  306.37   49.50
   1 -14  -3  185.18   23.10
  -1  14  -3  173.58   35.10
 -14  -1  -3  134.59   19.10
  14   1  -3  126.19   16.10
  14   1   3  153.48   20.50
  -1  14   3  173.48   34.30
   1 -14   3   91.89   12.40
 -14   1  -3  379.96   42.50
  -1 -14  -3  333.67   39.70
   1  14  -3  333.67   53.29
   1  14   3  322.87   41.20
  -1 -14   3  413.76   51.79
  14  -1   3  315.17   52.49
   3  14  -3  333.97   40.40
  -3 -14  -3  305.47   35.00
 -14   3  -3  376.86   47.00
  14  -3   3  388.36   49.99
   3  14   3  404.26   46.30
  -3 -14   3  262.77   46.60
   0   0  -4 8184.28  281.57
   0   0  -4 7830.02  270.67
   0   0   4 7669.33  321.27
   0   0   4 8475.35  268.47
   1  -1  -4  393.26   36.10
  -1   1  -4  354.46   32.60
  -1  -1  -4  367.66   35.30
   1   1  -4  375.26   36.20
   1   1  -4  386.56   31.50
  -1   1  -4  361.46   33.50
   1  -1  -4  360.36   33.10
  -1  -1  -4  347.57   31.40
  -1   1   4  394.46   45.10
   1   1   4  345.37   23.20
   1  -1   4  391.46   43.20
  -1  -1   4  367.76   43.00
  -1  -1   4  362.76   26.90
   1   1   4  329.77   41.00
   1  -1   4  376.96   29.40
   0   2  -4  899.51   58.99
   2   0  -4  831.92   59.59
  -2   0  -4  816.22   58.49
   0  -2  -4  857.11   58.19
  -2   0  -4  811.52   51.89
   2   0  -4  828.92   52.69
   0  -2  -4  883.01   59.99
   0   2  -4  981.10   56.39
   2   0   4  975.70   53.29
   2   0   4  909.81   73.29
  -2   0   4  829.72   71.29
   0  -2   4  818.42   69.39
   0   2   4  796.52   69.69
  -2   0   4  885.21   43.00
   0  -2   4  870.31   53.29
   2   2  -4  814.22   47.70
   2   2  -4  806.12   58.49
  -2   2  -4  850.71   57.09
  -2  -2  -4  776.52   58.19
   2  -2  -4  844.62   57.39
  -2  -2  -4  822.32   52.19
   2  -2  -4  844.82   60.09
  -2   2  -4  759.72   51.39
   2  -2   4  860.91   55.59
   2  -2   4  857.31   68.79
  -2   2   4  778.02   68.59
   2   2   4  858.71   72.89
  -2  -2   4  852.21   72.49
  -2  -2   4  874.01   50.69
   1  -3  -4  304.57   32.50
  -1   3  -4  318.77   28.50
  -1   3  -4  283.57   29.90
   3   1  -4  265.67   30.40
   1  -3  -4  261.37   30.00
  -3  -1  -4  293.67   25.40
   3   1  -4  295.27   25.10
  -3  -1  -4  329.67   35.20
   3   1   4  286.57   37.00
  -1   3   4  286.97   37.80
   3   1   4  301.07   26.60
  -3  -1   4  282.97   37.80
   1  -3   4  294.57   36.20
  -3  -1   4  313.17   24.80
   1  -3   4  349.37   31.30
   1   3  -4 1152.48   71.79
   3  -1  -4 1076.49   64.99
  -3   1  -4 1070.59   60.39
   1   3  -4 1217.48   61.19
  -3   1  -4 1172.08   73.19
  -1  -3  -4 1184.68   69.49
  -1  -3  -4 1170.68   74.09
   3  -1  -4 1075.29   71.39
  -1  -3   4 1096.99   84.19
   3  -1   4 1311.17   73.39
   1   3   4 1113.99   85.29
  -1  -3   4 1132.09   65.99
   3  -1   4 1141.39   84.39
  -3   1   4 1188.18   88.79
  -3  -3  -4  599.64   51.29
   3  -3  -4  464.55   45.70
   3  -3  -4  562.04   47.50
  -3  -3  -4  591.14   42.30
  -3   3  -4  599.64   43.40
   3   3  -4  617.94   51.59
  -3   3  -4  582.14   47.70
   3  -3   4  656.33   50.99
  -3   3   4  559.54   56.79
  -3  -3   4  584.54   61.89
   3  -3   4  616.04   54.79
   3   3   4  569.64   59.59
  -3  -3   4  611.34   44.20
  -4  -2  -4  556.74   50.39
  -4  -2  -4  629.34   40.90
  -2   4  -4  620.24   48.00
  -2   4  -4  651.73   47.70
   2  -4  -4  569.44   51.39
   2  -4  -4  633.54   52.59
   4   2  -4  654.03   54.19
  -4  -2   4  607.34   64.19
   4   2   4  669.93   47.00
   4   2   4  619.94   62.59
  -2   4   4  546.45   55.69
   2  -4   4  711.73   54.49
   2  -4   4  570.34   52.99
  -4  -2   4  655.13   43.60
   4   0  -4 1136.09   63.49
   4   0  -4 1098.99   55.39
  -4   0  -4 1124.19   57.79
  -4   0  -4 1121.59   74.79
   0   4  -4 1191.88   63.69
   4   0  -4 1104.99   73.19
   0   4  -4 1137.19   71.19
   0  -4  -4 1183.58   76.09
   0  -4  -4 1116.99   71.89
   0  -4   4 1127.49   70.59
   0   4   4 1024.70   82.99
   0  -4   4 1099.69   82.89
   4   0   4 1144.79   85.79
  -4   0   4 1225.28   92.99
   4   0   4 1139.99   70.29
  -4   2  -4 3055.89  144.79
  -4   2  -4 3159.38  124.39
  -2  -4  -4 3099.59  145.59
  -2  -4  -4 3163.58  136.49
   4  -2  -4 3192.08  146.19
   4  -2  -4 3173.98  139.99
   2   4  -4 3087.79  141.89
   2   4   4 3065.49  165.48
  -4   2   4 3173.88  168.88
   4  -2   4 3044.80  160.98
  -2  -4   4 3317.57  142.29
  -2  -4   4 2855.01  164.78
   4  -2   4 3442.26  153.98
   4  -4  -4  142.49   26.70
  -4  -4  -4  134.49   15.50
  -4  -4  -4  146.29   25.10
   4   4  -4  139.69   25.10
  -4   4  -4  152.78   21.60
  -4   4  -4  168.48   19.00
   4  -4   4  141.19   19.80
  -4  -4   4  168.58   20.20
  -4   4   4  133.89   27.50
  -4  -4   4  153.78   33.90
   4   4   4  122.39   28.80
   4  -4   4  140.49   20.60
   5   3  -4  855.51   66.19
   3  -5  -4  841.02   67.39
  -3   5  -4  883.71   62.49
  -3   5  -4  946.31   62.39
   3  -5  -4  885.01   68.49
  -5  -3  -4  900.91   67.59
   5   3   4  898.91   61.59
   3  -5   4  867.71   67.39
  -5  -3   4  853.41   84.29
  -3   5   4  858.61   73.19
   3  -5   4  883.71   67.69
   5   3   4  840.02   80.99
  -5  -3   4  983.80   62.49
  -1   5  -4  246.68   23.70
  -5  -1  -4  247.48   31.40
   1  -5  -4  239.58   30.50
  -1   5  -4  225.98   27.40
   5   1  -4  241.68   23.10
   5   1  -4  266.17   32.50
   1  -5  -4  266.07   32.10
   1  -5   4  267.67   32.10
   1  -5   4  177.78   24.80
  -5  -1   4  181.28   36.40
  -5  -1   4  223.38   24.30
   5   1   4  242.28   36.00
  -1   5   4  241.08   33.70
   5   1   4  254.17   27.80
  -5  -1   4  301.27   25.80
  -5   1  -4 1909.11   81.79
  -1  -5  -4 1807.72  105.69
   5  -1  -4 1883.21  105.59
  -5   1  -4 1894.21  107.99
  -1  -5  -4 1989.50  105.49
   1   5  -4 1876.31  102.89
   1   5  -4 2012.30   87.09
  -5   1   4 1901.51  127.29
  -5   1   4 2065.19  102.69
   5  -1   4 1876.71  107.29
  -1  -5   4 1950.70  121.49
  -5   1   4 1980.10  101.49
   1   5   4 1879.91  119.99
  -1  -5   4 2103.99  107.49
   5  -1   4 1762.02  116.89
   3   5  -4 1349.47   85.79
  -3  -5  -4 1352.26   80.09
  -5   3  -4 1322.87   68.59
  -5   3  -4 1282.27   86.09
   5  -3  -4 1328.67   87.49
  -3  -5  -4 1318.47   86.29
  -3  -5   4 1356.56  104.79
   5  -3   4 1228.38   88.39
  -5   3   4 1357.96   87.09
   3   5   4 1320.27  100.29
   5  -3   4 1362.46   93.49
  -5   3   4 1390.36   80.69
  -3  -5   4 1438.66   84.59
  -5   3   4 1261.57   97.29
   5   5  -4 1526.55   95.99
  -5   5  -4 1599.24   85.29
   5  -5  -4 1395.56   96.09
  -5  -5  -4 1510.85   97.39
  -5   5  -4 1575.24  101.89
  -5  -5   4 1554.74  124.99
   5  -5   4 1574.14   96.59
   5   5   4 1468.35  116.09
  -5   5   4 1571.54  106.39
  -5   5   4 1508.75  100.59
  -5   5   4 1611.94   90.69
  -5  -5   4 1595.94   93.49
   5  -5   4 1572.44  105.39
   4  -6  -4  968.00   77.89
  -4   6  -4 1013.00   68.69
  -6  -4  -4 1024.30   75.99
  -4   6  -4 1087.89   76.99
   6   4  -4  995.70   74.29
   6   4   4 1055.89   96.59
   4  -6   4 1047.70   81.79
  -4   6   4 1015.60   78.99
  -6  -4   4 1022.70   69.09
   6   4   4  925.91   67.99
  -4   6   4 1004.80   65.49
  -4   6   4  962.00   79.69
  -6  -4   4 1023.40   98.99
   4  -6   4 1104.19   74.49
  -6  -2  -4 1874.71  108.39
   6   2  -4 1836.62  103.99
   6   2  -4 1823.52   94.89
  -2   6  -4 1803.72   96.19
   2  -6  -4 1682.53  106.79
  -2   6  -4 1678.73   97.69
   2  -6  -4 1748.53  106.69
   2  -6   4 1848.12  108.99
  -6  -2   4 1726.03  131.69
  -2   6   4 1828.22  114.89
   2  -6   4 1922.11  110.29
   6   2   4 1776.32  128.69
   6   2   4 1887.91  105.19
  -6   0  -4  668.03   58.69
   0   6  -4  667.33   55.69
   6   0  -4  697.73   58.59
   0   6  -4  636.54   43.80
   0  -6  -4  647.84   57.39
   0  -6  -4  654.83   57.29
  -6   0   4  626.74   50.69
  -6   0   4  658.73   47.90
   0  -6   4  792.52   66.49
   0   6   4  717.63   65.99
   0  -6   4  714.73   58.59
  -6   0   4  654.13   70.09
   6   0   4  621.74   65.89
   6   0   4  643.64   56.19
  -6   2  -4  106.89   21.90
   2   6  -4  120.69   24.40
  -2  -6  -4  116.89   23.70
  -2  -6  -4  139.29   17.20
   6  -2  -4  129.99   25.60
   6  -2   4  156.28   21.40
  -6   2   4  107.69   28.10
  -6   2   4  129.59   21.70
   6  -2   4  123.69   18.80
  -2  -6   4  168.18   31.00
   2   6   4  131.09   27.80
  -2  -6   4  127.79   17.30
  -6   2   4  127.39   16.30
  -4  -6  -4  822.62   58.19
  -6   4  -4  754.42   67.09
  -4  -6  -4  833.32   67.09
   6  -4  -4  725.83   66.69
   4   6  -4  898.41   68.99
   6  -4   4  972.90   78.39
   6  -4   4  888.01   69.49
  -6   4   4  831.62   62.69
  -4  -6   4  746.73   79.89
  -6   4   4  852.01   76.49
   4   6   4  756.82   78.29
  -6   4   4  918.51   71.89
  -4  -6   4  836.02   65.29
   6   6  -4  459.75   48.70
  -6  -6  -4  420.76   45.90
  -6   6  -4  450.05   40.10
  -6   6  -4  488.05   51.99
   6  -6  -4  445.36   50.89
  -6   6   4  523.75   52.99
  -6  -6   4  410.26   43.40
  -6  -6   4  437.16   62.89
   6  -6   4  450.85   52.39
  -6   6   4  492.35   54.79
   6   6   4  504.75   65.09
   7   5  -4  561.14   54.69
  -5   7  -4  607.64   52.69
   5  -7  -4  595.44   61.09
  -7  -5  -4  541.85   53.19
  -5   7  -4  592.34   57.89
   7   5   4  560.94   72.69
   5  -7   4  548.95   59.69
  -5   7   4  586.24   50.89
  -5   7   4  556.84   60.29
  -7  -5   4  525.25   49.50
  -7  -5   4  530.25   73.59
  -5   7   4  533.05   53.39
   7   3  -4 1255.27   86.59
  -3   7  -4 1323.67   86.19
   3  -7  -4 1398.16   98.49
  -7  -3  -4 1332.07   91.29
   7   3  -4 1434.46   86.49
  -3   7  -4 1402.66   89.49
   3  -7   4 1337.27   96.49
   7   3   4 1274.77  113.19
   7   3   4 1366.16   89.89
  -7  -3   4 1212.18  114.69
  -3   7   4 1322.97   93.29
  -3   7   4 1197.38   94.59
  -3   7   4 1439.96   78.79
  -1   7  -4 1051.09   76.19
   7   1  -4 1090.49   77.59
   7   1  -4 1128.59   67.19
  -7  -1  -4 1049.30   78.19
   1  -7  -4 1010.20   80.69
   1  -7  -4  975.70   76.49
  -1   7  -4 1060.69   65.59
  -7  -1   4  999.30   98.69
   7   1   4 1033.00   93.89
   1  -7   4 1136.59   81.29
   1  -7   4 1161.28   88.49
   7   1   4 1210.98   82.99
  -1   7   4 1071.99   82.99
   1   7  -4  870.61   69.49
   7  -1  -4  914.31   71.69
  -1  -7  -4  931.91   72.99
  -1  -7  -4  884.71   70.79
  -7   1  -4  966.20   75.29
  -1  -7   4  976.10   80.49
   7  -1   4  935.31   75.49
  -1  -7   4  892.61   70.89
   7  -1   4  939.91   82.79
  -7   1   4  949.21   64.99
   1   7   4  923.11   78.49
  -7   1   4  862.61   86.59
   7  -3  -4 1520.45   98.59
  -7   3  -4 1468.35  101.49
   3   7  -4 1441.66   94.79
  -3  -7  -4 1444.26   96.39
  -3  -7  -4 1545.25   93.49
   7  -3   4 1495.95  104.29
  -7   3   4 1649.54  100.59
  -7   3   4 1561.44  115.79
   3   7   4 1489.85  110.59
   7  -3   4 1562.04  104.69
  -3  -7   4 1469.15  115.09
  -3  -7   4 1497.15   96.49
   5   7  -4 1644.24  106.39
   7  -5  -4 1857.71  117.19
  -7   5  -4 1871.51  122.69
  -5  -7  -4 1734.83  109.39
   5   7   4 1894.21  136.69
  -7   5   4 1859.21  118.59
   7  -5   4 1711.93  122.09
  -7   5   4 1893.61  125.19
  -5  -7   4 1853.01  149.59
  -5  -7   4 1892.61  114.19
  -7  -7  -4  875.31   71.79
   7   7  -4  844.22   71.69
   7  -7  -4  797.82   76.59
  -7   7  -4  854.61   81.89
  -7   7   4  846.02   78.49
  -7  -7   4  857.01   72.29
  -7   7   4  755.62   71.49
  -7  -7   4  886.71  103.59
   7   7   4  888.71   95.99
   7  -7   4  862.21   81.09
  -8  -6  -4  181.98   24.60
  -6   8  -4  155.48   29.10
  -6   8  -4  198.58   22.40
   6  -8  -4  195.28   38.20
   8   6  -4  169.08   30.40
  -6   8   4  165.08   33.70
   6  -8   4  151.68   31.20
  -8  -6   4  188.78   24.30
  -8  -6   4  198.08   50.59
   8   6   4  194.78   45.90
  -4   8  -4  274.57   34.50
   4  -8  -4  228.28   38.60
  -4   8  -4  253.27   31.30
  -8  -4  -4  238.28   31.20
   8   4  -4  213.08   33.30
   8   4  -4  236.68   29.00
  -8  -4   4  280.37   57.49
  -4   8   4  228.68   30.00
  -4   8   4  219.68   38.50
   4  -8   4  253.47   36.40
  -4   8   4  252.47   28.50
   8   4   4  222.08   29.00
   8   4   4  258.07   52.49
   2  -8  -4   76.49   20.10
  -2   8  -4   34.00   11.50
  -2   8  -4   67.99    8.50
   2  -8  -4   84.19   20.70
   8   2  -4   77.39   18.60
   8   2  -4  110.39   14.70
  -8  -2  -4  102.49   22.00
   8   2   4   68.39    9.90
   8   2   4   86.79   10.80
  -2   8   4   72.69   10.60
  -8  -2   4   93.89   30.00
   2  -8   4   72.39   18.50
   0  -8  -4  971.20   79.89
   8   0  -4 1028.60   75.99
   0  -8  -4  892.51   74.29
   0   8  -4 1030.80   77.29
  -8   0  -4  952.60   77.39
   0  -8   4 1087.29   83.79
   8   0   4  936.81   88.99
   8   0   4  925.01   77.09
   0   8   4  993.20   80.69
   0  -8   4 1088.59   83.79
  -8   0   4  933.81   95.49
  -8   2  -4 1046.20   83.49
   2   8  -4 1039.60   80.19
  -2  -8  -4 1120.59   80.99
  -2  -8  -4 1063.79   80.69
   8  -2  -4 1066.19   81.49
  -8   2   4 1217.88   81.89
  -2  -8   4 1116.39   93.09
   8  -2   4 1148.89   89.39
  -2  -8   4  973.50   79.69
   2   8   4 1099.69   89.09
   8  -2   4 1060.79   89.39
  -8   2   4 1119.09  103.09
   8  -4  -4  396.66   45.70
  -8   4  -4  450.55   52.09
   4   8  -4  351.16   42.20
  -4  -8  -4  374.96   42.80
  -4  -8  -4  388.96   37.60
  -8   4   4  425.96   52.39
   4   8   4  415.26   54.19
   8  -4   4  405.46   43.10
  -4  -8   4  540.75   62.29
  -8   4   4  413.36   46.20
   8  -4   4  388.56   49.50
  -4  -8   4  465.75   49.40
  -8   6  -4   86.69   21.30
   8  -6  -4   66.99   18.50
   6   8  -4   56.79   15.80
  -6  -8  -4   74.69    8.60
  -6  -8   4   91.89    7.60
   8  -6   4   71.49   10.20
  -6  -8   4   68.39   10.00
  -8   6   4   58.59    6.10
   6   8   4   74.79   10.80
   8   8  -4  334.67   39.40
   8  -8  -4  310.47   40.70
  -8   8  -4  290.57   41.60
  -8  -8  -4  290.97   34.30
  -8   8   4  352.36   45.60
  -8  -8   4  292.77   44.20
  -8  -8   4  292.17   36.80
   8   8   4  305.77   57.19
   8  -8   4  325.97   44.70
  -9  -7  -4  663.03   61.59
   9   7  -4  709.63   63.79
  -7   9  -4  553.04   63.39
   7  -9  -4  575.24   67.29
   9   7   4  506.75   75.29
  -7   9   4  609.54   69.49
   7  -9   4  573.04   66.29
  -9  -7   4  542.75   77.29
  -5   9  -4 1374.66  100.19
   5  -9  -4 1162.48   99.89
  -5   9  -4 1290.17  101.69
  -9  -5  -4 1215.78   90.09
   9   5  -4 1306.97   91.79
   9   5  -4 1233.28   90.09
   9   5   4 1247.98  127.89
  -5   9   4 1234.08  102.09
   9   5   4 1245.28   93.99
   5  -9   4 1147.89   98.49
  -9  -5   4 1257.47  134.19
  -9  -3  -4  558.34   55.89
  -3   9  -4  564.34   55.59
   9   3  -4  638.34   58.39
  -3   9  -4  654.43   62.39
   3  -9  -4  604.54   64.49
   9   3  -4  606.54   52.89
  -3   9   4  570.64   55.09
  -3   9   4  615.24   48.30
  -9  -3   4  619.54   81.59
   9   3   4  564.04   75.29
   9   3   4  542.15   54.99
  -3   9   4  594.94   65.39
   3  -9   4  557.64   60.99
   1  -9  -4 1059.19   84.89
   9   1  -4 1069.99   79.59
  -1   9  -4 1103.09   86.49
   1  -9  -4 1102.29   89.29
  -9  -1  -4 1060.39   83.69
   1  -9   4 1042.60   86.69
  -9  -1   4 1118.09  113.99
   9   1   4 1026.70  102.49
  -1   9   4 1053.39   82.29
   9   1   4 1025.60   84.09
  -1  -9  -4  612.34   57.59
  -9   1  -4  534.25   56.69
  -1  -9  -4  547.85   54.99
   9  -1  -4  608.04   57.19
   1   9  -4  558.14   57.19
   1   9   4  564.94   56.69
   9  -1   4  572.54   58.89
  -1  -9   4  566.84   60.49
   9  -1   4  555.54   61.29
  -9   1   4  618.64   75.69
  -1  -9   4  596.94   60.89
   3   9  -4  901.21   75.89
  -3  -9  -4  907.51   70.69
   9  -3  -4  904.51   75.39
  -9   3  -4  988.30   84.29
  -3  -9  -4  779.02   69.69
   3   9   4  926.61   82.39
  -3  -9   4  972.40   90.99
  -3  -9   4  923.21   77.99
   9  -3   4  845.52   78.29
  -9   3   4  970.10   90.79
  -9   3   4  876.31   73.19
   9  -3   4  914.91   79.39
   5   9  -4  587.64   60.09
   9  -5  -4  540.45   60.39
  -9   5  -4  626.44   67.39
  -5  -9  -4  532.35   54.69
  -5  -9   4  642.54   62.69
  -9   5   4  576.24   61.29
   9  -5   4  630.74   67.19
  -9   5   4  493.65   60.39
   5   9   4  609.84   68.69
  -5  -9   4  596.34   72.09
   7   9  -4  994.30   81.39
   9  -7  -4 1072.59   91.79
  -9   7  -4 1012.00   96.99
  -7  -9  -4 1044.50   83.09
   7   9   4 1037.60  104.39
  -7  -9   4 1003.20   84.69
  -7  -9   4 1030.90  116.89
   9  -7   4  839.82   88.09
  -9   7   4  904.11   87.29
  -9  -9  -4  350.06   37.70
   9  -9  -4  355.66   45.20
   9   9  -4  259.67   35.00
  -9   9  -4  285.27   48.70
   9   9   4  309.97   44.90
   9  -9   4  249.68   45.50
  -9  -9   4  287.97   43.60
  -9  -9   4  244.08   40.30
  -9   9   4  252.37   35.00
  -8  10  -4  170.78   42.30
  10   8  -4  236.88   37.40
 -10  -8  -4  325.27   35.60
   8 -10  -4  302.67   49.40
  10   8  -4  287.17   38.40
   8 -10   4  276.37   38.70
 -10  -8   4  300.67   38.70
  -8  10   4  355.66   49.50
  10   8   4  291.37   61.59
 -10  -6  -4  215.48   26.60
  -6  10  -4  234.18   26.60
  -6  10  -4  147.89   30.80
  10   6  -4  178.88   24.30
  10   6  -4  198.38   25.10
   6 -10  -4  177.68   37.80
  -6  10   4  220.28   40.90
  10   6   4  244.78   55.19
 -10  -6   4  292.87   66.59
   6 -10   4  192.48   36.70
 -10  -4  -4  530.85   54.69
  10   4  -4  608.44   55.89
  -4  10  -4  599.64   62.09
  -4  10  -4  485.65   59.69
   4 -10  -4  508.45   58.59
  10   4  -4  493.75   48.50
 -10  -4   4  544.65   80.59
   4 -10   4  491.25   58.29
  10   4   4  520.75   74.39
  10   4   4  480.15   53.89
  -4  10   4  516.85   62.19
 -10  -2  -4 1544.65  108.59
  10   2  -4 1668.73  104.79
   2 -10  -4 1647.34  118.69
  10   2  -4 1630.44  101.59
  -2  10  -4 1790.42  122.79
  -2  10   4 1593.74   86.29
   2 -10   4 1585.84  118.29
 -10  -2   4 1714.33  157.68
  -2  10   4 1591.74  118.99
  10   2   4 1687.63  114.89
  10   2   4 1689.13  147.79
   0 -10  -4  654.43   62.59
  10   0  -4  577.24   55.09
   0 -10  -4  696.53   65.59
 -10   0  -4  571.24   59.19
   0  10  -4  684.33   69.69
   0  10   4  617.94   60.99
  10   0   4  716.03   68.29
  10   0   4  616.34   72.19
 -10   0   4  686.53   85.49
   0 -10   4  612.84   64.59
  -2 -10  -4  282.47   32.70
  -2 -10  -4  295.47   36.70
 -10   2  -4  286.47   38.70
  10  -2  -4  296.77   36.60
   2  10  -4  308.47   37.90
 -10   2   4  245.88   35.60
  -2 -10   4  297.97   41.00
  10  -2   4  252.27   34.10
  10  -2   4  272.77   36.60
   2  10   4  334.47   39.90
  -4 -10  -4  101.29   12.00
   4  10  -4   86.69   22.60
  10  -4  -4   87.59   11.50
 -10   4  -4  114.69   27.10
 -10   4   4   69.19   12.90
   4  10   4   88.19   19.30
  -4 -10   4   76.09   10.50
  -4 -10   4   65.49    6.60
 -10   4   4  119.79   22.50
  10  -6  -4  417.66   48.80
   6  10  -4  429.46   50.49
 -10   6  -4  432.26   55.39
  -6 -10  -4  373.96   42.80
   6  10   4  387.16   49.70
 -10   6   4  429.26   49.60
  -6 -10   4  447.16   50.29
  -6 -10   4  451.35   59.79
  10  -6   4  409.06   53.89
  10  -8   4   28.50    3.50
  11   7  -4  558.24   60.39
 -11  -7  -4  747.73   67.69
   7 -11  -4  706.13   74.59
  11   7  -4  684.33   67.79
   7 -11   4  603.44   70.39
 -11  -7   4  738.73   96.49
  -7  11   4  708.43   78.09
  11   7   4  618.64   91.39
  11   5  -4  289.57   36.30
  -5  11  -4  374.86   45.60
   5 -11  -4  318.77   39.70
  11   5  -4  286.17   34.70
 -11  -5  -4  342.37   39.10
  -5  11   4  280.57   47.90
  11   5   4  273.87   59.89
  11   5   4  227.38   37.90
 -11  -5   4  365.06   74.29
   5 -11   4  295.17   42.40
   3 -11  -4   60.59    3.70
  -3  11  -4   57.09    5.30
 -11  -3  -4   63.79    3.60
  11   3  -4   45.60    4.50
 -11  -3   4   63.89    6.70
  -3  11   4   49.40   15.00
  11   3   4   69.39    5.00
   3 -11   4   59.79    6.90
  11   1  -4  500.75   49.70
 -11  -1  -4  490.85   53.99
   1 -11  -4  557.14   57.39
  -1  11  -4  689.43   70.19
 -11  -1   4  482.05   69.59
  11   1   4  466.85   53.89
   1 -11   4  508.55   59.49
  -1  11   4  480.75   39.40
  -1  11   4  488.55   62.99
  11   1   4  570.24   71.89
  -1 -11  -4  156.58   22.00
 -11   1  -4  138.39   27.40
  -1 -11  -4  159.18   19.30
  11  -1  -4  115.59   14.90
   1  11  -4  177.38   35.80
  -1 -11   4  131.99   28.00
  11  -1   4  135.99   28.30
 -11   1   4  115.89   14.70
  11  -1   4  215.18   30.40
   1  11   4   70.89   21.90
   3  11  -4  188.38   34.90
  -3 -11  -4  224.88   29.00
  -3 -11  -4  218.28   25.40
 -11   3  -4  180.08   34.40
  11  -3  -4  175.48   22.60
 -11   3   4  179.98   42.20
  -3 -11   4  190.28   27.20
  11  -3   4  232.58   31.40
   3  11   4  125.19   25.70
  -5 -11  -4  680.63   63.49
   5  11  -4  629.24   64.29
 -11   5  -4  640.34   72.89
  11  -5  -4  630.54   63.09
  -5 -11   4  665.03   68.39
 -11   5   4  709.23   65.29
   5  11   4  585.94   67.59
  11  -5   4  576.54   67.69
  11  -7  -4 1344.87  109.59
 -11   7  -4 1524.15  125.29
  -7 -11  -4 1299.87   97.59
   7  11  -4 1512.95  108.49
   7  11   4 1276.97  117.79
  -7 -11   4 1299.37  132.49
  -7 -11   4 1324.17  106.39
 -11   7   4 1484.65  114.89
  11  -7   4 1052.89  106.79
   6 -12  -4 1411.06  115.89
  -6  12  -4  984.20   95.89
  12   6  -4 1497.55  109.49
  12   6  -4 1167.48   92.89
 -12  -6  -4 1559.74  107.89
 -12  -6   4 1289.47  152.58
   6 -12   4 1359.76  115.99
  -6  12   4 1555.94  128.89
  12   6   4 1136.69  136.09
   4 -12  -4  274.97   31.40
 -12  -4  -4  218.98   28.40
  12   4  -4  208.38   27.00
  -4  12  -4  198.48   26.20
   4 -12   4  122.39   30.40
  12   4   4  169.68   24.10
 -12  -4   4  197.98   30.50
  -4  12   4  227.28   42.20
  -2  12  -4  635.94   72.19
 -12  -2  -4  645.54   64.09
   2 -12  -4  758.82   72.59
  12   2  -4  602.14   58.29
  12   2   4  627.44   83.29
 -12  -2   4  576.64   79.89
  -2  12   4  566.74   68.39
   2 -12   4  685.73   73.09
  12   2   4  481.95   59.49
 -12   0  -4  185.08   24.60
   0  12  -4  191.78   37.30
   0 -12  -4  180.48   23.30
   0 -12   4  157.18   32.80
   0  12   4  200.08   19.60
  12   0   4  197.18   37.60
  12   0   4  211.18   29.10
 -12   0   4  212.18   19.30
   0  12   4  200.98   42.30
   2  12  -4  437.66   50.79
 -12   2  -4  379.46   46.20
  12  -2  -4  303.47   38.90
  -2 -12  -4  467.65   49.70
  -2 -12  -4  427.96   46.00
  12  -2   4  379.66   48.10
  12  -2   4  398.96   48.40
  -2 -12   4  399.96   49.70
 -12   2   4  275.07   54.79
  12  -4  -4  533.15   58.89
  -4 -12  -4  618.84   60.49
   4  12  -4  641.14   65.69
 -12   4  -4  711.63   72.79
   4  12   4  460.25   60.89
  12  -4   4  648.64   69.79
 -12   4   4  392.96   67.09
  -4 -12   4  631.24   66.89
  -6 -12  -4   66.29    6.80
   6  12  -4   84.19    6.60
  -6 -12   4   72.59    9.30
  12  -6   4   86.89    8.00
 -13  -3  -4  282.57   35.20
   3 -13  -4  242.28   32.30
  -3  13  -4  264.17   34.40
  -3  13   4  284.87   48.10
  13   3   4  178.38   34.40
   3 -13   4  191.58   39.40
  13   3   4  278.97   39.80
 -13  -3   4  302.27   46.20
  -1  13   4    7.40    3.70
  13   1   4    6.90    4.60
   1  13  -4  387.26   48.60
  13  -1  -4  272.37   43.60
 -13   1  -4  405.56   48.30
  -1 -13  -4  442.36   48.50
  13  -1   4  326.17   45.20
 -13   1   4  227.38   60.49
   1  13   4  428.56   31.40
  -1 -13   4  425.76   50.89
  13  -1   4  475.45   58.09
   1  13   4  432.46   58.89
  -3 -13  -4  758.02   70.59
  -3 -13  -4  874.21   78.09
  13  -3  -4  743.93   72.49
 -13   3  -4  940.41   87.79
   3  13  -4  881.51   83.89
  13  -3   4  915.11   90.79
  -3 -13   4  907.31   86.99
 -13   3   4  636.94   92.79
  -1   0  -5  200.18   24.20
   1   0  -5  179.88   24.30
   1   0  -5  248.78   26.40
   0  -1  -5  205.78   24.30
   0   1  -5  233.18   25.10
   0   1  -5  215.38   26.40
  -1   0  -5  234.48   26.00
   0  -1  -5  185.88   23.60
   0   1   5  249.88   37.40
   1   0   5  191.48   35.70
  -1   0   5  154.68   32.40
   0  -1   5  186.28   35.40
  -2  -1  -5  994.30   72.29
   2   1  -5  981.20   71.89
   1  -2  -5 1004.90   72.19
  -1   2  -5 1091.59   69.09
   2   1  -5 1046.40   63.79
  -2  -1  -5 1000.70   64.79
  -1   2  -5  957.00   67.39
   1  -2  -5  968.70   69.09
  -1   2   5  953.00   85.89
   1  -2   5  975.20   84.09
   2   1   5  997.30   88.09
  -2  -1   5 1086.59   92.49
  -2   1  -5 1690.33   96.29
  -1  -2  -5 1548.65   95.69
  -2   1  -5 1711.93   91.29
   1   2  -5 1694.73   88.69
  -1  -2  -5 1631.34   91.99
   1   2  -5 1719.13   99.19
   2  -1  -5 1766.52   95.29
   2  -1  -5 1652.83   98.19
   1   2   5 1594.14  116.39
  -2   1   5 1595.14  118.39
  -1  -2   5 1657.53  118.39
   2  -1   5 1561.64  113.99
  -2   3  -5 1045.40   68.49
  -3  -2  -5 1012.60   63.69
   2  -3  -5  985.40   71.79
  -3  -2  -5  993.80   75.29
   3   2  -5 1036.50   75.59
  -2   3  -5 1039.70   69.59
   2  -3  -5 1079.29   77.29
  -2   3   5 1072.19   92.09
  -3  -2   5  923.11   87.19
   3   2   5 1035.70   91.19
   2  -3   5 1015.90   67.89
   2  -3   5  996.90   84.19
   3   0  -5  652.43   48.40
  -3   0  -5  670.33   56.59
   0   3  -5  587.74   51.99
   0   3  -5  618.74   46.40
   0  -3  -5  612.54   54.19
   0  -3  -5  628.94   52.49
  -3   0  -5  580.94   44.60
   3   0  -5  630.84   56.69
   0  -3   5  657.73   49.40
   3   0   5  576.84   63.69
  -3   0   5  593.24   67.09
   0   3   5  629.74   67.09
   0  -3   5  584.64   62.79
  -2  -3  -5 1285.17   77.29
  -2  -3  -5 1225.98   84.59
   3  -2  -5 1279.97   87.09
   2   3  -5 1295.57   85.69
  -3   2  -5 1202.78   80.39
  -3   2  -5 1268.47   74.99
   3  -2  -5 1239.08   78.69
  -3   2   5 1120.29   96.89
   3  -2   5 1236.58   97.49
   3  -2   5 1253.27   77.09
  -2  -3   5 1215.58  100.89
   2   3   5 1213.88  101.09
   4   3  -5 1145.09   83.59
   3  -4  -5 1038.60   75.79
  -4  -3  -5 1092.19   81.99
   3  -4  -5 1172.28   84.89
  -3   4  -5 1067.39   71.19
  -3   4  -5 1067.19   73.99
   3  -4   5 1182.88   80.39
   4   3   5 1045.10   95.59
  -3   4   5 1077.19   93.39
   3  -4   5 1118.49   88.29
  -4  -3   5 1114.69  101.29
   1  -4  -5 1737.33  104.19
  -1   4  -5 1796.02   94.09
  -1   4  -5 1786.42   99.69
   1  -4  -5 1678.83  102.99
  -4  -1  -5 1625.84  102.99
   4   1  -5 1783.02  107.69
   1  -4   5 1584.34  113.29
   4   1   5 1766.12  125.49
  -4  -1   5 1774.32  129.59
  -1   4   5 1624.04  119.29
   1  -4   5 1588.34   99.49
  -4   1  -5   28.30    5.60
  -4   1  -5   61.49   15.40
  -1  -4  -5   41.70   11.30
  -1  -4  -5   69.09    7.50
   4  -1  -5   53.49   15.50
   1   4  -5   46.50   10.90
   4  -1  -5   46.30    5.20
   4  -1   5   43.70   11.80
  -1  -4   5   52.59   13.70
  -4   1   5   29.40   10.90
  -1  -4   5   37.70    4.60
   1   4   5   63.89   21.80
  -4   3  -5  901.21   68.89
  -3  -4  -5  886.61   61.69
   3   4  -5  794.92   67.39
   4  -3  -5  946.61   74.89
  -4   3  -5  979.30   61.89
  -3  -4  -5  787.22   67.69
   4  -3  -5  875.91   65.99
  -3  -4   5  884.31   87.09
  -4   3   5  862.51   83.29
   4  -3   5  882.41   77.59
  -3  -4   5  925.81   64.19
   4  -3   5  900.21   68.89
   3   4   5  819.02   82.29
  -5  -4  -5  274.27   35.70
   4  -5  -5  249.97   33.40
   5   4  -5  240.38   31.70
  -4   5  -5  280.57   28.30
  -4   5  -5  270.97   30.70
   4  -5   5  261.37   32.90
   4  -5   5  261.57   31.20
   5   4   5  218.28   42.70
  -4   5   5  263.07   36.00
  -5  -4   5  239.98   46.00
  -5  -2  -5  199.98   28.00
  -2   5  -5  202.18   24.00
  -2   5  -5  154.98   18.70
   2  -5  -5  163.38   29.30
   2  -5  -5  193.18   26.20
   5   2  -5  154.28   28.20
  -2   5   5  174.08   33.90
  -5  -2   5  183.78   39.80
   2  -5   5  163.38   21.20
   2  -5   5  201.48   25.50
   5   2   5  165.98   35.50
   0  -5  -5  951.20   75.09
   0  -5  -5 1045.20   76.19
  -5   0  -5  986.20   76.19
   0   5  -5  993.40   74.09
   5   0  -5 1057.89   78.79
   0  -5   5 1018.60   73.59
   0  -5   5 1028.30   86.29
   0   5   5 1050.99   90.59
  -5   0   5 1058.29   97.79
   5   0   5  995.20   90.39
  -2  -5  -5  121.19   24.00
  -2  -5  -5  114.59   13.90
   2   5  -5   89.79   21.90
  -5   2  -5  122.49   23.10
   5  -2  -5  127.79   26.80
  -5   2   5  125.99   25.90
   2   5   5  105.19   26.80
  -2  -5   5  133.09   17.30
   5  -2   5  129.89   27.80
  -2  -5   5  103.89   27.00
  -5   2   5  134.59   16.10
   5  -2   5  107.69   20.00
  -5   2   5  102.29   28.30
   5  -4  -5  947.31   78.69
   4   5  -5  963.10   78.59
  -5   4  -5 1023.60   78.19
  -4  -5  -5 1031.40   80.69
  -4  -5   5  916.41   69.59
  -5   4   5 1073.89   83.39
  -5   4   5 1172.48   76.69
   4   5   5  880.51   89.89
  -5   4   5 1034.00   91.69
   5  -4   5 1068.59   84.69
  -4  -5   5  972.10   97.09
   5  -4   5 1035.10   79.89
   6   5  -5 1302.77   94.79
   5  -6  -5 1183.68   94.59
  -5   6  -5 1142.79   86.29
  -6  -5  -5 1275.87   94.89
   6   5   5 1147.89  111.29
  -6  -5   5 1179.88  115.49
  -5   6   5 1282.07   98.49
  -5   6   5 1237.48   98.89
  -6  -5   5 1151.98   82.39
   5  -6   5 1245.28   94.29
  -5   6   5 1238.98   82.59
   6   3  -5  147.49   28.40
   3  -6  -5  119.49   23.80
  -3   6  -5  149.88   24.80
  -6  -3  -5  166.88   28.80
  -3   6  -5  101.39   18.10
   3  -6  -5   95.49   21.30
   3  -6   5  170.28   20.20
   6   3   5  148.39   35.60
   3  -6   5  148.99   20.00
  -6  -3   5  121.69   32.80
  -3   6   5  133.59   28.50
  -6  -1  -5 2159.48  126.59
   6   1  -5 2167.98  125.39
   1  -6  -5 2127.79  126.49
  -1   6  -5 2038.40  117.49
   1  -6  -5 2092.99  124.99
   6   1   5 2032.50  145.69
  -1   6   5 2178.98  141.39
   1  -6   5 2213.38  136.19
  -6  -1   5 2015.80  151.28
   1  -6   5 2181.48  125.19
  -6   1  -5  698.23   63.49
  -1  -6  -5  773.32   63.59
   6  -1  -5  606.14   60.29
  -1  -6  -5  636.14   61.09
   1   6  -5  675.93   61.59
   6  -1   5  686.73   71.59
  -1  -6   5  791.32   74.09
   1   6   5  700.93   73.99
  -6   1   5  740.13   80.29
  -1  -6   5  733.33   59.79
   6  -1   5  679.73   60.09
  -3  -6  -5  575.94   57.29
   3   6  -5  687.03   62.19
  -6   3  -5  643.44   60.59
   6  -3  -5  664.33   63.49
  -3  -6  -5  656.83   54.49
  -3  -6   5  582.84   55.19
   6  -3   5  673.93   65.79
  -6   3   5  593.74   56.39
   3   6   5  638.64   70.59
  -6   3   5  636.14   70.79
  -3  -6   5  623.14   71.49
   6  -3   5  591.54   58.59
  -6   3   5  605.84   53.09
   6  -5  -5  630.64   63.19
  -6   5  -5  529.35   53.59
  -5  -6  -5  545.95   56.39
   5   6  -5  644.24   61.99
  -6   5   5  591.94   52.89
  -5  -6   5  596.14   54.49
   6  -5   5  605.54   58.59
  -5  -6   5  674.43   79.99
   5   6   5  642.14   75.59
  -6   5   5  648.54   67.19
  -6   5   5  583.14   60.69
   6  -5   5  606.84   61.39
   7   6  -5  574.24   59.29
  -6   7  -5  558.74   59.09
   6  -7  -5  553.94   60.59
  -7  -6  -5  585.84   58.79
  -6   7   5  453.55   55.69
   6  -7   5  537.35   57.79
  -6   7   5  590.54   65.39
  -7  -6   5  487.65   52.49
   7   6   5  512.45   71.19
  -7  -6   5  587.24   76.49
   4  -7  -5  615.74   63.19
   7   4  -5  560.14   57.59
  -7  -4  -5  567.74   56.79
  -4   7  -5  527.75   49.60
  -4   7  -5  493.95   50.59
  -4   7   5  552.74   48.40
   4  -7   5  590.54   59.79
  -7  -4   5  460.45   65.49
   7   4   5  535.25   69.49
  -4   7   5  537.05   57.19
  -4   7   5  501.65   61.29
   7   2  -5  189.08   33.50
   2  -7  -5  189.48   34.80
  -7  -2  -5  194.58   32.90
   2  -7  -5  196.58   27.10
  -2   7  -5  186.28   24.00
   2  -7   5  202.88   26.30
  -2   7   5  192.58   27.30
   2  -7   5  192.28   23.30
  -7  -2   5  176.48   41.60
   7   2   5  171.88   37.60
   0   7  -5   46.10   11.60
  -7   0  -5   53.39    6.20
   0  -7  -5   54.59    4.50
   0  -7  -5   66.19    8.90
   7   0  -5   51.19    4.70
   0   7   5   65.99    9.30
   0  -7   5   44.50    5.00
   0  -7   5   51.39    4.90
   7   0   5   65.69   19.00
  -7   0   5   30.00    9.30
  -2  -7  -5  571.74   53.39
   7  -2  -5  587.84   59.79
  -2  -7  -5  581.54   58.89
  -7   2  -5  622.64   60.69
   2   7  -5  572.44   57.19
  -7   2   5  657.03   74.89
  -2  -7   5  622.24   67.99
   7  -2   5  564.24   62.49
  -2  -7   5  560.34   53.19
   2   7   5  562.54   65.29
   7  -2   5  560.94   56.49
   7  -4  -5  509.25   54.99
  -7   4  -5  497.85   53.49
  -4  -7  -5  451.25   49.20
   4   7  -5  485.45   51.79
  -4  -7   5  537.35   51.79
   7  -4   5  505.15   54.19
   7  -4   5  476.35   51.89
  -7   4   5  388.06   49.60
   4   7   5  515.05   63.09
  -7   4   5  507.15   46.60
  -4  -7   5  513.75   60.89
  -7   4   5  461.85   50.29
  -6  -7  -5  211.08   29.00
   7  -6  -5  309.57   40.30
  -7   6  -5  247.68   31.60
   6   7  -5  250.57   39.80
   6   7   5  270.47   50.39
  -7   6   5  249.58   33.50
  -7   6   5  198.18   38.60
  -6  -7   5  289.87   41.40
   7  -6   5  199.48   29.00
  -6  -7   5  250.67   32.90
  -8  -7  -5  203.78   25.80
   8   7  -5  183.08   32.10
   7  -8  -5  205.28   37.70
   7  -8   5  135.09   19.50
   8   7   5  251.87   51.99
  -7   8   5  213.48   37.10
  -8  -7   5  223.78   32.70
  -5   8  -5 1347.27  104.49
  -8  -5  -5 1572.84  110.09
   8   5  -5 1557.74  108.69
  -5   8  -5 1464.95   99.89
   5  -8  -5 1505.15  115.19
   5  -8   5 1455.45  112.09
  -8  -5   5 1504.05  146.79
  -5   8   5 1408.96   92.29
  -5   8   5 1453.75  113.59
  -5   8   5 1342.67  106.09
   8   5   5 1422.26  136.39
   3  -8  -5  847.22   79.09
   8   3  -5  826.72   73.69
  -3   8  -5  969.80   76.29
  -8  -3  -5  841.52   74.89
  -3   8   5  895.11   79.89
  -3   8   5  823.32   62.39
   3  -8   5  840.22   77.49
  -3   8   5  846.62   84.09
  -8  -3   5  863.81   98.29
   8   3   5  886.31   98.59
   1  -8  -5  669.93   66.19
  -1   8  -5  776.32   68.59
   1  -8  -5  837.22   73.79
   8   1  -5  676.03   64.49
  -8  -1  -5  701.63   67.59
  -8  -1   5  714.33   85.99
  -1   8   5  642.84   66.29
   1  -8   5  732.43   67.39
   8   1   5  805.62   86.39
  -1  -8  -5  973.80   81.59
  -8   1  -5 1010.30   85.39
  -1  -8  -5 1060.59   85.19
   1   8  -5 1035.30   83.39
   8  -1  -5 1142.99   88.89
   8  -1   5  962.30   82.79
  -1  -8   5 1052.59   91.09
  -1  -8   5 1070.29   83.69
  -8   1   5 1045.70  105.29
   8  -1   5 1011.00   94.89
   1   8   5 1035.20   92.09
  -8   3  -5  212.68   35.60
  -3  -8  -5  260.87   35.10
   8  -3  -5  215.78   36.80
   3   8  -5  220.58   35.90
   3   8   5  220.58   32.90
   8  -3   5  223.38   31.00
  -3  -8   5  206.78   28.20
  -8   3   5  221.88   32.90
   8  -3   5  296.17   36.70
  -3  -8   5  254.27   33.80
   5   8  -5  893.31   78.19
  -8   5  -5  896.11   82.79
   8  -5  -5  865.51   79.29
  -5  -8  -5  880.51   78.29
   5   8   5  885.31   90.39
  -8   5   5  859.01   86.09
  -5  -8   5  926.81   99.59
  -8   5   5  873.41   77.79
   8  -5   5  900.61   83.69
  -5  -8   5  809.52   72.09
   7   8  -5   50.79    4.50
  -7  -8  -5   58.49    4.80
   8  -7  -5   76.69    8.30
  -8   7   5   57.59    5.70
   7   8   5   72.09    5.50
  -8   9  -5  974.20  107.49
   9   8  -5 1121.79   93.09
  -9  -8  -5 1246.08   98.69
   8  -9  -5 1313.67  113.19
  -8   9   5 1263.17  109.99
  -9  -8   5 1127.79   96.09
   8  -9   5 1230.08  108.09
  -9  -8   5 1306.97  142.89
   9   8   5 1217.48  126.49
   6  -9  -5  782.42   81.09
   9   6  -5  809.52   71.79
   9   6  -5  801.32   73.89
  -9  -6  -5  798.12   74.29
  -9  -6   5  875.51  107.89
   6  -9   5  733.63   77.49
  -6   9   5  800.82   82.79
   9   6   5  896.51  103.49
  -9  -4  -5  132.19   16.40
   4  -9  -5  108.99   24.10
   9   4  -5  125.59   16.40
  -4   9  -5  142.09   27.70
  -4   9   5  188.88   20.80
  -9  -4   5  176.48   24.50
   9   4   5  143.69   31.70
  -4   9   5  168.68   35.80
   4  -9   5  129.09   19.10
  -2   9  -5   79.89    6.80
   2  -9  -5   82.89   16.10
   9   2  -5   53.79    6.10
   9   2   5   74.69    4.60
  -9  -2   5   57.89    4.80
  -2   9   5   42.30   23.70
   9   0  -5  481.95   55.59
  -9   0  -5  537.15   59.09
   0  -9  -5  578.64   58.69
   0   9  -5  643.04   62.79
   0  -9  -5  562.64   59.89
   9   0   5  598.64   69.59
   0  -9   5  572.94   57.79
   9   0   5  474.95   56.69
  -9   0   5  606.34   78.39
   0   9   5  539.55   59.59
  -2  -9  -5   59.89    6.10
   9  -2  -5   93.69   21.00
  -2  -9  -5   85.99   19.70
   2   9  -5   98.39   18.90
  -9   2  -5   72.49   17.50
  -2  -9   5   77.89    7.60
  -2  -9   5   68.49   15.10
   2   9   5   60.89    5.50
   9  -4  -5  431.16   48.90
   4   9  -5  366.86   42.80
  -4  -9  -5  314.77   39.60
  -9   4  -5  378.76   47.40
  -4  -9   5  406.16   52.59
  -4  -9   5  341.97   42.50
  -9   4   5  307.67   54.49
   9  -4   5  304.27   44.60
   4   9   5  388.36   49.30
  -9   6  -5  814.42   81.39
  -6  -9  -5  788.62   73.29
   9  -6  -5  709.73   71.09
   6   9  -5  787.02   73.99
   6   9   5  804.82   87.29
  -9   6   5  551.64   72.39
  -6  -9   5  765.02   90.79
  -9   6   5  864.31   81.59
   9  -6   5  581.14   71.59
  -6  -9   5  727.63   71.19
   9  -8  -5  502.95   56.99
   8   9  -5  421.16   48.20
  -9   8  -5  280.17   55.49
  -8  -9  -5  498.25   53.19
  -9   8   5  558.24   62.49
   8   9   5  488.85   65.79
  -8  -9   5  501.85   64.39
   9  -8   5  378.96   52.39
  -8  -9   5  285.57   47.70
  -5  10  -5  200.38   23.10
 -10  -5  -5  235.68   27.70
   5 -10  -5  276.07   34.80
  10   5  -5  213.68   26.60
  -5  10   5  279.47   47.70
  10   5   5  246.68   37.00
   5 -10   5  205.28   30.30
 -10  -5   5  328.17   48.60
  -3  10  -5  548.45   58.89
   3 -10  -5  534.45   61.09
 -10  -3  -5  499.95   55.39
  10   3  -5  495.85   52.19
  -3  10   5  556.84   48.30
 -10  -3   5  568.34   80.89
  -3  10   5  526.35   66.29
   3 -10   5  451.85   58.69
  10   3   5  489.65   67.99
  -1  10  -5  166.78   21.80
 -10  -1  -5  151.28   20.60
  10   1  -5  173.18   22.50
   1 -10  -5  134.79   16.30
   1 -10   5  146.19   29.30
 -10  -1   5  154.18   22.90
  10   1   5  157.78   20.00
  -1 -10  -5 1398.56  101.89
  10  -1  -5 1411.16  103.89
  -1 -10  -5 1273.67  101.09
 -10   1  -5 1307.57  105.69
   1  10  -5 1358.86  103.89
  -1 -10   5 1403.06  106.49
   1  10   5 1260.57  107.39
  10  -1   5 1341.57  115.29
  10  -1   5 1330.57  107.69
 -10   1   5 1423.06  133.69
 -10   3  -5  281.27   37.70
   3  10  -5  241.98   32.30
  -3 -10  -5  269.47   34.10
  10  -3  -5  283.47   35.60
 -10   3   5  207.58   39.80
  10  -3   5  172.78   34.80
  -3 -10   5  213.18   36.60
   3  10   5  212.88   40.30
  10  -5  -5  630.44   64.89
   5  10  -5  700.03   68.49
  -5 -10  -5  741.33   69.19
 -10   5  -5  678.23   72.59
   5  10   5  534.25   66.69
  -5 -10   5  454.95   58.69
 -10   5   5  403.86   61.59
  -5 -10   5  671.53   75.69
  10  -5   5  559.44   70.09
  -4  11  -5  766.72   76.39
   4 -11  -5  712.73   73.29
  11   4  -5  601.14   63.29
 -11  -4  -5  703.63   68.69
 -11  -4   5  800.42  103.99
  11   4   5  690.93   88.29
  -4  11   5  756.02   81.99
   4 -11   5  596.24   76.69
  -2  11  -5  140.29   16.80
   2 -11  -5  179.48   20.70
 -11  -2  -5  163.78   20.80
  11   2  -5  127.29   25.80
  11   2   5  138.59   17.50
  -2  11   5  138.29   15.40
  -2  11   5  108.39   30.50
 -11  -2   5  203.68   26.10
  11   0  -5  247.88   40.20
 -11   0  -5  301.67   38.50
   0 -11  -5  294.47   35.90
   0  11  -5  357.16   42.00
  11   0   5  291.27   44.50
   0 -11   5  227.18   31.80
 -11   0   5  309.77   45.60
 -11   2  -5  792.32   77.59
  11  -2  -5  735.43   70.99
   2  11  -5  770.82   75.29
  -2 -11  -5  778.82   73.79
  -2 -11  -5  652.33   60.99
   2  11   5  774.42   79.89
  11  -2   5  833.02   82.59
  11  -2   5  579.34   70.29
 -11   2   5  680.23   88.39
  -2 -11   5  751.22   75.19
  -4 -11  -5  931.91   82.79
  11  -4  -5  921.81   82.09
 -11   4  -5 1003.70   92.19
   4  11  -5  972.60   87.09
   4  11   5  761.42   83.49
 -11   4   5  701.53   91.49
  -4 -11   5  786.02   80.19
  11  -4   5  761.82   82.39
  12   1  -5  804.12   75.59
  -1  12  -5 1052.99   96.09
 -12  -1  -5  974.90   87.79
   1 -12  -5  817.12   78.69
  -1  12   5  815.62   89.29
  12   1   5  850.51   95.79
   1 -12   5  908.61   87.99
  -1  12   5 1012.00   65.49
  12   1   5  706.23   79.79
 -12  -1   5  981.90  115.69
   1  12  -5  123.49   14.60
  -1 -12  -5  103.89   12.50
  12  -1  -5   58.89   21.70
 -12   1  -5  158.28   19.40
  -1 -12   5   80.89   21.20
  12  -1   5  144.89   20.60
   0   0  -6 2253.57  124.29
   0   0  -6 2262.77  123.99
   0   0   6 2230.68  155.98
   1   1  -6  344.17   37.60
   1  -1  -6  360.16   36.70
  -1   1  -6  375.76   37.70
  -1  -1  -6  349.17   35.70
  -1   1  -6  338.47   36.00
   1  -1  -6  311.97   35.10
  -1  -1  -6  342.57   36.70
   1   1  -6  219.68   28.90
   1  -1   6  294.27   45.20
  -1   1   6  252.57   39.30
  -1  -1   6  313.37   45.10
   1   1   6  358.96   49.00
   2   0  -6  296.57   34.60
   0   2  -6  350.76   38.50
   0   2  -6  399.56   42.00
   2   0  -6  386.66   43.70
  -2   0  -6  438.96   43.90
  -2   0  -6  430.86   39.40
   0  -2  -6  468.55   45.10
   0  -2  -6  437.86   42.80
   2   0   6  386.26   51.79
   0   2   6  381.66   53.89
   0  -2   6  438.36   56.49
  -2   0   6  441.06   57.59
   2  -2  -6  714.03   60.69
  -2   2  -6  720.63   58.99
   2   2  -6  805.22   69.79
  -2  -2  -6  769.72   59.49
  -2   2  -6  728.33   59.59
   2  -2  -6  740.63   65.39
  -2  -2  -6  739.53   64.99
  -2  -2   6  778.32   82.09
   2   2   6  697.53   77.79
   2  -2   6  766.12   79.39
  -2   2   6  808.42   84.69
  -1   3  -6   68.99    8.40
  -3  -1  -6  103.19   13.70
   1  -3  -6   93.39   10.80
   3   1  -6   91.09   18.90
   1  -3  -6   80.29   10.80
   1  -3   6   78.29   11.40
  -3  -1   6   57.39    5.60
   3   1   6   82.59   20.20
  -1   3   6   78.69   20.50
  -1  -3  -6  493.95   49.10
   1   3  -6  497.05   49.80
  -3   1  -6  386.26   36.90
  -1  -3  -6  462.95   44.30
   3  -1  -6  349.47   38.60
   3  -1  -6  401.86   45.90
  -3   1  -6  393.86   40.70
  -1  -3   6  416.66   54.89
   3  -1   6  457.75   57.59
   1   3   6  356.86   51.89
  -3   1   6  449.46   59.69
  -3  -3  -6  355.96   41.50
   3   3  -6  362.86   42.10
  -3   3  -6  352.86   34.80
  -3   3  -6  324.67   36.00
   3  -3  -6  316.07   37.40
   3  -3  -6  317.57   35.80
  -3   3   6  355.76   52.29
  -3  -3   6  301.27   45.10
   3  -3   6  383.46   48.70
   3   3   6  314.67   47.70
  -2   4  -6  681.53   59.19
   2  -4  -6  817.02   71.19
   2  -4  -6  735.83   65.09
  -2   4  -6  789.02   64.19
   4   2  -6  835.12   73.79
  -4  -2  -6  836.62   72.49
  -4  -2   6  722.73   83.59
  -2   4   6  827.62   85.89
   2  -4   6  794.32   78.89
   4   2   6  755.52   83.89
   4   0  -6  815.22   71.39
   0  -4  -6  839.52   68.19
   0   4  -6  843.02   69.89
   0  -4  -6  914.61   74.99
  -4   0  -6  829.72   70.59
   4   0   6  853.61   86.99
   0  -4   6  812.72   81.99
  -4   0   6  784.12   86.99
   0   4   6  814.42   86.29
  -2  -4  -6 1602.24   96.99
  -2  -4  -6 1569.14  107.49
   4  -2  -6 1647.34  110.89
   4  -2  -6 1459.95   95.89
   2   4  -6 1649.63  108.89
  -4   2  -6 1544.75  102.09
   2   4   6 1535.05  128.99
   4  -2   6 1558.94  122.99
  -2  -4   6 1484.25  125.09
  -4   2   6 1510.55  125.99
  -4   4  -6  198.58   30.30
  -4  -4  -6  224.68   30.50
   4  -4  -6  203.38   28.90
   4   4  -6  225.78   37.80
   4  -4  -6  256.27   32.70
  -4  -4   6  252.97   47.70
   4   4   6  272.97   49.50
  -4   4   6  223.68   42.30
   4  -4   6  259.37   34.60
  -3   5  -6 1107.79   83.39
  -3   5  -6 1227.28   85.89
   3  -5  -6 1237.78   92.29
   3  -5  -6 1220.38   94.79
  -5  -3  -6 1202.58   95.29
   5   3  -6 1273.47   96.99
   5   3   6 1197.48  115.09
  -3   5   6 1232.78  107.49
   3  -5   6 1261.97  103.59
  -5  -3   6 1254.57  119.79
  -1   5   6   40.90    4.30
   5  -1  -6 1141.99   90.09
   1   5  -6 1087.29   84.99
  -5   1  -6 1296.07   93.59
  -1  -5  -6 1084.39   87.29
  -1  -5  -6 1137.59   83.19
   5  -1   6 1128.09  103.19
  -5   1   6 1079.09  106.59
  -1  -5   6 1204.68  106.59
   1   5   6 1095.29  103.49
  -5   3  -6  510.05   51.19
   5  -3  -6  498.85   56.69
  -3  -5  -6  449.36   51.29
   3   5  -6  507.05   53.89
   3   5   6  523.75   66.89
   5  -3   6  495.85   57.69
  -5   3   6  599.74   70.39
  -5   3   6  445.76   44.60
  -5   3   6  624.14   60.49
  -3  -5   6  525.95   65.49
   5   5  -6  587.84   61.89
   5  -5  -6  620.44   63.59
  -5   5  -6  498.45   56.29
  -5  -5  -6  613.34   63.49
  -5   5   6  585.44   67.29
   5   5   6  614.14   78.09
   5  -5   6  552.84   60.19
  -5   5   6  700.53   58.19
  -5  -5   6  615.24   77.09
  -5   5   6  692.03   69.59
  -6  -4  -6  246.08   33.60
   6   4  -6  263.27   41.90
   4  -6  -6  248.18   31.90
   6   4   6  288.27   52.99
  -4   6   6  315.37   50.29
  -4   6   6  233.58   42.10
  -6  -4   6  237.58   36.20
  -4   6   6  279.17   30.60
  -2   6  -6  512.15   50.29
   2  -6  -6  487.35   51.39
   2  -6  -6  535.65   54.99
   6   2  -6  532.35   56.39
  -6  -2  -6  457.35   52.29
  -6  -2   6  460.75   64.69
   6   2   6  529.65   67.49
   2  -6   6  570.94   61.09
  -2   6   6  541.65   65.09
  -6   0  -6  519.35   54.89
   0  -6  -6  527.85   55.29
   0  -6  -6  470.85   49.99
   6   0  -6  539.95   60.39
   0   6  -6  603.84   56.69
   0   6   6  529.35   64.09
  -6   0   6  469.35   64.69
   6   0   6  613.74   71.29
   0  -6   6  560.54   62.69
  -2  -6  -6  120.09   26.00
  -2  -6  -6   92.09   11.90
   6  -2  -6   81.29    7.20
  -6   2  -6   77.49    8.50
   2   6  -6  106.09   11.50
   6  -2   6  113.19   10.60
  -6   2   6   93.49   24.00
  -2  -6   6  107.99    6.20
   2   6   6   90.09   20.90
  -4  -6  -6  597.44   61.39
   4   6  -6  538.95   57.69
  -6   4  -6  533.15   56.39
   6  -4  -6  552.54   59.99
  -4  -6   6  523.05   66.49
   6  -4   6  614.64   63.19
   4   6   6  498.95   65.69
  -6   4   6  573.04   68.99
  -6   4   6  613.94   60.39
  -6   4   6  585.74   53.29
   6  -6  -6  235.18   30.30
  -6  -6  -6  291.37   37.20
   6   6  -6  278.57   36.30
   6  -6   6  156.58   35.70
  -6   6   6  313.77   40.40
   6   6   6  297.97   45.10
  -6   6   6  290.57   32.40
  -6  -6   6  318.37   42.80
  -6   6   6  169.08   40.10
   7   5  -6  136.89   27.00
  -7  -5  -6  165.18   19.30
   5  -7  -6  128.49   14.40
  -5   7   6   78.59   25.80
  -5   7   6  140.09   12.80
   7   5   6  117.49   15.30
  -5   7   6  148.99   29.50
  -7  -5   6  170.18   23.80
  -7  -3  -6 1105.29   91.49
   7   3  -6 1031.60   89.49
   3  -7  -6 1071.89   91.29
  -3   7  -6 1131.39   85.99
  -7  -3   6 1242.28  124.99
  -3   7   6  921.31   90.89
   3  -7   6 1005.80   91.69
   7   3   6 1095.29  111.79
   1  -7  -6  325.57   37.80
   7   1  -6  331.47   41.90
   1  -7  -6  308.07   38.40
  -7  -1  -6  340.27   42.20
  -1   7  -6  309.97   36.90
  -7  -1   6  302.87   58.09
   1  -7   6  357.26   42.90
  -1   7   6  351.96   46.20
   7   1   6  287.67   44.60
  -1  -7  -6  243.98   33.00
   1   7  -6  285.07   33.70
   7  -1  -6  268.07   35.40
  -1  -7  -6  275.67   31.70
  -7   1  -6  246.68   30.90
   1   7   6  259.77   38.30
  -7   1   6  240.58   48.30
   7  -1   6  265.77   35.70
  -1  -7   6  189.28   29.40
   3   7  -6  827.02   73.79
  -3  -7  -6  916.91   82.09
  -7   3  -6  716.13   68.69
   7  -3  -6  732.13   71.99
  -7   3   6  795.62   87.59
   3   7   6  782.52   85.79
  -3  -7   6  936.61   94.49
   7  -3   6  804.22   79.79
  -5  -7  -6  753.72   72.99
   7  -5  -6  703.43   70.29
  -7   5  -6  521.15   62.29
   5   7  -6  625.34   64.49
  -7   5   6  560.04   70.49
  -5  -7   6  716.93   82.69
  -7   5   6  657.93   65.89
   5   7   6  748.03   84.89
   7  -5   6  495.85   61.89
   4  -8  -6  334.47   40.30
  -8  -4  -6  377.16   44.50
   8   4  -6  273.77   35.90
  -8  -4   6  235.08   34.50
  -4   8   6  189.58   37.10
  -4   8   6  317.87   32.80
   8   4   6  296.57   45.00
   4  -8   6  157.28   35.90
  -4   8   6  274.47   47.70
   2  -8  -6  108.79   14.30
   8   2  -6  144.39   18.90
   2  -8  -6  146.09   19.10
  -2   8  -6  115.39   11.70
  -8  -2  -6  149.09   19.50
  -8  -2   6  118.99   29.10
   8   2   6  150.68   19.50
   0  -8  -6  966.50   82.49
   0  -8  -6  919.61   80.49
   8   0  -6  879.51   81.79
  -8   0  -6  866.31   78.39
   0   8  -6  946.31   81.99
   8   0   6  889.81   93.09
   0  -8   6  805.92   76.69
   0   8   6  911.91   89.69
  -8   0   6  939.21  103.39
   8  -2  -6  372.16   46.00
  -8   2  -6  415.86   47.60
   2   8  -6  405.56   47.00
  -2  -8  -6  380.66   45.50
  -2  -8   6  418.26   52.49
   2   8   6  348.57   49.80
   8  -2   6  364.76   44.00
  -8   2   6  397.56   53.69
  -4  -8  -6  134.39   13.80
   8  -4  -6  134.49   17.40
  -8   4  -6   55.49   14.10
   4   8  -6   94.19    8.20
  -8   4   6   72.99   20.40
   4   8   6   80.99    9.40
  -4  -8   6   86.19    9.70
  -3   9  -6  234.98   30.20
   3  -9  -6  255.87   29.70
   9   3  -6  229.68   29.50
  -9  -3  -6  290.37   36.30
  -3   9   6  265.97   48.80
   3  -9   6  134.49   35.30
  -3   9   6  272.27   27.00
  -3   9   6  171.18   37.60
  -9  -3   6  281.77   36.70
   9   3   6  326.37   46.60
   1  -9  -6  611.94   63.79
   9   1  -6  713.03   70.29
  -9  -1  -6  676.83   68.69
   1  -9  -6  722.63   70.69
  -1   9  -6  758.92   72.99
  -1   9   6  643.64   73.79
   1  -9   6  560.14   63.49
  -9  -1   6  766.22   91.29
   9   1   6  681.53   80.69
  -9   1  -6  457.65   52.39
  -1  -9  -6  457.65   49.60
  -1  -9  -6  498.35   55.79
   9  -1  -6  521.95   57.29
   1   9  -6  558.04   59.99
  -9   1   6  509.45   67.39
   1   9   6  400.26   55.99
   9  -1   6  502.45   59.59
  -1  -9   6  341.57   45.80
  -9   3  -6 1176.28   98.09
   9  -3  -6 1051.09   93.59
   3   9  -6 1102.49   94.89
  -3  -9  -6 1127.79   94.69
   3   9   6 1007.50  101.79
  -3  -9   6 1125.39  109.79
  -9   3   6 1002.00  108.99
  -3  -9   6  937.21   89.39
   0   1  -7   45.50    4.20
   1   0  -7   59.59    5.50
  -1   0  -7   43.70    3.30
   0  -1  -7   32.90    3.90
   1  -2  -7  593.34   56.69
  -2  -1  -7  516.25   58.49
  -1   2  -7  646.44   59.19
   1  -2  -7  380.06   51.29
   2   1  -7  543.75   55.69
  -2  -1   7  605.84   74.09
  -1   2   7  570.54   71.69
   2   1   7  551.74   69.89
   1  -2   7  648.84   75.79
   1   2  -7 1258.87   95.19
  -1  -2  -7 1249.18   89.59
  -1  -2  -7 1127.69   92.29
  -2   1  -7 1105.89   89.89
   2  -1  -7 1361.76  100.49
  -1  -2   7 1344.07  122.69
  -2   1   7 1221.58  117.89
   2  -1   7 1211.08  115.59
   1   2   7 1307.47  120.39
  -2   3  -7  257.57   31.70
   3   2  -7  357.86   41.20
  -3  -2  -7  235.68   36.50
   2  -3  -7  284.27   33.20
   2  -3  -7  169.98   36.90
  -2   3   7  361.66   52.29
  -3  -2   7  354.36   50.89
   3   2   7  348.17   49.70
   2  -3   7  321.27   45.30
   3   0  -7  231.88   28.40
   0   3  -7  163.38   28.50
   0  -3  -7  169.48   21.20
   3   0   7  228.18   31.30
  -3   0   7  180.68   25.40
   0  -3   7  178.88   25.30
   0   3   7  172.08   37.50
   2   3  -7  416.66   47.10
  -2  -3  -7  315.07   42.70
   3  -2  -7  483.65   51.19
  -2  -3   7  481.65   63.29
   3  -2   7  442.36   58.09
   2   3   7  450.15   60.49
  -3   2   7  434.06   59.29
  -4  -3  -7  821.92   75.59
   3  -4  -7  774.42   72.39
   3  -4  -7  592.64   68.39
   4   3  -7  801.12   74.49
  -4  -3   7  803.42   91.19
   3  -4   7  817.32   83.49
   4   3   7  899.61   96.99
  -3   4   7  869.71   93.39
   1  -4  -7  557.74   54.89
  -1   4  -7  576.24   55.59
   4   1  -7  506.35   54.59
   1  -4  -7  352.56   51.09
  -4  -1  -7  441.76   54.29
   1  -4   7  510.65   63.69
   4   1   7  540.75   69.09
  -1   4   7  491.85   64.39
  -4  -1   7  544.95   72.09
   4  -1  -7   47.70    3.60
   1   4  -7   35.50    3.30
  -4   1   7   56.59    4.50
  -1  -4   7   49.10    4.40
   4  -3  -7  212.18   25.30
  -3  -4  -7  153.08   21.50
   3   4  -7  178.98   23.50
   4  -3   7  187.48   25.80
  -4   3   7  265.07   37.30
   3   4   7  209.58   31.30
  -3  -4   7  249.88   35.50
   2  -5  -7   61.19   23.40
   2  -5  -7  129.39   12.70
  -5  -2  -7   95.69   12.00
  -2   5  -7  126.59   14.70
   5   2  -7  175.68   22.20
  -2   5   7  192.88   27.20
   2  -5   7  171.18   20.10
  -5  -2   7  189.58   28.20
   5   2   7  200.78   28.60
   0  -5  -7  512.05   60.19
   5   0  -7  799.62   74.19
   0  -5  -7  711.73   66.59
  -5   0  -7  594.14   65.19
   0   5  -7  716.43   66.09
  -5   0   7  698.93   85.69
   5   0   7  746.53   82.19
   0  -5   7  722.23   79.79
   0   5   7  702.93   81.49
   5  -2  -7  194.98   23.80
  -2  -5  -7  137.89   27.00
   2   5  -7  144.99   19.50
   5  -2   7  153.68   22.00
  -5   2   7  197.88   26.90
  -2  -5   7  148.29   22.30
   2   5   7  156.78   21.80
   0   0   0    0.00    0.00

_computing_structure_solution     'SHELXT 2014/5 (Sheldrick, 2014)'
;
_shelx_hkl_checksum              41513
_shelx_shelxl_version_number     2014/7
_olex2_submission_special_instructions 'No special instructions were received'
loop_
_space_group_symop_operation_xyz
'x, y, z'
'-x, -y, z'
'y, -x, -z'
'-y, x, -z'
'x+1/2, y+1/2, z+1/2'
'-x+1/2, -y+1/2, z+1/2'
'y+1/2, -x+1/2, -z+1/2'
'-y+1/2, x+1/2, -z+1/2'
loop_
_atom_site_label
_atom_site_type_symbol
_atom_site_fract_x
_atom_site_fract_y
_atom_site_fract_z
_atom_site_U_iso_or_equiv
_atom_site_adp_type
_atom_site_occupancy
_atom_site_site_symmetry_order
_atom_site_calc_flag
_atom_site_refinement_flags_posn
_atom_site_refinement_flags_adp
_atom_site_refinement_flags_occupancy
_atom_site_disorder_assembly
_atom_site_disorder_group
Na1 Na 0.5000 0.5000 0.5000 0.032(3) Uani 1 4 d S T P . .
Na2 Na 0.0875(4) 0.6045(4) 0.4831(12) 0.0228(10) Uani 1 1 d . . . . .
Nd01 Nd 0.61504(4) 0.68226(4) -0.02392(10) 0.00940(19) Uani 1 1 d . . . . .
Ge1 Ge 0.39696(8) 0.74725(8) 0.4899(2) 0.0093(3) Uani 1 1 d . . . . .
F1 F 0.5000 0.5000 0.0000 0.017(3) Uani 1 4 d S T P . .
O1 O 0.4515(7) 0.6784(8) 0.7303(14) 0.0125(16) Uani 1 1 d . . . . .
O2 O 0.3921(6) 0.8903(6) 0.5275(17) 0.0149(17) Uani 1 1 d . . . . .
O4 O 0.4670(7) 0.7092(8) 0.2310(16) 0.0156(19) Uani 1 1 d . . . . .
O3 O 0.2601(6) 0.7032(7) 0.4249(15) 0.0124(17) Uani 1 1 d . . . . .
loop_
_atom_site_aniso_label
_atom_site_aniso_U_11
_atom_site_aniso_U_22
_atom_site_aniso_U_33
_atom_site_aniso_U_23
_atom_site_aniso_U_13
_atom_site_aniso_U_12
Na1 0.024(3) 0.024(3) 0.050(7) 0.000 0.000 0.000
Na2 0.014(2) 0.016(2) 0.038(3) -0.003(3) 0.002(3) -0.0001(17)
Nd01 0.0083(3) 0.0091(3) 0.0107(3) -0.0001(2) 0.0003(2) 0.0001(2)
Ge1 0.0091(5) 0.0095(5) 0.0094(5) -0.0003(5) -0.0002(5) 0.0009(4)
F1 0.010(3) 0.010(3) 0.032(8) 0.000 0.000 0.000
O1 0.009(4) 0.015(4) 0.014(4) 0.000(3) -0.003(3) -0.007(4)
O2 0.010(3) 0.006(3) 0.029(5) -0.003(4) -0.001(4) 0.001(3)
O4 0.007(4) 0.026(5) 0.014(4) -0.003(4) 0.003(3) -0.006(3)
O3 0.007(3) 0.017(4) 0.013(4) -0.008(3) 0.001(3) 0.003(3)
loop_
_atom_type_symbol
_atom_type_description
_atom_type_scat_dispersion_real
_atom_type_scat_dispersion_imag
_atom_type_scat_source
F F 0.0171 0.0103 'International Tables Vol C Tables 4.2.6.8 and 6.1.1.4'
Ge Ge 0.1547 1.8001 'International Tables Vol C Tables 4.2.6.8 and 6.1.1.4'
Na Na 0.0362 0.0249 'International Tables Vol C Tables 4.2.6.8 and 6.1.1.4'
Nd Nd -0.1943 3.0179 'International Tables Vol C Tables 4.2.6.8 and 6.1.1.4'
O O 0.0106 0.0060 'International Tables Vol C Tables 4.2.6.8 and 6.1.1.4'
loop_
_geom_angle_atom_site_label_1
_geom_angle_atom_site_label_2
_geom_angle_atom_site_label_3
_geom_angle
_geom_angle_site_symmetry_1
_geom_angle_site_symmetry_3
Ge1 Na1 Ge1 90.018(1) . 3_566
F1 Na1 Ge1 91.02(2) 1_556 .
F1 Na1 Ge1 88.98(2) . .
F1 Na1 Ge1 91.02(2) . 3_566
F1 Na1 Ge1 88.98(2) 1_556 3_566
F1 Na1 F1 180.0 . 1_556
F1 Na1 O4 59.18(17) 1_556 3_566
F1 Na1 O4 120.82(17) . 3_566
F1 Na1 O4 120.82(17) 1_556 .
F1 Na1 O4 120.82(17) 1_556 2_665
F1 Na1 O4 59.18(17) . .
F1 Na1 O4 59.18(17) 1_556 4_656
F1 Na1 O4 120.82(17) . 4_656
F1 Na1 O4 59.18(17) . 2_665
O1 Na1 Ge1 32.14(18) . .
O1 Na1 Ge1 149.84(18) 4_656 3_566
O1 Na1 Ge1 95.88(19) 2_665 3_566
O1 Na1 Ge1 83.09(19) 4_656 .
O1 Na1 Ge1 32.14(18) 3_566 3_566
O1 Na1 Ge1 95.88(19) 3_566 .
O1 Na1 Ge1 83.09(19) . 3_566
O1 Na1 Ge1 149.84(18) 2_665 .
O1 Na1 F1 59.66(18) . 1_556
O1 Na1 F1 59.66(18) 2_665 1_556
O1 Na1 F1 120.34(18) 3_566 1_556
O1 Na1 F1 120.34(18) 4_656 1_556
O1 Na1 F1 59.66(18) 3_566 .
O1 Na1 F1 120.34(18) 2_665 .
O1 Na1 F1 120.34(18) . .
O1 Na1 F1 59.66(18) 4_656 .
O1 Na1 O1 104.78(17) . 4_656
O1 Na1 O1 104.78(17) 4_656 2_665
O1 Na1 O1 119.3(4) . 2_665
O1 Na1 O1 104.78(17) 3_566 2_665
O1 Na1 O1 119.3(4) 4_656 3_566
O1 Na1 O1 104.78(17) . 3_566
O1 Na1 O4 174.6(3) 2_665 .
O1 Na1 O4 79.7(3) 3_566 2_665
O1 Na1 O4 70.2(3) . 4_656
O1 Na1 O4 174.6(3) 4_656 3_566
O1 Na1 O4 61.4(2) . .
O1 Na1 O4 61.4(2) 3_566 3_566
O1 Na1 O4 70.2(3) 3_566 .
O1 Na1 O4 70.2(3) 2_665 3_566
O1 Na1 O4 61.4(2) 2_665 2_665
O1 Na1 O4 79.7(3) 2_665 4_656
O1 Na1 O4 79.7(3) 4_656 .
O1 Na1 O4 79.7(3) . 3_566
O1 Na1 O4 61.4(2) 4_656 4_656
O1 Na1 O4 174.6(3) . 2_665
O1 Na1 O4 70.2(3) 4_656 2_665
O1 Na1 O4 174.6(3) 3_566 4_656
O4 Na1 Ge1 145.62(17) 2_665 .
O4 Na1 Ge1 145.62(17) 4_656 3_566
O4 Na1 Ge1 102.23(17) 3_566 .
O4 Na1 Ge1 32.49(17) . .
O4 Na1 Ge1 78.83(17) . 3_566
O4 Na1 Ge1 32.49(17) 3_566 3_566
O4 Na1 Ge1 102.23(17) 2_665 3_566
O4 Na1 Ge1 78.83(17) 4_656 .
O4 Na1 O4 105.22(16) 2_665 4_656
O4 Na1 O4 105.22(16) 3_566 2_665
O4 Na1 O4 105.22(16) 4_656 .
O4 Na1 O4 105.22(16) 3_566 .
O4 Na1 O4 118.4(3) 2_665 .
O4 Na1 O4 118.4(3) 3_566 4_656
Na2 Na2 Na2 62.15(10) 2_565 7_455
Na2 Na2 Na2 62.15(10) 2_565 8
Na2 Na2 Na2 55.7(2) 7_455 8
Na2 Na2 Nd01 120.6(2) 7_455 6_565
Na2 Na2 Nd01 96.53(18) 2_565 6_565
Na2 Na2 Nd01 65.20(13) 8 6_565
Na2 Na2 Ge1 116.11(10) 2_565 6_565
Na2 Na2 Ge1 116.66(11) 2_565 6_564
Ge1 Na2 Na2 55.74(19) 6_564 8
Ge1 Na2 Na2 168.6(2) 6_565 7_455
Ge1 Na2 Na2 134.70(18) 6_565 8
Ge1 Na2 Na2 78.49(16) 4_656 2_565
Ge1 Na2 Na2 59.03(11) 4_656 7_455
Ge1 Na2 Na2 73.7(2) 6_564 7_455
Ge1 Na2 Na2 113.57(18) 4_656 8
Ge1 Na2 Nd01 174.58(17) 4_656 6_565
Ge1 Na2 Nd01 68.85(10) 6_564 6_565
Ge1 Na2 Nd01 70.42(10) 6_565 6_565
Ge1 Na2 Ge1 115.19(13) 6_564 6_565
Ge1 Na2 Ge1 115.19(17) 4_656 6_564
Ge1 Na2 Ge1 109.73(18) 4_656 6_565
O2 Na2 Na2 47.5(2) 3_466 8
O2 Na2 Na2 45.93(19) 4_656 2_565
O2 Na2 Na2 51.1(2) 3_466 2_565
O2 Na2 Na2 42.6(2) 6_564 7_455
O2 Na2 Na2 94.56(19) 6_564 2_565
O2 Na2 Na2 89.6(2) 4_656 8
O2 Na2 Na2 46.9(2) 6_564 8
O2 Na2 Na2 47.3(2) 4_656 7_455
O2 Na2 Na2 92.9(3) 3_466 7_455
O2 Na2 Nd01 45.49(19) 3_466 6_565
O2 Na2 Nd01 142.4(2) 4_656 6_565
O2 Na2 Nd01 92.1(2) 6_564 6_565
O2 Na2 Ge1 91.5(3) 3_466 6_564
O2 Na2 Ge1 90.4(2) 6_564 4_656
O2 Na2 Ge1 129.5(2) 3_466 4_656
O2 Na2 Ge1 122.6(3) 4_656 6_565
O2 Na2 Ge1 93.9(3) 3_466 6_565
O2 Na2 Ge1 145.6(2) 6_564 6_565
O2 Na2 Ge1 32.80(17) 4_656 4_656
O2 Na2 Ge1 120.6(3) 4_656 6_564
O2 Na2 Ge1 31.20(17) 6_564 6_564
O2 Na2 O2 96.9(3) 3_466 4_656
O2 Na2 O2 94.0(3) 3_466 6_564
O2 Na2 O2 89.5(3) 4_656 6_564
O2 Na2 O4 121.0(3) 6_564 6_565
O2 Na2 O4 148.8(4) 4_656 6_565
O2 Na2 O4 76.0(3) 3_466 6_565
O2 Na2 O3 147.9(3) 3_466 .
O4 Na2 Na2 160.4(3) 6_565 7_455
O4 Na2 Na2 106.0(3) 6_565 8
O4 Na2 Na2 118.4(3) 6_565 2_565
O4 Na2 Nd01 40.82(19) 6_565 6_565
O4 Na2 Ge1 31.0(2) 6_565 6_565
O4 Na2 Ge1 90.2(2) 6_565 6_564
O4 Na2 Ge1 140.2(3) 6_565 4_656
O3 Na2 Na2 119.5(4) . 8
O3 Na2 Na2 158.3(3) . 2_565
O3 Na2 Na2 99.9(3) . 7_455
O3 Na2 Nd01 103.5(2) . 6_565
O3 Na2 Ge1 78.9(2) . 6_565
O3 Na2 Ge1 81.7(2) . 4_656
O3 Na2 Ge1 64.7(2) . 6_564
O3 Na2 O2 76.8(3) . 6_564
O3 Na2 O2 113.4(3) . 4_656
O3 Na2 O4 82.7(3) . 6_565
Na2 Nd01 Na2 151.87(7) 6_564 8_655
Ge1 Nd01 Na2 124.32(12) 3_565 6_564
Ge1 Nd01 Na2 76.19(8) 8_655 6_564
Ge1 Nd01 Na2 59.43(11) 3_565 8_655
Ge1 Nd01 Na2 75.81(7) 8_655 8_655
Ge1 Nd01 Ge1 91.93(3) 8_655 3_565
F1 Nd01 Na2 103.35(7) . 8_655
F1 Nd01 Na2 104.16(8) . 6_564
F1 Nd01 Ge1 173.42(4) . 8_655
F1 Nd01 Ge1 93.20(2) . 3_565
F1 Nd01 O3 119.26(17) . 3_565
O1 Nd01 Na2 56.5(2) 3_566 8_655
O1 Nd01 Na2 57.2(2) 1_554 6_564
O1 Nd01 Na2 143.4(2) 1_554 8_655
O1 Nd01 Na2 133.4(2) 3_566 6_564
O1 Nd01 Ge1 85.8(2) 1_554 3_565
O1 Nd01 Ge1 110.1(2) 3_566 8_655
O1 Nd01 Ge1 119.5(2) 1_554 8_655
O1 Nd01 Ge1 102.0(2) 3_566 3_565
O1 Nd01 F1 65.1(2) 1_554 .
O1 Nd01 F1 64.7(2) 3_566 .
O1 Nd01 O1 129.5(4) 1_554 3_566
O1 Nd01 O2 132.4(3) 3_566 8_655
O1 Nd01 O2 89.7(3) 1_554 8_655
O1 Nd01 O4 95.1(3) 1_554 3_565
O1 Nd01 O3 150.5(3) 1_554 8_655
O1 Nd01 O3 79.5(3) 3_566 8_655
O1 Nd01 O3 80.5(3) 1_554 3_565
O1 Nd01 O3 130.1(3) 3_566 3_565
O2 Nd01 Na2 110.11(17) 8_655 8_655
O2 Nd01 Na2 42.09(17) 8_655 6_564
O2 Nd01 Ge1 107.6(2) 8_655 3_565
O2 Nd01 Ge1 34.35(16) 8_655 8_655
O2 Nd01 F1 146.21(16) 8_655 .
O2 Nd01 O3 74.7(3) 8_655 3_565
O4 Nd01 Na2 137.1(3) . 8_655
O4 Nd01 Na2 50.3(3) . 6_564
O4 Nd01 Na2 149.8(2) 3_565 6_564
O4 Nd01 Na2 49.7(2) 3_565 8_655
O4 Nd01 Ge1 113.6(2) 3_565 8_655
O4 Nd01 Ge1 32.4(2) 3_565 3_565
O4 Nd01 Ge1 105.0(2) . 8_655
O4 Nd01 Ge1 158.6(2) . 3_565
O4 Nd01 F1 71.1(2) . .
O4 Nd01 F1 69.4(2) 3_565 .
O4 Nd01 O1 84.8(3) . 3_566
O4 Nd01 O1 72.1(3) 3_565 3_566
O4 Nd01 O1 74.5(3) . 1_554
O4 Nd01 O2 81.1(3) . 8_655
O4 Nd01 O2 138.5(3) 3_565 8_655
O4 Nd01 O4 139.8(4) . 3_565
O4 Nd01 O3 65.5(3) 3_565 3_565
O4 Nd01 O3 119.5(3) . 8_655
O4 Nd01 O3 145.1(3) . 3_565
O4 Nd01 O3 88.6(3) 3_565 8_655
O3 Nd01 Na2 75.8(2) 3_565 8_655
O3 Nd01 Na2 95.6(2) 3_565 6_564
O3 Nd01 Na2 109.63(19) 8_655 6_564
O3 Nd01 Na2 42.40(19) 8_655 8_655
O3 Nd01 Ge1 33.25(17) 3_565 3_565
O3 Nd01 Ge1 81.9(2) 8_655 3_565
O3 Nd01 Ge1 35.08(18) 8_655 8_655
O3 Nd01 Ge1 67.05(18) 3_565 8_655
O3 Nd01 F1 142.06(18) 8_655 .
O3 Nd01 O2 69.0(2) 8_655 8_655
O3 Nd01 O3 74.45(15) 8_655 3_565
Na1 Ge1 Na2 118.75(10) . 6_564
Na1 Ge1 Na2 117.39(10) . 6_565
Na2 Ge1 Na1 105.83(9) 3_566 .
Na2 Ge1 Na2 70.66(19) 3_566 6_564
Na2 Ge1 Na2 115.19(13) 6_565 6_564
Na2 Ge1 Na2 65.23(19) 3_566 6_565
Na2 Ge1 Nd01 125.28(13) 3_566 4_655
Nd01 Ge1 Na1 70.89(2) 4_655 .
Nd01 Ge1 Na1 145.02(4) 7_465 .
Nd01 Ge1 Na2 79.34(8) 7_465 6_564
Nd01 Ge1 Na2 165.94(9) 4_655 6_565
Nd01 Ge1 Na2 65.42(10) 4_655 6_564
Nd01 Ge1 Na2 72.83(8) 7_465 6_565
Nd01 Ge1 Na2 108.55(9) 7_465 3_566
Nd01 Ge1 Nd01 93.94(3) 7_465 4_655
O1 Ge1 Na1 52.8(3) . .
O1 Ge1 Na2 64.8(3) . 6_565
O1 Ge1 Na2 87.9(3) . 3_566
O1 Ge1 Na2 154.4(3) . 6_564
O1 Ge1 Nd01 121.4(3) . 4_655
O1 Ge1 Nd01 122.0(3) . 7_465
O1 Ge1 O2 113.2(4) . .
O1 Ge1 O4 110.5(4) . .
O1 Ge1 O3 112.0(4) . .
O2 Ge1 Na1 157.8(3) . .
O2 Ge1 Na2 50.6(3) . 6_565
O2 Ge1 Na2 53.4(3) . 3_566
O2 Ge1 Na2 65.3(3) . 6_564
O2 Ge1 Nd01 125.5(3) . 4_655
O2 Ge1 Nd01 55.2(2) . 7_465
O2 Ge1 O4 112.2(4) . .
O2 Ge1 O3 106.9(4) . .
O4 Ge1 Na1 65.7(3) . .
O4 Ge1 Na2 80.0(3) . 3_566
O4 Ge1 Na2 144.8(3) . 6_565
O4 Ge1 Na2 53.3(3) . 6_564
O4 Ge1 Nd01 47.9(3) . 4_655
O4 Ge1 Nd01 126.7(3) . 7_465
O4 Ge1 O3 101.3(4) . .
O3 Ge1 Na1 94.9(3) . .
O3 Ge1 Na2 91.9(3) . 6_564
O3 Ge1 Na2 157.5(3) . 3_566
O3 Ge1 Na2 112.8(3) . 6_565
O3 Ge1 Nd01 52.6(3) . 7_465
O3 Ge1 Nd01 53.6(3) . 4_655
Na1 F1 Na1 180.0 1_554 .
Nd01 F1 Na1 87.016(13) 2_665 1_554
Nd01 F1 Na1 92.984(13) 2_665 .
Nd01 F1 Na1 92.984(13) . .
Nd01 F1 Na1 92.984(13) 3_565 1_554
Nd01 F1 Na1 87.016(13) 3_565 .
Nd01 F1 Na1 92.984(13) 4_655 1_554
Nd01 F1 Na1 87.016(13) . 1_554
Nd01 F1 Na1 87.016(13) 4_655 .
Nd01 F1 Nd01 90.155(1) 3_565 .
Nd01 F1 Nd01 174.03(3) 2_665 .
Nd01 F1 Nd01 90.155(1) 2_665 3_565
Nd01 F1 Nd01 90.156(1) 4_655 .
Nd01 F1 Nd01 90.155(1) 2_665 4_655
Nd01 F1 Nd01 174.03(3) 3_565 4_655
Nd01 O1 Na1 103.5(3) 4_656 .
Nd01 O1 Na1 97.0(3) 1_556 .
Nd01 O1 Nd01 98.8(3) 1_556 4_656
Ge1 O1 Na1 95.1(3) . .
Ge1 O1 Nd01 139.2(5) . 1_556
Ge1 O1 Nd01 115.9(4) . 4_656
Na2 O2 Na2 90.0(3) 4_666 6_565
Na2 O2 Na2 83.0(3) 4_666 3_566
Na2 O2 Na2 85.8(3) 3_566 6_565
Na2 O2 Nd01 92.4(3) 4_666 7_465
Nd01 O2 Na2 175.1(4) 7_465 3_566
Nd01 O2 Na2 95.9(3) 7_465 6_565
Ge1 O2 Na2 98.2(4) . 6_565
Ge1 O2 Na2 171.0(6) . 4_666
Ge1 O2 Na2 93.8(3) . 3_566
Ge1 O2 Nd01 90.4(3) . 7_465
Na2 O4 Na1 173.7(4) 6_564 .
Nd01 O4 Na1 87.1(3) 4_655 .
Nd01 O4 Na1 95.6(3) . .
Nd01 O4 Na2 87.6(3) 4_655 6_564
Nd01 O4 Na2 88.9(3) . 6_564
Nd01 O4 Nd01 101.8(3) . 4_655
Ge1 O4 Na1 81.8(3) . .
Ge1 O4 Na2 95.7(4) . 6_564
Ge1 O4 Nd01 158.2(5) . .
Ge1 O4 Nd01 99.7(4) . 4_655
Na2 O3 Nd01 98.5(3) . 4_655
Na2 O3 Nd01 94.6(3) . 7_465
Nd01 O3 Nd01 131.9(3) 7_465 4_655
Ge1 O3 Na2 156.9(5) . .
Ge1 O3 Nd01 92.4(3) . 7_465
Ge1 O3 Nd01 93.1(3) . 4_655
loop_
_geom_bond_atom_site_label_1
_geom_bond_atom_site_label_2
_geom_bond_distance
_geom_bond_site_symmetry_2
Na1 Ge1 3.2320(11) 3_566
Na1 Ge1 3.2320(11) .
Na1 F1 2.8337(5) 1_556
Na1 F1 2.8337(5) .
Na1 O1 2.584(9) 4_656
Na1 O1 2.584(9) 2_665
Na1 O1 2.584(9) 3_566
Na1 O1 2.584(9) .
Na1 O4 2.975(10) 4_656
Na1 O4 2.975(10) 3_566
Na1 O4 2.975(10) .
Na1 O4 2.975(10) 2_665
Na2 Na2 3.520(11) 8
Na2 Na2 3.520(11) 7_455
Na2 Na2 3.289(9) 2_565
Na2 Nd01 3.548(4) 6_565
Na2 Ge1 3.389(7) 6_565
Na2 Ge1 3.324(7) 6_564
Na2 Ge1 3.204(5) 4_656
Na2 O2 2.577(9) 4_656
Na2 O2 2.381(8) 3_466
Na2 O2 2.595(12) 6_564
Na2 O4 2.731(11) 6_565
Na2 O3 2.421(9) .
Nd01 Na2 3.548(5) 6_564
Nd01 Na2 3.579(5) 8_655
Nd01 Ge1 3.2298(15) 3_565
Nd01 Ge1 3.0832(12) 8_655
Nd01 F1 2.6038(7) .
Nd01 O1 2.441(8) 3_566
Nd01 O1 2.415(8) 1_554
Nd01 O2 2.533(7) 8_655
Nd01 O4 2.320(9) .
Nd01 O4 2.431(9) 3_565
Nd01 O3 2.450(8) 8_655
Nd01 O3 2.604(8) 3_565
Ge1 Na2 3.324(7) 6_565
Ge1 Na2 3.389(7) 6_564
Ge1 Na2 3.204(5) 3_566
Ge1 Nd01 3.2298(15) 4_655
Ge1 Nd01 3.0833(12) 7_465
Ge1 O1 1.726(8) .
Ge1 O2 1.740(7) .
Ge1 O4 1.754(9) .
Ge1 O3 1.773(8) .
F1 Na1 2.8337(5) 1_554
F1 Nd01 2.6037(7) 4_655
F1 Nd01 2.6037(7) 3_565
F1 Nd01 2.6037(7) 2_665
O1 Nd01 2.415(8) 1_556
O1 Nd01 2.441(8) 4_656
O2 Na2 2.381(8) 4_666
O2 Na2 2.595(12) 6_565
O2 Na2 2.577(9) 3_566
O2 Nd01 2.533(7) 7_465
O4 Na2 2.731(11) 6_564
O4 Nd01 2.431(9) 4_655
O3 Nd01 2.604(8) 4_655
O3 Nd01 2.450(8) 7_465
loop_
_twin_individual_id
_twin_individual_mass_fraction_refined
1 0.93(6)
2 0.07(6)
