#------------------------------------------------------------------------------
#$Date: 2021-03-30 11:48:32 +0300 (Tue, 30 Mar 2021) $
#$Revision: 263437 $
#$URL: file:///home/coder/svn-repositories/cod/cif/1/56/13/1561357.cif $
#------------------------------------------------------------------------------
#
# This file is available in the Crystallography Open Database (COD),
# http://www.crystallography.net/
#
# All data on this site have been placed in the public domain by the
# contributors.
#
data_1561357
loop_
_publ_author_name
'Markovski, Mishel R.'
'Siidra, Oleg I.'
'Kayukov, Roman A.'
'Nazarchuk, Evgeni W.'
_publ_section_title
;
 Porous layered and open-framework mixed-valence copper tellurites
;
_journal_name_full               'Journal of Solid State Chemistry'
_journal_page_first              215
_journal_page_last               220
_journal_paper_doi               10.1016/j.jssc.2016.08.028
_journal_volume                  243
_journal_year                    2016
_chemical_formula_sum            'Cl1.5 Cu1.5 O1.5 Te0.5'
_chemical_formula_weight         236.29
_space_group_crystal_system      triclinic
_space_group_IT_number           2
_space_group_name_Hall           '-P 1'
_space_group_name_H-M_alt        'P -1'
_atom_sites_solution_hydrogens   .
_audit_creation_method           SHELXL-2014/7
_cell_angle_alpha                80.674(6)
_cell_angle_beta                 75.611(6)
_cell_angle_gamma                80.849(6)
_cell_formula_units_Z            4
_cell_length_a                   6.2477(17)
_cell_length_b                   6.2509(17)
_cell_length_c                   9.408(3)
_cell_measurement_reflns_used    892
_cell_measurement_temperature    296(2)
_cell_measurement_theta_max      36.927
_cell_measurement_theta_min      2.253
_cell_volume                     348.47(17)
_computing_structure_refinement  'SHELXL-2014/7 (Sheldrick, 2014)'
_diffrn_ambient_temperature      296(2)
_diffrn_measured_fraction_theta_full 0.920
_diffrn_measured_fraction_theta_max 0.650
_diffrn_measurement_device_type  'Bruker APEX 2 Duo'
_diffrn_radiation_type           MoK\a
_diffrn_radiation_wavelength     0.71073
_diffrn_reflns_av_R_equivalents  0.0209
_diffrn_reflns_av_unetI/netI     0.0410
_diffrn_reflns_Laue_measured_fraction_full 0.920
_diffrn_reflns_Laue_measured_fraction_max 0.650
_diffrn_reflns_limit_h_max       9
_diffrn_reflns_limit_h_min       -10
_diffrn_reflns_limit_k_max       3
_diffrn_reflns_limit_k_min       -9
_diffrn_reflns_limit_l_max       10
_diffrn_reflns_limit_l_min       -14
_diffrn_reflns_number            3291
_diffrn_reflns_point_group_measured_fraction_full 0.920
_diffrn_reflns_point_group_measured_fraction_max 0.650
_diffrn_reflns_theta_full        25.242
_diffrn_reflns_theta_max         36.927
_diffrn_reflns_theta_min         2.253
_exptl_absorpt_coefficient_mu    14.251
_exptl_crystal_density_diffrn    4.504
_exptl_crystal_description       prism
_exptl_crystal_F_000             428
_refine_diff_density_max         2.658
_refine_diff_density_min         -4.404
_refine_diff_density_rms         0.380
_refine_ls_extinction_coef       0.0067(17)
_refine_ls_extinction_expression Fc^*^=kFc[1+0.001xFc^2^\l^3^/sin(2\q)]^-1/4^
_refine_ls_extinction_method     'SHELXL-2014/7 (Sheldrick 2014'
_refine_ls_goodness_of_fit_ref   1.040
_refine_ls_hydrogen_treatment    undef
_refine_ls_matrix_type           full
_refine_ls_number_parameters     93
_refine_ls_number_reflns         2301
_refine_ls_number_restraints     0
_refine_ls_restrained_S_all      1.040
_refine_ls_R_factor_all          0.0505
_refine_ls_R_factor_gt           0.0430
_refine_ls_shift/su_max          0.000
_refine_ls_shift/su_mean         0.000
_refine_ls_structure_factor_coef Fsqd
_refine_ls_weighting_details
'w=1/[\s^2^(Fo^2^)+(0.0807P)^2^] where P=(Fo^2^+2Fc^2^)/3'
_refine_ls_weighting_scheme      calc
_refine_ls_wR_factor_gt          0.1115
_refine_ls_wR_factor_ref         0.1159
_reflns_Friedel_coverage         0.000
_reflns_Friedel_fraction_full    .
_reflns_Friedel_fraction_max     .
_reflns_number_gt                1982
_reflns_number_total             2301
_reflns_threshold_expression     'I > 2\s(I)'
_cod_data_source_file            JSSC-2016-243-215.cif
_cod_data_source_block           Cu+Cl3(Cu2+2(TeO3))
_cod_original_cell_volume        348.48(17)
_cod_original_formula_sum        'Cl1.50 Cu1.50 O1.50 Te0.50'
_cod_database_code               1561357
_shelx_shelxl_version_number     2014/7
_shelx_space_group_comment
;
The symmetry employed for this shelxl refinement is uniquely defined
by the following loop, which should always be used as a source of
symmetry information in preference to the above space-group names.
They are only intended as comments.
;
_shelx_res_file
;

    shelx.res created by SHELXL-2014/7

TITL p-1 in P-1
CELL 0.71073   6.2477   6.2509   9.4085  80.674  75.611  80.849
ZERR    4.00   0.0017   0.0017   0.0026   0.006   0.006   0.006
LATT  1
SFAC O CL CU TE
UNIT 6 6 6 2
TEMP 23.000
acta
L.S. 20
BOND
FMAP 2
PLAN 20
WGHT    0.080700
EXTI    0.006669
FVAR       0.18299   0.96589
MOLE   1
TE1   4    0.232874    0.378899    0.793072    11.00000    0.00717    0.01188 =
         0.01286   -0.00278   -0.00190   -0.00327
CU1   3    0.027673    0.888621    0.863175    11.00000    0.01427    0.01160 =
         0.01512   -0.00305   -0.00256   -0.00461
CU2   3   -0.318091    0.550523    0.859801    11.00000    0.00721    0.01854 =
         0.01591   -0.00403   -0.00275   -0.00431
CU3   3   -0.188115    1.147225    0.592317    11.00000    0.06921    0.04360 =
         0.03157   -0.01216   -0.00437   -0.00782
CL1   2   -0.385749    0.987328    0.815008    11.00000    0.01812    0.02003 =
         0.02371   -0.00207   -0.00414    0.00153
CL2   2    0.204858    0.974769    0.620788    11.00000    0.02517    0.02942 =
         0.01587   -0.00562   -0.00056   -0.01299
CL3   2   -0.271618    0.511891    0.617022    11.00000    0.02474    0.02743 =
         0.01720   -0.00547   -0.00177   -0.00873
O1    1   -0.010822    0.599698    0.833905    11.00000    0.00723    0.01434 =
         0.02202   -0.00381   -0.00468   -0.00137
O2    1    0.070427    0.163942    0.918195    11.00000    0.01592    0.01221 =
         0.01516   -0.00090   -0.00030   -0.00752
O3    1    0.377803    0.472540    0.920402    11.00000    0.00749    0.02073 =
         0.01871   -0.00493   -0.00533   -0.00669

MOLE   2
HKLF 4

REM  p-1 in P-1
REM R1 =  0.0430 for    1982 Fo > 4sig(Fo)  and  0.0505 for all    2301 data
REM     93 parameters refined using      0 restraints

END

WGHT      0.0803      0.0000

REM Highest difference peak  2.658,  deepest hole -4.404,  1-sigma level  0.380
Q1    1   0.1868  0.4520  0.7425  11.00000  0.05    2.66
Q2    1  -0.1478  0.2010  0.9810  11.00000  0.05    2.43
Q3    1   0.2590  0.3105  0.8521  11.00000  0.05    2.34
Q4    1   0.2617  0.4015  0.7030  11.00000  0.05    2.15
Q5    1   0.1596  0.3761  0.8543  11.00000  0.05    2.10
Q6    1   0.2150  0.4551  0.8443  11.00000  0.05    2.01
Q7    1   0.2704  0.3063  0.7377  11.00000  0.05    1.82
Q8    1   0.0719  0.6751  0.9149  11.00000  0.05    1.59
Q9    1   0.1230  0.4742  0.8145  11.00000  0.05    1.38
Q10   1  -0.2712  0.4635  0.9145  11.00000  0.05    1.37
Q11   1  -0.0086  0.9712  0.7944  11.00000  0.05    1.27
Q12   1   0.0724  0.8199  0.9177  11.00000  0.05    1.27
Q13   1  -0.3185  0.4809  0.7023  11.00000  0.05    1.27
Q14   1   0.3147  0.9333  0.5725  11.00000  0.05    1.21
Q15   1   0.1320  0.3888  0.6990  11.00000  0.05    1.18
Q16   1  -0.5817  1.0188  0.9260  11.00000  0.05    1.16
Q17   1   0.2577  0.9010  0.6725  11.00000  0.05    1.09
Q18   1  -0.3092  0.5634  0.5877  11.00000  0.05    1.09
Q19   1  -0.2983  0.8386  0.7782  11.00000  0.05    1.08
Q20   1  -0.2697  0.4655  0.7970  11.00000  0.05    1.01
;
_shelx_res_checksum              79283
_shelx_hkl_file
;
  -1   0   0  128.80    3.71
   1   0   0  136.29    3.71
   1   0   0  122.57    3.58
  -2   0   0  526.40   14.43
   2   0   0  512.76   14.18
  -3   0   0   69.20    2.61
   3   0   0   73.13    2.16
  -4   0   0  223.25    7.11
   4   0   0  239.94    6.59
   5   0   0  105.85    3.29
   6   0   0    4.48    0.60
   7   0   0   20.79    1.28
  -8   0   0    4.40    1.99
   8  -1   0   29.32    1.66
   7  -1   0   13.20    1.10
   6  -1   0   14.44    1.02
   5  -1   0  136.83    4.11
   4  -1   0   40.28    1.42
   4  -1   0   38.22    1.77
   3  -1   0  167.42    5.06
   3  -1   0  172.94    4.83
   2  -1   0  163.71    4.59
   2  -1   0  164.91    4.76
   1  -1   0  259.56    7.30
   1  -1   0  269.24    7.22
   0  -1   0   37.29    1.13
  -1  -1   0   11.31    0.42
  -1  -1   0   11.65    1.00
  -1  -1   0   11.85    0.73
   1   1   0   11.21    0.41
  -2  -1   0  681.17   18.49
  -2  -1   0  671.32   17.85
   2   1   0  655.90   18.22
  -3  -1   0    2.55    0.87
  -3  -1   0    3.26    0.62
   3   1   0    3.08    0.32
  -4  -1   0   68.22    2.81
  -4  -1   0   71.76    3.24
   4   1   0   71.38    2.22
  -5  -1   0   21.26    2.17
   5   1   0   22.48    1.04
  -6  -1   0   11.61    1.98
   6   1   0   11.10    0.88
  -7  -1   0   37.43    3.31
  -8  -1   0   12.44    2.45
  -9  -1   0   24.96    3.29
   8  -2   0    5.35    0.88
   7  -2   0   -0.31    0.50
   6  -2   0   34.55    1.55
   5  -2   0   61.42    2.11
   4  -2   0    3.23    0.41
   4  -2   0    2.34    0.58
   3  -2   0  452.86   12.52
   3  -2   0  457.09   12.70
   2  -2   0  182.20    5.03
   2  -2   0  178.18    5.14
   0  -2   0  464.98   13.20
  -1  -2   0  494.39   13.96
  -1  -2   0  534.17   14.16
  -2  -2   0    9.45    1.03
  -2  -2   0    7.05    0.44
  -2  -2   0    8.40    0.73
   2   2   0    7.44    0.41
  -3  -2   0   21.39    1.75
  -3  -2   0   22.14    1.37
   3   2   0   22.31    0.84
  -4  -2   0    2.26    0.69
  -4  -2   0    0.73    0.90
   4   2   0    1.99    0.35
  -5  -2   0  101.74    4.14
  -5  -2   0  109.73    4.59
   5   2   0  115.50    3.37
  -6  -2   0  104.16    4.81
  -7  -2   0    0.01    1.45
  -8  -2   0    8.49    2.31
  -9  -2   0   19.62    2.98
   8  -3   0   -0.30    0.64
   7  -3   0   67.13    2.55
   6  -3   0   39.57    1.70
   5  -3   0   59.26    2.07
   4  -3   0    5.72    0.54
   3  -3   0  213.66    6.15
   3  -3   0  213.52    6.01
   2  -3   0   97.20    2.97
   2  -3   0  104.43    2.91
   1  -3   0   60.95    1.94
   0  -3   0   23.08    0.84
  -1  -3   0  301.49    8.58
  -1  -3   0  327.30    8.85
  -2  -3   0   12.00    0.55
  -2  -3   0   14.19    1.07
  -3  -3   0   11.92    1.40
  -3  -3   0   13.49    1.15
  -4  -3   0    4.97    0.94
  -4  -3   0    4.40    1.14
  -5  -3   0   40.34    2.47
  -5  -3   0   45.47    2.83
  -6  -3   0   31.41    2.81
  -7  -3   0    1.44    1.55
  -8  -3   0   84.99    4.82
  -9  -3   0   10.11    2.61
   8  -4   0    4.71    0.93
   7  -4   0   -0.01    0.53
   6  -4   0    7.63    0.84
   5  -4   0   39.49    1.59
   4  -4   0  290.96    8.21
   3  -4   0   16.88    0.94
   3  -4   0   18.54    0.82
   2  -4   0   21.12    0.92
   2  -4   0   19.70    0.79
   2  -4   0   19.02    0.81
   2  -4   0   22.37    1.00
   1  -4   0  343.09    9.93
   0  -4   0  150.55    4.33
   0  -4   0  145.33    4.37
  -1  -4   0   37.32    1.59
  -1  -4   0   38.01    1.15
  -2  -4   0    3.20    0.28
  -2  -4   0    2.84    0.64
  -3  -4   0    3.61    0.79
  -4  -4   0   42.35    2.30
  -5  -4   0   40.33    2.80
  -5  -4   0   37.51    2.51
  -6  -4   0   11.82    2.02
  -6  -4   0   11.12    1.70
  -7  -4   0   50.74    3.69
  -8  -4   0   23.04    3.10
  -9  -4   0   35.43    3.85
   8  -5   0   18.65    1.55
   7  -5   0    0.63    0.78
   7  -5   0   -0.40    0.58
   6  -5   0   40.38    1.78
   5  -5   0    1.96    0.50
   5  -5   0    3.50    0.75
   4  -5   0   33.87    1.60
   4  -5   0   32.78    1.34
   3  -5   0    1.34    0.49
   3  -5   0    0.27    0.31
   3  -5   0    0.20    0.28
   2  -5   0  167.44    4.85
   2  -5   0  167.09    5.14
   1  -5   0    2.71    0.42
   0  -5   0   23.75    0.96
   0  -5   0   21.95    1.24
   0  -5   0   23.92    0.76
  -1  -5   0   27.52    1.47
  -1  -5   0   27.24    0.90
  -2  -5   0   22.33    0.85
  -2  -5   0   22.54    1.54
  -3  -5   0  137.22    4.71
  -4  -5   0   22.22    1.92
  -5  -5   0  110.90    4.49
  -6  -5   0    2.53    1.32
   7  -6   0   12.87    1.45
   6  -6   0   13.30    1.32
   6  -6   0   14.96    1.17
   5  -6   0   45.51    1.76
   5  -6   0   44.17    2.11
   4  -6   0   40.69    1.89
   4  -6   0   39.54    1.52
   3  -6   0   28.00    1.09
   3  -6   0   26.14    1.39
   2  -6   0    5.08    0.66
   1  -6   0    5.68    0.63
   0  -6   0    3.94    0.73
   0  -6   0    5.00    0.56
   0  -6   0    5.04    0.37
  -1  -6   0   50.10    1.52
  -1  -6   0   47.22    2.15
  -2  -6   0   82.47    3.21
  -3  -6   0    0.17    0.84
  -4  -6   0    2.57    1.08
  -5  -6   0   75.81    3.72
  -6  -6   0   89.84    4.37
   6  -7   0    3.36    0.96
   5  -7   0    7.99    0.83
   5  -7   0    9.02    1.15
   4  -7   0    3.65    0.53
   4  -7   0    3.69    0.81
   3  -7   0   64.17    2.54
   2  -7   0    0.75    0.48
   1  -7   0    6.87    0.72
   0  -7   0    1.30    0.24
   0  -7   0    0.42    0.75
   0  -7   0    1.08    0.40
  -1  -7   0    6.99    1.03
  -2  -7   0   53.04    2.59
  -3  -7   0   28.95    2.22
  -4  -7   0  159.57    5.86
  -5  -7   0   12.36    1.89
  -6  -7   0   48.66    3.51
   5  -8   0   37.68    2.13
   4  -8   0   24.65    1.60
   3  -8   0    0.75    0.62
   2  -8   0    4.92    0.75
   1  -8   0    2.25    0.56
  -1  -8   0   15.80    1.58
  -2  -8   0   13.02    1.52
  -3  -8   0   13.35    1.72
  -4  -8   0   31.58    2.73
  -5  -8   0   11.73    2.08
  -6  -8   0   46.46    3.66
  -1  -9   0    5.74    1.23
  -3  -9   0   39.60    2.89
  -4  -9   0    7.56    1.76
  -5  -9   0    5.78    1.82
  -4  -9   1    3.67    1.69
  -3  -9   1    0.51    1.36
  -2  -9   1    1.38    1.39
  -1  -9   1    2.74    1.25
   0  -9   1   -1.24    0.95
  -6  -8   1   42.42    3.86
  -5  -8   1    5.23    1.70
  -4  -8   1   -0.39    1.31
  -3  -8   1   10.78    1.79
  -2  -8   1    0.34    1.10
  -1  -8   1   41.07    2.43
   0  -8   1    1.10    0.99
   3  -8   1   23.33    1.44
   4  -8   1    1.06    0.75
   5  -8   1   49.79    2.47
  -6  -7   1    6.78    2.01
  -5  -7   1    0.81    1.40
  -4  -7   1    1.25    1.22
  -3  -7   1   20.04    2.01
  -2  -7   1   82.74    3.56
  -1  -7   1    1.21    0.90
   0  -7   1   25.48    1.84
   0  -7   1   31.34    1.25
   1  -7   1   55.72    1.96
   1  -7   1   50.22    2.27
   2  -7   1   44.42    1.81
   2  -7   1   44.25    1.80
   3  -7   1   23.48    1.39
   3  -7   1   23.22    1.06
   4  -7   1   15.01    1.27
   4  -7   1   16.09    0.97
   5  -7   1    4.47    1.03
   5  -7   1    5.61    0.70
   6  -7   1   10.13    1.28
  -6  -6   1   -1.42    1.38
  -5  -6   1   18.39    2.16
  -4  -6   1  117.06    4.71
  -3  -6   1    6.73    1.27
  -2  -6   1   33.89    2.15
  -1  -6   1    6.35    1.02
   0  -6   1  180.48    5.90
   0  -6   1  195.09    5.59
   1  -6   1   28.14    1.66
   1  -6   1   28.14    1.19
   2  -6   1   93.38    2.67
   2  -6   1   94.14    3.06
   2  -6   1   88.93    3.08
   3  -6   1    9.31    0.91
   3  -6   1    8.19    0.71
   4  -6   1   85.54    3.21
   4  -6   1   90.86    2.82
   5  -6   1    2.29    0.57
   5  -6   1    2.87    0.78
   6  -6   1    4.38    0.96
   6  -6   1    4.01    0.67
   7  -6   1    1.31    0.91
  -6  -5   1   22.00    2.41
  -5  -5   1    9.95    1.68
  -4  -5   1   24.99    2.15
  -3  -5   1   49.92    2.56
  -2  -5   1  194.94    6.22
  -1  -5   1  122.08    3.57
  -1  -5   1  130.33    4.22
   0  -5   1  145.65    4.51
   0  -5   1  137.28    4.20
   1  -5   1    5.37    0.87
   1  -5   1    6.13    0.36
   1  -5   1    6.37    0.61
   2  -5   1  234.40    6.63
   2  -5   1  216.18    6.77
   2  -5   1  228.67    6.27
   3  -5   1   96.35    2.93
   3  -5   1   95.86    3.24
   4  -5   1    5.46    0.75
   4  -5   1    5.30    0.55
   5  -5   1    3.15    0.56
   6  -5   1   14.29    1.14
   7  -5   1   13.50    1.25
  -5  -4   1  136.90    5.17
  -4  -4   1    1.24    0.86
  -3  -4   1  149.39    5.06
  -2  -4   1    2.42    0.26
  -2  -4   1    2.73    0.73
  -1  -4   1  191.35    5.47
  -1  -4   1  203.62    6.00
   0  -4   1   13.12    0.51
   0  -4   1   13.24    0.61
   0  -4   1   13.14    1.11
   1  -4   1  322.11    8.66
   1  -4   1  316.15    9.17
   1  -4   1  311.97    9.13
   2  -4   1    7.53    0.82
   2  -4   1    7.16    0.45
   2  -4   1    8.67    0.67
   3  -4   1    0.44    0.29
   3  -4   1    0.66    0.29
   4  -4   1   94.82    2.95
   5  -4   1   15.16    0.98
   6  -4   1   28.00    1.47
   7  -4   1   -0.17    0.52
   8  -4   1    5.82    0.97
  -8  -3   1   29.09    3.22
  -7  -3   1   53.67    3.61
  -6  -3   1   37.99    2.89
  -5  -3   1   12.56    1.73
  -5  -3   1   14.74    1.73
  -4  -3   1   11.31    1.52
  -4  -3   1   13.21    1.41
   3   3  -1  753.15   19.80
  -3  -3   1  694.09   20.40
  -2  -3   1   12.85    0.57
  -2  -3   1   14.68    1.28
  -1  -3   1  457.88   12.82
  -1  -3   1  482.98   13.23
   0  -3   1    8.70    0.89
   0  -3   1    8.29    0.37
   0  -3   1   10.02    0.46
   1  -3   1  472.99   13.70
   1  -3   1  463.50   13.41
   1  -3   1  502.55   13.06
   2  -3   1   31.38    1.05
   2  -3   1   30.89    1.26
   3  -3   1  155.80    4.43
   3  -3   1  148.04    4.36
   4  -3   1   41.78    1.52
   5  -3   1    0.02    0.36
   6  -3   1   11.44    0.99
   7  -3   1    6.67    0.87
   8  -3   1   52.56    2.33
   9  -3   1    8.83    1.17
  -8  -2   1   40.02    3.52
  -7  -2   1   11.44    2.18
  -6  -2   1   35.06    2.87
  -5  -2   1   95.24    4.05
  -5  -2   1   91.00    3.86
   4   2  -1  449.98   12.19
  -4  -2   1  429.70   12.90
  -4  -2   1  439.19   12.60
   3   2  -1   20.04    0.80
  -3  -2   1   19.41    1.56
  -3  -2   1   20.59    1.51
   2   2  -1  310.77    8.33
  -2  -2   1  293.30    8.78
  -1  -2   1   42.96    1.23
  -1  -2   1   38.14    1.68
   0  -2   1  234.69    6.68
   0  -2   1  236.86    6.71
   0  -2   1  234.04    6.42
   1  -2   1   15.67    0.59
   1  -2   1   20.72    1.08
   2  -2   1   92.31    2.69
   2  -2   1   92.59    2.77
   2  -2   1   90.10    2.69
   3  -2   1    5.00    0.50
   4  -2   1    6.72    0.62
   4  -2   1    6.77    0.68
   5  -2   1   39.95    1.55
   6  -2   1   15.54    1.02
   7  -2   1   33.54    1.64
   8  -2   1   14.29    1.30
  -8  -1   1    6.45    2.13
  -7  -1   1    2.41    1.62
   6   1  -1   77.38    2.64
  -6  -1   1   80.00    4.06
   5   1  -1    0.39    0.33
  -5  -1   1    0.94    1.08
   4   1  -1  155.58    4.45
  -4  -1   1  150.91    5.27
  -4  -1   1  152.89    5.19
   3   1  -1  249.65    7.04
  -3  -1   1  247.41    7.44
  -3  -1   1  260.26    7.62
   2   1  -1  637.58   17.61
  -2  -1   1  629.31   17.16
  -2  -1   1  671.92   18.04
   1   1  -1    6.81    0.34
  -1  -1   1    9.73    0.73
   0   1  -1  235.24    6.18
   0  -1   1  221.88    6.39
   0  -1   1  223.91    6.42
   0  -1   1  226.36    6.18
   1  -1   1  127.32    3.55
   1  -1   1  127.83    3.67
   2  -1   1  714.94   19.30
   2  -1   1  702.11   19.36
   3  -1   1  187.03    5.29
   3  -1   1  176.91    5.14
   4  -1   1   31.74    1.22
   5  -1   1   46.20    1.70
   6  -1   1    0.22    0.38
   7  -1   1  239.94    7.15
   8  -1   1    0.12    0.60
  -8   0   1   14.64    2.55
   7   0  -1   14.10    1.11
  -7   0   1   11.00    2.09
   6   0  -1   70.70    2.45
   5   0  -1  192.73    5.62
   4   0  -1   52.16    1.75
  -4   0   1   52.79    2.56
   3   0  -1  530.86   14.45
  -3   0   1  521.85   14.94
   2   0  -1   12.54    0.55
  -2   0   1   12.74    1.16
   1   0  -1    7.38    0.77
   1   0  -1    8.19    0.35
  -1   0   1    8.09    0.78
   0   0  -1   77.53    2.29
   0   0  -1   77.03    2.17
   0   0  -1   76.89    2.10
   0   0   1   72.86    2.27
  -1   0  -1   21.60    0.73
   1   0   1   19.07    0.68
  -2   0  -1  793.68   20.61
   2   0   1  709.62   20.45
  -3   0  -1   65.84    2.41
   3   0   1   72.64    2.12
  -4   0  -1   32.38    1.74
   4   0   1   35.30    1.28
   5   0   1  200.46    5.81
   6   0   1  130.87    4.06
   7   0   1   30.64    1.52
  -9   0  -1   36.58    3.82
   7  -1  -1  140.43    4.45
   6  -1  -1    7.56    0.76
   5  -1  -1   18.52    0.97
   4  -1  -1   88.96    2.74
   3  -1  -1  175.68    5.20
   3  -1  -1  193.83    5.57
   2  -1  -1    1.06    0.18
   2  -1  -1    1.19    0.47
   1  -1  -1  244.37    6.42
   1  -1  -1  225.29    6.57
   0  -1  -1    3.17    0.25
  -1  -1  -1  171.93    4.74
  -1  -1  -1  167.51    4.70
  -1  -1  -1  174.58    4.88
   1   1   1  170.53    4.69
  -2  -1  -1   33.17    1.31
  -2  -1  -1   37.98    1.88
   2   1   1   33.01    1.08
  -3  -1  -1    4.72    0.59
   3   1   1    3.78    0.37
  -4  -1  -1  483.32   13.93
   4   1   1  494.14   13.51
  -5  -1  -1    0.15    0.73
   5   1   1    0.20    0.33
   6   1   1  250.22    7.26
  -7  -1  -1   76.54    4.51
  -8  -1  -1  107.09    5.68
  -9  -1  -1    5.47    2.44
   8  -2  -1   18.10    1.42
   7  -2  -1   11.42    1.08
   6  -2  -1   25.91    1.30
   5  -2  -1  164.02    4.87
   4  -2  -1  200.00    5.72
   3  -2  -1   50.68    1.98
   3  -2  -1   50.78    1.61
   2  -2  -1    5.13    0.36
   2  -2  -1    6.02    0.59
   1  -2  -1    9.90    0.51
   0  -2  -1   65.63    1.99
  -1  -2  -1  208.05    5.90
  -1  -2  -1  221.71    5.97
  -2  -2  -1  170.02    4.82
  -2  -2  -1  179.96    5.02
  -2  -2  -1  167.13    5.30
   2   2   1  172.77    4.80
  -3  -2  -1   47.74    1.93
  -3  -2  -1   50.19    2.51
   3   2   1   51.13    1.57
  -4  -2  -1  339.13   10.22
  -4  -2  -1  326.01    9.81
   4   2   1  342.24    9.36
  -5  -2  -1   13.92    1.35
  -5  -2  -1   10.49    1.77
   5   2   1   13.50    0.81
  -6  -2  -1  264.27    9.17
  -7  -2  -1   45.35    3.67
  -8  -2  -1   46.55    4.00
  -9  -2  -1    0.61    2.11
   8  -3  -1   43.30    2.04
   7  -3  -1   10.76    1.06
   6  -3  -1   83.69    2.85
   5  -3  -1    1.88    0.45
   4  -3  -1   31.97    1.23
   3  -3  -1   25.87    1.34
   3  -3  -1   27.36    0.99
   2  -3  -1  432.70   11.83
   1  -3  -1  102.18    3.11
  -1  -3  -1    6.52    0.32
  -1  -3  -1    6.92    0.53
  -2  -3  -1  162.42    4.83
  -2  -3  -1  165.20    4.59
  -3  -3  -1  960.79   26.24
  -3  -3  -1  953.65   25.89
  -3  -3  -1  933.56   25.59
  -4  -3  -1   15.23    1.77
  -4  -3  -1   12.87    1.28
  -5  -3  -1  130.53    5.27
  -5  -3  -1  131.34    4.63
  -6  -3  -1  144.28    5.33
  -6  -3  -1  147.10    6.01
  -7  -3  -1   32.79    3.19
  -8  -3  -1   27.46    3.27
  -9  -3  -1    7.88    2.44
   8  -4  -1   15.43    1.36
   7  -4  -1   13.41    1.18
   6  -4  -1   66.35    2.43
   5  -4  -1    5.84    0.66
   4  -4  -1   79.56    2.51
   3  -4  -1   14.65    1.02
   3  -4  -1   18.87    1.00
   3  -4  -1   14.86    0.74
   2  -4  -1    9.76    0.71
   1  -4  -1    1.95    0.34
   0  -4  -1   40.90    1.40
  -1  -4  -1  311.44    8.74
  -1  -4  -1  325.32    8.93
  -1  -4  -1  323.39    9.23
  -2  -4  -1    5.90    0.44
  -2  -4  -1    6.82    0.68
  -3  -4  -1   97.44    2.90
  -3  -4  -1   99.23    3.37
  -4  -4  -1   68.27    3.34
  -4  -4  -1   65.64    2.77
  -5  -4  -1  327.02   10.29
  -5  -4  -1  353.06   10.83
  -6  -4  -1    0.08    1.25
  -6  -4  -1   -0.07    1.00
  -7  -4  -1   94.86    5.01
  -8  -4  -1    2.84    2.01
  -9  -4  -1   30.59    3.82
   7  -5  -1   36.16    2.01
   7  -5  -1   39.80    1.86
   6  -5  -1    0.79    0.52
   6  -5  -1    0.49    0.69
   5  -5  -1   39.11    1.59
   5  -5  -1   39.25    1.87
   4  -5  -1   12.59    0.82
   4  -5  -1   14.73    1.09
   3  -5  -1  108.31    3.25
   3  -5  -1  114.17    3.69
   2  -5  -1    2.35    0.46
   1  -5  -1   73.75    2.46
   0  -5  -1  124.44    3.80
  -1  -5  -1   46.81    1.74
  -1  -5  -1   43.73    1.35
  -2  -5  -1  234.75    6.47
  -2  -5  -1  228.36    6.86
  -3  -5  -1  225.97    6.91
  -4  -5  -1  163.07    5.48
  -5  -5  -1   23.99    2.08
  -6  -5  -1    1.35    1.11
   7  -6  -1   18.64    1.57
   6  -6  -1    0.61    0.78
   6  -6  -1    0.67    0.51
   5  -6  -1   23.76    1.54
   5  -6  -1   24.73    1.24
   4  -6  -1    8.15    0.95
   4  -6  -1    6.62    0.65
   3  -6  -1    1.92    0.58
   3  -6  -1    0.94    0.35
   2  -6  -1    3.98    0.63
   1  -6  -1   11.58    0.80
   0  -6  -1   35.25    1.38
  -1  -6  -1   11.86    0.55
  -1  -6  -1   10.98    1.07
  -2  -6  -1   41.35    1.99
  -3  -6  -1   23.10    1.76
  -4  -6  -1   59.80    2.93
  -5  -6  -1   61.53    3.20
  -6  -6  -1   83.29    4.08
   6  -7  -1   25.63    1.76
   5  -7  -1    1.71    0.84
   5  -7  -1    1.49    0.57
   4  -7  -1    3.87    0.81
   3  -7  -1   21.32    1.35
   2  -7  -1   64.55    2.42
   1  -7  -1   75.66    2.63
   0  -7  -1   24.68    1.16
  -1  -7  -1   13.74    1.24
  -2  -7  -1  184.39    5.89
  -3  -7  -1   45.24    2.44
  -4  -7  -1   19.23    1.90
  -5  -7  -1    7.53    1.59
  -6  -7  -1   -0.28    1.28
  -7  -7  -1   12.98    2.35
   5  -8  -1    1.26    0.87
   4  -8  -1    6.93    1.02
   3  -8  -1   22.26    1.42
   2  -8  -1    0.49    0.53
   1  -8  -1    1.59    0.56
   0  -8  -1   14.99    1.01
  -2  -8  -1    0.06    0.93
  -3  -8  -1   11.49    1.55
  -4  -8  -1   23.08    2.35
  -5  -8  -1   19.27    2.29
  -6  -8  -1   -0.17    1.49
  -7  -8  -1    1.46    1.93
   4  -9  -1   -0.34    0.77
   3  -9  -1    5.56    0.96
   2  -9  -1    3.39    0.77
   1  -9  -1   53.80    2.22
  -2  -9  -1    0.59    1.02
  -3  -9  -1   30.83    2.47
  -4  -9  -1   22.32    2.27
  -5  -9  -1   -1.02    1.49
  -3  -9   2   32.30    3.15
  -2  -9   2    5.56    1.62
  -1  -9   2   30.49    2.55
   0  -9   2   -0.48    1.09
   1  -9   2   33.16    1.88
  -6  -8   2    2.60    2.12
  -5  -8   2   23.67    2.85
  -4  -8   2   68.81    4.08
  -3  -8   2    6.16    1.73
  -2  -8   2    4.19    1.42
  -1  -8   2   27.62    2.37
   0  -8   2   37.92    2.42
   1  -8   2    0.62    0.88
   2  -8   2   10.88    1.09
   3  -8   2    7.56    0.78
   4  -8   2    4.73    0.65
  -5  -7   2   16.74    2.40
  -4  -7   2   19.29    2.31
  -3  -7   2    5.64    1.53
  -2  -7   2  168.22    6.02
  -1  -7   2    6.98    1.33
   0  -7   2    3.17    1.08
   1  -7   2    8.62    1.21
   2  -7   2   20.53    1.42
   2  -7   2   22.80    1.19
   3  -7   2   23.38    1.40
   3  -7   2   23.81    1.17
   4  -7   2    0.30    0.47
   4  -7   2   -0.25    0.64
   5  -7   2    2.70    0.89
   5  -7   2    3.57    0.64
   6  -7   2    2.26    1.01
  -5  -6   2   14.01    2.14
  -4  -6   2   61.21    3.45
  -3  -6   2   26.02    2.28
  -2  -6   2   20.45    2.02
  -1  -6   2    7.71    1.21
   0  -6   2   70.18    3.03
   0  -6   2   71.33    2.26
   1  -6   2   32.38    2.03
   1  -6   2   37.25    1.37
   2  -6   2    2.71    0.76
   2  -6   2    3.20    0.54
   3  -6   2   -0.12    0.46
   3  -6   2    0.26    0.40
   4  -6   2    0.95    0.60
   4  -6   2    0.64    0.44
   5  -6   2   33.92    1.80
   5  -6   2   33.30    1.55
   6  -6   2   35.94    1.98
   6  -6   2   35.59    1.68
   7  -6   2   18.00    1.58
  -5  -5   2   96.29    4.46
  -4  -5   2    2.63    1.16
  -3  -5   2  202.49    6.84
  -2  -5   2    0.47    0.85
  -1  -5   2   34.03    2.06
   0  -5   2   33.23    1.93
   0  -5   2   30.58    1.09
   0  -5   2   29.65    1.04
   1  -5   2    0.34    0.75
   1  -5   2    0.46    0.28
   1  -5   2    1.57    0.26
   2  -5   2   28.48    1.26
   2  -5   2   30.58    1.02
   2  -5   2   30.58    1.63
   3  -5   2   16.10    0.96
   3  -5   2   15.60    1.11
   3  -5   2   16.19    1.03
   4  -5   2   65.24    2.23
   5  -5   2    8.24    0.90
   6  -5   2    8.94    0.89
   7  -5   2    8.57    0.99
  -5  -4   2   81.25    3.89
  -4  -4   2   54.07    2.96
  -3  -4   2    3.18    0.98
  -2  -4   2   12.18    1.29
  -1  -4   2  184.40    5.25
  -1  -4   2  190.84    5.93
   0  -4   2    9.78    0.48
   0  -4   2   10.40    0.50
   0  -4   2   10.70    1.05
   1  -4   2   21.39    0.86
   1  -4   2   18.04    1.55
   1  -4   2   19.78    0.70
   2  -4   2   16.54    0.87
   2  -4   2   18.48    1.26
   2  -4   2   17.76    0.68
   3  -4   2    5.36    0.52
   3  -4   2    7.55    0.77
   3  -4   2    6.28    0.64
   4  -4   2  107.99    3.33
   5  -4   2    3.71    0.57
   6  -4   2  168.65    5.15
   7  -4   2    8.93    0.97
   8  -4   2   33.19    1.83
  -7  -3   2   20.72    2.49
  -6  -3   2  317.84   10.15
  -5  -3   2    0.70    1.05
  -5  -3   2    1.06    1.08
  -4  -3   2   86.56    3.66
  -3  -3   2   83.19    3.42
  -2  -3   2  410.80   11.97
  -1  -3   2  368.80   10.09
  -1  -3   2  366.07   10.62
   0  -3   2   19.95    0.71
   0  -3   2   21.98    1.37
   0  -3   2   20.04    0.70
   1  -3   2   90.78    3.21
   1  -3   2   89.45    2.73
   1  -3   2   91.02    2.56
   2  -3   2   86.51    2.51
   2  -3   2   85.95    2.88
   3  -3   2  212.69    5.88
   3  -3   2  202.19    5.92
   4  -3   2    0.66    0.33
   5  -3   2   95.60    3.06
   6  -3   2   21.21    1.18
   7  -3   2   73.29    2.70
   8  -3   2   32.18    1.80
   9  -3   2    9.37    1.23
  -7  -2   2   28.12    2.88
  -6  -2   2   34.17    2.72
  -5  -2   2   18.36    1.91
   4   2  -2  108.26    3.19
  -4  -2   2  100.24    4.06
  -4  -2   2  107.38    3.97
   3   2  -2   12.11    0.63
  -3  -2   2   10.87    1.21
  -3  -2   2   12.51    1.27
   2   2  -2   29.70    1.02
  -2  -2   2   31.44    1.76
   1   2  -2   36.25    1.17
  -1  -2   2   38.17    1.18
  -1  -2   2   38.56    1.77
   0  -2   2   74.58    2.18
   0  -2   2   74.69    2.64
   0  -2   2   75.75    2.14
   1  -2   2  119.59    3.85
   1  -2   2  121.03    3.36
   2  -2   2    3.93    0.51
   2  -2   2    3.14    0.28
   3  -2   2  190.26    5.34
   3  -2   2  183.67    5.33
   4  -2   2   54.80    1.84
   5  -2   2  340.52    9.63
   6  -2   2   -0.10    0.39
   7  -2   2   48.18    1.99
   8  -2   2    2.45    0.74
  -7  -1   2  124.02    5.44
  -6  -1   2   75.72    3.85
   5   1  -2   96.33    2.95
  -5  -1   2   87.34    3.93
   4   1  -2   49.05    1.68
  -4  -1   2   49.44    2.63
  -4  -1   2   50.26    2.55
   3   1  -2  242.79    6.65
  -3  -1   2  237.16    7.35
  -3  -1   2  230.51    6.93
   2   1  -2   24.81    0.87
  -2  -1   2   23.41    1.55
  -2  -1   2   25.47    1.36
   1   1  -2  691.26   18.56
  -1  -1   2  672.95   18.95
   0   1  -2  259.98    7.02
   0  -1   2  261.27    7.02
   0  -1   2  246.19    7.40
  -1   1  -2   37.27    1.14
   1  -1   2   36.74    1.54
   1  -1   2   36.93    1.11
  -2   1  -2   26.26    1.05
   2  -1   2   27.87    1.11
   2  -1   2   29.01    0.97
   2  -1   2   26.11    1.00
   3  -1   2  286.86    7.84
   3  -1   2  271.03    7.78
   4  -1   2  526.37   14.55
   5  -1   2   30.63    1.28
   6  -1   2    5.26    0.63
   7  -1   2  164.37    5.07
   8  -1   2   17.94    1.40
  -7   0   2   33.51    3.16
   6   0  -2   -0.11    0.42
  -6   0   2    0.05    1.27
   5   0  -2  246.31    7.07
   4   0  -2   26.54    1.09
   3   0  -2    2.86    0.32
  -3   0   2    1.80    0.77
   2   0  -2   22.70    0.81
  -2   0   2   23.46    1.42
   1   0  -2   53.41    1.53
  -1   0   2   50.14    1.96
   0   0  -2  187.96    4.97
   0   0  -2  176.16    5.15
   0   0   2  177.74    5.30
  -1   0  -2  104.19    2.85
   1   0   2   98.60    2.98
  -2   0  -2  586.51   16.02
   2   0   2  582.11   15.96
  -3   0  -2   30.89    1.34
   3   0   2   31.79    1.12
  -4   0  -2  183.89    5.52
   4   0   2  174.72    5.15
   5   0   2   56.84    1.98
   6   0   2  123.98    3.85
   7   0   2    0.29    0.48
  -9   0  -2    2.53    2.15
 -10   0  -2    2.50    2.56
   7  -1  -2  119.09    3.88
   6  -1  -2   57.46    2.10
   5  -1  -2    0.19    0.34
   4  -1  -2    6.90    0.61
   3  -1  -2   56.36    2.25
   3  -1  -2   54.66    1.75
   2  -1  -2  386.95   10.82
   2  -1  -2  376.98   10.47
   1  -1  -2   51.86    1.48
   1  -1  -2   50.12    1.91
   0  -1  -2    6.49    0.34
   0  -1  -2    4.50    0.42
   0  -1  -2    5.91    0.27
  -1  -1  -2   37.57    1.62
  -1  -1  -2   34.46    1.10
  -1  -1  -2   34.66    1.05
   1   1   2   33.86    1.06
  -2  -1  -2  160.66    4.64
   2   1   2  165.06    4.56
  -3  -1  -2  149.51    4.43
   3   1   2  145.78    4.21
  -4  -1  -2  281.63    8.38
   4   1   2  290.21    8.04
  -5  -1  -2    0.45    0.63
   5   1   2    0.27    0.29
   6   1   2  106.53    3.39
  -8  -1  -2    6.74    2.23
  -9  -1  -2   23.28    3.41
 -10  -1  -2    6.49    2.82
   8  -2  -2   70.15    2.72
   7  -2  -2    0.85    0.57
   6  -2  -2   55.43    2.05
   5  -2  -2   22.91    1.12
   4  -2  -2   49.29    1.69
   3  -2  -2   26.95    1.00
   3  -2  -2   25.12    1.48
   2  -2  -2    6.90    0.68
   2  -2  -2    6.48    0.41
   1  -2  -2   84.26    2.36
   1  -2  -2   87.37    2.68
   1  -2  -2   81.68    2.56
   0  -2  -2  362.67    9.78
   0  -2  -2  358.61   10.29
  -1  -2  -2  839.00   22.05
  -1  -2  -2  834.38   22.68
  -1  -2  -2  833.83   22.69
  -2  -2  -2    7.43    0.48
  -2  -2  -2    7.90    0.59
  -2  -2  -2   10.01    1.12
  -3  -2  -2  166.19    5.62
  -3  -2  -2  170.40    4.99
   3   2   2  166.29    4.74
  -4  -2  -2   69.66    2.58
  -4  -2  -2   68.10    3.48
   4   2   2   68.01    2.15
  -5  -2  -2  245.09    7.77
  -5  -2  -2  254.75    8.68
   5   2   2  262.94    7.27
  -6  -2  -2    7.12    1.85
  -7  -2  -2    5.34    1.96
  -8  -2  -2    0.71    1.96
  -9  -2  -2    1.01    2.24
 -10  -2  -2   14.53    3.26
   8  -3  -2   25.93    1.58
   7  -3  -2    5.18    0.77
   6  -3  -2    3.54    0.61
   5  -3  -2   28.56    1.26
   4  -3  -2    1.73    0.38
   3  -3  -2   10.40    1.09
   3  -3  -2   10.74    0.61
   2  -3  -2    4.44    0.58
   2  -3  -2    5.60    0.56
   2  -3  -2    4.19    0.36
   1  -3  -2   67.33    2.14
   0  -3  -2  375.29   10.76
  -1  -3  -2    4.56    0.33
  -1  -3  -2    3.74    0.32
  -1  -3  -2    4.75    0.41
  -2  -3  -2   28.76    1.15
  -2  -3  -2   30.93    1.87
  -2  -3  -2   29.07    1.00
  -3  -3  -2  497.94   13.29
  -3  -3  -2  460.12   13.51
  -3  -3  -2  490.00   13.71
  -4  -3  -2    8.37    0.90
  -4  -3  -2    9.69    1.55
  -5  -3  -2    0.98    1.16
  -5  -3  -2   -0.29    0.67
  -6  -3  -2   26.41    2.10
  -6  -3  -2   33.17    3.06
  -7  -3  -2   21.03    2.90
  -8  -3  -2   60.85    4.45
  -9  -3  -2    1.48    2.20
   8  -4  -2    1.62    0.71
   8  -4  -2    1.02    0.85
   7  -4  -2    1.08    0.59
   6  -4  -2   19.82    1.21
   5  -4  -2   13.60    0.91
   4  -4  -2   32.17    1.46
   4  -4  -2   27.69    1.23
   3  -4  -2   18.42    0.81
   3  -4  -2   17.49    1.22
   3  -4  -2   19.23    1.07
   2  -4  -2   61.26    2.12
   1  -4  -2  178.25    5.33
   0  -4  -2  141.59    4.24
  -1  -4  -2  220.37    5.93
  -1  -4  -2  201.13    6.22
  -1  -4  -2  216.96    5.86
  -2  -4  -2  496.05   13.85
  -2  -4  -2  516.33   14.03
  -3  -4  -2    8.83    0.96
  -3  -4  -2   10.90    0.63
  -4  -4  -2  148.88    4.81
  -4  -4  -2  148.38    5.59
  -5  -4  -2   18.89    2.26
  -5  -4  -2   14.39    1.54
  -6  -4  -2   73.58    3.42
  -6  -4  -2   83.69    4.35
  -7  -4  -2   36.52    3.37
  -8  -4  -2    5.98    2.22
  -9  -4  -2   23.88    3.47
   7  -5  -2   10.58    1.30
   7  -5  -2   10.66    1.15
   6  -5  -2   39.00    1.70
   6  -5  -2   37.12    1.95
   5  -5  -2    6.11    0.68
   5  -5  -2    5.81    0.90
   4  -5  -2   10.19    0.98
   4  -5  -2    9.19    0.74
   3  -5  -2    9.51    0.61
   3  -5  -2   12.33    0.94
   2  -5  -2   94.99    3.14
   1  -5  -2  124.18    3.87
   0  -5  -2   72.98    2.38
  -1  -5  -2    2.90    0.26
  -1  -5  -2    2.37    0.38
  -1  -5  -2    2.14    0.37
  -2  -5  -2   72.47    2.13
  -2  -5  -2   67.77    2.43
  -3  -5  -2   10.14    0.97
  -4  -5  -2   14.36    1.31
  -5  -5  -2   10.20    1.31
  -6  -5  -2   -0.26    0.92
  -6  -5  -2    0.51    1.41
  -7  -5  -2   16.20    2.75
  -8  -5  -2   28.14    3.55
  -9  -5  -2   59.59    4.83
   7  -6  -2    0.96    0.95
   6  -6  -2    0.60    0.49
   6  -6  -2    0.33    0.76
   5  -6  -2    5.26    0.93
   5  -6  -2    5.63    0.68
   4  -6  -2   48.99    1.74
   4  -6  -2   51.36    2.17
   3  -6  -2   45.41    1.92
   2  -6  -2   35.78    1.58
   1  -6  -2    6.57    0.70
   0  -6  -2  182.34    5.52
  -1  -6  -2  233.79    6.73
  -2  -6  -2   30.65    1.11
  -2  -6  -2   29.26    1.54
  -3  -6  -2   40.28    2.02
  -4  -6  -2   56.15    2.66
  -5  -6  -2   64.46    3.12
  -6  -6  -2    9.09    1.63
  -7  -6  -2   52.21    3.49
   6  -7  -2    2.86    0.95
   5  -7  -2   27.85    1.30
   5  -7  -2   30.38    1.77
   4  -7  -2    7.75    1.01
   3  -7  -2   40.84    1.88
   2  -7  -2    1.70    0.56
   1  -7  -2  173.26    5.40
   0  -7  -2    7.28    0.73
  -1  -7  -2    4.42    0.45
  -2  -7  -2   24.45    1.60
  -3  -7  -2   53.87    2.56
  -4  -7  -2   51.16    2.74
  -5  -7  -2    0.89    1.10
  -6  -7  -2    9.82    1.83
  -7  -7  -2   18.17    2.43
   5  -8  -2   24.77    1.73
   4  -8  -2    5.98    0.99
   3  -8  -2   25.05    1.49
   2  -8  -2   10.91    1.01
   1  -8  -2   25.77    1.35
   0  -8  -2   10.30    0.91
  -2  -8  -2   18.98    1.56
  -3  -8  -2    2.40    1.03
  -4  -8  -2    0.38    1.15
  -5  -8  -2    1.52    1.28
  -6  -8  -2   52.74    3.56
  -7  -8  -2    5.06    1.95
   3  -9  -2    8.75    1.11
   2  -9  -2   29.91    1.65
   1  -9  -2    9.97    1.05
  -2  -9  -2    8.39    1.20
  -3  -9  -2    0.17    1.11
  -4  -9  -2   24.59    2.48
  -5  -9  -2   23.13    2.47
  -3  -9   3   10.46    2.28
  -2  -9   3   32.47    3.16
  -1  -9   3   -1.07    1.37
   0  -9   3    0.83    1.23
   1  -9   3    0.98    0.96
  -5  -8   3    2.36    1.96
  -4  -8   3   46.53    3.66
  -3  -8   3   20.04    2.46
  -2  -8   3    0.80    1.41
  -1  -8   3    0.65    1.28
   0  -8   3   23.41    2.32
   1  -8   3   37.19    2.31
   2  -8   3    5.16    1.00
   3  -8   3    5.52    0.74
   4  -8   3    0.18    0.53
  -5  -7   3   45.21    3.87
  -4  -7   3   10.91    2.13
  -3  -7   3    6.94    1.73
  -2  -7   3   16.01    1.97
  -1  -7   3   13.23    1.81
   0  -7   3   19.53    2.11
   1  -7   3    3.17    1.11
   2  -7   3    0.14    0.77
   3  -7   3   71.47    2.73
   3  -7   3   69.33    2.52
   4  -7   3   13.78    1.05
   5  -7   3    7.85    0.85
   5  -7   3    9.69    1.20
   6  -7   3    1.85    0.96
  -5  -6   3  113.08    5.31
  -4  -6   3   10.10    1.89
  -3  -6   3   64.31    3.60
  -2  -6   3    7.00    1.43
  -1  -6   3   52.40    2.89
   0  -6   3   45.04    2.61
   1  -6   3    2.05    1.02
   2  -6   3  107.72    3.48
   2  -6   3  108.66    3.95
   3  -6   3    0.55    0.64
   3  -6   3    0.95    0.52
   4  -6   3   70.43    2.40
   4  -6   3   64.45    2.62
   5  -6   3   10.18    1.15
   5  -6   3    9.99    0.99
   6  -6   3   37.47    1.74
   6  -6   3   34.11    1.96
   7  -6   3    0.63    0.89
  -5  -5   3   11.20    1.97
  -4  -5   3    0.40    1.12
  -3  -5   3   10.13    1.67
  -2  -5   3   17.59    1.80
  -1  -5   3   41.36    2.43
   0  -5   3    6.13    0.43
   0  -5   3    5.19    1.09
   1  -5   3    1.64    0.92
   1  -5   3    2.57    0.35
   2  -5   3   57.22    2.01
   2  -5   3   58.04    2.57
   3  -5   3    0.98    0.46
   3  -5   3    0.27    0.58
   4  -5   3   45.22    1.78
   5  -5   3   15.24    1.09
   6  -5   3   21.19    1.32
   7  -5   3   -0.02    0.55
  -5  -4   3   47.08    3.34
  -4  -4   3  222.82    7.62
  -3  -4   3   15.76    1.73
  -2  -4   3    4.61    1.09
  -1  -4   3    0.90    0.77
   0  -4   3  137.00    3.97
   0  -4   3  143.38    4.81
   1  -4   3  487.53   13.72
   1  -4   3  458.54   12.87
   1  -4   3  466.77   13.45
   2  -4   3    1.40    0.23
   2  -4   3    0.69    0.68
   3  -4   3   89.89    3.10
   4  -4   3   52.94    1.92
   5  -4   3   52.22    1.96
   6  -4   3    0.23    0.46
   7  -4   3    8.24    0.92
   8  -4   3    0.71    0.66
  -4  -3   3   23.83    2.34
  -3  -3   3    0.03    0.84
  -2  -3   3    2.93    0.89
  -1  -3   3  140.31    4.05
  -1  -3   3  145.56    4.80
   0  -3   3   42.58    1.32
   0  -3   3   42.04    2.16
   1  -3   3    2.67    0.83
   1  -3   3    2.66    0.30
   2  -3   3   10.25    0.52
   2  -3   3    9.96    1.01
   3  -3   3  161.83    4.55
   3  -3   3  160.44    4.87
   3  -3   3  153.04    4.69
   4  -3   3   34.18    1.38
   5  -3   3   40.50    1.62
   6  -3   3    3.02    0.56
   7  -3   3   19.40    1.28
   8  -3   3    4.84    0.82
   9  -3   3    1.63    0.85
  -6  -2   3   47.68    3.04
  -5  -2   3   38.34    2.51
   4   2  -3    0.83    0.35
  -4  -2   3    0.76    0.94
  -4  -2   3    1.52    0.87
   3   2  -3    4.84    0.49
  -3  -2   3    4.86    1.04
   2   2  -3  108.11    3.11
  -2  -2   3  105.91    3.89
   1   2  -3   64.19    1.91
  -1  -2   3   63.54    2.60
   0   2  -3  404.42   10.84
   0  -2   3  390.01   10.84
   0  -2   3  393.22   11.42
   1  -2   3  199.73    6.12
   1  -2   3  197.54    5.50
   2  -2   3  279.46    7.96
   2  -2   3  297.71    8.37
   3  -2   3   11.28    0.63
   3  -2   3   10.49    0.72
   4  -2   3    5.51    0.61
   5  -2   3   29.91    1.32
   6  -2   3   90.45    3.01
   7  -2   3    9.34    1.01
   8  -2   3    5.25    0.82
  -6  -1   3   11.30    1.74
   5   1  -3   25.45    1.19
  -5  -1   3   27.64    2.17
   4   1  -3   14.76    0.81
  -4  -1   3   15.41    1.60
  -4  -1   3   16.45    1.72
   3   1  -3    0.32    0.26
  -3  -1   3    0.04    0.58
  -3  -1   3    0.01    0.69
   2   1  -3  251.91    6.99
  -2  -1   3  250.85    7.67
   1   1  -3   23.22    0.80
  -1  -1   3   20.43    1.50
   0   1  -3  111.52    3.14
   0  -1   3  111.47    3.75
  -1   1  -3    3.86    0.32
   1  -1   3    4.78    0.71
  -2   1  -3  335.20    9.06
   2  -1   3  317.48    9.23
  -3   1  -3    3.22    0.41
   3  -1   3    2.96    0.36
   4  -1   3  331.75    9.30
   5  -1   3   24.78    1.13
   6  -1   3   -0.02    0.36
   7  -1   3    4.19    0.71
   6   0  -3    5.06    0.66
   5   0  -3    0.76    0.40
  -5   0   3    0.38    1.02
   4   0  -3   92.74    2.81
  -4   0   3   88.43    3.47
   3   0  -3  689.75   19.08
  -3   0   3  708.79   18.59
  -3   0   3  692.56   19.79
   2   0  -3    6.56    0.45
  -2   0   3    6.25    0.62
  -2   0   3    7.12    0.88
   1   0  -3  155.60    4.48
   1   0  -3  155.31    4.34
  -1   0   3  156.42    4.85
   0   0  -3  498.95   13.79
   0   0  -3  519.92   14.33
   0   0   3  500.13   14.21
  -1   0  -3  412.15   11.22
   1   0   3  409.45   11.48
  -2   0  -3    2.48    0.27
   2   0   3    2.05    0.27
  -3   0  -3   19.19    0.97
   3   0   3   19.98    0.83
  -4   0  -3   12.80    1.07
   4   0   3   14.63    0.77
   5   0   3   55.71    1.94
   6   0   3    7.50    0.78
   7   0   3   24.37    1.32
   7  -1  -3    2.32    0.67
   6  -1  -3    0.98    0.49
   5  -1  -3  101.10    3.17
   4  -1  -3    5.50    0.58
   3  -1  -3   59.61    2.48
   3  -1  -3   55.74    1.81
   2  -1  -3  100.04    2.92
   2  -1  -3  102.98    3.46
   1  -1  -3  477.46   14.01
   1  -1  -3  496.03   13.43
   1  -1  -3  504.42   13.90
   0  -1  -3   18.78    0.68
   0  -1  -3   19.90    1.15
   0  -1  -3   18.10    0.62
  -1  -1  -3  593.78   15.37
  -1  -1  -3  551.14   15.01
  -1  -1  -3  531.81   15.54
   1   1   3  580.44   15.42
  -2  -1  -3  245.21    6.72
   2   1   3  237.29    6.70
  -3  -1  -3  739.22   20.27
   3   1   3  734.57   20.15
  -4  -1  -3    5.43    0.64
   4   1   3    4.82    0.52
  -5  -1  -3   26.61    1.66
   5   1   3   29.03    1.19
   6   1   3   43.26    1.68
  -8  -1  -3   80.64    5.06
  -9  -1  -3   11.01    2.85
 -10  -1  -3   36.08    4.33
   8  -2  -3    0.65    0.68
   7  -2  -3    5.43    0.81
   6  -2  -3   23.48    1.24
   5  -2  -3   80.27    2.62
   4  -2  -3  218.22    6.23
   3  -2  -3  398.34   11.40
   3  -2  -3  390.66   10.89
   2  -2  -3  266.66    7.99
   2  -2  -3  276.64    7.59
   2  -2  -3  281.94    8.05
   1  -2  -3  187.43    5.49
   1  -2  -3  184.15    5.18
   1  -2  -3  193.21    5.64
   0  -2  -3   63.05    1.97
   0  -2  -3   64.31    1.81
   0  -2  -3   65.20    2.05
  -1  -2  -3   78.48    2.26
  -1  -2  -3   78.98    2.35
  -1  -2  -3   83.54    2.83
  -2  -2  -3  350.76    9.56
  -2  -2  -3  344.51    9.55
  -2  -2  -3  342.47    9.84
  -3  -2  -3   49.94    2.75
  -3  -2  -3   49.10    1.75
   3   2   3   50.36    1.58
  -4  -2  -3   13.04    1.79
  -4  -2  -3    8.84    0.94
   4   2   3    9.41    0.62
  -5  -2  -3   64.01    2.61
  -5  -2  -3   64.24    3.78
  -6  -2  -3   67.54    4.27
  -7  -2  -3   37.13    3.66
  -8  -2  -3   10.61    2.66
  -9  -2  -3    3.46    2.57
 -10  -2  -3   66.64    5.45
   8  -3  -3    4.11    0.86
   7  -3  -3    7.15    0.88
   6  -3  -3   66.96    2.40
   5  -3  -3    0.29    0.37
   4  -3  -3   23.83    1.03
   3  -3  -3   86.68    2.56
   3  -3  -3   85.33    3.10
   3  -3  -3   84.65    2.82
   2  -3  -3  164.46    5.11
   2  -3  -3  166.64    5.07
   2  -3  -3  174.17    4.71
   1  -3  -3  216.72    5.76
   1  -3  -3  211.95    6.17
   1  -3  -3  199.99    6.10
   0  -3  -3  210.13    5.91
   0  -3  -3  205.95    6.30
   0  -3  -3  233.76    6.04
  -1  -3  -3  302.74    8.23
  -1  -3  -3  293.26    8.69
  -1  -3  -3  307.26    8.28
  -2  -3  -3   67.93    2.91
  -2  -3  -3   67.79    2.06
  -2  -3  -3   69.38    2.09
  -3  -3  -3  134.87    4.83
  -3  -3  -3  132.98    4.02
  -3  -3  -3  130.84    3.86
  -4  -3  -3  227.36    6.70
  -4  -3  -3  220.93    7.50
  -5  -3  -3  116.63    4.05
  -5  -3  -3  114.03    5.12
  -6  -3  -3   33.14    3.32
  -6  -3  -3   27.11    1.99
  -7  -3  -3   24.15    3.10
  -8  -3  -3   89.17    5.47
  -9  -3  -3   52.36    4.72
   8  -4  -3   18.77    1.63
   7  -4  -3   24.41    1.45
   7  -4  -3   23.30    1.62
   6  -4  -3   36.90    1.91
   6  -4  -3   38.98    1.67
   5  -4  -3    0.29    0.56
   5  -4  -3    0.24    0.38
   4  -4  -3  454.08   12.29
   4  -4  -3  432.10   13.05
   3  -4  -3   54.68    1.98
   3  -4  -3   50.80    1.65
   3  -4  -3   49.63    2.12
   2  -4  -3   81.04    2.67
   2  -4  -3   80.78    2.34
   1  -4  -3    2.67    0.39
   0  -4  -3   85.02    2.67
  -1  -4  -3  128.31    3.61
  -1  -4  -3  131.16    3.60
  -1  -4  -3  126.03    3.89
  -2  -4  -3    0.68    0.26
  -2  -4  -3    0.50    0.31
  -3  -4  -3   15.76    0.77
  -3  -4  -3   15.17    1.70
  -3  -4  -3   15.68    1.01
  -4  -4  -3    6.93    1.46
  -4  -4  -3    6.29    0.81
  -5  -4  -3   19.15    1.53
  -5  -4  -3   22.78    2.51
  -6  -4  -3   14.68    2.42
  -6  -4  -3   17.51    1.71
  -7  -4  -3  100.63    5.40
  -8  -4  -3    5.82    2.37
  -9  -4  -3   43.54    4.54
   7  -5  -3   10.71    1.18
   7  -5  -3   10.86    1.30
   6  -5  -3   18.09    1.19
   6  -5  -3   17.84    1.42
   5  -5  -3   45.48    2.09
   5  -5  -3   46.14    1.75
   4  -5  -3    8.69    0.70
   4  -5  -3    9.65    0.98
   3  -5  -3   12.85    0.95
   3  -5  -3    8.61    0.90
   3  -5  -3   10.37    0.61
   2  -5  -3  172.34    5.32
   1  -5  -3   32.94    1.35
   0  -5  -3   42.80    1.56
  -1  -5  -3    4.23    0.48
  -1  -5  -3    2.99    0.32
  -1  -5  -3    3.32    0.29
  -2  -5  -3   26.75    1.01
  -2  -5  -3   26.29    1.19
  -3  -5  -3   81.25    2.81
  -4  -5  -3   46.82    2.14
  -5  -5  -3   41.97    3.12
  -5  -5  -3   42.47    2.26
  -6  -5  -3   16.40    1.73
  -6  -5  -3   14.78    2.44
  -7  -5  -3   59.96    4.28
  -8  -5  -3   19.26    3.26
  -9  -5  -3   42.07    4.68
   6  -6  -3   -0.26    0.75
   6  -6  -3    1.44    0.56
   5  -6  -3   62.79    2.14
   5  -6  -3   58.39    2.55
   4  -6  -3   11.30    1.07
   4  -6  -3   10.37    0.74
   3  -6  -3   60.93    2.38
   2  -6  -3    9.25    0.86
   1  -6  -3    2.58    0.50
   0  -6  -3    1.25    0.38
  -2  -6  -3   99.31    3.24
  -2  -6  -3  100.49    2.96
  -3  -6  -3   53.90    2.25
  -4  -6  -3   12.21    1.26
  -5  -6  -3   11.40    1.39
  -6  -6  -3  222.87    7.51
  -7  -6  -3    1.50    1.28
   6  -7  -3   17.67    1.54
   5  -7  -3   11.35    0.87
   5  -7  -3    9.51    1.21
   4  -7  -3    4.95    0.89
   3  -7  -3   31.09    1.60
   2  -7  -3    1.79    0.56
   1  -7  -3    6.07    0.71
   0  -7  -3   15.99    0.98
  -2  -7  -3   12.17    1.16
  -3  -7  -3    4.36    0.94
  -4  -7  -3  106.64    4.05
  -5  -7  -3   49.77    2.82
  -6  -7  -3   23.40    2.33
  -7  -7  -3    3.82    1.60
   4  -8  -3   16.40    1.36
   3  -8  -3    3.58    0.78
   2  -8  -3    3.03    0.69
   1  -8  -3    0.18    0.50
   0  -8  -3    6.44    0.78
  -2  -8  -3    0.37    0.76
  -3  -8  -3   56.57    2.68
  -4  -8  -3    7.33    1.39
  -5  -8  -3   60.05    3.37
  -6  -8  -3   39.40    3.09
  -7  -8  -3   55.37    3.88
   3  -9  -3   -0.38    0.68
   2  -9  -3    2.88    0.78
   1  -9  -3   35.30    1.76
  -2  -9  -3   -0.30    0.86
  -4  -9  -3   14.91    1.86
  -5  -9  -3   39.72    3.10
  -5  -8   4    5.58    2.46
  -4  -8   4    1.34    1.81
  -3  -8   4    7.24    2.05
  -2  -8   4    8.11    1.90
  -1  -8   4    0.11    1.39
   0  -8   4    1.79    1.32
   1  -8   4    9.41    1.57
   2  -8   4   44.99    2.46
   3  -8   4    0.49    0.66
  -5  -7   4    0.74    1.87
  -4  -7   4    1.54    1.64
  -3  -7   4    3.20    1.55
  -2  -7   4   34.83    2.97
  -1  -7   4   -0.86    1.19
   0  -7   4   63.48    3.43
   1  -7   4    0.78    1.12
   2  -7   4   41.38    2.42
   3  -7   4    0.90    0.81
   4  -7   4   33.70    1.66
   5  -7   4    5.31    0.80
  -4  -6   4   34.96    3.27
  -3  -6   4   70.42    3.87
  -2  -6   4    0.69    1.21
  -1  -6   4   43.91    2.87
   0  -6   4   28.66    2.39
   1  -6   4   92.09    3.93
   2  -6   4   19.79    1.85
   3  -6   4    2.07    0.86
   4  -6   4   14.51    1.20
   4  -6   4   14.73    1.12
   5  -6   4    3.71    0.85
   5  -6   4    2.39    0.65
   6  -6   4    0.83    0.84
   6  -6   4   -0.17    0.54
   7  -6   4   13.22    1.46
  -4  -5   4    9.46    1.91
  -3  -5   4   30.44    2.68
  -2  -5   4   43.33    2.84
  -1  -5   4  225.63    7.51
   0  -5   4    0.98    1.01
   1  -5   4   44.44    2.63
   2  -5   4   32.58    1.28
   2  -5   4   29.78    2.10
   3  -5   4  157.32    5.05
   3  -5   4  145.03    4.71
   4  -5   4    5.69    0.72
   5  -5   4   18.15    1.21
   6  -5   4    0.14    0.53
   7  -5   4    5.50    0.86
  -4  -4   4   33.82    2.94
  -3  -4   4  113.98    4.73
  -2  -4   4  273.91    8.81
  -1  -4   4   62.04    3.01
   0  -4   4    6.68    1.20
   1  -4   4  315.73    9.71
   2  -4   4   42.33    2.30
   3  -4   4    0.38    0.67
   4  -4   4    0.69    0.43
   5  -4   4   10.98    0.95
   6  -4   4   76.76    2.76
   7  -4   4    2.01    0.64
   8  -4   4   13.71    1.34
  -4  -3   4  121.89    5.04
  -3  -3   4   70.55    3.45
  -2  -3   4  229.57    7.47
  -1  -3   4   89.78    3.60
   0  -3   4  214.67    5.99
   0  -3   4  213.19    6.85
   1  -3   4   23.45    1.88
   1  -3   4   22.79    0.83
   2  -3   4   96.38    2.84
   2  -3   4   98.52    3.61
   3  -3   4   21.07    1.37
   4  -3   4   42.29    1.66
   5  -3   4   12.33    0.96
   6  -3   4    0.21    0.44
   7  -3   4   10.50    1.06
   8  -3   4   30.94    1.72
   3   2  -4   93.72    2.84
  -3  -2   4   92.33    3.95
   2   2  -4  281.09    7.74
  -2  -2   4  272.89    8.62
   1   2  -4   40.58    1.32
  -1  -2   4   42.46    2.23
   0   2  -4  341.83    9.41
   0  -2   4  341.74   10.18
   1  -2   4   34.88    2.02
   2  -2   4   22.90    1.50
   2  -2   4   21.19    0.80
   3  -2   4    8.43    0.79
   3  -2   4   10.22    0.97
   3  -2   4    9.52    0.57
   4  -2   4   10.32    0.76
   5  -2   4   39.53    1.58
   6  -2   4   31.10    1.44
   7  -2   4   83.60    2.93
   8  -2   4    6.18    0.87
   5   1  -4  207.61    6.09
   4   1  -4   79.03    2.53
  -4  -1   4   77.61    3.08
   3   1  -4   68.50    2.09
  -3  -1   4   59.50    3.08
   2   1  -4  430.10   11.99
  -2  -1   4  441.55   12.81
   1   1  -4  543.83   14.60
  -1  -1   4  522.92   15.27
   0   1  -4    2.00    0.22
   0  -1   4    1.43    0.67
  -1   1  -4   15.30    0.62
   1  -1   4   15.94    1.38
  -2   1  -4   34.61    1.22
   2  -1   4   37.19    1.65
  -3   1  -4   53.00    1.83
   3  -1   4   52.31    1.82
   4  -1   4  119.97    3.63
   5  -1   4    2.71    0.43
   6  -1   4   63.25    2.25
   7  -1   4   36.18    1.65
   6   0  -4   12.06    0.99
   5   0  -4   84.58    2.76
   4   0  -4   21.49    1.02
  -4   0   4   20.54    1.66
   3   0  -4  372.61   10.05
  -3   0   4  374.48    9.87
  -3   0   4  334.65   10.83
   2   0  -4   27.62    0.98
  -2   0   4   25.81    1.78
   1   0  -4   32.15    1.02
   1   0  -4   31.75    1.04
  -1   0   4   29.76    1.77
   0   0  -4  469.61   12.95
   0   0   4  479.12   13.50
  -1   0  -4   46.44    1.43
   1   0   4   47.11    1.91
  -2   0  -4   58.22    1.77
   2   0   4   55.37    1.86
   2   0   4   56.42    2.00
  -3   0  -4    1.42    0.30
   3   0   4    1.25    0.31
  -4   0  -4    3.36    0.49
   4   0   4    3.50    0.39
   5   0   4   99.23    3.12
   6   0   4  141.02    4.32
   7  -1  -4   98.83    3.38
   6  -1  -4   30.29    1.47
   5  -1  -4  127.84    3.92
   4  -1  -4   37.55    1.42
   3  -1  -4  243.76    6.86
   2  -1  -4  110.30    3.81
   2  -1  -4   99.39    3.06
   2  -1  -4  108.33    3.20
   1  -1  -4  144.03    4.07
   1  -1  -4  139.41    4.24
   1  -1  -4  151.99    4.78
   0  -1  -4  142.71    4.47
   0  -1  -4  141.12    3.92
   0  -1  -4  133.07    4.08
   0   1   4  143.21    4.30
  -1  -1  -4   70.41    2.09
   1   1   4   73.63    2.33
  -2  -1  -4   51.36    1.58
   2   1   4   48.97    1.61
  -3  -1  -4  239.20    6.88
   3   1   4  246.65    6.83
  -4  -1  -4  271.83    7.92
   4   1   4  276.55    7.74
  -5  -1  -4  270.98    8.32
   5   1   4  290.61    8.00
  -9  -1  -4   14.64    3.04
 -10  -1  -4    2.14    2.67
   8  -2  -4   44.37    2.10
   7  -2  -4    3.13    0.72
   6  -2  -4   62.67    2.29
   5  -2  -4   20.70    1.10
   4  -2  -4   74.60    2.39
   3  -2  -4   13.90    0.74
   3  -2  -4   14.82    0.84
   2  -2  -4   55.88    2.44
   2  -2  -4   56.23    1.88
   2  -2  -4   56.73    1.73
   1  -2  -4   16.04    1.37
   1  -2  -4   15.18    0.70
   1  -2  -4   15.11    0.59
   0  -2  -4   23.05    0.76
   0  -2  -4   22.89    0.86
   0  -2  -4   22.80    1.27
  -1  -2  -4   12.72    0.50
  -1  -2  -4    8.85    0.77
  -1  -2  -4   11.42    1.19
  -2  -2  -4   50.79    1.68
  -2  -2  -4   49.46    1.77
  -2  -2  -4   51.96    2.41
  -2  -2  -4   50.39    1.58
  -3  -2  -4   96.27    2.97
  -3  -2  -4   96.15    3.96
   3   2   4   98.63    2.87
  -4  -2  -4    7.95    0.83
  -4  -2  -4    7.53    1.57
   4   2   4    6.98    0.54
  -5  -2  -4   36.69    1.83
  -5  -2  -4   36.13    3.16
  -6  -2  -4  117.22    5.66
  -7  -2  -4  227.38    9.05
  -8  -2  -4    8.93    2.56
  -9  -2  -4    8.47    2.86
   8  -3  -4   17.59    1.42
   8  -3  -4   15.64    1.58
   7  -3  -4    0.80    0.62
   7  -3  -4   -0.01    0.72
   6  -3  -4   88.25    2.98
   6  -3  -4   87.74    3.26
   5  -3  -4   27.76    1.31
   5  -3  -4   29.83    1.53
   4  -3  -4   35.21    1.36
   4  -3  -4   34.14    1.55
   3  -3  -4    2.47    0.47
   3  -3  -4    1.96    0.32
   2  -3  -4  205.03    5.72
   2  -3  -4  203.22    6.29
   2  -3  -4  207.09    6.11
   1  -3  -4  191.60    5.37
   1  -3  -4  199.21    5.76
   1  -3  -4  192.12    5.91
   0  -3  -4  119.51    3.40
   0  -3  -4  122.89    3.67
   0  -3  -4  123.64    3.71
  -1  -3  -4  154.39    4.40
  -1  -3  -4  147.18    4.19
  -2  -3  -4   98.47    2.86
  -2  -3  -4   94.98    3.61
  -2  -3  -4   93.97    2.80
  -3  -3  -4  608.05   17.75
  -3  -3  -4  653.00   17.55
  -3  -3  -4  650.62   17.59
  -4  -3  -4   59.10    2.23
  -4  -3  -4   63.62    3.40
  -5  -3  -4  278.94    9.60
  -5  -3  -4  286.22    8.43
  -6  -3  -4   11.97    1.28
  -6  -3  -4    9.79    2.21
  -7  -3  -4   71.75    4.75
  -8  -3  -4    4.38    2.32
  -9  -3  -4   35.69    4.38
   7  -4  -4   59.14    2.69
   7  -4  -4   61.66    2.42
   6  -4  -4    5.54    0.96
   6  -4  -4    3.29    0.65
   5  -4  -4    3.51    0.78
   5  -4  -4    4.05    0.60
   4  -4  -4   19.11    1.20
   4  -4  -4   17.18    0.93
   3  -4  -4   15.58    0.77
   3  -4  -4   16.76    1.01
   2  -4  -4  103.15    2.90
   2  -4  -4   97.43    3.42
   2  -4  -4  102.13    3.26
   1  -4  -4    6.52    0.35
   1  -4  -4    5.78    0.76
   1  -4  -4    7.03    0.61
   0  -4  -4    5.63    0.31
   0  -4  -4    4.95    0.51
   0  -4  -4    6.70    0.54
  -1  -4  -4  148.93    4.25
  -1  -4  -4  148.98    4.49
  -1  -4  -4  149.14    4.16
  -2  -4  -4  166.11    4.77
  -2  -4  -4  169.18    4.78
  -3  -4  -4   32.67    1.34
  -3  -4  -4   32.97    1.26
  -3  -4  -4   33.60    2.39
  -4  -4  -4   79.03    2.77
  -4  -4  -4   77.74    3.87
  -5  -4  -4  148.47    6.19
  -5  -4  -4  159.16    5.06
  -6  -4  -4  109.41    4.09
  -6  -4  -4  106.95    5.38
  -7  -4  -4   51.32    4.09
  -8  -4  -4   10.88    2.72
  -9  -4  -4   11.24    3.02
   7  -5  -4   19.77    1.62
   6  -5  -4    3.01    0.65
   6  -5  -4    2.80    0.88
   5  -5  -4   32.70    1.43
   5  -5  -4   31.46    1.72
   4  -5  -4    2.62    0.48
   4  -5  -4    3.45    0.70
   3  -5  -4    7.70    0.81
   3  -5  -4    7.74    0.56
   2  -5  -4   13.98    0.59
   2  -5  -4   15.08    0.96
   1  -5  -4    0.24    0.32
   0  -5  -4  274.52    8.08
  -1  -5  -4   23.49    1.09
  -1  -5  -4   25.03    0.88
  -1  -5  -4   26.20    0.95
  -2  -5  -4  207.81    5.92
  -2  -5  -4  208.02    5.88
  -3  -5  -4   67.57    2.37
  -4  -5  -4  311.98    9.13
  -5  -5  -4    1.27    0.72
  -5  -5  -4    1.27    1.30
  -6  -5  -4   27.13    2.01
  -6  -5  -4   31.16    3.29
  -7  -5  -4   15.51    2.86
  -7  -5  -4   17.73    1.94
  -8  -5  -4   68.01    5.07
  -9  -5  -4    3.48    2.64
   6  -6  -4    2.38    0.91
   6  -6  -4    2.98    0.69
   5  -6  -4    2.54    0.82
   5  -6  -4    3.18    0.60
   4  -6  -4   19.26    0.95
   4  -6  -4   19.40    1.32
   3  -6  -4   10.29    0.99
   2  -6  -4   42.16    1.75
   1  -6  -4   10.33    0.81
   0  -6  -4   71.48    2.45
  -1  -6  -4   11.36    0.64
  -2  -6  -4  245.52    7.06
  -3  -6  -4  154.22    4.81
  -4  -6  -4   66.07    2.68
  -5  -6  -4    1.61    0.83
  -6  -6  -4  113.28    4.44
  -7  -6  -4   24.21    2.37
   5  -7  -4    7.89    0.85
   5  -7  -4    8.63    1.15
   4  -7  -4    0.32    0.65
   3  -7  -4    3.42    0.73
   2  -7  -4    6.41    0.80
   1  -7  -4  131.47    4.26
   0  -7  -4    0.94    0.45
  -2  -7  -4   24.79    1.38
  -3  -7  -4   21.88    1.54
  -4  -7  -4   17.53    1.68
  -5  -7  -4   25.76    2.12
  -6  -7  -4    2.81    1.18
  -7  -7  -4    5.31    1.57
   4  -8  -4    3.43    0.89
   3  -8  -4   37.28    1.85
   2  -8  -4    2.70    0.69
   1  -8  -4   19.18    1.22
   0  -8  -4    0.37    0.53
  -2  -8  -4    9.23    1.03
  -3  -8  -4   67.38    2.86
  -4  -8  -4    0.35    0.98
  -5  -8  -4   27.89    2.42
  -6  -8  -4   11.12    1.85
  -7  -8  -4   -0.54    1.47
   3  -9  -4   -0.18    0.70
   2  -9  -4   16.57    1.31
   1  -9  -4   22.68    1.43
  -3  -9  -4    7.87    1.37
  -4  -9  -4   28.58    2.41
  -5  -9  -4    2.67    1.60
  -4  -8   5   26.81    3.38
  -3  -8   5    3.32    1.94
  -2  -8   5   10.44    2.21
  -1  -8   5   -0.27    1.45
   0  -8   5   36.79    3.00
   1  -8   5   -0.81    1.15
   2  -8   5   30.69    2.32
   3  -8   5   -0.12    0.93
   3  -8   5    1.48    0.81
  -4  -7   5    8.34    2.33
  -3  -7   5   16.60    2.51
  -2  -7   5   77.49    4.33
  -1  -7   5   53.58    3.50
   0  -7   5    3.07    1.40
   1  -7   5    3.46    1.30
   2  -7   5    3.81    1.21
   3  -7   5   18.27    1.65
   4  -7   5    1.16    0.71
   5  -7   5    3.41    0.78
  -4  -6   5   -0.50    1.59
  -3  -6   5   66.66    4.08
  -2  -6   5    1.67    1.36
  -1  -6   5   28.10    2.71
   0  -6   5   30.50    2.64
   1  -6   5   40.31    2.76
   2  -6   5    1.24    1.01
   3  -6   5    2.26    0.94
   4  -6   5    4.98    0.83
   5  -6   5    6.41    0.86
   6  -6   5   40.15    1.93
  -4  -5   5   12.23    2.25
  -3  -5   5   77.16    4.14
  -2  -5   5    1.95    1.30
  -1  -5   5   50.19    3.12
   0  -5   5   33.42    2.58
   1  -5   5    1.84    1.07
   2  -5   5    0.95    0.94
   3  -5   5    9.98    1.32
   4  -5   5   47.96    2.07
   5  -5   5   39.79    1.84
   6  -5   5   11.60    1.16
   7  -5   5    1.46    0.67
  -3  -4   5    6.93    1.64
  -2  -4   5   58.21    3.29
  -1  -4   5   24.76    2.31
   0  -4   5    2.52    1.10
   1  -4   5   -0.04    0.93
   2  -4   5    8.11    0.62
   2  -4   5    9.01    1.34
   3  -4   5  163.87    5.49
   4  -4   5    2.17    0.59
   5  -4   5   43.48    1.86
   6  -4   5   30.97    1.59
   7  -4   5   37.55    1.85
   8  -4   5    0.32    0.63
  -3  -3   5    6.03    1.46
  -2  -3   5   24.00    2.27
  -1  -3   5   37.55    2.47
   0  -3   5   14.99    1.62
   1  -3   5   -0.31    0.86
   2  -3   5    3.52    0.98
   3  -3   5   50.44    2.36
   4  -3   5   20.60    1.22
   5  -3   5  132.73    4.18
   6  -3   5    0.38    0.46
   7  -3   5   77.40    2.86
   8  -3   5    3.08    0.75
  -3  -2   5  107.72    4.56
   2   2  -5    7.16    0.56
  -2  -2   5    5.91    1.22
   1   2  -5    3.03    0.32
  -1  -2   5    1.98    0.88
   0   2  -5    9.38    0.55
   0  -2   5   10.25    1.27
  -1   2  -5  247.89    6.90
   1  -2   5  245.35    7.74
   2  -2   5  508.76   14.68
   3  -2   5  101.93    3.56
   4  -2   5  125.94    3.93
   5  -2   5   93.95    3.09
   6  -2   5   73.79    2.60
   7  -2   5   19.53    1.28
   8  -2   5   30.49    1.67
   4   1  -5   61.67    2.11
   3   1  -5    8.13    0.65
   2   1  -5    5.37    0.50
   2   1  -5    5.07    0.37
  -2  -1   5    5.11    1.08
   1   1  -5    2.70    0.29
  -1  -1   5    1.27    0.79
   0   1  -5  164.12    4.57
   0  -1   5  158.44    5.39
  -1   1  -5  335.60    9.09
   1  -1   5  320.90    9.77
  -2   1  -5    9.33    0.58
   2  -1   5    7.85    0.92
  -3   1  -5   32.14    1.31
   3  -1   5   37.52    1.68
   3  -1   5   35.61    1.47
   4  -1   5  448.55   12.57
   5  -1   5    6.65    0.72
   6  -1   5   49.17    1.93
   7  -1   5   53.00    2.12
   5   0  -5   91.59    3.01
   4   0  -5   20.77    1.06
   3   0  -5   30.94    1.20
   2   0  -5   83.66    2.53
   2   0  -5   88.43    2.56
  -2   0   5   77.33    3.42
   1   0  -5   46.11    1.42
   1   0  -5   43.19    1.38
  -1   0   5   42.12    2.25
   0   0  -5  336.00    9.31
   0   0   5  340.15    9.96
  -1   0  -5   59.75    1.82
   1   0   5   60.42    2.42
  -2   0  -5 1000.00   26.84
   2   0   5  968.69   27.17
  -3   0  -5  243.48    6.92
   3   0   5  243.72    6.96
  -4   0  -5  195.64    5.83
   4   0   5  198.61    5.73
   5   0   5   32.52    1.35
   6   0   5  144.58    4.43
   6  -1  -5   86.42    2.98
   5  -1  -5   80.48    2.70
   4  -1  -5    6.56    0.67
   3  -1  -5   30.16    1.21
   3  -1  -5   29.33    1.16
   2  -1  -5    2.44    0.32
   2  -1  -5    2.34    0.32
   1  -1  -5  168.10    4.89
   1  -1  -5  163.80    4.71
   1  -1  -5  170.69    5.54
   0  -1  -5   64.82    1.94
   0  -1  -5   62.58    1.87
   0   1   5   60.51    2.37
  -1  -1  -5  252.36    6.95
   1   1   5  249.23    7.26
  -2  -1  -5   34.81    1.19
   2   1   5   35.24    1.29
  -3  -1  -5  210.89    5.95
   3   1   5  205.63    5.94
  -4  -1  -5  215.95    6.29
   4   1   5  214.24    6.17
  -5  -1  -5   51.81    2.20
   5   1   5   55.19    1.90
  -9  -1  -5   15.12    3.17
   8  -2  -5   26.29    1.85
   7  -2  -5   13.87    1.38
   7  -2  -5   12.14    1.20
   6  -2  -5   12.46    1.07
   6  -2  -5   13.55    1.25
   5  -2  -5    0.12    0.51
   5  -2  -5    0.65    0.45
   4  -2  -5   23.08    1.20
   4  -2  -5   23.89    1.09
   3  -2  -5  116.58    3.49
   3  -2  -5  118.96    3.70
   2  -2  -5   23.44    0.90
   2  -2  -5   23.15    0.98
   2  -2  -5   21.72    1.88
   1  -2  -5  173.85    4.88
   1  -2  -5  179.38    5.66
   1  -2  -5  170.81    5.14
   0  -2  -5   25.18    0.95
   0  -2  -5   24.98    1.57
   0  -2  -5   25.28    0.86
  -1  -2  -5  783.04   21.15
  -1  -2  -5  807.83   22.18
  -1  -2  -5  809.57   21.79
  -2  -2  -5   46.81    2.42
  -2  -2  -5   46.93    1.87
  -2  -2  -5   48.90    1.52
  -3  -2  -5  229.71    7.64
  -3  -2  -5  239.89    6.80
   3   2   5  248.69    6.77
  -4  -2  -5    0.97    0.34
  -4  -2  -5    1.12    1.16
   4   2   5    0.85    0.25
  -5  -2  -5  119.96    3.91
  -5  -2  -5  113.66    5.34
  -6  -2  -5    0.67    1.53
  -7  -2  -5   23.78    3.21
  -8  -2  -5   11.52    2.84
  -9  -2  -5    4.29    2.73
   8  -3  -5    1.89    0.97
   7  -3  -5   24.67    1.52
   7  -3  -5   25.52    1.73
   6  -3  -5   -0.44    0.49
   6  -3  -5    0.48    0.68
   5  -3  -5   79.98    2.64
   5  -3  -5   77.10    2.91
   4  -3  -5   39.26    1.68
   4  -3  -5   36.95    1.45
   3  -3  -5    3.04    0.53
   3  -3  -5    2.88    0.39
   2  -3  -5   11.86    0.73
   2  -3  -5    7.95    1.07
   2  -3  -5    9.68    0.56
   1  -3  -5   92.16    3.46
   1  -3  -5   94.97    2.96
   1  -3  -5   95.54    2.72
   0  -3  -5  429.22   12.39
   0  -3  -5  438.60   11.91
   0  -3  -5  438.80   12.52
  -1  -3  -5   20.56    1.15
  -1  -3  -5   20.99    0.76
  -2  -3  -5    0.96    0.45
  -2  -3  -5    1.15    0.77
  -2  -3  -5    0.47    0.21
  -3  -3  -5  373.75   11.11
  -3  -3  -5  375.07   10.44
  -4  -3  -5   43.74    3.02
  -4  -3  -5   46.01    1.76
  -5  -3  -5    2.55    1.50
  -5  -3  -5    2.37    0.56
  -6  -3  -5    2.49    1.82
  -6  -3  -5    0.49    0.66
  -7  -3  -5    3.02    2.06
  -8  -3  -5   24.82    3.65
  -9  -3  -5   17.38    3.55
   7  -4  -5    2.69    0.75
   7  -4  -5    2.39    0.95
   6  -4  -5    1.27    0.80
   6  -4  -5    1.86    0.60
   5  -4  -5    0.48    0.45
   5  -4  -5   -0.08    0.56
   4  -4  -5   40.81    1.81
   4  -4  -5   41.69    1.55
   3  -4  -5    2.18    0.53
   3  -4  -5    2.06    0.36
   2  -4  -5  177.44    5.44
   2  -4  -5  178.30    5.00
   1  -4  -5    2.86    0.85
   1  -4  -5    3.37    0.44
   1  -4  -5    3.05    0.32
   0  -4  -5  106.27    3.20
   0  -4  -5  100.48    3.35
   0  -4  -5   99.96    2.89
  -1  -4  -5    3.09    0.35
  -1  -4  -5    2.64    0.55
  -2  -4  -5  207.59    5.89
  -2  -4  -5  201.45    5.77
  -2  -4  -5  205.66    6.00
  -3  -4  -5   14.65    1.73
  -3  -4  -5   15.70    0.86
  -4  -4  -5    2.08    0.47
  -4  -4  -5    3.89    1.33
  -5  -4  -5   10.82    2.00
  -5  -4  -5   10.65    1.00
  -6  -4  -5    6.78    2.00
  -6  -4  -5    6.06    0.99
  -7  -4  -5   37.16    3.95
  -8  -4  -5    4.29    2.45
  -9  -4  -5   29.32    4.19
   7  -5  -5    2.30    0.98
   6  -5  -5   19.26    1.28
   6  -5  -5   16.98    1.46
   5  -5  -5    4.88    0.69
   5  -5  -5    5.16    0.91
   4  -5  -5    0.36    0.39
   4  -5  -5    0.42    0.56
   3  -5  -5   17.75    1.11
   3  -5  -5   17.20    0.83
   2  -5  -5   38.67    1.24
   2  -5  -5   34.77    1.95
   2  -5  -5   40.31    1.61
   1  -5  -5   41.25    1.25
   1  -5  -5   43.43    1.60
   1  -5  -5   35.97    1.89
   0  -5  -5  135.32    3.77
   0  -5  -5  134.95    4.17
   0  -5  -5  133.21    4.18
  -1  -5  -5    4.87    0.40
  -1  -5  -5    5.23    0.60
  -2  -5  -5   66.34    2.09
  -2  -5  -5   66.00    2.16
  -3  -5  -5    0.59    0.37
  -4  -5  -5   22.56    1.32
  -5  -5  -5  120.56    4.12
  -5  -5  -5  119.19    5.48
  -6  -5  -5   39.35    3.54
  -6  -5  -5   41.24    2.30
  -7  -5  -5   20.22    3.22
  -7  -5  -5   19.91    1.93
  -8  -5  -5    3.45    2.36
  -9  -5  -5   69.21    5.68
   6  -6  -5    0.62    0.84
   5  -6  -5   14.39    1.04
   5  -6  -5   14.50    1.32
   4  -6  -5   11.33    0.80
   4  -6  -5   10.02    1.08
   3  -6  -5  102.32    3.65
   3  -6  -5  110.76    3.14
   2  -6  -5   10.58    0.89
   1  -6  -5   40.37    1.64
   0  -6  -5   -0.10    0.34
  -1  -6  -5  114.00    3.60
  -1  -6  -5  119.53    3.39
  -2  -6  -5   18.67    0.96
  -3  -6  -5    3.63    0.61
  -4  -6  -5   22.55    1.46
  -5  -6  -5    6.81    1.02
  -6  -6  -5   28.55    2.19
  -7  -6  -5    8.41    1.50
  -8  -6  -5   75.79    5.40
   5  -7  -5   10.93    1.26
   4  -7  -5   37.45    1.89
   4  -7  -5   36.80    1.34
   3  -7  -5    3.55    0.74
   2  -7  -5    0.73    0.53
   1  -7  -5  101.95    3.46
   0  -7  -5    7.40    0.81
  -2  -7  -5    0.98    0.48
  -3  -7  -5   23.01    1.47
  -4  -7  -5   80.54    3.18
  -5  -7  -5   -0.48    0.75
  -6  -7  -5   50.70    2.87
  -7  -7  -5   -0.70    1.15
   4  -8  -5   20.28    1.50
   3  -8  -5    1.51    0.69
   2  -8  -5   63.14    2.53
   1  -8  -5    0.48    0.55
   0  -8  -5   31.44    1.56
  -2  -8  -5   30.97    1.62
  -3  -8  -5   44.56    2.22
  -4  -8  -5    0.92    0.93
  -5  -8  -5   27.37    2.31
  -6  -8  -5   38.23    2.86
  -7  -8  -5   59.48    3.72
   2  -9  -5   13.69    1.23
   1  -9  -5   -0.29    0.63
  -3  -9  -5    2.51    1.07
  -4  -9  -5   21.40    2.20
  -5  -9  -5   69.82    3.69
  -3  -8   6   25.39    3.32
  -2  -8   6   -1.72    1.75
  -1  -8   6    1.68    1.67
   0  -8   6    3.20    1.54
   1  -8   6   15.99    2.17
   2  -8   6   15.65    1.95
  -3  -7   6    1.50    1.83
  -2  -7   6    0.06    1.60
  -1  -7   6    3.67    1.67
   0  -7   6   41.43    3.18
   1  -7   6   -0.15    1.20
   2  -7   6   10.84    1.75
   3  -7   6    5.69    1.31
   4  -7   6   45.63    2.23
  -3  -6   6   -0.40    1.64
  -2  -6   6   14.45    2.35
  -1  -6   6    1.61    1.39
   0  -6   6    7.59    1.75
   1  -6   6   11.69    1.80
   2  -6   6   58.04    3.22
   3  -6   6   36.76    2.42
   4  -6   6   29.90    2.01
   4  -6   6   28.03    1.76
   5  -6   6   -0.19    0.64
   6  -6   6   40.15    2.00
  -3  -5   6    3.06    1.60
  -2  -5   6   29.16    2.93
  -1  -5   6   44.60    3.19
   0  -5   6   35.11    2.82
   1  -5   6   59.50    3.30
   2  -5   6    6.43    1.42
   3  -5   6   49.95    2.72
   4  -5   6   25.14    1.63
   4  -5   6   26.53    1.87
   5  -5   6  117.04    3.99
   6  -5   6    1.11    0.61
   7  -5   6    2.24    0.76
  -3  -4   6  101.44    4.95
  -2  -4   6   54.40    3.45
  -1  -4   6   15.54    2.00
   0  -4   6   20.20    2.16
   1  -4   6  152.10    5.63
   2  -4   6   22.01    2.16
   3  -4   6   58.67    2.87
   4  -4   6    1.72    0.90
   4  -4   6    1.30    0.65
   5  -4   6   27.07    1.55
   6  -4   6    0.04    0.53
   7  -4   6   11.75    1.28
   8  -4   6    2.31    0.78
  -2  -3   6    1.74    1.25
  -1  -3   6  174.15    6.30
   0  -3   6   59.93    3.14
   1  -3   6   44.83    2.70
   2  -3   6   56.29    2.89
   3  -3   6  202.42    6.60
   4  -3   6  142.17    4.86
   4  -3   6  142.64    4.60
   5  -3   6   34.12    1.65
   6  -3   6    2.03    0.58
   7  -3   6    0.91    0.59
   8  -3   6    3.52    0.80
  -2  -2   6  215.98    7.47
  -1  -2   6   74.21    3.50
   0  -2   6  122.22    4.70
   1  -2   6    2.96    1.01
   2  -2   6  168.05    5.67
   3  -2   6   28.75    1.84
   4  -2   6    3.00    0.58
   5  -2   6   12.24    1.01
   6  -2   6   26.16    1.41
   7  -2   6   13.09    1.17
   3   1  -6    4.73    0.53
   2   1  -6   34.64    1.28
  -2  -1   6   35.68    2.59
   1   1  -6    1.09    0.28
  -1  -1   6    0.79    0.83
   0   1  -6  199.81    5.56
   0  -1   6  193.23    6.47
  -1   1  -6  128.10    3.78
   1  -1   6  133.88    4.64
  -2   1  -6  142.12    4.19
   2  -1   6  146.72    4.89
   3  -1   6    0.17    0.57
   3  -1   6    0.17    0.39
   4  -1   6  199.04    5.92
   5  -1   6   36.91    1.58
   6  -1   6   28.94    1.43
   5   0  -6    6.03    0.73
   5   0  -6    5.43    0.70
   4   0  -6   18.77    0.99
   4   0  -6   19.17    1.07
   3   0  -6  321.50    9.49
   3   0  -6  333.99    9.21
   2   0  -6   17.37    0.75
   2   0  -6   17.84    0.83
   1   0  -6  141.10    3.93
   1   0  -6  134.44    3.98
  -1   0   6  132.14    4.80
   0   0  -6    1.99    0.27
   0   0   6    0.97    0.71
  -1   0  -6  113.83    3.30
   1   0   6  113.06    3.97
  -2   0  -6   15.66    0.73
   2   0   6   15.76    1.31
  -3   0  -6   24.93    1.08
   3   0   6   26.67    1.23
  -4   0  -6    5.43    0.57
   4   0   6    7.11    0.73
   5   0   6    4.30    0.54
   6  -1  -6    0.21    0.61
   6  -1  -6   -0.10    0.55
   5  -1  -6   39.79    1.67
   5  -1  -6   37.82    1.72
   4  -1  -6   28.95    1.28
   4  -1  -6   29.66    1.33
   3  -1  -6    1.80    0.39
   3  -1  -6    1.83    0.38
   2  -1  -6    5.31    0.50
   2  -1  -6    5.45    0.53
   1  -1  -6  205.61    6.09
   1  -1  -6  213.12    5.89
   0  -1  -6  100.98    2.85
   0   1   6   93.87    3.43
  -1  -1  -6  137.11    4.12
  -1  -1  -6  130.51    3.78
   1   1   6  129.14    4.21
  -2  -1  -6    1.57    0.27
   2   1   6    1.40    0.32
   2   1   6    1.80    0.51
  -3  -1  -6   76.02    2.41
   3   1   6   77.26    2.47
  -4  -1  -6   40.99    1.62
   4   1   6   40.96    1.54
  -9  -1  -6    0.16    2.31
   7  -2  -6    1.00    0.70
   7  -2  -6   -0.88    0.70
   6  -2  -6   28.56    1.53
   6  -2  -6   30.96    1.71
   5  -2  -6    0.78    0.57
   5  -2  -6    0.57    0.49
   4  -2  -6   86.18    2.80
   4  -2  -6   87.72    2.99
   3  -2  -6   35.11    1.41
   3  -2  -6   33.30    1.30
   2  -2  -6  195.25    5.70
   2  -2  -6  207.74    6.00
   1  -2  -6   10.95    0.57
   1  -2  -6   11.69    0.64
   0  -2  -6    6.02    0.94
   0  -2  -6    7.49    0.52
   0  -2  -6    8.58    0.46
  -1  -2  -6   52.66    2.30
  -1  -2  -6   55.61    1.70
  -1  -2  -6   56.14    2.21
  -2  -2  -6  244.73    7.35
  -2  -2  -6  240.59    6.79
  -3  -2  -6   47.56    2.84
  -3  -2  -6   46.65    1.61
  -4  -2  -6    1.33    1.22
  -5  -2  -6    2.51    1.48
  -5  -2  -6    1.38    0.49
  -6  -2  -6   59.97    4.18
  -7  -2  -6  108.39    5.95
  -8  -2  -6   28.98    3.85
  -9  -2  -6   38.79    4.61
   7  -3  -6   -0.40    0.66
   7  -3  -6   -0.87    0.79
   6  -3  -6   37.58    2.00
   6  -3  -6   39.43    1.80
   5  -3  -6   16.13    1.25
   5  -3  -6   15.77    1.11
   4  -3  -6   64.06    2.40
   4  -3  -6   63.90    2.19
   3  -3  -6   48.14    1.65
   3  -3  -6   47.28    1.83
   2  -3  -6  147.60    4.65
   2  -3  -6  155.89    4.36
   1  -3  -6    4.94    0.52
   1  -3  -6    4.52    0.41
   1  -3  -6    2.13    0.97
   0  -3  -6  345.00    9.57
   0  -3  -6  334.25    9.09
   0  -3  -6  309.23    9.74
  -1  -3  -6   87.46    3.12
  -1  -3  -6   88.55    2.58
  -2  -3  -6    1.72    0.28
  -2  -3  -6    1.77    0.62
  -2  -3  -6    1.31    0.82
  -3  -3  -6   29.22    2.28
  -3  -3  -6   29.77    1.17
  -4  -3  -6    2.55    1.35
  -4  -3  -6    2.76    0.45
  -5  -3  -6  283.78   10.12
  -5  -3  -6  308.88    8.74
  -6  -3  -6   15.83    1.42
  -6  -3  -6   16.24    2.63
  -7  -3  -6   46.38    4.21
  -8  -3  -6    8.74    2.84
  -9  -3  -6   44.58    4.94
   7  -4  -6   48.14    2.45
   6  -4  -6    0.06    0.59
   6  -4  -6    0.53    0.77
   5  -4  -6   25.81    1.56
   5  -4  -6   24.81    1.32
   4  -4  -6   36.36    1.49
   4  -4  -6   38.82    1.74
   3  -4  -6   71.64    2.55
   3  -4  -6   69.81    2.25
   2  -4  -6    1.35    0.41
   2  -4  -6    0.85    0.27
   1  -4  -6   21.04    0.79
   1  -4  -6   20.17    0.99
   0  -4  -6   15.09    0.81
   0  -4  -6   15.69    0.63
   0  -4  -6   13.68    1.40
  -1  -4  -6   19.01    0.74
  -1  -4  -6   17.99    1.28
  -2  -4  -6   18.43    0.81
  -3  -4  -6   17.09    0.87
  -3  -4  -6   15.70    1.80
  -4  -4  -6   11.76    0.93
  -4  -4  -6    9.57    1.73
  -5  -4  -6   41.02    1.86
  -5  -4  -6   41.67    3.28
  -6  -4  -6   16.20    1.52
  -6  -4  -6   14.12    2.51
  -7  -4  -6  164.32    7.56
  -8  -4  -6   28.22    3.80
  -9  -4  -6   33.47    4.56
   6  -5  -6   -0.08    0.78
   6  -5  -6   -0.12    0.58
   5  -5  -6   83.55    3.31
   5  -5  -6   92.23    2.95
   4  -5  -6    6.01    0.65
   4  -5  -6    6.00    0.89
   3  -5  -6  105.30    3.15
   3  -5  -6  106.12    3.59
   2  -5  -6   12.27    0.63
   2  -5  -6   12.43    0.90
   1  -5  -6  182.43    5.57
   1  -5  -6  183.14    5.12
   0  -5  -6   24.91    1.11
   0  -5  -6   24.21    0.87
   0  -5  -6   23.43    1.63
  -1  -5  -6   14.55    0.65
  -1  -5  -6   12.86    1.15
  -2  -5  -6   83.33    2.55
  -3  -5  -6   19.73    1.04
  -4  -5  -6  192.83    5.79
  -5  -5  -6    7.97    0.91
  -5  -5  -6    7.65    1.93
  -6  -5  -6  119.76    4.25
  -6  -5  -6  116.04    5.84
  -7  -5  -6    1.44    2.01
  -7  -5  -6   -0.81    0.83
  -8  -5  -6   15.19    3.24
  -9  -5  -6    9.08    3.24
   6  -6  -6   19.68    1.64
   5  -6  -6    8.00    0.81
   5  -6  -6    7.83    1.13
   4  -6  -6    4.85    0.59
   4  -6  -6    5.85    0.93
   3  -6  -6   23.11    0.97
   3  -6  -6   25.24    1.38
   2  -6  -6   49.88    1.61
   2  -6  -6   53.90    2.06
   1  -6  -6    1.74    0.48
   1  -6  -6    2.08    0.29
   0  -6  -6   13.45    0.89
   0  -6  -6   13.00    0.59
  -1  -6  -6   41.57    1.40
  -2  -6  -6   24.73    1.07
  -3  -6  -6   41.77    1.69
  -4  -6  -6    9.11    0.94
  -5  -6  -6   -0.08    0.59
  -6  -6  -6  113.12    4.28
  -7  -6  -6   -0.69    0.92
  -7  -6  -6   -0.06    1.86
  -8  -6  -6   23.85    3.60
   5  -7  -6    4.26    0.99
   4  -7  -6   42.15    1.50
   4  -7  -6   41.34    2.03
   3  -7  -6    3.29    0.76
   2  -7  -6   10.48    0.97
   1  -7  -6    2.75    0.60
   0  -7  -6   50.67    2.01
  -1  -7  -6   84.04    2.60
  -2  -7  -6    6.18    0.65
  -3  -7  -6   34.47    1.67
  -4  -7  -6   46.29    2.21
  -5  -7  -6  118.87    4.35
  -6  -7  -6    1.29    0.97
  -7  -7  -6   24.66    2.39
   3  -8  -6    8.81    1.07
   2  -8  -6    3.59    0.79
   1  -8  -6    2.63    0.69
  -2  -8  -6    6.25    0.83
  -3  -8  -6   63.25    2.65
  -4  -8  -6   10.55    1.32
  -5  -8  -6   20.94    2.07
  -6  -8  -6    4.71    1.33
  -7  -8  -6   32.94    2.99
   2  -9  -6    0.14    0.69
   1  -9  -6   12.17    1.20
  -3  -9  -6    9.62    1.30
  -4  -9  -6   21.54    2.01
  -5  -9  -6   22.73    2.50
  -1  -8   7    2.82    1.79
   0  -8   7    4.04    1.75
  -2  -7   7   14.19    2.70
  -1  -7   7    5.34    1.87
   0  -7   7   23.25    2.65
   1  -7   7   11.31    1.96
   2  -7   7    1.29    1.22
   3  -7   7    3.05    1.29
   4  -7   7    9.20    1.24
  -2  -6   7    2.59    1.77
  -1  -6   7   15.98    2.45
   0  -6   7   11.68    2.07
   1  -6   7   45.00    3.15
   2  -6   7    9.89    1.75
   3  -6   7   18.61    2.07
   4  -6   7    1.39    0.86
   4  -6   7   -0.41    1.02
   5  -6   7    2.50    0.86
  -2  -5   7   -0.57    1.51
  -1  -5   7   85.18    4.49
   0  -5   7   59.12    3.61
   1  -5   7    3.03    1.35
   2  -5   7   22.21    2.32
   3  -5   7   14.92    1.87
   4  -5   7   11.14    1.51
   4  -5   7   10.66    1.21
   5  -5   7   -0.39    0.66
   6  -5   7    5.46    0.93
   7  -5   7    5.70    0.96
  -2  -4   7  102.52    5.05
  -1  -4   7   -0.74    1.14
   0  -4   7    0.36    1.11
   1  -4   7   82.68    3.95
   2  -4   7   37.86    2.69
   3  -4   7    1.83    1.08
   4  -4   7    7.78    1.33
   4  -4   7    6.69    1.00
   5  -4   7   -0.48    0.57
   6  -4   7   40.75    2.01
   7  -4   7   15.39    1.43
   8  -4   7    4.41    0.94
  -2  -3   7  108.37    5.00
  -1  -3   7   25.06    2.56
   0  -3   7  147.10    5.62
   1  -3   7  102.38    4.36
   2  -3   7   21.81    2.18
   3  -3   7    5.83    1.28
   4  -3   7   11.75    1.24
   4  -3   7   10.28    1.39
   5  -3   7   69.56    2.71
   6  -3   7   16.21    1.30
   7  -3   7   38.40    1.93
  -1  -2   7    9.14    1.57
   0  -2   7   21.57    2.19
   1  -2   7    4.26    1.18
   2  -2   7   13.77    1.55
   3  -2   7  110.68    4.17
   4  -2   7   14.12    1.21
   4  -2   7   15.14    1.53
   5  -2   7    9.45    1.00
   6  -2   7    0.33    0.51
   2   1  -7    4.99    0.52
   1   1  -7  313.76    8.42
  -1  -1   7  284.70    9.51
   0   1  -7   30.96    1.17
   0  -1   7   34.11    2.30
  -1   1  -7   59.76    1.98
   1  -1   7   66.15    2.98
   2  -1   7   10.59    1.31
   3  -1   7    3.55    0.89
   4  -1   7   61.92    2.35
   5  -1   7    6.70    0.73
   6  -1   7  132.81    4.27
   4   0  -7   13.61    0.99
   3   0  -7  211.27    6.12
   2   0  -7   59.24    1.92
   2   0  -7   55.81    1.83
   1   0  -7    1.98    0.26
   1   0  -7    2.12    0.32
   0   0  -7    0.97    0.26
   0   0   7    0.80    0.75
  -1   0  -7   64.80    1.99
   1   0   7   60.44    2.76
  -2   0  -7  158.80    4.60
   2   0   7  159.17    5.21
  -3   0  -7    3.53    0.44
   3   0   7    3.77    0.56
   3   0   7    4.43    0.84
   4   0   7   30.23    1.43
   5   0   7   10.27    0.93
   5  -1  -7    6.04    0.76
   5  -1  -7    4.98    0.77
   4  -1  -7  107.81    3.53
   4  -1  -7  111.18    3.46
   3  -1  -7    0.60    0.35
   3  -1  -7    0.55    0.38
   2  -1  -7   55.85    1.92
   2  -1  -7   61.48    1.93
   1  -1  -7   14.64    0.71
   1  -1  -7   15.29    0.73
   0  -1  -7   37.97    1.29
  -1  -1  -7   42.20    1.41
  -1  -1  -7   41.60    1.91
  -2  -1  -7   30.76    1.12
   2   1   7   29.36    1.55
   2   1   7   28.33    1.34
  -3  -1  -7   14.92    0.81
   3   1   7   12.60    0.90
  -4  -1  -7   65.83    2.28
  -9  -1  -7   15.03    3.20
   6  -2  -7   72.20    2.73
   6  -2  -7   75.26    2.91
   5  -2  -7    0.46    0.52
   5  -2  -7    0.55    0.58
   4  -2  -7   99.27    3.14
   4  -2  -7   97.10    3.30
   3  -2  -7   -0.03    0.36
   3  -2  -7    0.32    0.37
   2  -2  -7   48.53    1.72
   2  -2  -7   49.13    1.65
   1  -2  -7   27.59    1.00
   1  -2  -7   24.98    1.05
   0  -2  -7   19.53    0.79
   0  -2  -7   18.66    0.84
  -1  -2  -7   14.81    1.29
  -1  -2  -7   18.19    0.76
  -2  -2  -7   66.32    2.87
  -2  -2  -7   64.92    2.06
  -3  -2  -7  298.95    8.42
  -3  -2  -7  297.93    9.23
  -4  -2  -7  136.51    5.56
  -4  -2  -7  139.02    4.21
  -5  -2  -7   67.62    4.12
  -5  -2  -7   71.49    2.58
  -6  -2  -7    1.24    1.76
  -7  -2  -7  134.78    6.69
  -8  -2  -7    5.99    2.55
  -9  -2  -7    2.76    2.57
   7  -3  -7   14.12    1.54
   6  -3  -7   25.52    1.50
   6  -3  -7   24.43    1.63
   5  -3  -7   91.99    3.32
   5  -3  -7   90.48    3.07
   4  -3  -7    0.05    0.42
   4  -3  -7    0.99    0.53
   3  -3  -7    4.89    0.55
   3  -3  -7    4.49    0.65
   2  -3  -7    2.13    0.43
   2  -3  -7    1.75    0.35
   1  -3  -7    0.56    0.26
   1  -3  -7    0.16    0.30
   0  -3  -7   84.01    2.53
   0  -3  -7   86.89    2.73
  -1  -3  -7    6.89    0.51
  -2  -3  -7  117.83    3.46
  -2  -3  -7  117.40    4.21
  -3  -3  -7    0.08    0.97
  -3  -3  -7    1.22    0.33
  -4  -3  -7   23.60    1.13
  -4  -3  -7   21.50    2.35
  -5  -3  -7   49.28    3.65
  -5  -3  -7   45.04    1.92
  -6  -3  -7   27.92    1.72
  -6  -3  -7   31.38    3.46
  -7  -3  -7    8.80    2.61
  -8  -3  -7    3.39    2.45
  -9  -3  -7   12.50    3.24
   7  -4  -7   49.25    2.51
   6  -4  -7    0.07    0.61
   6  -4  -7    0.09    0.74
   5  -4  -7    2.03    0.63
   5  -4  -7    2.03    0.74
   4  -4  -7   14.96    1.20
   4  -4  -7   15.25    0.98
   3  -4  -7   35.11    1.57
   3  -4  -7   34.38    1.35
   2  -4  -7   20.66    0.91
   2  -4  -7   21.20    1.10
   1  -4  -7    7.17    0.66
   1  -4  -7    7.36    0.51
   0  -4  -7    5.76    0.46
   0  -4  -7    5.43    0.56
  -1  -4  -7   34.43    1.20
  -2  -4  -7  230.92    6.53
  -3  -4  -7   12.62    1.71
  -3  -4  -7   11.70    0.76
  -4  -4  -7  270.93    7.76
  -4  -4  -7  265.16    8.87
  -5  -4  -7    3.10    1.55
  -6  -4  -7  144.44    4.76
  -6  -4  -7  135.68    6.41
  -7  -4  -7    2.75    2.21
  -8  -4  -7   20.25    3.47
  -9  -4  -7   11.10    3.15
   6  -5  -7   13.76    1.50
   5  -5  -7    8.96    0.90
   5  -5  -7    8.85    1.17
   4  -5  -7   16.33    1.01
   4  -5  -7   16.53    1.26
   3  -5  -7   19.28    0.94
   3  -5  -7   18.56    1.18
   2  -5  -7   -0.04    0.38
   2  -5  -7   -0.03    0.29
   1  -5  -7   46.96    1.77
   1  -5  -7   45.69    1.49
   0  -5  -7   51.68    1.90
   0  -5  -7   51.37    1.64
  -1  -5  -7  217.56    6.13
  -2  -5  -7    0.44    0.31
  -3  -5  -7   10.18    0.77
  -4  -5  -7   74.89    2.62
  -5  -5  -7   58.16    3.86
  -5  -5  -7   59.93    2.40
  -6  -5  -7    7.92    2.20
  -6  -5  -7    5.82    0.91
  -7  -5  -7    2.18    2.06
  -8  -5  -7    5.44    2.61
   5  -6  -7    1.21    0.78
   4  -6  -7    0.98    0.47
   4  -6  -7    1.03    0.67
   3  -6  -7    3.09    0.47
   3  -6  -7    1.72    0.61
   2  -6  -7   16.01    0.75
   2  -6  -7   16.00    1.07
   1  -6  -7   42.39    1.41
   1  -6  -7   44.11    1.78
   0  -6  -7    1.10    0.46
   0  -6  -7    1.72    0.33
  -1  -6  -7   45.56    1.54
  -2  -6  -7   59.70    2.01
  -3  -6  -7  347.79    9.89
  -4  -6  -7    2.45    0.60
  -5  -6  -7   28.43    1.69
  -6  -6  -7   28.75    2.02
  -7  -6  -7   37.13    4.11
  -7  -6  -7   38.09    2.52
  -8  -6  -7   12.09    3.14
   4  -7  -7    7.99    1.09
   3  -7  -7   12.03    0.69
   3  -7  -7   11.93    1.12
   2  -7  -7   13.58    0.66
   2  -7  -7   13.71    1.09
   1  -7  -7   54.32    2.15
   0  -7  -7   19.10    0.84
   0  -7  -7   18.73    1.15
  -1  -7  -7   77.43    2.45
  -2  -7  -7   26.64    1.25
  -3  -7  -7   39.74    1.78
  -4  -7  -7    5.28    0.88
  -5  -7  -7   56.37    2.65
  -6  -7  -7   14.87    1.60
  -7  -7  -7   -0.29    1.08
   3  -8  -7   10.96    1.20
   2  -8  -7   30.72    1.63
   1  -8  -7    0.39    0.62
  -2  -8  -7   72.27    2.61
  -3  -8  -7   25.46    1.60
  -4  -8  -7   13.68    1.42
  -5  -8  -7    1.07    0.97
  -6  -8  -7    0.87    1.09
  -7  -8  -7   -0.23    1.24
  -3  -9  -7    3.96    1.07
  -4  -9  -7   46.37    2.70
  -1  -7   8   22.64    3.00
   0  -7   8    3.06    1.67
   1  -7   8    3.34    1.55
   2  -7   8    0.44    1.32
   3  -7   8    6.39    1.55
  -1  -6   8   26.15    3.08
   0  -6   8    2.77    1.57
   1  -6   8   18.42    2.40
   2  -6   8   29.66    2.75
   3  -6   8    5.69    1.57
   4  -6   8   25.38    1.87
   4  -6   8   20.03    2.08
   5  -6   8    0.31    0.77
  -1  -5   8    4.94    1.76
   0  -5   8   43.63    3.32
   1  -5   8   13.62    2.06
   2  -5   8    1.28    1.20
   3  -5   8    0.80    1.18
   4  -5   8    8.82    1.22
   4  -5   8    8.82    1.56
   5  -5   8   32.25    1.93
   6  -5   8    2.60    0.87
  -1  -4   8    6.58    1.90
   0  -4   8    2.29    1.33
   1  -4   8    8.19    1.68
   2  -4   8    4.83    1.37
   3  -4   8  110.00    4.59
   4  -4   8    3.01    1.18
   4  -4   8    4.00    0.96
   5  -4   8   17.49    1.50
   6  -4   8    0.68    0.70
   7  -4   8   37.26    2.05
  -1  -3   8   17.07    2.28
   0  -3   8    2.75    1.27
   1  -3   8   -0.77    1.02
   2  -3   8   22.21    2.25
   3  -3   8    2.76    1.12
   4  -3   8   36.64    2.33
   4  -3   8   38.93    2.06
   5  -3   8   48.83    2.25
   6  -3   8   48.10    2.23
   0  -2   8   20.00    2.10
   1  -2   8    3.21    1.16
   2  -2   8  123.40    4.78
   3  -2   8    0.72    0.93
   4  -2   8   63.44    2.63
   4  -2   8   61.95    2.95
   5  -2   8    3.44    0.71
   6  -2   8   34.13    1.80
   1  -1   8  147.24    5.35
   2  -1   8   24.51    2.01
   3  -1   8   24.87    1.84
   4  -1   8  219.29    6.71
   5  -1   8   56.35    2.28
   3   0  -8   10.90    0.84
   2   0  -8    1.11    0.37
   1   0  -8  235.78    6.69
   0   0  -8    7.84    0.59
  -1   0  -8  114.24    3.41
  -2   0  -8    3.26    0.41
   5  -1  -8    9.23    0.99
   4  -1  -8    0.96    0.49
   3  -1  -8    0.06    0.34
   3  -1  -8    0.72    0.40
   2  -1  -8    4.48    0.53
   2  -1  -8    4.36    0.46
   1  -1  -8   29.02    1.11
   1  -1  -8   27.97    1.10
   0  -1  -8   14.46    0.74
  -1  -1  -8  249.77    7.04
  -2  -1  -8    9.09    0.64
  -3  -1  -8  205.92    5.97
  -4  -1  -8    8.34    0.82
  -9  -1  -8    6.47    2.70
   6  -2  -8    1.58    0.73
   5  -2  -8    0.12    0.56
   4  -2  -8   24.06    1.26
   4  -2  -8   22.39    1.31
   3  -2  -8   57.93    2.02
   3  -2  -8   57.20    2.07
   2  -2  -8  274.31    8.06
   2  -2  -8  274.28    7.76
   1  -2  -8   16.59    0.84
   1  -2  -8   17.25    0.81
   0  -2  -8  208.26    5.90
  -1  -2  -8   14.40    0.72
  -2  -2  -8  206.52    5.98
  -2  -2  -8  213.19    6.50
  -3  -2  -8   12.64    1.69
  -3  -2  -8   10.30    0.75
  -4  -2  -8  146.47    4.49
  -4  -2  -8  150.53    5.88
  -5  -2  -8    0.24    1.42
  -5  -2  -8    1.04    0.46
  -6  -2  -8    2.53    1.77
  -7  -2  -8    4.77    2.22
  -8  -2  -8    4.81    2.49
  -9  -2  -8   13.48    3.30
   6  -3  -8    0.09    0.74
   6  -3  -8   -0.84    0.62
   5  -3  -8    5.69    0.83
   5  -3  -8    4.11    0.84
   4  -3  -8   31.61    1.46
   4  -3  -8   31.35    1.58
   3  -3  -8   49.00    1.76
   3  -3  -8   48.79    1.91
   2  -3  -8    8.00    0.66
   2  -3  -8    8.37    0.74
   1  -3  -8   14.47    0.84
   1  -3  -8   15.19    0.74
   0  -3  -8  267.52    7.89
   0  -3  -8  269.08    7.51
  -1  -3  -8    9.93    0.63
  -2  -3  -8   89.44    2.71
  -2  -3  -8   85.99    3.43
  -3  -3  -8   69.56    3.32
  -3  -3  -8   64.04    2.18
  -4  -3  -8  140.64    5.47
  -4  -3  -8  128.01    4.07
  -5  -3  -8    1.34    0.49
  -5  -3  -8    0.99    1.56
  -6  -3  -8   32.98    3.61
  -7  -3  -8    3.59    2.25
  -8  -3  -8    4.50    2.61
  -9  -3  -8   11.98    3.35
   6  -4  -8   14.19    1.51
   5  -4  -8   21.19    1.51
   5  -4  -8   22.32    1.34
   4  -4  -8   38.15    1.62
   4  -4  -8   39.96    1.84
   3  -4  -8   25.44    1.17
   3  -4  -8   27.72    1.37
   2  -4  -8  122.86    3.91
   2  -4  -8  121.20    3.62
   1  -4  -8  131.51    4.10
   1  -4  -8  129.97    3.80
   0  -4  -8   30.78    1.29
   0  -4  -8   28.42    1.10
  -1  -4  -8   64.18    2.05
  -2  -4  -8  102.36    3.11
  -3  -4  -8  102.16    3.15
  -3  -4  -8   98.97    4.19
  -4  -4  -8    0.06    1.16
  -4  -4  -8    0.76    0.43
  -5  -4  -8    0.26    0.47
  -5  -4  -8    0.83    1.54
  -6  -4  -8    0.13    1.76
  -6  -4  -8   -0.14    0.52
  -7  -4  -8   19.46    3.30
  -8  -4  -8   22.70    3.64
  -9  -4  -8   15.61    3.46
   5  -5  -8   21.66    1.35
   5  -5  -8   21.26    1.55
   4  -5  -8    2.03    0.54
   4  -5  -8    2.38    0.71
   3  -5  -8   57.03    2.24
   3  -5  -8   55.10    1.93
   2  -5  -8    3.27    0.60
   2  -5  -8    3.46    0.45
   1  -5  -8   44.55    1.50
   1  -5  -8   44.14    1.74
   0  -5  -8   66.32    2.30
   0  -5  -8   62.60    2.02
  -1  -5  -8   63.44    2.04
  -2  -5  -8    0.18    0.34
  -3  -5  -8    0.17    0.40
  -4  -5  -8   21.64    1.27
  -5  -5  -8   51.00    2.19
  -5  -5  -8   55.48    3.72
  -6  -5  -8   30.78    1.86
  -6  -5  -8   29.01    3.35
  -7  -5  -8    4.94    2.36
  -8  -5  -8    5.08    2.67
   5  -6  -8    8.93    1.20
   4  -6  -8   -0.24    0.63
   4  -6  -8   -0.05    0.46
   3  -6  -8   46.88    1.68
   3  -6  -8   48.86    2.08
   2  -6  -8   17.32    0.84
   2  -6  -8   18.73    1.16
   1  -6  -8   33.60    1.22
   1  -6  -8   32.76    1.50
   0  -6  -8   15.86    1.02
   0  -6  -8   13.83    0.75
  -1  -6  -8   29.31    1.17
  -2  -6  -8    0.16    0.41
  -3  -6  -8   19.53    1.10
  -4  -6  -8   16.81    1.24
  -5  -6  -8   22.18    1.59
  -6  -6  -8    9.81    1.17
  -7  -6  -8    2.80    1.07
  -7  -6  -8    0.72    2.05
  -8  -6  -8   66.47    5.37
   3  -7  -8    1.41    0.41
   3  -7  -8    1.38    0.72
   2  -7  -8    7.44    0.62
   2  -7  -8    6.10    0.87
   1  -7  -8   23.90    1.00
   1  -7  -8   23.65    1.34
   0  -7  -8   28.44    1.14
  -1  -7  -8    2.70    0.51
  -2  -7  -8   10.51    0.87
  -3  -7  -8    2.85    0.67
  -4  -7  -8    8.75    1.02
  -5  -7  -8   25.10    1.85
  -6  -7  -8    0.82    0.87
  -7  -7  -8   54.04    3.11
   2  -8  -8   21.61    1.42
   1  -8  -8    6.38    0.92
  -2  -8  -8    3.94    0.74
  -3  -8  -8   24.34    1.62
  -4  -8  -8    7.23    1.13
  -5  -8  -8   20.26    1.98
  -6  -8  -8   -0.21    1.00
  -3  -9  -8    3.30    1.04
   0  -7   9   17.49    2.74
   1  -7   9    3.27    1.67
   0  -6   9    6.07    1.90
   1  -6   9   17.94    2.42
   2  -6   9    6.68    1.80
   3  -6   9   56.24    3.44
   4  -6   9    1.25    0.86
   4  -6   9   -2.28    1.18
   0  -5   9   -0.87    1.44
   1  -5   9   51.93    3.56
   2  -5   9   29.03    2.80
   3  -5   9   23.38    2.51
   4  -5   9   -0.79    1.12
   4  -5   9    0.29    0.84
   5  -5   9   66.99    3.02
   6  -5   9    3.92    1.03
   1  -4   9   30.39    2.89
   2  -4   9   51.38    3.28
   3  -4   9   25.94    2.53
   4  -4   9   31.91    2.09
   4  -4   9   26.47    2.32
   5  -4   9    3.69    1.01
   6  -4   9   15.53    1.56
   1  -3   9   26.18    2.73
   2  -3   9  100.25    4.46
   3  -3   9    1.94    1.17
   4  -3   9   64.27    2.90
   4  -3   9   62.01    3.21
   5  -3   9    0.68    0.79
   2  -2   9  156.69    5.84
   3  -2   9   32.76    2.54
   4  -2   9   16.84    1.54
   2   0  -9   15.51    0.92
   1   0  -9   35.93    1.39
   0   0  -9    2.40    0.40
  -1   0  -9   25.84    1.10
   4  -1  -9   58.56    2.22
   3  -1  -9    8.84    0.83
   2  -1  -9   86.43    2.75
   1  -1  -9  112.95    3.40
   0  -1  -9  204.31    5.86
  -1  -1  -9   18.63    0.89
  -2  -1  -9   20.21    1.84
  -2  -1  -9   19.25    0.95
  -3  -1  -9   13.50    0.88
  -9  -1  -9    6.20    2.72
   5  -2  -9   26.96    1.53
   4  -2  -9   15.45    1.09
   3  -2  -9    0.04    0.41
   3  -2  -9    0.24    0.41
   2  -2  -9   55.30    1.97
   2  -2  -9   56.32    1.92
   1  -2  -9   25.16    1.13
   1  -2  -9   26.02    1.07
   0  -2  -9    6.61    0.57
  -1  -2  -9   24.26    1.03
  -2  -2  -9   19.73    1.73
  -2  -2  -9   17.95    0.93
  -3  -2  -9    4.00    0.52
  -3  -2  -9    5.50    1.39
  -4  -2  -9   11.05    1.96
  -4  -2  -9   10.77    0.90
  -5  -2  -9    7.58    2.03
  -6  -2  -9    2.72    1.90
  -7  -2  -9   58.84    4.56
  -8  -2  -9    0.43    2.25
  -9  -2  -9   33.85    4.27
   5  -3  -9   10.90    1.10
   4  -3  -9   32.60    1.61
   4  -3  -9   34.97    1.54
   3  -3  -9   78.76    2.61
   3  -3  -9   78.95    2.75
   2  -3  -9   27.17    1.25
   2  -3  -9   27.00    1.15
   1  -3  -9    6.28    0.58
   1  -3  -9    5.23    0.60
   0  -3  -9   64.25    2.07
  -1  -3  -9   64.34    2.09
  -2  -3  -9   62.95    2.09
  -3  -3  -9   16.01    1.81
  -3  -3  -9   16.39    0.97
  -4  -3  -9   21.63    1.18
  -4  -3  -9   23.18    2.53
  -5  -3  -9  113.23    5.32
  -5  -3  -9  109.06    3.67
  -6  -3  -9   79.70    4.91
  -7  -3  -9   19.36    3.36
  -8  -3  -9   20.76    3.57
  -9  -3  -9   30.36    4.22
   5  -4  -9   24.94    1.45
   5  -4  -9   23.95    1.57
   4  -4  -9    0.65    0.59
   4  -4  -9    0.26    0.50
   3  -4  -9   29.08    1.45
   3  -4  -9   28.55    1.30
   2  -4  -9    6.38    0.72
   2  -4  -9    6.15    0.65
   1  -4  -9   15.83    0.83
   1  -4  -9   17.22    1.00
   0  -4  -9    6.81    0.60
  -1  -4  -9    0.66    0.34
  -2  -4  -9    4.81    0.53
  -3  -4  -9    2.47    0.50
  -4  -4  -9  139.05    5.59
  -4  -4  -9  143.52    4.40
  -5  -4  -9    3.01    0.63
  -5  -4  -9    5.83    1.87
  -6  -4  -9   59.36    4.28
  -6  -4  -9   61.76    2.62
  -7  -4  -9   17.56    3.18
  -8  -4  -9   74.14    5.50
   5  -5  -9   21.96    1.57
   4  -5  -9   32.64    1.52
   4  -5  -9   33.04    1.74
   3  -5  -9   11.23    1.03
   3  -5  -9   11.41    0.86
   2  -5  -9    1.78    0.57
   2  -5  -9    2.97    0.49
   1  -5  -9    2.73    0.56
   1  -5  -9    4.48    0.51
   0  -5  -9   25.26    1.05
  -1  -5  -9   13.50    0.80
  -2  -5  -9   70.79    2.35
  -3  -5  -9   28.16    1.30
  -4  -5  -9   34.10    1.56
  -5  -5  -9    0.68    0.54
  -5  -5  -9   -0.95    1.47
  -6  -5  -9  105.05    3.79
  -6  -5  -9   98.85    5.39
  -7  -5  -9   25.79    3.48
  -8  -5  -9   20.18    3.42
   4  -6  -9    6.79    1.05
   3  -6  -9    5.55    0.88
   3  -6  -9    6.96    0.75
   2  -6  -9   54.41    2.20
   2  -6  -9   54.99    1.87
   1  -6  -9    7.29    0.84
   1  -6  -9    7.78    0.67
   0  -6  -9    1.74    0.44
  -1  -6  -9    2.33    0.47
  -2  -6  -9   34.71    1.46
  -3  -6  -9  101.92    3.34
  -4  -6  -9   31.72    1.64
  -5  -6  -9   83.80    3.17
  -6  -6  -9   29.76    1.98
  -7  -6  -9   33.76    2.35
  -7  -6  -9   38.82    4.16
  -8  -6  -9    8.06    2.93
   3  -7  -9   15.83    1.31
   2  -7  -9    1.07    0.63
   2  -7  -9    2.44    0.50
   1  -7  -9    9.10    0.99
   1  -7  -9    9.15    0.72
   0  -7  -9   -0.62    0.36
  -1  -7  -9   75.74    2.53
  -2  -7  -9   14.74    1.03
  -3  -7  -9   14.18    1.22
  -4  -7  -9   -0.59    0.63
  -5  -7  -9   51.60    2.54
  -6  -7  -9    2.66    0.95
  -7  -7  -9   14.68    1.71
   2  -8  -9    1.84    0.79
   0  -8  -9    7.90    0.82
  -1  -8  -9   11.41    0.98
  -2  -8  -9    4.18    0.79
  -3  -8  -9  108.34    3.80
  -4  -8  -9   52.43    2.54
  -5  -8  -9   10.02    1.36
   3  -6  10   16.58    2.37
   3  -5  10    3.39    1.49
   4  -5  10    0.74    0.94
   3  -1 -10   68.24    2.41
   2  -1 -10    3.70    0.58
   1  -1 -10    3.22    0.50
   0  -1 -10    0.75    0.36
  -1  -1 -10   82.78    2.65
  -2  -1 -10   63.14    2.17
   4  -2 -10    0.42    0.58
   3  -2 -10    9.04    0.87
   2  -2 -10   13.54    0.90
   1  -2 -10   82.78    2.64
   0  -2 -10   15.54    0.87
  -1  -2 -10    3.20    0.46
  -2  -2 -10    1.56    0.43
  -3  -2 -10  102.33    3.28
  -4  -2 -10  138.23    4.38
  -4  -2 -10  141.71    5.69
  -5  -2 -10   27.70    2.97
  -6  -2 -10    2.99    2.00
  -7  -2 -10   63.48    4.78
  -8  -2 -10    1.09    2.43
   5  -3 -10   54.15    2.28
   4  -3 -10    4.64    0.79
   3  -3 -10   19.29    1.11
   2  -3 -10    3.74    0.57
   2  -3 -10    2.57    0.55
   1  -3 -10    0.51    0.35
   0  -3 -10   23.92    1.07
  -1  -3 -10    2.25    0.44
  -2  -3 -10  103.05    3.22
  -3  -3 -10    1.37    0.47
  -4  -3 -10   43.53    1.80
  -4  -3 -10   42.19    3.13
  -5  -3 -10   17.80    2.59
  -6  -3 -10   74.26    4.71
  -7  -3 -10    3.19    2.43
  -8  -3 -10    2.32    2.63
   4  -4 -10    6.77    0.97
   4  -4 -10    9.26    0.95
   3  -4 -10    8.13    0.92
   3  -4 -10    7.63    0.79
   2  -4 -10   36.68    1.59
   2  -4 -10   34.76    1.42
   1  -4 -10    8.03    0.69
   1  -4 -10    8.24    0.83
   0  -4 -10    7.69    0.67
  -1  -4 -10   29.53    1.23
  -2  -4 -10   42.88    1.63
  -3  -4 -10   51.23    1.94
  -4  -4 -10   55.79    2.16
  -4  -4 -10   58.63    3.47
  -5  -4 -10   12.00    1.24
  -5  -4 -10   15.59    2.39
  -6  -4 -10    3.04    1.97
  -7  -4 -10   -0.15    2.01
  -8  -4 -10    3.56    2.65
   4  -5 -10    7.89    1.06
   3  -5 -10    7.25    0.77
   3  -5 -10    7.86    0.94
   2  -5 -10    5.16    0.77
   2  -5 -10    5.64    0.64
   1  -5 -10    0.74    0.51
   1  -5 -10    1.90    0.48
   0  -5 -10   19.10    0.97
  -1  -5 -10   51.93    1.86
  -2  -5 -10    3.96    0.59
  -3  -5 -10   15.49    1.06
  -4  -5 -10   20.11    1.24
  -5  -5 -10   41.29    3.40
  -5  -5 -10   43.06    2.03
  -6  -5 -10    2.21    0.79
  -6  -5 -10    2.52    2.01
  -7  -5 -10   21.76    3.34
  -8  -5 -10    5.65    2.67
   4  -6 -10   -0.35    0.71
   3  -6 -10    1.24    0.70
   2  -6 -10    0.28    0.59
   2  -6 -10    0.30    0.43
   1  -6 -10   57.63    2.29
   1  -6 -10   56.81    1.97
   0  -6 -10   77.28    2.52
  -1  -6 -10   21.95    1.11
  -2  -6 -10   10.08    0.91
  -3  -6 -10   83.32    2.89
  -4  -6 -10   32.00    1.72
  -5  -6 -10    0.05    0.66
  -6  -6 -10    0.57    0.78
   2  -7 -10   17.09    1.33
   1  -7 -10    0.22    0.41
   0  -7 -10    5.44    0.66
  -1  -7 -10   13.19    1.02
  -2  -7 -10   27.30    1.42
  -3  -7 -10    2.09    0.73
  -4  -7 -10    5.64    0.95
  -5  -7 -10   16.96    1.67
  -6  -7 -10   30.22    2.20
  -7  -7 -10    2.54    1.18
  -1  -8 -10    4.61    0.78
  -2  -8 -10   41.49    1.96
  -3  -8 -10    0.36    0.85
  -4  -8 -10   23.08    1.94
  -8  -1 -11    1.24    2.44
   3  -2 -11   -0.23    0.49
   2  -2 -11   22.85    1.19
   1  -2 -11    6.36    0.66
   0  -2 -11   46.74    1.73
  -1  -2 -11   34.38    1.41
  -2  -2 -11   37.60    1.55
  -3  -2 -11    1.12    0.51
  -5  -2 -11    1.82    1.86
  -6  -2 -11   -0.38    2.03
  -7  -2 -11   -0.99    2.17
  -8  -2 -11    6.80    2.89
   4  -3 -11   14.57    1.23
   3  -3 -11   50.19    1.96
   2  -3 -11    9.93    0.85
   1  -3 -11   39.67    1.55
   0  -3 -11   79.21    2.58
  -1  -3 -11   86.91    2.81
  -2  -3 -11   21.76    1.13
  -3  -3 -11   50.67    1.97
  -4  -3 -11    4.21    0.70
  -5  -3 -11   36.86    3.42
  -6  -3 -11    1.63    2.02
  -7  -3 -11   18.94    3.19
  -8  -3 -11   15.34    3.36
   3  -4 -11   13.79    1.03
   2  -4 -11    0.52    0.55
   2  -4 -11    1.05    0.47
   1  -4 -11   64.73    2.21
   0  -4 -11   20.22    1.04
  -1  -4 -11   23.64    1.15
  -2  -4 -11   16.36    1.00
  -3  -4 -11   40.76    1.72
  -4  -4 -11    0.91    0.58
  -5  -4 -11    0.13    0.61
  -5  -4 -11    0.62    1.66
  -6  -4 -11    1.98    2.00
  -7  -4 -11    5.23    2.44
  -8  -4 -11   15.92    3.29
   3  -5 -11   58.13    2.41
   3  -5 -11   57.76    2.16
   2  -5 -11   22.96    1.37
   2  -5 -11   22.07    1.18
   1  -5 -11   42.41    1.65
   0  -5 -11    0.89    0.43
  -1  -5 -11  114.03    3.58
  -2  -5 -11   79.33    2.70
  -3  -5 -11    3.83    0.69
  -4  -5 -11    6.02    0.83
  -5  -5 -11    5.89    0.90
  -6  -5 -11   48.24    4.02
  -7  -5 -11   15.62    3.00
   3  -6 -11   -1.05    0.64
   2  -6 -11   30.58    1.41
   2  -6 -11   32.34    1.70
   1  -6 -11    2.92    0.59
   0  -6 -11   41.24    1.63
  -1  -6 -11    0.25    0.44
  -2  -6 -11    0.82    0.62
  -3  -6 -11    5.19    0.82
  -4  -6 -11    1.85    0.72
  -5  -6 -11   22.16    1.66
  -6  -6 -11   -0.01    0.84
   0  -7 -11   32.78    1.48
  -1  -7 -11    2.26    0.59
  -2  -7 -11   16.98    1.26
  -3  -7 -11    5.40    0.88
  -4  -7 -11   -0.57    0.77
  -5  -7 -11   10.07    1.24
  -6  -7 -11    0.13    0.86
  -6  -1 -12    8.50    2.53
  -8  -1 -12    5.07    2.86
   1  -2 -12   33.95    1.50
   0  -2 -12   20.53    1.12
  -1  -2 -12   11.25    0.88
  -7  -2 -12   13.79    3.08
  -8  -2 -12   15.75    3.42
   3  -3 -12   77.85    2.77
   2  -3 -12    5.06    0.73
   1  -3 -12    1.09    0.48
   0  -3 -12    0.38    0.42
  -1  -3 -12    1.71    0.47
  -2  -3 -12   37.93    1.62
  -3  -3 -12   11.77    1.06
  -7  -3 -12   -1.58    2.16
  -8  -3 -12   26.85    3.98
   3  -4 -12    9.46    0.96
   2  -4 -12    0.30    0.48
   1  -4 -12   26.69    1.30
   0  -4 -12    4.95    0.66
  -1  -4 -12    0.77    0.46
  -2  -4 -12    0.68    0.46
  -3  -4 -12    0.64    0.58
  -4  -4 -12   65.86    2.57
  -7  -4 -12    2.62    2.54
   2  -5 -12    9.51    0.96
   1  -5 -12   16.41    1.06
   0  -5 -12    0.20    0.45
  -1  -5 -12   15.69    1.04
  -2  -5 -12    5.96    0.78
  -3  -5 -12   69.70    2.60
  -4  -5 -12    8.73    0.98
  -5  -5 -12   26.59    1.79
   0  -6 -12    0.63    0.50
  -1  -6 -12    6.89    0.81
  -2  -6 -12    2.99    0.77
  -3  -6 -12   39.84    1.88
  -4  -6 -12    1.49    0.78
  -5  -6 -12   63.54    2.85
  -6  -6 -12    0.42    0.92
  -2  -7 -12   36.61    1.82
  -3  -7 -12    2.11    0.84
  -4  -7 -12   34.46    2.07
   1  -3 -13   18.95    1.19
  -1  -3 -13    1.23    0.52
   1  -4 -13   31.84    1.50
   0  -4 -13    4.13    0.69
  -1  -4 -13   83.96    2.88
  -2  -4 -13    0.96    0.53
  -3  -4 -13   44.52    1.99
   0  -5 -13    0.59    0.51
  -1  -5 -13   28.53    1.44
  -2  -5 -13    0.75    0.54
  -3  -5 -13   24.26    1.49
  -4  -5 -13    2.70    0.84
  -1  -6 -13    1.50    0.59
  -2  -6 -13    5.47    0.90
  -3  -6 -13   15.86    1.38
  -5  -6 -13    0.19    0.93
   0  -4 -14   23.94    1.39
  -1  -4 -14    6.92    0.86
  -1  -5 -14    0.92    0.58
  -2  -5 -14   26.77    1.55
   0   0   0    0.00    0.00
;
_shelx_hkl_checksum              71277
loop_
_space_group_symop_operation_xyz
'x, y, z'
'-x, -y, -z'
loop_
_atom_site_label
_atom_site_type_symbol
_atom_site_fract_x
_atom_site_fract_y
_atom_site_fract_z
_atom_site_U_iso_or_equiv
_atom_site_adp_type
_atom_site_occupancy
_atom_site_site_symmetry_order
_atom_site_calc_flag
_atom_site_refinement_flags_posn
_atom_site_refinement_flags_adp
_atom_site_refinement_flags_occupancy
_atom_site_disorder_assembly
_atom_site_disorder_group
Te1 Te 0.23287(5) 0.37890(5) 0.79307(4) 0.01033(12) Uani 1 1 d . . . . .
Cu1 Cu 0.02767(11) 0.88862(10) 0.86317(8) 0.01332(17) Uani 1 1 d . . . . .
Cu2 Cu -0.31809(11) 0.55052(10) 0.85980(8) 0.01336(16) Uani 1 1 d . . . . .
Cu3 Cu -0.1881(2) 1.14723(19) 0.59232(12) 0.0485(3) Uani 1 1 d . . . . .
Cl1 Cl -0.3857(2) 0.9873(2) 0.81501(17) 0.0213(3) Uani 1 1 d . . . . .
Cl2 Cl 0.2049(3) 0.9748(2) 0.62079(17) 0.0228(3) Uani 1 1 d . . . . .
Cl3 Cl -0.2716(3) 0.5119(2) 0.61702(17) 0.0228(3) Uani 1 1 d . . . . .
O1 O -0.0108(6) 0.5997(6) 0.8339(5) 0.0141(8) Uani 1 1 d . . . . .
O2 O 0.0704(6) 0.1639(6) 0.9182(4) 0.0145(8) Uani 1 1 d . . . . .
O3 O 0.3778(6) 0.4725(6) 0.9204(5) 0.0144(8) Uani 1 1 d . . . . .
loop_
_atom_site_aniso_label
_atom_site_aniso_U_11
_atom_site_aniso_U_22
_atom_site_aniso_U_33
_atom_site_aniso_U_23
_atom_site_aniso_U_13
_atom_site_aniso_U_12
Te1 0.00717(17) 0.01188(15) 0.0129(2) -0.00278(12) -0.00190(13) -0.00327(10)
Cu1 0.0143(3) 0.0116(3) 0.0151(4) -0.0030(2) -0.0026(3) -0.0046(2)
Cu2 0.0072(3) 0.0185(3) 0.0159(4) -0.0040(3) -0.0027(2) -0.0043(2)
Cu3 0.0692(8) 0.0436(6) 0.0316(6) -0.0122(5) -0.0044(5) -0.0078(5)
Cl1 0.0181(7) 0.0200(6) 0.0237(8) -0.0021(5) -0.0041(6) 0.0015(5)
Cl2 0.0252(7) 0.0294(7) 0.0159(7) -0.0056(6) -0.0006(6) -0.0130(5)
Cl3 0.0247(7) 0.0274(6) 0.0172(7) -0.0055(6) -0.0018(6) -0.0087(5)
O1 0.0072(15) 0.0143(15) 0.022(2) -0.0038(14) -0.0047(14) -0.0014(12)
O2 0.0159(19) 0.0122(15) 0.015(2) -0.0009(14) -0.0003(16) -0.0075(13)
O3 0.0075(16) 0.0207(17) 0.019(2) -0.0049(16) -0.0053(15) -0.0067(13)
loop_
_atom_type_symbol
_atom_type_description
_atom_type_scat_dispersion_real
_atom_type_scat_dispersion_imag
_atom_type_scat_source
O O 0.0106 0.0060 'International Tables Vol C Tables 4.2.6.8 and 6.1.1.4'
Cl Cl 0.1484 0.1585 'International Tables Vol C Tables 4.2.6.8 and 6.1.1.4'
Cu Cu 0.3201 1.2651 'International Tables Vol C Tables 4.2.6.8 and 6.1.1.4'
Te Te -0.5308 1.6751 'International Tables Vol C Tables 4.2.6.8 and 6.1.1.4'
loop_
_geom_angle_atom_site_label_1
_geom_angle_atom_site_label_2
_geom_angle_atom_site_label_3
_geom_angle
_geom_angle_site_symmetry_1
_geom_angle_site_symmetry_3
O3 Te1 O2 102.55(18) . .
O3 Te1 O1 91.87(16) . .
O2 Te1 O1 91.88(17) . .
O1 Cu1 O2 172.64(18) . 1_565
O1 Cu1 O2 94.57(16) . 2_567
O2 Cu1 O2 78.70(18) 1_565 2_567
O1 Cu1 Cl2 93.18(13) . .
O2 Cu1 Cl2 92.98(13) 1_565 .
O2 Cu1 Cl2 167.79(13) 2_567 .
O1 Cu1 Cl1 82.71(11) . .
O2 Cu1 Cl1 100.76(12) 1_565 .
O2 Cu1 Cl1 95.36(12) 2_567 .
Cl2 Cu1 Cl1 94.97(6) . .
O1 Cu1 Cu1 133.47(13) . 2_577
O2 Cu1 Cu1 39.74(12) 1_565 2_577
O2 Cu1 Cu1 38.96(10) 2_567 2_577
Cl2 Cu1 Cu1 132.10(5) . 2_577
Cl1 Cu1 Cu1 100.41(4) . 2_577
O1 Cu2 O3 169.72(18) . 1_455
O1 Cu2 O3 93.09(16) . 2_567
O3 Cu2 O3 77.81(17) 1_455 2_567
O1 Cu2 Cl3 93.00(13) . .
O3 Cu2 Cl3 95.25(12) 1_455 .
O3 Cu2 Cl3 168.97(12) 2_567 .
O1 Cu2 Cl1 82.93(11) . .
O3 Cu2 Cl1 102.51(12) 1_455 .
O3 Cu2 Cl1 95.52(11) 2_567 .
Cl3 Cu2 Cl1 94.35(6) . .
Cl2 Cu3 Cl3 120.21(8) 2_576 1_565
Cl2 Cu3 Cl1 118.41(8) 2_576 .
Cl3 Cu3 Cl1 102.19(6) 1_565 .
Cl2 Cu3 Cl2 101.38(6) 2_576 .
Cl3 Cu3 Cl2 115.34(8) 1_565 .
Cl1 Cu3 Cl2 97.56(7) . .
Cu3 Cl1 Cu2 115.42(6) . .
Cu3 Cl1 Cu1 80.84(6) . .
Cu2 Cl1 Cu1 74.87(4) . .
Cu3 Cl2 Cu1 132.11(8) 2_576 .
Cu3 Cl2 Cu3 78.62(6) 2_576 .
Cu1 Cl2 Cu3 83.68(6) . .
Cu2 Cl3 Cu3 108.39(8) . 1_545
Te1 O1 Cu1 122.1(2) . .
Te1 O1 Cu2 123.06(19) . .
Cu1 O1 Cu2 114.79(16) . .
Te1 O2 Cu1 125.7(2) . 1_545
Te1 O2 Cu1 131.19(19) . 2_567
Cu1 O2 Cu1 101.30(18) 1_545 2_567
Te1 O3 Cu2 123.8(2) . 1_655
Te1 O3 Cu2 132.3(2) . 2_567
Cu2 O3 Cu2 102.19(17) 1_655 2_567
loop_
_geom_bond_atom_site_label_1
_geom_bond_atom_site_label_2
_geom_bond_distance
_geom_bond_site_symmetry_2
Te1 O3 1.880(4) .
Te1 O2 1.884(4) .
Te1 O1 1.893(3) .
Cu1 O1 1.931(4) .
Cu1 O2 1.951(3) 1_565
Cu1 O2 1.983(4) 2_567
Cu1 Cl2 2.2919(18) .
Cu1 Cl1 2.6911(17) .
Cu1 Cu1 3.0420(14) 2_577
Cu2 O1 1.942(4) .
Cu2 O3 1.959(4) 1_455
Cu2 O3 1.993(4) 2_567
Cu2 Cl3 2.2775(17) .
Cu2 Cl1 2.6758(17) .
Cu3 Cl2 2.2886(17) 2_576
Cu3 Cl3 2.2925(19) 1_565
Cu3 Cl1 2.311(2) .
Cu3 Cl2 2.579(2) .
Cl2 Cu3 2.2886(18) 2_576
Cl3 Cu3 2.2925(19) 1_545
O2 Cu1 1.951(3) 1_545
O2 Cu1 1.983(4) 2_567
O3 Cu2 1.959(4) 1_655
O3 Cu2 1.993(4) 2_567
