#------------------------------------------------------------------------------
#$Date: 2021-03-30 11:56:23 +0300 (Tue, 30 Mar 2021) $
#$Revision: 263439 $
#$URL: file:///home/coder/svn-repositories/cod/cif/1/56/13/1561361.cif $
#------------------------------------------------------------------------------
#
# This file is available in the Crystallography Open Database (COD),
# http://www.crystallography.net/
#
# All data on this site have been placed in the public domain by the
# contributors.
#
data_1561361
loop_
_publ_author_name
'Iyer, Abishek K.'
'Yin, Wenlong'
'Rudyk, Brent W.'
'Lin, Xinsong'
'Nilges, Tom'
'Mar, Arthur'
_publ_section_title
;
 Metal ion displacements in noncentrosymmetric chalcogenides La3Ga1.67S7,
 La3Ag0.6GaCh7 (Ch=S, Se), and La3MGaSe7 (M=Zn, Cd)
;
_journal_name_full               'Journal of Solid State Chemistry'
_journal_page_first              221
_journal_page_last               231
_journal_paper_doi               10.1016/j.jssc.2016.08.031
_journal_volume                  243
_journal_year                    2016
_chemical_absolute_configuration ad
_chemical_formula_structural     'La3 Ag0.60 Ga S7'
_chemical_formula_sum            'Ag0.6 Ga La3 S7'
_chemical_formula_weight         775.59
_chemical_name_common
'lanthanum silver gallium sulphide (3/0.6/1/7)'
_chemical_name_systematic
'lanthanum silver gallium sulphide (3/0.6/1/7)'
_space_group_crystal_system      hexagonal
_space_group_IT_number           173
_space_group_name_Hall           'P 6c'
_space_group_name_H-M_alt        'P 63'
_atom_sites_solution_hydrogens   .
_audit_creation_method           SHELXL-2014/7
_cell_angle_alpha                90
_cell_angle_beta                 90
_cell_angle_gamma                120
_cell_formula_units_Z            2
_cell_length_a                   10.2290(8)
_cell_length_b                   10.2290(8)
_cell_length_c                   6.0529(5)
_cell_measurement_reflns_used    8817
_cell_measurement_temperature    296(2)
_cell_measurement_theta_max      32.62
_cell_measurement_theta_min      2.30
_cell_volume                     548.48(8)
_computing_cell_refinement       'Bruker SAINT 8.34A (Bruker, 2013)'
_computing_data_collection       'Bruker APEX 2 (Bruker, 2008)'
_computing_data_reduction        'Bruker SAINT 8.34A'
_computing_molecular_graphics    'ATOMS 5.1 (Dowty, 1999)'
_computing_publication_material  'SHELXL-2014/7 (Sheldrick, 2014)'
_computing_structure_refinement  'SHELXL-2014/7 (Sheldrick, 2014)'
_computing_structure_solution    'SHELXS-97 (Sheldrick, 2008)'
_diffrn_ambient_temperature      296(2)
_diffrn_measured_fraction_theta_full 1.000
_diffrn_measured_fraction_theta_max 0.997
_diffrn_measurement_device_type  'Bruker PLATFORM/SMART APEX II CCD'
_diffrn_measurement_method       '\w and \f scans'
_diffrn_radiation_type           MoK\a
_diffrn_radiation_wavelength     0.71073
_diffrn_reflns_av_R_equivalents  0.0246
_diffrn_reflns_av_unetI/netI     0.0163
_diffrn_reflns_Laue_measured_fraction_full 1.000
_diffrn_reflns_Laue_measured_fraction_max 0.997
_diffrn_reflns_limit_h_max       15
_diffrn_reflns_limit_h_min       -15
_diffrn_reflns_limit_k_max       15
_diffrn_reflns_limit_k_min       -15
_diffrn_reflns_limit_l_max       9
_diffrn_reflns_limit_l_min       -9
_diffrn_reflns_number            7971
_diffrn_reflns_point_group_measured_fraction_full 1.000
_diffrn_reflns_point_group_measured_fraction_max 0.998
_diffrn_reflns_theta_full        25.242
_diffrn_reflns_theta_max         32.962
_diffrn_reflns_theta_min         2.299
_diffrn_source                   'fine-focus sealed tube'
_exptl_absorpt_coefficient_mu    16.183
_exptl_absorpt_correction_T_max  0.444
_exptl_absorpt_correction_T_min  0.306
_exptl_absorpt_correction_type   numerical
_exptl_absorpt_process_details   'SHELXL-2014/7 (Sheldrick, 2014)'
_exptl_crystal_colour            yellow
_exptl_crystal_density_diffrn    4.696
_exptl_crystal_description       irregular
_exptl_crystal_F_000             684
_exptl_crystal_size_max          0.117
_exptl_crystal_size_mid          0.088
_exptl_crystal_size_min          0.079
_refine_diff_density_max         1.310
_refine_diff_density_min         -1.475
_refine_diff_density_rms         0.165
_refine_ls_abs_structure_details
;
 Refined as an inversion twin.
;
_refine_ls_abs_structure_Flack   0.01(2)
_refine_ls_extinction_coef       0.0118(5)
_refine_ls_extinction_expression Fc^*^=kFc[1+0.001xFc^2^\l^3^/sin(2\q)]^-1/4^
_refine_ls_extinction_method     'SHELXL-2014/7 (Sheldrick 2014'
_refine_ls_goodness_of_fit_ref   1.093
_refine_ls_hydrogen_treatment    undef
_refine_ls_matrix_type           full
_refine_ls_number_parameters     41
_refine_ls_number_reflns         1380
_refine_ls_number_restraints     1
_refine_ls_restrained_S_all      1.092
_refine_ls_R_factor_all          0.0184
_refine_ls_R_factor_gt           0.0175
_refine_ls_shift/su_max          0.000
_refine_ls_shift/su_mean         0.000
_refine_ls_structure_factor_coef Fsqd
_refine_ls_weighting_details
'w=1/[\s^2^(Fo^2^)+(0.0157P)^2^+1.3410P] where P=(Fo^2^+2Fc^2^)/3'
_refine_ls_weighting_scheme      calc
_refine_ls_wR_factor_gt          0.0391
_refine_ls_wR_factor_ref         0.0397
_reflns_Friedel_coverage         0.851
_reflns_Friedel_fraction_full    1.000
_reflns_Friedel_fraction_max     0.998
_reflns_number_gt                1332
_reflns_number_total             1380
_reflns_threshold_expression     'I > 2\s(I)'
_cod_data_source_file            mmc8.cif
_cod_data_source_block           2
_cod_original_cell_volume        548.48(10)
_cod_original_formula_sum        'Ag0.60 Ga La3 S7'
_cod_database_code               1561361
_shelx_shelxl_version_number     2014/7
_shelx_space_group_comment
;
The symmetry employed for this shelxl refinement is uniquely defined
by the following loop, which should always be used as a source of
symmetry information in preference to the above space-group names.
They are only intended as comments.
;
_shelx_estimated_absorpt_t_min   0.253
_shelx_estimated_absorpt_t_max   0.361
_shelx_res_file
;

    p63.res created by SHELXL-2014/7

TITL La3Ag0.6GaS7 P6(3) lsf final refinement
CELL 0.71073  10.22900  10.22900   6.05290  90.0000  90.0000 120.0000
ZERR    2.00   0.00080   0.00080   0.00050   0.0000   0.0000   0.0000
LATT -1
SYMM -Y, X-Y, Z
SYMM -X+Y, -X, Z
SYMM -X, -Y, 0.5+Z
SYMM Y, -X+Y, 0.5+Z
SYMM X-Y, X, 0.5+Z
SFAC S GA AG LA
UNIT 14 2 1.2 6
TEMP 23
SIZE 0.079 0.088 0.117

L.S. 4
ACTA

TWIN

EADP AGA AGB
WGHT    0.015700    1.341000
EXTI    0.011777
BASF   0.00653
FVAR       0.14019   0.60518
LA    4    0.139544    0.374751    0.420194    11.00000    0.01234    0.00956 =
         0.02240   -0.00166   -0.00299    0.00555
AGA   3    0.000000    0.000000    0.000000    20.20000    0.01741    0.01741 =
         0.14905    0.00000    0.00000    0.00870
AGB   3    0.000000    0.000000    0.209648   -20.20000    0.01741    0.01741 =
         0.14905    0.00000    0.00000    0.00870
GA    2    0.333333    0.666667    0.839557    10.33333    0.01316    0.01316 =
         0.00859    0.00000    0.00000    0.00658
S1    1    0.243980    0.151709    0.450949    11.00000    0.03832    0.02333 =
         0.03814   -0.01412   -0.01478    0.02376
S2    1    0.518347    0.099001    0.191402    11.00000    0.01279    0.01144 =
         0.01178    0.00101    0.00122    0.00298
S3    1    0.333333    0.666667    0.208511    10.33333    0.01416    0.01416 =
         0.00666    0.00000    0.00000    0.00708
HKLF 4

REM  La3Ag0.6GaS7 P6(3) lsf final refinement
REM R1 =  0.0175 for    1332 Fo > 4sig(Fo)  and  0.0184 for all    1380 data
REM     41 parameters refined using      1 restraints

END

WGHT      0.0157      1.3410

REM Highest difference peak  1.310,  deepest hole -1.475,  1-sigma level  0.165
Q1    1   0.0000  0.0000  0.3291  10.33333  0.05    1.06
Q2    1   0.1755  0.4159  0.3400  11.00000  0.05    0.78
Q3    1   0.2114  0.1373  0.5374  11.00000  0.05    0.77
Q4    1   0.2071  0.4054  0.4862  11.00000  0.05    0.67
Q5    1   0.1112  0.3040  0.5532  11.00000  0.05    0.62
Q6    1   0.1938  0.1369  0.3555  11.00000  0.05    0.62
Q7    1   0.1530  0.3108  0.4685  11.00000  0.05    0.61
Q8    1   0.1011  0.2960  0.3052  11.00000  0.05    0.60
Q9    1   0.1179  0.4284  0.3779  11.00000  0.05    0.57
Q10   1   0.2174  0.3831  0.3629  11.00000  0.05    0.57
Q11   1  -0.1602 -0.0273  0.2559  11.00000  0.05    0.55
Q12   1   0.0376  0.3313  0.3841  11.00000  0.05    0.52
Q13   1   0.4567  0.6353  0.9252  11.00000  0.05    0.50
Q14   1  -0.1182 -0.1471  0.0801  11.00000  0.05    0.46
Q15   1   0.1301  0.4323  0.4733  11.00000  0.05    0.46
Q16   1   0.3850  0.0261  0.3347  11.00000  0.05    0.46
Q17   1   0.1818  0.2748  0.2828  11.00000  0.05    0.44
Q18   1   0.0552  0.3039  0.4707  11.00000  0.05    0.44
Q19   1   0.2613  0.6475  0.7595  11.00000  0.05    0.44
Q20   1   0.1437  0.0133  0.2514  11.00000  0.05    0.44
;
_shelx_res_checksum              70615
_shelx_hkl_file
;
   0  -3  -9   16.31    3.20
   1  -3  -9    7.81    2.21
   2  -3  -9   10.29    2.50
   3  -3  -9   18.98    2.38
  -1  -2  -9   11.59    2.83
   0  -2  -9   20.46    2.49
   1  -2  -9   10.67    1.91
   2  -2  -9   19.20    2.66
   3  -2  -9   10.24    1.79
  -2  -1  -9    9.61    2.58
  -1  -1  -9    9.09    1.75
   0  -1  -9    5.53    1.52
   1  -1  -9    5.32    1.51
   2  -1  -9    7.68    1.67
   3  -1  -9   12.74    2.04
  -3   0  -9   20.75    3.67
  -2   0  -9   19.75    2.54
  -1   0  -9    7.12    1.61
   0   0  -9   -0.35    0.75
   1   0  -9    7.12    1.69
   2   0  -9   17.23    2.44
  -1   1  -9    6.07    1.51
   0   1  -9    5.88    1.52
   1   1  -9    8.17    1.74
   2   1  -9    6.54    2.27
   0   2  -9   14.41    3.12
   1   2  -9   13.44    3.08
   1  -7  -8    1.00    1.18
   2  -7  -8   16.02    3.05
   3  -7  -8    9.43    1.80
   4  -7  -8   52.31    3.45
   5  -7  -8    7.71    1.75
   0  -6  -8   10.07    2.74
   1  -6  -8   71.35    3.91
   2  -6  -8    7.41    1.60
   3  -6  -8   35.44    3.16
   4  -6  -8    4.53    1.25
   5  -6  -8    3.33    1.16
   6  -6  -8    9.40    1.81
  -1  -5  -8    2.76    1.67
   0  -5  -8   14.07    3.15
   1  -5  -8   22.25    2.51
   2  -5  -8   15.71    2.13
   3  -5  -8    2.87    1.11
   4  -5  -8   45.29    3.35
   5  -5  -8   15.43    2.21
   6  -5  -8   67.88    3.94
  -3  -4  -8   53.47    4.57
  -2  -4  -8    3.89    1.23
  -1  -4  -8   39.87    3.39
   0  -4  -8    6.74    1.50
   1  -4  -8   14.16    1.49
   2  -4  -8   21.92    1.99
   3  -4  -8   33.18    2.49
   4  -4  -8   12.43    1.99
   5  -4  -8   19.35    2.41
   6  -4  -8    5.26    1.40
   7  -4  -8    9.71    1.81
  -4  -3  -8   10.30    1.70
  -3  -3  -8   29.38    2.91
  -2  -3  -8    1.49    0.86
  -1  -3  -8   33.33    3.09
   0  -3  -8   16.00    2.14
   1  -3  -8    5.94    1.10
   2  -3  -8   66.90    2.95
   3  -3  -8   18.05    1.87
   4  -3  -8   11.56    1.48
   5  -3  -8   16.65    1.80
   6  -3  -8   34.42    2.64
   7  -3  -8   48.20    3.46
  -5  -2  -8   19.01    2.41
  -4  -2  -8    3.82    1.21
  -3  -2  -8   11.11    1.82
  -2  -2  -8   23.66    2.60
  -1  -2  -8   67.36    3.71
   0  -2  -8    7.23    1.46
   1  -2  -8   36.16    2.55
   2  -2  -8    3.92    0.97
   3  -2  -8    3.06    0.82
   4  -2  -8   21.60    2.53
   5  -2  -8    1.75    0.92
   6  -2  -8    7.88    1.63
   7  -2  -8    9.55    2.34
  -6  -1  -8    0.15    1.15
  -5  -1  -8   70.15    3.85
  -4  -1  -8   20.16    2.42
  -3  -1  -8   13.94    2.02
  -2  -1  -8    2.92    1.00
  -1  -1  -8   34.25    3.06
   0  -1  -8    4.23    1.19
   1  -1  -8    3.99    0.92
   2  -1  -8   34.11    2.47
   3  -1  -8   61.99    3.58
   4  -1  -8   32.72    3.09
   5  -1  -8   42.79    3.63
   6  -1  -8    1.66    0.96
   7  -1  -8   13.94    3.00
  -6   0  -8    6.27    2.10
  -5   0  -8   15.56    2.10
  -4   0  -8   11.80    1.83
  -3   0  -8   18.39    2.29
  -2   0  -8    4.28    1.18
  -1   0  -8    3.52    1.10
   0   0  -8  147.91    5.73
   1   0  -8    2.81    1.10
   2   0  -8    4.77    1.27
   3   0  -8   20.57    2.48
   4   0  -8    6.09    1.44
   5   0  -8   15.95    2.26
   6   0  -8    7.43    1.68
  -6   1  -8    2.61    1.65
  -5   1  -8   40.61    4.84
  -4   1  -8   32.89    2.97
  -3   1  -8   67.37    3.63
  -2   1  -8   32.64    2.98
  -1   1  -8    4.16    1.16
   0   1  -8    2.94    0.97
   1   1  -8   39.94    3.40
   2   1  -8    3.91    1.17
   3   1  -8   11.35    1.87
   4   1  -8   21.23    2.51
   5   1  -8   70.19    3.94
  -6   2  -8    7.15    2.20
  -5   2  -8    0.30    1.20
  -4   2  -8   24.30    3.73
  -3   2  -8    4.09    1.14
  -2   2  -8    5.14    1.31
  -1   2  -8   38.32    3.25
   0   2  -8    6.95    1.53
   1   2  -8   69.05    3.72
   2   2  -8   21.20    2.48
   3   2  -8   15.09    2.08
   4   2  -8    6.30    1.52
   5   2  -8   17.58    3.52
  -7   3  -8   43.98    5.25
  -6   3  -8   30.37    4.21
  -5   3  -8   14.38    2.97
  -4   3  -8   13.40    2.86
  -3   3  -8   18.03    3.29
  -2   3  -8   68.39    5.24
  -1   3  -8    4.87    1.28
   0   3  -8   13.47    1.87
   1   3  -8   35.71    3.22
   2   3  -8    2.59    1.10
   3   3  -8   32.25    3.15
   4   3  -8   10.00    1.85
  -7   4  -8   10.96    2.61
  -6   4  -8    6.81    2.14
  -5   4  -8   18.67    3.34
  -4   4  -8    8.51    2.23
  -3   4  -8   38.00    4.72
  -2   4  -8   24.53    3.87
  -1   4  -8   17.33    3.22
   0   4  -8    7.33    2.15
   1   4  -8   49.12    3.48
   2   4  -8    8.76    1.76
   3   4  -8   49.87    3.65
  -7   5  -8   20.86    3.91
  -6   5  -8   71.65    5.50
  -5   5  -8   14.69    2.98
  -4   5  -8   50.13    4.52
  -3   5  -8    1.69    0.88
  -2   5  -8   13.20    2.01
  -1   5  -8   19.45    2.43
   0   5  -8   15.91    3.08
   1   5  -8    3.13    1.65
  -7   6  -8   -0.22    1.05
  -6   6  -8    7.02    1.55
  -5   6  -8    0.64    0.90
  -4   6  -8    5.21    1.45
  -3   6  -8   27.85    2.89
  -2   6  -8    9.03    1.67
  -1   6  -8   69.77    3.89
   0   6  -8    8.46    1.73
   1   6  -8   17.64    3.42
  -6   7  -8   21.06    2.63
  -5   7  -8    9.94    1.82
  -4   7  -8   44.93    3.73
  -3   7  -8    9.08    1.79
  -2   7  -8   21.14    2.55
  -1   7  -8    0.83    1.34
   4 -10  -7   13.54    2.07
   5 -10  -7    3.14    1.11
   6 -10  -7    1.14    1.36
   1  -9  -7   36.20    4.44
   2  -9  -7   10.36    1.82
   3  -9  -7    1.18    0.64
   4  -9  -7   24.30    2.68
   5  -9  -7   66.87    3.76
   6  -9  -7   28.09    2.87
   7  -9  -7    4.72    1.27
   8  -9  -7    6.28    2.20
   0  -8  -7    3.63    1.20
   1  -8  -7   47.61    3.44
   2  -8  -7    8.54    1.63
   3  -8  -7   22.13    2.50
   4  -8  -7    0.67    0.76
   5  -8  -7    0.73    0.69
   6  -8  -7   46.67    3.15
   7  -8  -7   -0.17    0.67
   8  -8  -7    3.14    1.14
   9  -8  -7   29.42    4.25
  -2  -7  -7    8.85    2.69
  -1  -7  -7    1.72    1.41
   0  -7  -7    3.82    1.07
   1  -7  -7   29.78    2.84
   2  -7  -7   10.00    1.69
   3  -7  -7   35.84    3.17
   4  -7  -7    0.87    0.70
   5  -7  -7    5.34    1.28
   6  -7  -7   63.95    3.61
   7  -7  -7    1.81    0.93
   8  -7  -7   42.40    3.60
   9  -7  -7   10.22    1.83
  -3  -6  -7   26.00    4.04
  -2  -6  -7   46.65    4.62
  -1  -6  -7   63.19    5.27
   0  -6  -7   33.95    2.99
   1  -6  -7    2.84    0.97
   2  -6  -7   13.58    1.90
   3  -6  -7   34.57    3.03
   4  -6  -7    4.17    1.22
   5  -6  -7    1.27    0.83
   6  -6  -7   37.38    3.22
   7  -6  -7   29.00    2.88
   8  -6  -7    8.25    1.72
   9  -6  -7    0.59    0.79
  -4  -5  -7   66.97    5.59
  -3  -5  -7   -0.03    0.98
  -2  -5  -7    8.69    2.34
  -1  -5  -7   -0.23    0.85
   0  -5  -7   10.38    1.63
   1  -5  -7    1.03    0.74
   2  -5  -7  120.25    4.81
   3  -5  -7    3.41    1.00
   4  -5  -7   75.74    3.83
   5  -5  -7   12.35    1.87
   6  -5  -7    3.74    1.14
   7  -5  -7   11.35    1.87
   8  -5  -7   21.66    2.54
   9  -5  -7   24.96    2.73
  -6  -4  -7   17.09    3.20
  -5  -4  -7   27.63    2.75
  -4  -4  -7   -0.24    0.63
  -3  -4  -7    1.32    0.83
  -2  -4  -7    4.43    1.13
  -1  -4  -7   77.77    3.71
   0  -4  -7    6.08    1.03
   1  -4  -7  105.26    3.51
   2  -4  -7   -0.34    0.40
   3  -4  -7    0.40    0.48
   4  -4  -7    6.03    1.01
   5  -4  -7    2.05    0.74
   6  -4  -7   15.18    2.14
   7  -4  -7   36.22    3.06
   8  -4  -7    0.71    0.75
   9  -4  -7   66.26    5.55
  -6  -3  -7    0.74    0.79
  -5  -3  -7   24.75    2.64
  -4  -3  -7   40.63    3.01
  -3  -3  -7   32.38    2.85
  -2  -3  -7    5.31    1.15
  -1  -3  -7    0.81    0.68
   0  -3  -7   11.63    1.32
   1  -3  -7    4.13    0.87
   2  -3  -7    0.94    0.54
   3  -3  -7   12.92    1.45
   4  -3  -7  105.43    3.61
   5  -3  -7  113.75    4.70
   6  -3  -7   40.50    2.98
   7  -3  -7    1.54    0.87
   8  -3  -7   -0.49    0.61
   9  -3  -7   28.14    2.88
  10  -3  -7    1.86    1.41
  -7  -2  -7    8.90    1.63
  -6  -2  -7    7.95    1.48
  -5  -2  -7   10.20    1.73
  -4  -2  -7   10.91    1.65
  -3  -2  -7  122.61    4.73
  -2  -2  -7    0.35    0.63
  -1  -2  -7    2.08    0.83
   0  -2  -7   53.88    2.39
   1  -2  -7   14.60    1.48
   2  -2  -7   53.73    2.42
   3  -2  -7    2.89    0.96
   4  -2  -7    0.88    0.70
   5  -2  -7    6.98    1.35
   6  -2  -7    2.12    0.89
   7  -2  -7    4.75    1.24
   8  -2  -7   46.08    3.07
   9  -2  -7    9.75    1.72
  -8  -1  -7   35.52    3.34
  -7  -1  -7   48.88    3.34
  -6  -1  -7   26.69    2.66
  -5  -1  -7    5.10    1.24
  -4  -1  -7    1.45    0.83
  -3  -1  -7  110.38    4.45
  -2  -1  -7    2.83    0.89
  -1  -1  -7   14.27    1.50
   0  -1  -7   52.68    2.35
   1  -1  -7   52.08    2.36
   2  -1  -7   16.96    2.09
   3  -1  -7    1.84    0.78
   4  -1  -7   -0.01    0.51
   5  -1  -7   78.85    3.85
   6  -1  -7    1.84    0.87
   7  -1  -7   57.51    3.42
   8  -1  -7    0.77    0.81
   9  -1  -7    3.58    1.76
  -8   0  -7    4.50    1.83
  -7   0  -7    2.96    1.03
  -6   0  -7   39.32    2.78
  -5   0  -7   13.31    1.79
  -4   0  -7    7.04    1.32
  -3   0  -7   14.41    1.87
  -2   0  -7   52.41    2.92
  -1   0  -7   50.14    2.90
   0   0  -7   -0.18    0.45
   1   0  -7   51.45    2.94
   2   0  -7   57.08    3.14
   3   0  -7   10.70    1.67
   4   0  -7    3.67    0.97
   5   0  -7   14.32    1.99
   6   0  -7   37.27    3.23
   7   0  -7    1.24    0.83
   8   0  -7    3.80    1.27
  -8   1  -7    0.10    1.04
  -7   1  -7   60.90    4.82
  -6   1  -7    0.91    0.64
  -5   1  -7   74.01    3.57
  -4   1  -7    1.12    0.68
  -3   1  -7    0.76    0.61
  -2   1  -7   12.35    1.73
  -1   1  -7   52.14    2.92
   0   1  -7   52.03    2.98
   1   1  -7   11.41    1.72
   2   1  -7    2.51    0.90
   3   1  -7  102.70    4.46
   4   1  -7    0.05    0.61
   5   1  -7    4.64    1.24
   6   1  -7   27.09    2.82
   7   1  -7   51.42    3.34
  -9   2  -7    8.21    2.26
  -8   2  -7   51.97    4.53
  -7   2  -7    3.59    1.64
  -6   2  -7    4.19    1.57
  -5   2  -7    4.70    1.62
  -4   2  -7    0.78    0.60
  -3   2  -7    2.70    0.87
  -2   2  -7   52.86    2.96
  -1   2  -7   16.34    1.99
   0   2  -7   49.25    2.90
   1   2  -7    0.62    0.58
   2   2  -7    0.12    0.58
   3   2  -7  116.27    4.78
   4   2  -7   11.61    1.81
   5   2  -7    8.91    1.75
   6   2  -7    8.57    1.59
   7   2  -7    8.45    1.69
  -9   3  -7   25.74    3.94
  -8   3  -7   -0.23    0.80
  -7   3  -7    1.01    0.74
  -6   3  -7   36.06    2.71
  -5   3  -7  115.68    4.66
  -4   3  -7  109.37    4.40
  -3   3  -7   12.69    1.39
  -2   3  -7    0.87    0.52
  -1   3  -7    5.39    0.98
   0   3  -7   16.62    1.62
   1   3  -7    0.62    0.50
   2   3  -7    4.72    0.95
   3   3  -7   34.12    2.43
   4   3  -7   36.64    2.62
   5   3  -7   21.78    2.07
   6   3  -7    0.86    0.92
 -10   4  -7    0.86    1.30
  -9   4  -7   74.23    3.95
  -8   4  -7   -0.08    0.64
  -7   4  -7   41.94    3.39
  -6   4  -7   14.26    1.90
  -5   4  -7    1.30    0.75
  -4   4  -7    3.91    1.06
  -3   4  -7    0.78    0.68
  -2   4  -7    1.18    0.71
  -1   4  -7  111.62    3.66
   0   4  -7    4.53    0.90
   1   4  -7   78.22    3.09
   2   4  -7    6.13    1.05
   3   4  -7    1.57    0.70
   4   4  -7    0.18    0.59
   5   4  -7   25.68    2.29
   6   4  -7   14.72    3.04
 -10   5  -7    5.44    2.19
  -9   5  -7   25.90    2.71
  -8   5  -7   28.88    2.89
  -7   5  -7    7.21    1.47
  -6   5  -7    3.74    1.10
  -5   5  -7   11.64    1.75
  -4   5  -7   77.55    3.81
  -3   5  -7    6.36    1.35
  -2   5  -7  118.31    4.79
  -1   5  -7    1.15    0.80
   0   5  -7   13.77    1.92
   1   5  -7    0.87    0.62
   2   5  -7    6.23    1.11
   3   5  -7    0.45    0.63
   4   5  -7   68.05    3.14
   5   5  -7    3.11    1.18
 -10   6  -7   17.85    3.62
  -9   6  -7    1.45    0.90
  -8   6  -7    9.77    1.68
  -7   6  -7   33.60    3.03
  -6   6  -7   34.71    3.07
  -5   6  -7    0.22    0.62
  -4   6  -7    5.26    1.28
  -3   6  -7   40.43    3.27
  -2   6  -7   13.62    1.88
  -1   6  -7    4.58    1.25
   0   6  -7   40.38    3.31
   1   6  -7   60.50    3.52
   2   6  -7   50.30    3.22
   3   6  -7   29.49    2.41
   4   6  -7    0.12    0.76
  -9   7  -7    9.97    1.77
  -8   7  -7   46.43    3.29
  -7   7  -7    3.78    1.20
  -6   7  -7   65.96    3.63
  -5   7  -7    5.18    1.25
  -4   7  -7    1.88    0.93
  -3   7  -7   42.05    3.08
  -2   7  -7   10.87    1.75
  -1   7  -7   31.14    2.93
   0   7  -7    3.49    1.13
   1   7  -7   -0.03    0.68
   2   7  -7    6.34    1.46
  -9   8  -7   32.72    3.05
  -8   8  -7    4.94    1.36
  -7   8  -7   -0.01    0.72
  -6   8  -7   51.27    3.22
  -5   8  -7    1.04    0.79
  -4   8  -7    0.14    0.71
  -3   8  -7   23.47    2.55
  -2   8  -7    8.29    1.60
  -1   8  -7   42.77    3.55
   0   8  -7    4.54    1.32
   1   8  -7    5.94    1.51
  -8   9  -7    5.04    1.41
  -7   9  -7    8.70    1.67
  -6   9  -7   24.03    2.61
  -5   9  -7   74.16    3.90
  -4   9  -7   24.56    2.74
  -3   9  -7    1.10    0.91
  -2   9  -7   10.11    1.83
  -1   9  -7   34.35    3.28
   2 -11  -6   26.29    4.02
   3 -11  -6    8.13    1.66
   4 -11  -6   66.50    3.02
   5 -11  -6   13.35    1.58
   6 -11  -6    0.47    0.59
   7 -11  -6   30.34    2.86
   8 -11  -6    3.79    1.14
   0 -10  -6   21.06    2.52
   1 -10  -6    1.22    0.91
   2 -10  -6   41.72    3.14
   3 -10  -6   10.82    1.40
   4 -10  -6   10.76    1.40
   5 -10  -6   29.20    2.23
   6 -10  -6   73.23    3.06
   7 -10  -6   25.76    2.10
   8 -10  -6   75.26    3.16
   9 -10  -6    9.49    1.67
  10 -10  -6   22.11    3.85
  -1  -9  -6    8.94    1.63
   0  -9  -6    8.54    1.55
   1  -9  -6   11.73    1.87
   2  -9  -6    0.54    0.71
   3  -9  -6   80.47    3.12
   4  -9  -6    1.60    0.81
   5  -9  -6   11.75    1.79
   6  -9  -6   29.06    2.81
   7  -9  -6    3.79    1.15
   8  -9  -6   40.59    4.70
   9  -9  -6    9.73    1.69
  10  -9  -6    2.36    1.49
  -3  -8  -6    3.52    1.75
  -2  -8  -6   79.35    6.07
  -1  -8  -6   38.79    3.22
   0  -8  -6  115.26    4.76
   1  -8  -6   27.81    2.70
   2  -8  -6    4.05    1.05
   3  -8  -6    1.47    0.76
   4  -8  -6   33.08    2.86
   5  -8  -6    1.68    0.76
   6  -8  -6   11.03    1.70
   7  -8  -6   14.05    1.89
   8  -8  -6  116.52    4.76
   9  -8  -6   12.66    1.89
  10  -8  -6   43.87    3.18
  11  -8  -6    8.36    1.61
  -4  -7  -6   28.92    4.23
  -3  -7  -6   24.90    3.94
  -2  -7  -6    2.05    1.37
  -1  -7  -6   13.80    1.85
   0  -7  -6    0.29    0.61
   1  -7  -6   12.14    1.73
   2  -7  -6   44.20    2.74
   3  -7  -6   19.65    2.23
   4  -7  -6  131.91    4.98
   5  -7  -6   21.08    2.30
   6  -7  -6   16.66    1.99
   7  -7  -6    1.07    0.69
   8  -7  -6   26.21    2.59
   9  -7  -6   -0.26    0.62
  10  -7  -6   11.04    1.82
  11  -7  -6   67.34    3.81
  -5  -6  -6    0.18    1.10
  -4  -6  -6   71.58    5.63
  -3  -6  -6   28.18    4.09
  -2  -6  -6   12.66    2.62
  -1  -6  -6   19.96    2.08
   0  -6  -6   14.91    1.79
   1  -6  -6  165.56    5.63
   2  -6  -6   10.45    1.52
   3  -6  -6   73.54    3.52
   4  -6  -6   45.83    2.70
   5  -6  -6   34.35    2.60
   6  -6  -6   15.50    1.91
   7  -6  -6   12.03    1.81
   8  -6  -6    5.66    1.29
   9  -6  -6   84.52    4.04
  10  -6  -6   10.44    1.71
  11  -6  -6   14.77    2.20
  -6  -5  -6   13.03    2.01
  -5  -5  -6   30.62    2.86
  -4  -5  -6   14.17    1.92
  -3  -5  -6    3.53    1.02
  -2  -5  -6   21.27    1.69
  -1  -5  -6   34.51    1.86
   0  -5  -6   36.57    1.81
   1  -5  -6   18.44    1.53
   2  -5  -6   23.59    1.76
   3  -5  -6   14.61    1.37
   4  -5  -6   82.82    2.89
   5  -5  -6   34.46    1.91
   6  -5  -6  174.48    5.90
   7  -5  -6   43.98    2.80
   8  -5  -6    1.66    0.83
   9  -5  -6    1.02    1.09
  10  -5  -6   32.83    4.46
  11  -5  -6   -0.21    1.05
  -7  -4  -6   68.23    3.86
  -6  -4  -6    9.19    1.63
  -5  -4  -6    0.94    0.75
  -4  -4  -6   30.36    2.67
  -3  -4  -6  128.64    4.79
  -2  -4  -6   42.23    1.97
  -1  -4  -6   86.05    2.83
   0  -4  -6   13.03    1.30
   1  -4  -6   28.72    1.78
   2  -4  -6   21.79    1.68
   3  -4  -6   42.35    1.98
   4  -4  -6   15.36    1.42
   5  -4  -6   18.66    1.65
   6  -4  -6   13.59    1.74
   7  -4  -6   17.90    2.00
   8  -4  -6   29.85    2.69
   9  -4  -6   11.62    1.72
  10  -4  -6   70.29    3.71
  11  -4  -6   33.06    3.14
  -8  -3  -6    8.14    1.64
  -7  -3  -6   12.12    1.87
  -6  -3  -6   78.71    3.83
  -5  -3  -6    1.14    0.74
  -4  -3  -6   17.53    1.97
  -3  -3  -6   68.85    3.31
  -2  -3  -6   17.52    1.47
  -1  -3  -6   43.07    1.93
   0  -3  -6   28.86    1.64
   1  -3  -6    0.41    0.39
   2  -3  -6  206.57    5.04
   3  -3  -6   27.98    1.94
   4  -3  -6   30.53    2.27
   5  -3  -6   23.16    2.25
   6  -3  -6   70.94    3.42
   7  -3  -6  119.22    4.73
   8  -3  -6    3.04    1.00
   9  -3  -6   31.20    2.86
  10  -3  -6   30.24    2.95
  11  -3  -6    5.67    1.45
  -9  -2  -6   41.19    4.92
  -8  -2  -6   40.83    3.08
  -7  -2  -6   -0.21    0.56
  -6  -2  -6    4.35    1.06
  -5  -2  -6   43.56    2.65
  -4  -2  -6   12.73    1.66
  -3  -2  -6   21.93    2.08
  -2  -2  -6   19.52    1.50
  -1  -2  -6  213.32    4.96
   0  -2  -6   48.37    2.08
   1  -2  -6   87.49    2.90
   2  -2  -6   51.11    2.72
   3  -2  -6    0.07    0.47
   4  -2  -6   22.80    2.20
   5  -2  -6   17.27    1.94
   6  -2  -6   39.47    2.54
   7  -2  -6   20.18    2.23
   8  -2  -6   11.99    1.77
   9  -2  -6    5.15    1.28
  10  -2  -6   74.71    4.05
  11  -2  -6    3.43    1.61
  -9  -1  -6    0.65    0.80
  -8  -1  -6   11.26    1.73
  -7  -1  -6   23.37    2.32
  -6  -1  -6   14.38    1.83
  -5  -1  -6  172.35    5.60
  -4  -1  -6   23.14    2.15
  -3  -1  -6   32.37    2.10
  -2  -1  -6    0.74    0.42
  -1  -1  -6   88.34    2.84
   0  -1  -6   26.09    1.65
   1  -1  -6   25.83    2.25
   2  -1  -6   87.86    3.68
   3  -1  -6  209.26    6.37
   4  -1  -6   41.61    2.51
   5  -1  -6   87.18    3.77
   6  -1  -6   30.42    2.68
   7  -1  -6   15.26    1.96
   8  -1  -6   14.31    1.97
   9  -1  -6   46.77    3.12
  10  -1  -6    6.54    1.56
  -9   0  -6    9.44    2.39
  -8   0  -6  107.71    4.47
  -7   0  -6    0.97    0.67
  -6   0  -6   14.33    1.73
  -5   0  -6   39.11    2.32
  -4   0  -6   11.12    1.49
  -3   0  -6   27.56    2.11
  -2   0  -6   50.90    2.03
  -1   0  -6   26.22    1.60
   0   0  -6  115.99    4.25
   1   0  -6   26.00    2.29
   2   0  -6   47.54    2.65
   3   0  -6   27.54    2.43
   4   0  -6   12.42    1.66
   5   0  -6   33.87    2.52
   6   0  -6   16.25    2.06
   7   0  -6    2.27    0.91
   8   0  -6  115.54    4.91
   9   0  -6    8.31    1.71
  10   0  -6   26.44    4.54
 -10   1  -6    5.58    2.02
  -9   1  -6   42.25    4.84
  -8   1  -6   16.46    2.07
  -7   1  -6   18.16    1.61
  -6   1  -6   34.13    1.91
  -5   1  -6   86.36    2.86
  -4   1  -6   39.32    1.85
  -3   1  -6  209.24    4.94
  -2   1  -6   87.65    2.83
  -1   1  -6   26.62    1.58
   0   1  -6   25.28    1.62
   1   1  -6   88.15    2.90
   2   1  -6    0.16    0.32
   3   1  -6   31.45    1.77
   4   1  -6   18.01    1.59
   5   1  -6  170.48    4.67
   6   1  -6    9.97    1.31
   7   1  -6   23.31    2.01
   8   1  -6   10.86    1.51
   9   1  -6    1.45    1.35
 -11   2  -6    2.64    1.66
 -10   2  -6   85.35    4.23
  -9   2  -6    3.97    1.12
  -8   2  -6   12.05    1.76
  -7   2  -6   20.18    2.13
  -6   2  -6   44.42    2.03
  -5   2  -6   18.46    1.54
  -4   2  -6   21.95    1.60
  -3   2  -6    0.07    0.33
  -2   2  -6   50.97    2.11
  -1   2  -6   86.43    2.89
   0   2  -6   47.52    2.09
   1   2  -6  217.80    5.16
   2   2  -6   19.39    1.56
   3   2  -6   24.51    1.86
   4   2  -6   13.21    1.41
   5   2  -6   41.88    2.29
   6   2  -6    4.90    0.97
   7   2  -6   -0.03    0.62
   8   2  -6   36.91    3.27
   9   2  -6   31.79    4.42
 -11   3  -6    3.19    1.17
 -10   3  -6   30.28    2.91
  -9   3  -6   34.54    3.00
  -8   3  -6    2.26    0.87
  -7   3  -6  132.06    4.89
  -6   3  -6   78.65    3.50
  -5   3  -6   22.39    1.68
  -4   3  -6   31.80    1.66
  -3   3  -6   28.49    1.75
  -2   3  -6  220.68    5.14
  -1   3  -6   -0.05    0.37
   0   3  -6   30.23    1.77
   1   3  -6   43.16    2.01
   2   3  -6   17.90    1.57
   3   3  -6   78.09    2.92
   4   3  -6   18.53    1.70
   5   3  -6    1.12    0.56
   6   3  -6   83.62    4.07
   7   3  -6   10.69    1.80
   8   3  -6    7.13    1.56
 -11   4  -6   30.44    3.04
 -10   4  -6   73.72    3.89
  -9   4  -6   14.17    1.92
  -8   4  -6   33.70    2.87
  -7   4  -6   15.34    1.87
  -6   4  -6   12.69    1.69
  -5   4  -6   21.75    2.15
  -4   4  -6   12.27    1.57
  -3   4  -6   41.69    1.93
  -2   4  -6   19.70    1.57
  -1   4  -6   29.45    1.75
   0   4  -6   11.94    1.28
   1   4  -6   83.53    2.99
   2   4  -6   42.76    2.14
   3   4  -6  122.81    3.96
   4   4  -6   31.05    2.33
   5   4  -6    0.06    0.65
   6   4  -6   13.31    1.98
   7   4  -6   78.24    4.20
 -11   5  -6    0.30    0.73
 -10   5  -6   27.69    2.81
  -9   5  -6    0.62    0.71
  -8   5  -6    0.66    0.61
  -7   5  -6   40.62    2.61
  -6   5  -6  170.78    5.71
  -5   5  -6   33.70    2.45
  -4   5  -6   82.67    3.66
  -3   5  -6   16.44    1.90
  -2   5  -6   22.11    2.16
  -1   5  -6   18.69    1.61
   0   5  -6   35.98    2.01
   1   5  -6   32.22    2.08
   2   5  -6   20.49    1.81
   3   5  -6    3.37    0.83
   4   5  -6    9.69    1.66
   5   5  -6   28.69    2.87
   6   5  -6   13.86    2.05
 -11   6  -6   11.60    1.88
 -10   6  -6   12.50    1.88
  -9   6  -6   75.95    3.81
  -8   6  -6    5.86    1.23
  -7   6  -6   13.11    1.80
  -6   6  -6   12.29    1.70
  -5   6  -6   34.45    2.49
  -4   6  -6   45.42    2.69
  -3   6  -6   77.65    3.58
  -2   6  -6   15.54    1.85
  -1   6  -6  168.65    5.71
   0   6  -6   15.68    1.88
   1   6  -6   20.51    1.82
   2   6  -6   11.64    1.43
   3   6  -6   34.13    3.03
   4   6  -6   73.38    3.92
   5   6  -6   -0.02    0.75
 -11   7  -6   74.77    3.95
 -10   7  -6    9.70    1.65
  -9   7  -6    0.60    0.66
  -8   7  -6   24.38    2.42
  -7   7  -6    1.13    0.67
  -6   7  -6   20.40    2.16
  -5   7  -6   20.73    2.24
  -4   7  -6  134.69    4.98
  -3   7  -6   13.50    1.81
  -2   7  -6   42.76    2.70
  -1   7  -6   12.19    1.77
   0   7  -6    0.30    0.56
   1   7  -6   13.68    1.88
   2   7  -6    4.42    1.14
   3   7  -6   24.42    2.67
   4   7  -6   33.84    3.19
 -11   8  -6    8.07    1.55
 -10   8  -6   36.62    3.19
  -9   8  -6   12.26    1.83
  -8   8  -6  103.63    4.49
  -7   8  -6   18.69    2.16
  -6   8  -6   11.76    1.67
  -5   8  -6    3.77    0.96
  -4   8  -6   33.45    2.88
  -3   8  -6    1.46    0.76
  -2   8  -6    4.69    1.18
  -1   8  -6   25.19    2.48
   0   8  -6  102.89    4.54
   1   8  -6   41.65    3.08
   2   8  -6   77.95    4.07
   3   8  -6    3.84    1.23
 -10   9  -6    3.11    1.72
  -9   9  -6    6.81    2.16
  -8   9  -6   41.32    2.95
  -7   9  -6    5.42    1.23
  -6   9  -6   27.23    2.62
  -5   9  -6   10.29    1.64
  -4   9  -6    0.42    0.69
  -3   9  -6   81.67    3.89
  -2   9  -6   -0.43    0.58
  -1   9  -6   13.43    1.94
   0   9  -6    9.68    1.65
   1   9  -6    6.45    1.49
   2   9  -6    3.45    1.63
  -9  10  -6    6.31    2.17
  -8  10  -6   82.04    6.28
  -7  10  -6   30.41    4.55
  -6  10  -6   72.35    5.85
  -5  10  -6   31.35    4.58
  -4  10  -6   12.13    2.82
  -3  10  -6   13.78    2.90
  -2  10  -6   36.21    4.80
  -1  10  -6    0.15    1.04
  -8  11  -6    3.85    1.78
  -7  11  -6   31.65    4.67
  -6  11  -6    1.59    1.24
  -5  11  -6   14.59    3.18
  -4  11  -6   76.06    6.08
  -3  11  -6   10.47    2.82
   5 -13  -5    1.13    1.07
   6 -13  -5    1.58    1.26
   2 -12  -5    6.30    2.16
   3 -12  -5    9.50    1.70
   4 -12  -5   21.94    2.42
   5 -12  -5    2.96    1.03
   6 -12  -5    7.83    1.50
   7 -12  -5  116.41    4.80
   8 -12  -5   81.10    3.99
   9 -12  -5   26.89    2.69
  10 -12  -5    4.02    1.84
   0 -11  -5   58.31    3.56
   1 -11  -5    9.19    1.70
   2 -11  -5    1.95    0.94
   3 -11  -5   43.39    2.43
   4 -11  -5   26.17    2.09
   5 -11  -5   58.38    2.64
   6 -11  -5   25.30    2.51
   7 -11  -5    6.90    1.34
   8 -11  -5    9.62    1.61
   9 -11  -5    1.50    0.76
  10 -11  -5    2.72    0.99
  11 -11  -5   57.84    3.35
  -2 -10  -5    6.09    1.44
  -1 -10  -5    4.38    1.25
   0 -10  -5  151.05    5.70
   1 -10  -5   30.73    2.83
   2 -10  -5   47.39    2.94
   3 -10  -5   28.94    2.12
   4 -10  -5   28.43    2.10
   5 -10  -5    3.59    0.79
   6 -10  -5   15.79    1.56
   7 -10  -5    3.55    0.81
   8 -10  -5   94.95    4.14
   9 -10  -5    0.32    0.57
  10 -10  -5  147.42    5.44
  11 -10  -5    8.69    1.54
  12 -10  -5    4.60    1.18
  -3  -9  -5   21.94    3.70
  -2  -9  -5    0.48    0.77
  -1  -9  -5    0.63    0.69
   0  -9  -5   21.56    2.30
   1  -9  -5   26.14    2.54
   2  -9  -5   45.33    2.15
   3  -9  -5    0.10    0.41
   4  -9  -5   73.05    2.76
   5  -9  -5   31.03    2.64
   6  -9  -5   34.36    2.60
   7  -9  -5   26.64    2.46
   8  -9  -5   10.30    1.58
   9  -9  -5   22.50    2.35
  10  -9  -5   26.89    3.65
  11  -9  -5    4.75    1.65
  12  -9  -5   10.33    1.64
  -4  -8  -5   75.22    5.95
  -3  -8  -5    7.65    2.32
  -2  -8  -5   96.49    4.20
  -1  -8  -5    8.35    1.43
   0  -8  -5    7.06    1.32
   1  -8  -5   35.00    1.95
   2  -8  -5  124.86    3.65
   3  -8  -5  137.49    4.95
   4  -8  -5   30.59    2.61
   5  -8  -5   13.13    1.66
   6  -8  -5  113.06    4.38
   7  -8  -5    0.96    0.66
   8  -8  -5    7.48    1.35
   9  -8  -5   25.78    2.49
  10  -8  -5   45.50    2.82
  11  -8  -5   55.01    4.42
  12  -8  -5   18.77    3.15
  13  -8  -5    0.06    0.69
  -5  -7  -5  108.06    7.10
  -4  -7  -5    5.88    1.89
  -3  -7  -5    3.67    1.06
  -2  -7  -5   28.21    2.48
  -1  -7  -5    1.18    0.65
   0  -7  -5    3.94    0.93
   1  -7  -5   36.59    2.32
   2  -7  -5   50.35    2.69
   3  -7  -5   86.92    3.66
   4  -7  -5   24.74    2.27
   5  -7  -5    5.07    1.01
   6  -7  -5  282.64    7.90
   7  -7  -5    2.63    0.80
   8  -7  -5   39.40    2.51
   9  -7  -5   43.64    2.69
  10  -7  -5   31.60    2.79
  11  -7  -5   31.52    2.84
  12  -7  -5    2.12    1.27
  13  -7  -5    2.01    1.29
  -6  -6  -5    5.40    1.93
  -5  -6  -5   24.17    3.64
  -4  -6  -5   14.52    2.77
  -3  -6  -5   31.77    2.25
  -2  -6  -5  113.74    4.21
  -1  -6  -5  298.83    7.86
   0  -6  -5   34.76    2.18
   1  -6  -5   31.54    2.23
   2  -6  -5    8.78    1.29
   3  -6  -5   73.01    3.29
   4  -6  -5    2.78    0.85
   5  -6  -5    8.22    1.31
   6  -6  -5   36.52    2.32
   7  -6  -5   42.48    2.53
   8  -6  -5  121.65    4.59
   9  -6  -5   -0.05    0.53
  10  -6  -5   24.10    2.45
  11  -6  -5   60.71    3.36
  12  -6  -5    5.73    1.29
  13  -6  -5    1.29    1.37
  -8  -5  -5   -0.34    1.10
  -7  -5  -5    2.28    1.01
  -6  -5  -5   59.37    3.35
  -5  -5  -5    4.23    1.13
  -4  -5  -5   29.46    2.57
  -3  -5  -5   15.52    1.35
  -2  -5  -5    6.20    0.85
  -1  -5  -5    8.84    1.02
   0  -5  -5    3.90    0.67
   1  -5  -5    0.95    0.42
   2  -5  -5  193.79    4.53
   3  -5  -5    2.39    0.58
   4  -5  -5  263.32    5.70
   5  -5  -5    2.43    0.60
   6  -5  -5   37.45    1.78
   7  -5  -5   48.30    2.09
   8  -5  -5  143.17    4.80
   9  -5  -5   70.26    3.28
  10  -5  -5    3.47    1.49
  11  -5  -5   25.27    3.74
  12  -5  -5  110.34    6.89
  13  -5  -5    1.24    1.29
  -8  -4  -5   23.67    2.61
  -7  -4  -5   32.57    2.89
  -6  -4  -5   22.93    2.37
  -5  -4  -5   68.14    3.30
  -4  -4  -5   33.77    2.20
  -3  -4  -5   30.88    1.54
  -2  -4  -5    4.11    0.71
  -1  -4  -5  266.64    5.60
   0  -4  -5    0.83    0.34
   1  -4  -5  310.15    6.24
   2  -4  -5    4.99    0.76
   3  -4  -5    8.92    1.03
   4  -4  -5    1.16    0.44
   5  -4  -5    0.79    0.50
   6  -4  -5    9.94    1.35
   7  -4  -5   87.55    3.54
   8  -4  -5   31.05    2.35
   9  -4  -5   29.44    2.55
  10  -4  -5   15.18    1.96
  11  -4  -5    7.79    1.46
  12  -4  -5   75.54    3.96
  -9  -3  -5    8.98    1.67
  -8  -3  -5   48.82    3.07
  -7  -3  -5   33.89    2.89
  -6  -3  -5   -0.15    0.48
  -5  -3  -5  137.69    4.82
  -4  -3  -5   85.37    3.50
  -3  -3  -5   78.37    2.48
  -2  -3  -5    3.04    0.59
  -1  -3  -5    8.83    0.94
   0  -3  -5  135.68    3.44
   1  -3  -5   33.94    1.54
   2  -3  -5   61.61    2.17
   3  -3  -5  131.98    4.36
   4  -3  -5  303.86    7.75
   5  -3  -5  188.21    5.67
   6  -3  -5   77.45    3.30
   7  -3  -5   32.23    2.11
   8  -3  -5   16.51    1.91
   9  -3  -5   26.23    2.47
  10  -3  -5    4.02    1.08
  11  -3  -5   10.74    1.76
  12  -3  -5   24.07    2.66
 -10  -2  -5    6.42    1.50
  -9  -2  -5    2.04    0.92
  -8  -2  -5   46.30    2.88
  -7  -2  -5   39.03    2.54
  -6  -2  -5  124.03    4.50
  -5  -2  -5   49.71    2.59
  -4  -2  -5    9.99    1.34
  -3  -2  -5  195.63    4.37
  -2  -2  -5    6.33    0.79
  -1  -2  -5   65.17    2.13
   0  -2  -5   91.14    2.66
   1  -2  -5   62.14    2.16
   2  -2  -5   88.78    3.37
   3  -2  -5   31.46    1.92
   4  -2  -5    7.39    1.14
   5  -2  -5    2.39    0.73
   6  -2  -5    2.91    0.84
   7  -2  -5    8.32    1.36
   8  -2  -5  109.55    4.34
   9  -2  -5   30.21    2.75
  10  -2  -5   93.79    5.91
  11  -2  -5    0.62    1.08
  12  -2  -5    8.80    2.44
 -10  -1  -5    8.07    1.57
  -9  -1  -5   30.05    2.73
  -8  -1  -5   27.28    2.49
  -7  -1  -5   36.84    1.88
  -6  -1  -5   38.49    1.90
  -5  -1  -5   36.77    1.71
  -4  -1  -5    2.65    0.54
  -3  -1  -5  311.81    5.17
  -2  -1  -5   30.78    1.16
  -1  -1  -5   63.14    1.74
   0  -1  -5  111.85    2.89
   1  -1  -5  111.88    2.94
   2  -1  -5   65.82    2.10
   3  -1  -5   61.90    2.09
   4  -1  -5    9.75    1.02
   5  -1  -5  272.36    5.77
   6  -1  -5    8.69    1.07
   7  -1  -5  293.81    6.46
   8  -1  -5    0.73    0.58
   9  -1  -5    8.83    1.49
  10  -1  -5    1.91    1.24
  11  -1  -5    7.77    2.35
 -11   0  -5   55.55    3.73
 -10   0  -5  149.60    4.54
  -9   0  -5   24.41    1.96
  -8   0  -5    7.10    1.02
  -7   0  -5    4.39    0.78
  -6   0  -5   33.88    1.80
  -5   0  -5    2.25    0.55
  -4   0  -5    1.12    0.42
  -3   0  -5  137.84    2.86
  -2   0  -5   92.00    2.20
  -1   0  -5  113.03    2.97
   0   0  -5    0.47    0.31
   1   0  -5  115.74    3.05
   2   0  -5   95.82    2.71
   3   0  -5  142.42    3.56
   4   0  -5    1.01    0.41
   5   0  -5    3.40    0.70
   6   0  -5   32.71    2.25
   7   0  -5    4.46    0.98
   8   0  -5    7.36    1.34
   9   0  -5   23.42    2.50
  10   0  -5  145.46    5.68
  11   0  -5   54.79    3.46
 -11   1  -5    3.75    1.23
 -10   1  -5    0.97    0.72
  -9   1  -5    8.23    1.11
  -8   1  -5    2.22    0.62
  -7   1  -5  301.54    6.33
  -6   1  -5    9.91    1.04
  -5   1  -5  266.98    5.63
  -4   1  -5    9.77    0.99
  -3   1  -5   62.09    1.72
  -2   1  -5   61.70    2.10
  -1   1  -5  110.68    3.01
   0   1  -5  112.77    3.06
   1   1  -5   62.83    2.16
   2   1  -5   32.15    1.53
   3   1  -5  308.10    6.35
   4   1  -5    0.90    0.42
   5   1  -5   40.54    2.52
   6   1  -5   39.09    2.40
   7   1  -5   38.16    2.73
   8   1  -5   26.76    2.64
   9   1  -5   34.36    3.08
  10   1  -5    7.84    1.61
 -12   2  -5    5.71    2.14
 -11   2  -5    1.06    0.80
 -10   2  -5   98.33    4.36
  -9   2  -5   27.40    2.46
  -8   2  -5  118.34    3.54
  -7   2  -5    8.27    1.03
  -6   2  -5    3.11    0.62
  -5   2  -5    2.87    0.48
  -4   2  -5    6.65    0.83
  -3   2  -5   31.53    1.48
  -2   2  -5   90.75    2.67
  -1   2  -5   60.85    2.15
   0   2  -5   92.06    2.73
   1   2  -5   64.94    2.24
   2   2  -5    6.34    0.88
   3   2  -5  192.29    4.69
   4   2  -5    7.63    1.22
   5   2  -5   44.69    2.59
   6   2  -5  121.33    4.65
   7   2  -5   43.74    2.78
   8   2  -5   45.95    3.25
   9   2  -5    0.59    0.74
  10   2  -5    2.67    1.47
 -12   3  -5   21.42    2.57
 -11   3  -5   12.02    1.85
 -10   3  -5    4.88    1.20
  -9   3  -5   27.89    2.57
  -8   3  -5   15.63    1.43
  -7   3  -5   28.69    1.73
  -6   3  -5   80.40    2.18
  -5   3  -5  194.93    3.80
  -4   3  -5  302.00    6.11
  -3   3  -5  133.18    3.44
  -2   3  -5   62.10    2.16
  -1   3  -5   32.16    1.53
   0   3  -5  135.95    3.55
   1   3  -5   10.04    1.09
   2   3  -5    2.89    0.67
   3   3  -5   76.73    3.32
   4   3  -5   76.57    3.47
   5   3  -5  140.55    5.06
   6   3  -5    0.35    0.55
   7   3  -5   31.86    2.94
   8   3  -5   49.72    3.49
   9   3  -5    8.83    1.77
 -12   4  -5   74.67    4.01
 -11   4  -5    5.67    1.32
 -10   4  -5   15.92    1.98
  -9   4  -5   30.23    2.14
  -8   4  -5   33.74    1.98
  -7   4  -5   86.15    2.85
  -6   4  -5    7.74    0.96
  -5   4  -5    1.59    0.48
  -4   4  -5    0.95    0.32
  -3   4  -5   10.89    1.05
  -2   4  -5    6.12    0.81
  -1   4  -5  315.01    6.35
   0   4  -5    1.05    0.46
   1   4  -5  267.24    5.83
   2   4  -5    3.01    0.84
   3   4  -5   31.29    2.35
   4   4  -5   33.46    2.47
   5   4  -5   73.18    3.56
   6   4  -5   24.59    2.52
   7   4  -5   28.45    2.85
   8   4  -5   21.89    2.69
 -12   5  -5  110.62    4.88
 -11   5  -5   23.23    2.03
 -10   5  -5    3.66    0.81
  -9   5  -5   69.25    2.73
  -8   5  -5  142.34    4.01
  -7   5  -5   48.93    2.08
  -6   5  -5   37.13    1.76
  -5   5  -5    2.78    0.61
  -4   5  -5  266.07    5.66
  -3   5  -5    2.63    0.55
  -2   5  -5  190.60    4.55
  -1   5  -5    1.20    0.46
   0   5  -5    3.24    0.66
   1   5  -5    9.46    1.11
   2   5  -5    5.72    1.13
   3   5  -5   16.48    1.90
   4   5  -5   30.30    2.76
   5   5  -5    4.61    1.21
   6   5  -5   64.35    3.60
   7   5  -5    2.17    1.06
 -13   6  -5    1.39    1.35
 -12   6  -5    6.87    1.21
 -11   6  -5   62.98    2.80
 -10   6  -5   26.09    2.06
  -9   6  -5    0.10    0.41
  -8   6  -5  128.09    3.72
  -7   6  -5   40.40    1.93
  -6   6  -5   35.77    1.77
  -5   6  -5    8.54    0.99
  -4   6  -5    3.89    0.71
  -3   6  -5   75.47    3.26
  -2   6  -5    8.59    1.25
  -1   6  -5   36.74    1.78
   0   6  -5   33.19    1.81
   1   6  -5  289.87    7.93
   2   6  -5  111.48    4.38
   3   6  -5   33.52    2.85
   4   6  -5   17.09    2.11
   5   6  -5   25.22    2.66
   6   6  -5    6.80    1.53
 -13   7  -5    2.24    1.01
 -12   7  -5    2.30    0.81
 -11   7  -5   29.28    2.24
 -10   7  -5   30.64    2.22
  -9   7  -5   43.57    2.24
  -8   7  -5   35.63    2.01
  -7   7  -5    6.41    0.94
  -6   7  -5  306.00    6.46
  -5   7  -5    6.72    0.92
  -4   7  -5   29.16    1.65
  -3   7  -5   79.06    3.43
  -2   7  -5   48.11    2.60
  -1   7  -5   39.16    2.36
   0   7  -5    4.97    1.04
   1   7  -5    1.29    0.66
   2   7  -5   26.59    2.52
   3   7  -5    2.43    0.91
   4   7  -5    6.34    1.40
   5   7  -5  113.35    5.02
   6   7  -5    1.85    1.58
 -13   8  -5    0.43    0.80
 -12   8  -5   19.89    1.94
 -11   8  -5   48.09    2.55
 -10   8  -5   45.28    2.31
  -9   8  -5   26.50    2.01
  -8   8  -5    7.57    1.06
  -7   8  -5    1.38    0.54
  -6   8  -5  112.82    3.46
  -5   8  -5   15.53    1.46
  -4   8  -5   34.11    1.88
  -3   8  -5  144.16    4.89
  -2   8  -5  122.03    4.52
  -1   8  -5   37.72    2.41
   0   8  -5    7.80    1.38
   1   8  -5   10.39    1.59
   2   8  -5  101.38    4.37
   3   8  -5    9.78    1.65
   4   8  -5   76.43    4.04
   5   8  -5    1.77    1.41
 -12   9  -5    9.42    1.86
 -11   9  -5    1.70    0.87
 -10   9  -5   24.73    2.71
  -9   9  -5   23.10    2.50
  -8   9  -5    9.09    1.24
  -7   9  -5   26.07    1.95
  -6   9  -5   27.61    2.00
  -5   9  -5   31.25    1.96
  -4   9  -5   65.96    3.20
  -3   9  -5    0.40    0.49
  -2   9  -5   47.38    2.72
  -1   9  -5   25.59    2.48
   0   9  -5   21.11    2.29
   1   9  -5    0.96    0.72
   2   9  -5    0.62    0.71
   3   9  -5   22.72    2.56
 -12  10  -5    3.56    1.71
 -11  10  -5    7.66    1.68
 -10  10  -5  155.54    8.72
  -9  10  -5    1.27    0.82
  -8  10  -5   94.73    4.42
  -7  10  -5    4.37    1.17
  -6  10  -5   17.18    2.09
  -5  10  -5    2.30    0.93
  -4  10  -5   28.54    4.02
  -3  10  -5   28.90    4.03
  -2  10  -5   41.27    5.02
  -1  10  -5   26.87    3.81
   0  10  -5  145.67    8.43
   1  10  -5    3.30    1.62
 -11  11  -5   57.33    4.07
 -10  11  -5    5.25    1.39
  -9  11  -5    0.84    0.73
  -8  11  -5    8.99    1.68
  -7  11  -5    9.19    1.70
  -6  11  -5   24.93    2.61
  -5  11  -5   57.36    5.01
  -4  11  -5   26.24    3.89
  -3  11  -5   54.96    4.85
  -2  11  -5    1.49    1.16
  -1  11  -5    4.23    1.89
   0  11  -5   58.91    5.26
 -10  12  -5    7.04    2.28
  -9  12  -5   28.28    3.07
  -8  12  -5   78.36    4.26
  -7  12  -5  109.08    5.05
  -6  12  -5    5.80    1.50
  -5  12  -5    2.54    1.52
  -4  12  -5   22.95    3.89
  -3  12  -5    6.97    2.15
  -8  13  -5   -0.02    1.05
  -7  13  -5    3.75    2.06
   6 -14  -4    5.61    1.97
   3 -13  -4   21.80    3.54
   4 -13  -4   13.00    1.86
   5 -13  -4   51.66    3.18
   6 -13  -4   55.33    3.23
   7 -13  -4   17.12    2.18
   8 -13  -4    2.52    1.00
   9 -13  -4    1.29    0.82
  10 -13  -4   18.43    2.24
  11 -13  -4    8.05    2.24
   0 -12  -4    6.86    1.50
   1 -12  -4    8.28    1.58
   2 -12  -4   43.95    3.51
   3 -12  -4    0.61    0.69
   4 -12  -4    3.02    1.02
   5 -12  -4   46.48    2.88
   6 -12  -4   12.46    1.79
   7 -12  -4   30.46    2.76
   8 -12  -4   16.93    2.05
   9 -12  -4   17.97    2.12
  10 -12  -4  163.51    5.90
  11 -12  -4    9.87    1.62
  12 -12  -4    6.09    1.92
  -2 -11  -4    7.00    1.62
  -1 -11  -4    7.45    1.55
   0 -11  -4   14.51    2.00
   1 -11  -4   17.12    2.10
   2 -11  -4  113.32    4.67
   3 -11  -4   44.51    2.32
   4 -11  -4   17.06    1.63
   5 -11  -4   56.13    3.08
   6 -11  -4   18.89    2.09
   7 -11  -4   79.73    3.72
   8 -11  -4    9.62    1.52
   9 -11  -4    0.95    0.58
  10 -11  -4   11.73    1.69
  11 -11  -4   14.07    1.89
  12 -11  -4    5.82    1.30
  13 -11  -4   28.27    3.92
  -3 -10  -4   16.01    2.16
  -2 -10  -4  162.54    6.06
  -1 -10  -4   15.01    2.03
   0 -10  -4   23.98    2.46
   1 -10  -4   14.05    1.83
   2 -10  -4   39.24    2.07
   3 -10  -4    2.32    0.66
   4 -10  -4    0.36    0.42
   5 -10  -4   30.61    1.93
   6 -10  -4  157.80    4.24
   7 -10  -4   48.28    2.70
   8 -10  -4   44.23    2.55
   9 -10  -4   37.63    2.60
  10 -10  -4   27.09    2.48
  11 -10  -4   16.46    1.93
  12 -10  -4   38.70    2.79
  13 -10  -4   20.13    3.22
  -4  -9  -4    2.20    1.51
  -3  -9  -4   21.95    2.36
  -2  -9  -4    0.61    0.65
  -1  -9  -4   33.60    2.55
   0  -9  -4   -0.16    0.49
   1  -9  -4   24.36    1.79
   2  -9  -4   33.65    1.85
   3  -9  -4  210.37    5.12
   4  -9  -4    7.77    1.00
   5  -9  -4   71.54    2.63
   6  -9  -4   18.51    1.53
   7  -9  -4   42.93    2.01
   8  -9  -4   27.63    1.91
   9  -9  -4    0.20    0.46
  10  -9  -4   11.43    1.63
  11  -9  -4  110.25    4.39
  12  -9  -4    1.02    0.68
  13  -9  -4   13.30    2.52
  -5  -8  -4    1.22    1.26
  -4  -8  -4   19.72    2.13
  -3  -8  -4    9.59    1.52
  -2  -8  -4   37.35    2.41
  -1  -8  -4   23.28    2.19
   0  -8  -4  214.52    6.38
   1  -8  -4   30.95    1.61
   2  -8  -4    8.39    0.93
   3  -8  -4    9.42    1.07
   4  -8  -4   70.97    3.10
   5  -8  -4   27.78    2.09
   6  -8  -4   52.76    2.68
   7  -8  -4   39.77    2.30
   8  -8  -4  219.13    6.35
   9  -8  -4   23.39    2.18
  10  -8  -4   42.83    3.50
  11  -8  -4   45.64    3.77
  12  -8  -4    0.66    0.60
  13  -8  -4   56.78    4.43
  -6  -7  -4   20.36    3.45
  -5  -7  -4   30.98    4.11
  -4  -7  -4   79.75    3.61
  -3  -7  -4   51.25    2.76
  -2  -7  -4   43.28    2.45
  -1  -7  -4   35.05    2.20
   0  -7  -4    5.79    0.81
   1  -7  -4   16.35    1.30
   2  -7  -4   31.08    1.94
   3  -7  -4   61.78    2.79
   4  -7  -4  231.71    6.43
   5  -7  -4   59.17    2.78
   6  -7  -4  109.29    3.95
   7  -7  -4    4.95    0.99
   8  -7  -4   30.51    2.03
   9  -7  -4   32.77    2.15
  10  -7  -4    1.88    0.68
  11  -7  -4   15.23    1.82
  12  -7  -4   51.50    4.01
  -7  -6  -4   50.42    3.55
  -6  -6  -4    7.61    1.37
  -5  -6  -4   21.01    2.17
  -4  -6  -4  154.89    4.10
  -3  -6  -4   20.14    1.53
  -2  -6  -4   52.42    2.05
  -1  -6  -4  108.06    2.53
   0  -6  -4   36.29    1.55
   1  -6  -4  274.03    5.45
   2  -6  -4    1.56    0.59
   3  -6  -4   10.13    1.28
   4  -6  -4   33.94    2.00
   5  -6  -4   22.19    1.94
   6  -6  -4   34.41    2.08
   7  -6  -4   14.86    1.63
   8  -6  -4    6.54    1.15
   9  -6  -4  214.69    6.37
  10  -6  -4    1.03    0.67
  11  -6  -4   62.36    3.20
  12  -6  -4   13.95    1.81
  -8  -5  -4   51.14    3.27
  -7  -5  -4   45.71    2.91
  -6  -5  -4   65.54    3.33
  -5  -5  -4   28.08    2.44
  -4  -5  -4   73.48    2.52
  -3  -5  -4   28.29    1.45
  -2  -5  -4   60.83    2.12
  -1  -5  -4   30.22    1.38
   0  -5  -4   16.51    1.22
   1  -5  -4   74.58    2.27
   2  -5  -4  101.81    2.70
   3  -5  -4   31.55    1.39
   4  -5  -4  135.34    3.28
   5  -5  -4   16.84    1.27
   6  -5  -4  274.01    5.59
   7  -5  -4   34.47    1.93
   8  -5  -4    7.62    1.15
   9  -5  -4    9.58    1.37
  10  -5  -4   26.86    2.30
  11  -5  -4   22.14    2.21
  12  -5  -4   33.77    3.04
  13  -5  -4    1.36    1.25
  -9  -4  -4   13.73    2.02
  -8  -4  -4    2.44    0.99
  -7  -4  -4   13.29    1.79
  -6  -4  -4    1.28    0.66
  -5  -4  -4    9.57    1.39
  -4  -4  -4   69.11    2.29
  -3  -4  -4  236.95    4.98
  -2  -4  -4   35.78    1.51
  -1  -4  -4  136.02    3.24
   0  -4  -4   67.54    2.10
   1  -4  -4  101.28    2.68
   2  -4  -4  139.27    3.37
   3  -4  -4  206.40    4.48
   4  -4  -4   60.81    2.07
   5  -4  -4   72.41    2.85
   6  -4  -4    2.31    0.62
   7  -4  -4   56.76    2.61
   8  -4  -4   68.25    2.99
   9  -4  -4   71.62    3.23
  10  -4  -4  152.88    5.21
  11  -4  -4   84.15    5.25
  12  -4  -4   20.15    3.16
  13  -4  -4    4.86    1.99
 -10  -3  -4   21.33    2.51
  -9  -3  -4    1.45    0.79
  -8  -3  -4   44.17    2.77
  -7  -3  -4    2.12    0.78
  -6  -3  -4  212.48    5.07
  -5  -3  -4    8.17    0.93
  -4  -3  -4   56.12    1.66
  -3  -3  -4    8.39    0.69
  -2  -3  -4   33.17    1.38
  -1  -3  -4  217.92    4.47
   0  -3  -4   82.82    2.31
   1  -3  -4    1.56    0.41
   2  -3  -4  245.93    4.93
   3  -3  -4   81.79    2.92
   4  -3  -4   99.57    3.40
   5  -3  -4  100.08    2.63
   6  -3  -4    8.87    0.89
   7  -3  -4  238.87    5.10
   8  -3  -4   30.04    1.55
   9  -3  -4   19.76    1.89
  10  -3  -4   51.23    2.72
  11  -3  -4   11.44    1.69
  12  -3  -4   25.71    3.80
  13  -3  -4   22.42    3.60
 -11  -2  -4   33.27    4.41
 -10  -2  -4   40.35    2.99
  -9  -2  -4  110.49    3.73
  -8  -2  -4   37.87    1.98
  -7  -2  -4   34.53    1.77
  -6  -2  -4    5.89    0.84
  -5  -2  -4   33.37    1.54
  -4  -2  -4    3.13    0.46
  -3  -2  -4   95.82    2.18
  -2  -2  -4  136.38    2.73
  -1  -2  -4  250.63    4.05
   0  -2  -4   64.94    1.56
   1  -2  -4  107.00    2.19
   2  -2  -4   61.99    1.79
   3  -2  -4    1.96    0.40
   4  -2  -4  140.82    3.32
   5  -2  -4   31.96    1.42
   6  -2  -4   35.93    1.58
   7  -2  -4   62.20    2.66
   8  -2  -4   54.28    2.64
   9  -2  -4   41.03    2.41
  10  -2  -4   37.69    2.43
  11  -2  -4    0.88    0.65
  12  -2  -4  171.79    6.19
  13  -2  -4    4.97    1.74
 -11  -1  -4    6.95    1.20
 -10  -1  -4   16.75    1.70
  -9  -1  -4   11.86    1.34
  -8  -1  -4   25.86    1.89
  -7  -1  -4   31.35    1.63
  -6  -1  -4   18.37    1.44
  -5  -1  -4  271.18    5.52
  -4  -1  -4   75.18    1.84
  -3  -1  -4  102.62    2.20
  -2  -1  -4    2.10    0.35
  -1  -1  -4  109.67    2.24
   0  -1  -4    8.74    0.75
   1  -1  -4   10.81    0.85
   2  -1  -4  110.15    2.67
   3  -1  -4  250.39    4.89
   4  -1  -4  215.31    4.55
   5  -1  -4  138.35    4.09
   6  -1  -4   30.14    1.77
   7  -1  -4  105.55    3.88
   8  -1  -4   39.46    2.34
   9  -1  -4   25.37    2.35
  10  -1  -4   35.87    2.96
  11  -1  -4   11.72    1.75
  12  -1  -4    5.23    1.31
 -12   0  -4    4.90    1.96
 -11   0  -4   12.69    1.51
 -10   0  -4   24.46    1.97
  -9   0  -4    0.24    0.38
  -8   0  -4  211.77    5.11
  -7   0  -4    6.51    0.87
  -6   0  -4   37.80    1.65
  -5   0  -4   17.06    1.26
  -4   0  -4   63.90    1.62
  -3   0  -4   85.11    1.90
  -2   0  -4   64.07    1.61
  -1   0  -4   10.64    0.86
   0   0  -4  924.11   14.60
   1   0  -4   10.27    0.89
   2   0  -4   63.17    1.97
   3   0  -4   80.96    2.37
   4   0  -4   64.69    2.60
   5   0  -4   18.32    2.48
   6   0  -4   33.86    2.02
   7   0  -4    5.19    0.99
   8   0  -4  217.43    6.56
   9   0  -4    0.21    0.56
  10   0  -4   25.60    2.62
  11   0  -4   14.31    2.08
  12   0  -4    5.45    1.93
 -12   1  -4   10.97    1.84
 -11   1  -4   14.67    2.04
 -10   1  -4   36.88    1.96
  -9   1  -4   25.79    1.83
  -8   1  -4   38.18    1.82
  -7   1  -4  104.43    3.06
  -6   1  -4   28.07    1.37
  -5   1  -4  134.25    3.28
  -4   1  -4  216.20    3.26
  -3   1  -4  249.06    3.58
  -2   1  -4  113.44    2.21
  -1   1  -4    9.99    0.85
   0   1  -4   10.02    0.87
   1   1  -4  106.15    2.74
   2   1  -4    1.74    0.44
   3   1  -4  102.85    3.42
   4   1  -4   68.97    2.89
   5   1  -4  273.04    7.05
   6   1  -4   17.49    1.84
   7   1  -4   29.98    2.28
   8   1  -4   27.86    2.59
   9   1  -4   10.71    1.67
  10   1  -4   21.17    2.42
  11   1  -4    7.99    1.65
 -12   2  -4  167.64    6.27
 -11   2  -4    1.13    0.74
 -10   2  -4   38.42    2.50
  -9   2  -4   39.09    1.88
  -8   2  -4   52.43    2.08
  -7   2  -4   60.72    1.86
  -6   2  -4   34.05    1.29
  -5   2  -4   33.28    1.20
  -4   2  -4  140.97    2.82
  -3   2  -4    1.73    0.32
  -2   2  -4   63.70    1.59
  -1   2  -4  108.96    2.19
   0   2  -4   62.36    1.55
   1   2  -4  252.03    4.11
   2   2  -4  141.44    4.27
   3   2  -4  101.34    3.54
   4   2  -4    2.14    0.65
   5   2  -4   31.79    2.18
   6   2  -4    5.23    1.09
   7   2  -4   35.31    2.58
   8   2  -4   40.97    2.89
   9   2  -4  116.59    4.93
  10   2  -4   44.22    3.72
 -13   3  -4   19.17    2.40
 -12   3  -4   20.22    2.42
 -11   3  -4    9.00    1.53
 -10   3  -4   47.79    2.77
  -9   3  -4   20.73    1.66
  -8   3  -4   26.94    1.71
  -7   3  -4  235.39    4.33
  -6   3  -4    8.36    0.73
  -5   3  -4   98.16    2.26
  -4   3  -4   99.94    2.23
  -3   3  -4   81.16    1.92
  -2   3  -4  251.51    4.14
  -1   3  -4    1.64    0.33
   0   3  -4   81.85    1.95
   1   3  -4  217.88    4.40
   2   3  -4   31.87    1.38
   3   3  -4   10.15    1.32
   4   3  -4   59.86    2.83
   5   3  -4    7.69    1.22
   6   3  -4  208.31    6.59
   7   3  -4    2.88    1.00
   8   3  -4   45.09    3.24
   9   3  -4    1.59    1.01
  10   3  -4   19.80    2.58
 -13   4  -4    1.90    0.98
 -12   4  -4   23.03    2.51
 -11   4  -4   81.92    3.85
 -10   4  -4  146.90    4.30
  -9   4  -4   73.71    2.73
  -8   4  -4   67.64    2.46
  -7   4  -4   56.00    2.13
  -6   4  -4    2.24    0.49
  -5   4  -4   74.44    1.91
  -4   4  -4   66.69    1.74
  -3   4  -4  216.24    3.82
  -2   4  -4  139.74    2.88
  -1   4  -4   97.71    2.28
   0   4  -4   66.14    1.81
   1   4  -4  136.71    3.30
   2   4  -4   35.27    1.57
   3   4  -4  226.27    6.47
   4   4  -4   65.86    3.14
   5   4  -4    8.30    1.36
   6   4  -4    0.58    0.60
   7   4  -4   11.88    1.76
   8   4  -4    0.86    0.74
   9   4  -4   10.74    1.91
 -13   5  -4    1.78    0.98
 -12   5  -4   33.45    2.47
 -11   5  -4   18.95    1.74
 -10   5  -4   29.85    2.07
  -9   5  -4    7.68    1.06
  -8   5  -4    6.48    0.89
  -7   5  -4   33.77    1.70
  -6   5  -4  276.40    5.67
  -5   5  -4   15.09    1.19
  -4   5  -4  137.59    2.77
  -3   5  -4   32.86    1.21
  -2   5  -4   98.12    2.33
  -1   5  -4   74.70    2.02
   0   5  -4   16.11    1.13
   1   5  -4   28.64    1.42
   2   5  -4   62.14    2.26
   3   5  -4   31.27    2.51
   4   5  -4   72.81    3.43
   5   5  -4   27.15    2.52
   6   5  -4   66.70    3.51
   7   5  -4   48.03    3.35
   8   5  -4   53.45    3.48
 -14   6  -4   14.49    2.91
 -13   6  -4   18.37    1.90
 -12   6  -4   12.34    1.47
 -11   6  -4   63.32    2.71
 -10   6  -4    1.81    0.57
  -9   6  -4  207.84    5.19
  -8   6  -4    5.15    0.80
  -7   6  -4   16.31    1.33
  -6   6  -4   36.41    1.67
  -5   6  -4   29.34    1.44
  -4   6  -4   33.21    1.55
  -3   6  -4    8.33    0.90
  -2   6  -4    3.44    0.50
  -1   6  -4  269.80    5.62
   0   6  -4   37.97    1.69
   1   6  -4  102.92    3.11
   2   6  -4   56.24    2.26
   3   6  -4   19.30    2.06
   4   6  -4  154.04    5.45
   5   6  -4   23.09    2.42
   6   6  -4    9.32    1.70
   7   6  -4   52.71    3.44
 -14   7  -4   50.50    4.28
 -13   7  -4   53.11    2.69
 -12   7  -4   50.68    2.49
 -11   7  -4   12.09    1.39
 -10   7  -4    0.80    0.48
  -9   7  -4   34.18    1.88
  -8   7  -4   30.22    1.79
  -7   7  -4    6.08    0.86
  -6   7  -4  106.28    3.16
  -5   7  -4   60.34    2.23
  -4   7  -4  231.85    5.16
  -3   7  -4   61.03    2.22
  -2   7  -4   32.64    1.60
  -1   7  -4   17.71    1.38
   0   7  -4    6.09    0.88
   1   7  -4   39.94    1.90
   2   7  -4   42.89    2.05
   3   7  -4   49.79    2.86
   4   7  -4   86.65    3.99
   5   7  -4   32.03    2.96
   6   7  -4   21.01    2.56
   7   7  -4   41.83    5.11
 -13   8  -4   53.15    3.53
 -12   8  -4    2.15    0.77
 -11   8  -4   42.54    2.31
 -10   8  -4   39.79    2.09
  -9   8  -4   19.43    1.64
  -8   8  -4  217.83    5.17
  -7   8  -4   36.93    1.80
  -6   8  -4   55.24    2.19
  -5   8  -4   29.46    1.70
  -4   8  -4   71.00    2.47
  -3   8  -4    9.36    1.04
  -2   8  -4    7.54    0.86
  -1   8  -4   35.65    1.84
   0   8  -4  219.09    5.23
   1   8  -4   26.40    1.91
   2   8  -4   36.26    1.97
   3   8  -4   12.13    1.77
   4   8  -4   17.83    2.18
   5   8  -4    3.92    1.19
   6   8  -4   16.40    3.17
 -13   9  -4   11.09    1.95
 -12   9  -4    1.82    0.92
 -11   9  -4  123.30    5.17
 -10   9  -4   10.99    1.74
  -9   9  -4    0.22    0.52
  -8   9  -4   30.75    2.74
  -7   9  -4   41.00    2.62
  -6   9  -4   18.07    2.04
  -5   9  -4   76.15    2.79
  -4   9  -4    8.52    1.03
  -3   9  -4  225.13    5.25
  -2   9  -4   33.36    1.82
  -1   9  -4   23.17    1.78
   0   9  -4    0.02    0.40
   1   9  -4   34.86    2.18
   2   9  -4    1.24    0.75
   3   9  -4   24.12    2.51
   4   9  -4    0.69    1.16
 -13  10  -4   23.73    2.81
 -12  10  -4   40.32    3.61
 -11  10  -4   15.19    2.14
 -10  10  -4   22.15    2.58
  -9  10  -4   35.75    3.12
  -8  10  -4   39.54    2.89
  -7  10  -4   50.58    3.00
  -6  10  -4  157.36    5.66
  -5  10  -4   30.37    2.71
  -4  10  -4    0.96    0.66
  -3  10  -4    2.67    0.92
  -2  10  -4   38.24    2.58
  -1  10  -4   10.41    1.61
   0  10  -4   25.85    2.62
   1  10  -4   13.69    1.92
   2  10  -4  164.39    8.94
   3  10  -4   17.40    3.25
 -12  11  -4    6.26    1.49
 -11  11  -4   14.36    2.11
 -10  11  -4   13.92    2.04
  -9  11  -4    1.27    0.83
  -8  11  -4   10.53    1.75
  -7  11  -4   79.14    4.02
  -6  11  -4   22.97    2.44
  -5  11  -4   64.92    3.55
  -4  11  -4   12.05    1.82
  -3  11  -4   45.42    3.17
  -2  11  -4  117.44    4.95
  -1  11  -4   18.09    2.33
   0  11  -4   12.87    2.01
   1  11  -4   10.45    2.66
 -12  12  -4    3.14    1.90
 -11  12  -4   11.37    1.87
 -10  12  -4  179.39    6.67
  -9  12  -4   21.19    2.57
  -8  12  -4   21.18    2.55
  -7  12  -4   31.75    3.09
  -6  12  -4   12.52    1.93
  -5  12  -4   48.75    3.17
  -4  12  -4    1.65    0.83
  -3  12  -4    1.30    0.84
  -2  12  -4   39.70    3.39
  -1  12  -4    5.97    1.44
 -10  13  -4   17.80    2.43
  -9  13  -4    0.85    0.79
  -8  13  -4    3.00    1.13
  -7  13  -4   17.40    2.39
  -6  13  -4   52.53    3.47
  -5  13  -4   56.97    3.61
  -4  13  -4   13.62    2.15
  -3  13  -4   20.77    2.64
  -2  13  -4   29.40    4.41
  -8  14  -4   14.21    3.48
  -7  14  -4   55.55    5.30
  -6  14  -4    9.03    2.65
   4 -14  -3    5.15    1.85
   5 -14  -3   28.37    2.78
   6 -14  -3   23.46    2.49
   7 -14  -3  129.25    5.23
   8 -14  -3   17.24    2.18
   9 -14  -3   -0.02    0.64
  10 -14  -3   41.05    3.45
  11 -14  -3   29.41    3.93
   2 -13  -3  109.83    6.82
   3 -13  -3   41.59    4.82
   4 -13  -3   91.61    4.08
   5 -13  -3    1.03    0.71
   6 -13  -3    7.55    1.32
   7 -13  -3   44.83    3.07
   8 -13  -3    4.44    1.13
   9 -13  -3    7.75    1.48
  10 -13  -3   81.18    3.90
  11 -13  -3   10.68    1.63
  12 -13  -3   67.06    5.13
  -1 -12  -3   70.63    3.85
   0 -12  -3   51.12    3.17
   1 -12  -3   26.19    2.71
   2 -12  -3   18.67    3.22
   3 -12  -3   18.32    2.03
   4 -12  -3   22.68    2.28
   5 -12  -3    1.30    0.69
   6 -12  -3   28.11    2.51
   7 -12  -3   66.94    3.40
   8 -12  -3   61.12    3.20
   9 -12  -3   55.78    3.03
  10 -12  -3    3.48    1.03
  11 -12  -3   20.88    2.22
  12 -12  -3   46.04    4.19
  13 -12  -3    1.99    0.93
  -3 -11  -3   30.13    3.92
  -2 -11  -3   11.89    1.82
  -1 -11  -3   23.76    2.46
   0 -11  -3   39.37    2.68
   1 -11  -3    5.77    1.23
   2 -11  -3    4.65    0.84
   3 -11  -3  143.05    4.03
   4 -11  -3   53.48    2.85
   5 -11  -3  139.23    4.95
   6 -11  -3   17.87    1.96
   7 -11  -3    4.11    0.98
   8 -11  -3   14.22    1.76
   9 -11  -3   44.10    2.56
  10 -11  -3   14.69    1.83
  11 -11  -3   41.26    2.56
  12 -11  -3   27.23    3.59
  13 -11  -3  105.93    4.70
  14 -11  -3   21.42    2.49
  -4 -10  -3   41.76    3.08
  -3 -10  -3   84.94    4.06
  -2 -10  -3    4.55    1.16
  -1 -10  -3   16.81    2.03
   0 -10  -3  161.43    5.44
   1 -10  -3   31.67    1.79
   2 -10  -3   88.19    2.90
   3 -10  -3   24.37    1.62
   4 -10  -3   17.44    1.46
   5 -10  -3   18.36    1.48
   6 -10  -3   15.83    1.75
   7 -10  -3    9.15    1.33
   8 -10  -3  172.54    5.45
   9 -10  -3   16.56    1.84
  10 -10  -3  150.31    5.17
  11 -10  -3    5.67    1.17
  12 -10  -3   24.05    3.23
  13 -10  -3   37.31    2.83
  14 -10  -3    7.30    2.22
  -5  -9  -3   -0.35    1.05
  -4  -9  -3   12.51    1.79
  -3  -9  -3   56.83    3.10
  -2  -9  -3   43.47    2.62
  -1  -9  -3   15.28    1.82
   0  -9  -3   30.72    2.26
   1  -9  -3  197.33    4.64
   2  -9  -3   29.39    1.54
   3  -9  -3    2.56    0.58
   4  -9  -3   29.18    1.53
   5  -9  -3  309.11    6.25
   6  -9  -3   80.66    2.62
   7  -9  -3   38.70    1.78
   8  -9  -3    0.84    0.53
   9  -9  -3   34.45    2.11
  10  -9  -3   32.48    2.12
  11  -9  -3    5.52    1.06
  12  -9  -3   21.86    2.98
  13  -9  -3   92.32    4.13
  -6  -8  -3   19.18    3.37
  -5  -8  -3    4.15    1.09
  -4  -8  -3   60.91    3.16
  -3  -8  -3   13.58    1.68
  -2  -8  -3  164.43    5.35
  -1  -8  -3    2.68    0.78
   0  -8  -3    6.42    0.81
   1  -8  -3  147.63    3.67
   2  -8  -3   91.70    2.75
   3  -8  -3  141.15    3.62
   4  -8  -3    1.08    0.39
   5  -8  -3   28.24    1.43
   6  -8  -3   72.42    2.42
   7  -8  -3    1.50    0.46
   8  -8  -3    6.15    0.81
   9  -8  -3  200.18    5.77
  10  -8  -3   87.27    3.47
  11  -8  -3  135.08    4.70
  12  -8  -3   18.64    2.77
  13  -8  -3   -0.62    0.69
  -7  -7  -3  138.73    7.95
  -6  -7  -3   46.92    4.33
  -5  -7  -3   68.99    3.29
  -4  -7  -3    5.47    1.01
  -3  -7  -3    9.22    1.32
  -2  -7  -3   37.16    2.16
  -1  -7  -3    1.10    0.37
   0  -7  -3   36.66    1.57
   1  -7  -3  253.71    5.26
   2  -7  -3   45.76    1.76
   3  -7  -3  287.35    5.77
   4  -7  -3   39.30    2.04
   5  -7  -3   25.26    1.75
   6  -7  -3  300.68    7.43
   7  -7  -3   31.88    1.89
   8  -7  -3  146.74    4.53
   9  -7  -3   30.30    1.92
  10  -7  -3   23.00    2.03
  11  -7  -3   58.09    2.80
  12  -7  -3    1.50    0.94
  -8  -6  -3   24.19    2.67
  -7  -6  -3    8.01    1.55
  -6  -6  -3   26.15    2.46
  -5  -6  -3   18.31    1.51
  -4  -6  -3   20.54    1.53
  -3  -6  -3   81.65    2.56
  -2  -6  -3   75.53    2.35
  -1  -6  -3  300.92    4.99
   0  -6  -3  110.11    2.32
   1  -6  -3   44.42    1.31
   2  -6  -3   13.62    0.82
   3  -6  -3  157.49    3.35
   4  -6  -3  100.65    2.52
   5  -6  -3   39.90    1.99
   6  -6  -3  106.69    2.79
   7  -6  -3  263.68    5.30
   8  -6  -3   87.98    3.34
   9  -6  -3    2.62    0.74
  10  -6  -3   17.95    1.77
  11  -6  -3  142.56    4.82
  -9  -5  -3   25.40    2.76
  -8  -5  -3    0.63    0.68
  -7  -5  -3    0.32    0.61
  -6  -5  -3  136.95    4.94
  -5  -5  -3   21.51    1.52
  -4  -5  -3  306.87    6.10
  -3  -5  -3   27.34    1.33
  -2  -5  -3   25.27    0.98
  -1  -5  -3   39.08    1.24
   0  -5  -3  130.11    3.01
   1  -5  -3    2.97    0.46
   2  -5  -3  288.77    5.21
   3  -5  -3   56.01    1.97
   4  -5  -3  417.10    7.36
   5  -5  -3  125.54    3.02
   6  -5  -3   46.72    1.64
   7  -5  -3   50.15    1.67
   8  -5  -3  140.71    3.44
   9  -5  -3   32.79    1.51
  10  -5  -3   18.94    1.46
  11  -5  -3   16.64    1.78
  12  -5  -3   67.69    4.60
  13  -5  -3    5.41    1.79
 -10  -4  -3    4.71    1.35
  -9  -4  -3   91.26    4.27
  -8  -4  -3   22.42    2.31
  -7  -4  -3   60.84    2.47
  -6  -4  -3   19.48    1.54
  -5  -4  -3   30.97    1.27
  -4  -4  -3    0.35    0.25
  -3  -4  -3   38.49    1.26
  -2  -4  -3   96.32    1.81
  -1  -4  -3  426.06    6.22
   0  -4  -3  119.70    2.79
   1  -4  -3  427.04    7.28
   2  -4  -3    1.48    0.35
   3  -4  -3   70.29    1.96
   4  -4  -3  126.36    2.32
   5  -4  -3    2.86    0.41
   6  -4  -3   10.30    0.84
   7  -4  -3  289.29    5.63
   8  -4  -3    0.71    0.40
   9  -4  -3  314.26    6.07
  10  -4  -3   20.68    1.94
  11  -4  -3    5.95    1.14
  12  -4  -3   56.57    3.03
  13  -4  -3    7.83    1.48
  14  -4  -3   41.62    3.43
 -10  -3  -3   41.29    3.11
  -9  -3  -3   18.24    1.75
  -8  -3  -3  139.78    4.11
  -7  -3  -3   22.42    1.66
  -6  -3  -3    3.08    0.64
  -5  -3  -3  143.01    2.98
  -4  -3  -3  287.77    4.79
  -3  -3  -3  157.20    2.92
  -2  -3  -3   53.36    1.38
  -1  -3  -3   69.30    1.53
   0  -3  -3  202.16    3.30
   1  -3  -3   58.73    1.73
   2  -3  -3  127.79    3.40
   3  -3  -3  201.61    3.82
   4  -3  -3  434.98    7.19
   5  -3  -3  296.06    5.27
   6  -3  -3  159.60    4.19
   7  -3  -3   40.36    1.48
   8  -3  -3   27.72    1.32
   9  -3  -3   85.82    2.60
  10  -3  -3    7.21    1.17
  11  -3  -3   14.38    1.71
  12  -3  -3   57.23    3.10
  13  -3  -3   85.44    4.06
  14  -3  -3   31.18    3.22
 -11  -2  -3  111.86    3.99
 -10  -2  -3   18.62    1.78
  -9  -2  -3    6.42    1.03
  -8  -2  -3   85.86    2.97
  -7  -2  -3   31.07    1.70
  -6  -2  -3   87.03    2.72
  -5  -2  -3   47.40    1.42
  -4  -2  -3    9.57    0.70
  -3  -2  -3  283.02    4.44
  -2  -2  -3    1.82    0.29
  -1  -2  -3  126.60    2.32
   0  -2  -3  445.66    6.13
   1  -2  -3   90.85    1.76
   2  -2  -3  442.64    7.10
   3  -2  -3   60.50    1.68
   4  -2  -3    2.08    0.28
   5  -2  -3   56.41    1.58
   6  -2  -3   96.45    2.43
   7  -2  -3   25.74    1.25
   8  -2  -3   76.91    2.38
   9  -2  -3   38.73    1.75
  10  -2  -3  169.19    5.46
  11  -2  -3   38.52    2.51
  12  -2  -3    4.47    1.18
  13  -2  -3   14.89    2.08
 -12  -1  -3    1.35    0.88
 -11  -1  -3   23.72    2.05
 -10  -1  -3    5.01    0.98
  -9  -1  -3   30.74    2.08
  -8  -1  -3  202.17    4.82
  -7  -1  -3  141.65    3.70
  -6  -1  -3  255.43    5.31
  -5  -1  -3   43.28    1.26
  -4  -1  -3    2.43    0.34
  -3  -1  -3  424.10    6.18
  -2  -1  -3   62.70    1.45
  -1  -1  -3   91.34    1.81
   0  -1  -3  107.02    2.30
   1  -1  -3  111.28    2.34
   2  -1  -3   88.26    2.14
   3  -1  -3  127.86    2.26
   4  -1  -3   72.42    2.02
   5  -1  -3  430.76    7.29
   6  -1  -3   40.36    1.49
   7  -1  -3  299.50    5.93
   8  -1  -3    1.35    0.43
   9  -1  -3    2.07    0.56
  10  -1  -3   13.67    1.75
  11  -1  -3   14.27    1.89
  12  -1  -3   24.61    2.61
  13  -1  -3   73.18    4.02
 -12   0  -3   52.76    2.79
 -11   0  -3   38.20    2.40
 -10   0  -3  153.62    4.37
  -9   0  -3   31.86    1.83
  -8   0  -3    5.79    0.82
  -7   0  -3   36.49    1.63
  -6   0  -3  106.75    2.83
  -5   0  -3  128.33    2.44
  -4   0  -3  125.62    2.32
  -3   0  -3  200.56    3.37
  -2   0  -3  435.51    6.15
  -1   0  -3  102.81    2.34
   0   0  -3    0.11    0.15
   1   0  -3  103.85    2.39
   2   0  -3  443.08    7.35
   3   0  -3  201.23    3.85
   4   0  -3  123.60    2.75
   5   0  -3  128.48    3.03
   6   0  -3  108.94    2.81
   7   0  -3   38.06    1.64
   8   0  -3    5.84    0.83
   9   0  -3   33.48    1.87
  10   0  -3  145.27    5.35
  11   0  -3   36.95    3.07
  12   0  -3   51.21    3.26
 -13   1  -3   70.01    5.90
 -12   1  -3   27.01    2.81
 -11   1  -3   15.18    1.52
 -10   1  -3   16.50    1.51
  -9   1  -3    1.59    0.50
  -8   1  -3    0.99    0.42
  -7   1  -3  292.33    5.96
  -6   1  -3   41.38    1.58
  -5   1  -3  414.92    6.41
  -4   1  -3   69.14    1.33
  -3   1  -3  126.37    2.05
  -2   1  -3   88.60    1.79
  -1   1  -3  104.65    1.94
   0   1  -3  105.10    1.93
   1   1  -3   89.19    1.77
   2   1  -3   61.80    1.64
   3   1  -3  435.72    7.26
   4   1  -3    2.59    0.44
   5   1  -3   44.67    1.63
   6   1  -3  255.28    5.33
   7   1  -3  145.55    3.75
   8   1  -3  191.50    4.75
   9   1  -3   35.58    2.16
  10   1  -3    4.60    1.15
  11   1  -3   23.17    2.63
  12   1  -3    0.24    1.14
 -13   2  -3   10.30    1.83
 -12   2  -3    4.14    1.14
 -11   2  -3   44.88    2.76
 -10   2  -3  164.59    4.36
  -9   2  -3   35.26    1.69
  -8   2  -3   74.25    2.10
  -7   2  -3   24.55    1.08
  -6   2  -3   97.18    2.21
  -5   2  -3   52.55    1.46
  -4   2  -3    1.93    0.23
  -3   2  -3   59.08    1.45
  -2   2  -3  429.52    6.17
  -1   2  -3   91.74    1.85
   0   2  -3  433.43    6.21
   1   2  -3  128.55    2.77
   2   2  -3    2.43    0.40
   3   2  -3  286.61    5.34
   4   2  -3   10.86    0.94
   5   2  -3   49.78    1.85
   6   2  -3   91.88    2.83
   7   2  -3   29.21    1.77
   8   2  -3   82.20    2.96
   9   2  -3    5.46    1.19
  10   2  -3   18.62    2.29
  11   2  -3  111.00    5.05
 -13   3  -3   84.36    4.21
 -12   3  -3   56.20    3.23
 -11   3  -3   13.57    1.77
 -10   3  -3    9.07    1.39
  -9   3  -3   83.52    2.28
  -8   3  -3   29.20    1.21
  -7   3  -3   38.13    1.33
  -6   3  -3  155.29    2.99
  -5   3  -3  279.45    4.51
  -4   3  -3  420.59    6.24
  -3   3  -3  201.87    3.46
  -2   3  -3  124.91    2.41
  -1   3  -3   58.82    1.50
   0   3  -3  203.81    4.07
   1   3  -3   69.62    1.96
   2   3  -3   52.49    1.76
   3   3  -3  158.01    3.63
   4   3  -3  287.93    5.85
   5   3  -3  142.26    3.71
   6   3  -3    1.99    0.56
   7   3  -3   24.88    1.84
   8   3  -3  139.70    4.22
   9   3  -3   15.00    2.08
  10   3  -3   45.79    3.37
 -14   4  -3   41.08    3.55
 -13   4  -3    9.48    1.66
 -12   4  -3   60.81    3.29
 -11   4  -3    5.60    0.97
 -10   4  -3   18.15    1.58
  -9   4  -3  305.45    6.40
  -8   4  -3    0.80    0.39
  -7   4  -3  288.26    4.84
  -6   4  -3    8.88    0.62
  -5   4  -3    2.21    0.32
  -4   4  -3  125.23    2.39
  -3   4  -3   72.33    1.65
  -2   4  -3    1.96    0.32
  -1   4  -3  431.08    7.39
   0   4  -3  124.81    2.94
   1   4  -3  419.25    7.55
   2   4  -3   97.70    2.69
   3   4  -3   39.30    1.67
   4   4  -3    1.18    0.44
   5   4  -3   34.05    1.79
   6   4  -3   17.16    1.54
   7   4  -3   57.50    2.53
   8   4  -3   21.30    1.90
   9   4  -3   87.89    4.39
  10   4  -3    4.19    1.41
 -14   5  -3    0.57    0.74
 -13   5  -3    3.56    1.04
 -12   5  -3   71.99    2.96
 -11   5  -3   15.99    1.58
 -10   5  -3   19.05    1.58
  -9   5  -3   32.75    1.65
  -8   5  -3  139.36    3.70
  -7   5  -3   47.68    1.85
  -6   5  -3   43.95    1.68
  -5   5  -3  132.74    3.20
  -4   5  -3  422.03    6.31
  -3   5  -3   54.40    1.25
  -2   5  -3  284.33    3.99
  -1   5  -3    2.52    0.33
   0   5  -3  133.31    3.19
   1   5  -3   39.41    1.63
   2   5  -3   25.97    1.52
   3   5  -3   26.80    1.61
   4   5  -3  306.57    6.43
   5   5  -3   18.19    1.56
   6   5  -3  134.04    4.13
   7   5  -3    0.25    0.50
   8   5  -3    0.30    0.72
   9   5  -3   29.47    3.10
 -14   6  -3   14.65    2.03
 -13   6  -3   44.23    2.37
 -12   6  -3   24.03    1.98
 -11   6  -3  138.88    4.14
 -10   6  -3   17.07    1.47
  -9   6  -3    2.55    0.62
  -8   6  -3   88.10    2.79
  -7   6  -3  251.96    5.36
  -6   6  -3  110.66    2.92
  -5   6  -3   39.12    1.32
  -4   6  -3   95.67    2.19
  -3   6  -3  159.18    2.61
  -2   6  -3   10.00    0.66
  -1   6  -3   43.55    1.67
   0   6  -3  107.74    2.93
   1   6  -3  296.41    6.13
   2   6  -3   77.83    2.57
   3   6  -3   82.98    2.79
   4   6  -3   19.22    1.64
   5   6  -3   16.90    1.59
   6   6  -3   23.64    2.01
   7   6  -3    6.80    1.21
   8   6  -3   23.65    2.75
 -14   7  -3  130.76    4.43
 -13   7  -3    6.44    1.09
 -12   7  -3    0.37    0.49
 -11   7  -3   62.62    2.56
 -10   7  -3   25.32    1.79
  -9   7  -3   31.07    1.68
  -8   7  -3  141.72    3.71
  -7   7  -3   35.38    1.60
  -6   7  -3  299.13    5.17
  -5   7  -3   23.56    1.09
  -4   7  -3   41.63    1.35
  -3   7  -3  286.27    4.86
  -2   7  -3   50.06    1.49
  -1   7  -3  255.06    5.37
   0   7  -3   33.00    1.60
   1   7  -3    1.48    0.51
   2   7  -3   38.22    1.86
   3   7  -3   10.43    1.18
   4   7  -3    5.33    0.89
   5   7  -3   63.84    2.84
   6   7  -3   46.46    2.57
   7   7  -3  129.95    5.52
 -14   8  -3   20.65    2.66
 -13   8  -3   -0.26    0.56
 -12   8  -3   20.08    2.36
 -11   8  -3  145.95    4.18
 -10   8  -3   87.36    2.97
  -9   8  -3  189.40    4.68
  -8   8  -3    4.99    0.64
  -7   8  -3    2.16    0.44
  -6   8  -3   79.19    2.09
  -5   8  -3   27.29    1.18
  -4   8  -3    1.89    0.38
  -3   8  -3  143.53    3.02
  -2   8  -3   89.45    2.77
  -1   8  -3  146.46    3.76
   0   8  -3    6.27    0.88
   1   8  -3    2.25    0.63
   2   8  -3  168.46    4.51
   3   8  -3   12.73    1.42
   4   8  -3   58.31    2.64
   5   8  -3    3.74    0.93
   6   8  -3   14.57    1.72
 -14   9  -3   32.23    3.24
 -13   9  -3   89.05    4.50
 -12   9  -3   16.92    2.27
 -11   9  -3    4.97    1.16
 -10   9  -3   35.74    2.72
  -9   9  -3   31.09    2.11
  -8   9  -3    2.10    0.56
  -7   9  -3   34.91    1.78
  -6   9  -3   79.46    2.69
  -5   9  -3  312.61    6.39
  -4   9  -3   32.28    1.63
  -3   9  -3    1.73    0.65
  -2   9  -3   31.31    2.32
  -1   9  -3  194.28    6.13
   0   9  -3   36.35    2.38
   1   9  -3   17.58    2.02
   2   9  -3   38.63    2.62
   3   9  -3   54.94    3.23
   4   9  -3   10.92    1.84
   5   9  -3   -0.17    0.68
 -14  10  -3    3.25    1.15
 -13  10  -3   39.20    3.48
 -12  10  -3   19.18    2.38
 -11  10  -3    4.39    1.10
 -10  10  -3  152.21    4.47
  -9  10  -3   14.52    1.47
  -8  10  -3  168.60    4.53
  -7  10  -3   11.27    1.20
  -6  10  -3   18.06    1.52
  -5  10  -3   19.76    1.55
  -4  10  -3   15.39    1.85
  -3  10  -3   22.63    2.29
  -2  10  -3   84.47    3.81
  -1  10  -3   36.46    3.02
   0  10  -3  156.19    5.60
   1  10  -3   17.61    2.20
   2  10  -3    5.06    1.26
   3  10  -3   81.43    4.21
   4  10  -3   45.39    3.79
 -13  11  -3  109.92    5.13
 -12  11  -3   29.25    2.93
 -11  11  -3   32.10    2.99
 -10  11  -3   15.62    1.61
  -9  11  -3   42.36    2.27
  -8  11  -3   14.61    1.48
  -7  11  -3    6.77    1.02
  -6  11  -3   18.61    1.62
  -5  11  -3  148.52    5.42
  -4  11  -3   55.50    3.16
  -3  11  -3  138.70    5.32
  -2  11  -3    4.01    1.11
  -1  11  -3    3.55    1.08
   0  11  -3   40.26    3.40
   1  11  -3   23.86    2.58
   2  11  -3   17.18    3.28
   3  11  -3   36.55    4.98
 -13  12  -3    2.20    1.12
 -12  12  -3   50.12    3.39
 -11  12  -3   23.89    2.13
 -10  12  -3    6.06    1.11
  -9  12  -3   53.82    2.54
  -8  12  -3   63.82    2.71
  -7  12  -3   70.99    3.76
  -6  12  -3   21.94    2.40
  -5  12  -3    0.77    0.65
  -4  12  -3   19.99    2.37
  -3  12  -3   17.22    2.23
  -2  12  -3   19.96    2.41
  -1  12  -3   27.98    2.92
   0  12  -3   52.49    3.40
   1  12  -3   72.65    4.08
 -12  13  -3   69.25    4.17
 -11  13  -3   14.24    1.68
 -10  13  -3   86.81    4.37
  -9  13  -3   11.41    1.45
  -8  13  -3    3.05    1.06
  -7  13  -3   47.77    3.37
  -6  13  -3    8.45    1.65
  -5  13  -3    0.55    0.68
  -4  13  -3  101.55    4.64
  -3  13  -3   42.53    3.58
  -2  13  -3  109.72    5.03
  -1  13  -3    2.26    1.01
 -11  14  -3   30.81    2.93
 -10  14  -3   38.15    2.74
  -9  14  -3    0.58    0.78
  -8  14  -3   16.73    2.34
  -7  14  -3  141.24    5.81
  -6  14  -3   22.66    2.70
  -5  14  -3   30.37    3.07
  -4  14  -3    4.12    1.25
  -3  14  -3   26.29    4.14
   5 -15  -2    8.03    2.21
   6 -15  -2    8.86    2.19
   7 -15  -2    5.26    1.06
   8 -15  -2   16.39    2.22
   9 -15  -2    3.36    1.16
   3 -14  -2   -0.31    1.00
   4 -14  -2   30.98    2.87
   5 -14  -2   17.88    2.18
   6 -14  -2    6.48    1.35
   7 -14  -2   32.24    2.90
   8 -14  -2   16.50    2.02
   9 -14  -2  181.89    5.18
  10 -14  -2   24.89    2.08
  11 -14  -2   16.94    2.26
   1 -13  -2    6.42    2.06
   2 -13  -2   57.30    4.63
   3 -13  -2   20.00    2.17
   4 -13  -2   43.78    2.70
   5 -13  -2  107.60    4.38
   6 -13  -2   27.00    2.45
   7 -13  -2   41.71    2.61
   8 -13  -2   13.71    1.86
   9 -13  -2    3.07    0.94
  10 -13  -2   18.16    2.07
  11 -13  -2    1.60    0.83
  12 -13  -2   16.21    2.18
  13 -13  -2   91.98    6.11
  -2 -12  -2    6.29    2.04
  -1 -12  -2   12.83    1.85
   0 -12  -2   15.97    2.87
   1 -12  -2   20.59    3.27
   2 -12  -2   49.50    2.77
   3 -12  -2    3.58    0.92
   4 -12  -2    3.78    0.97
   5 -12  -2   96.12    3.94
   6 -12  -2   10.78    1.51
   7 -12  -2   23.88    2.28
   8 -12  -2   71.42    3.37
   9 -12  -2   12.27    1.68
  10 -12  -2   89.75    3.89
  11 -12  -2   35.17    3.04
  12 -12  -2   20.56    2.36
  13 -12  -2   10.20    1.76
  14 -12  -2   11.71    2.45
  -3 -11  -2   13.30    1.95
  -2 -11  -2    1.15    0.74
  -1 -11  -2   35.36    2.67
   0 -11  -2   27.88    2.50
   1 -11  -2   78.91    2.81
   2 -11  -2   70.84    2.58
   3 -11  -2   35.69    2.19
   4 -11  -2  133.98    4.60
   5 -11  -2   64.45    3.01
   6 -11  -2    5.72    1.03
   7 -11  -2  242.67    6.83
   8 -11  -2   15.63    1.73
   9 -11  -2    6.07    1.14
  10 -11  -2   56.54    2.89
  11 -11  -2   25.79    3.41
  12 -11  -2   21.21    2.32
  13 -11  -2   52.39    3.14
  14 -11  -2    0.52    0.98
  -5 -10  -2    3.46    1.50
  -4 -10  -2   23.14    2.47
  -3 -10  -2   14.43    1.88
  -2 -10  -2   97.98    4.12
  -1 -10  -2   56.89    2.98
   0 -10  -2  107.51    4.12
   1 -10  -2    9.81    1.09
   2 -10  -2   28.27    1.58
   3 -10  -2   20.47    1.38
   4 -10  -2   11.92    1.13
   5 -10  -2   30.52    1.93
   6 -10  -2  213.28    6.07
   7 -10  -2   64.90    2.93
   8 -10  -2  152.28    4.92
   9 -10  -2   51.48    2.64
  10 -10  -2  111.92    4.07
  11 -10  -2   79.66    4.98
  12 -10  -2   51.98    3.00
  13 -10  -2   18.83    2.18
  14 -10  -2   29.28    4.22
  15 -10  -2    7.31    2.12
  -5  -9  -2  178.59    6.19
  -4  -9  -2    6.69    1.26
  -3  -9  -2   10.67    1.59
  -2  -9  -2    5.57    1.07
  -1  -9  -2   56.36    2.78
   0  -9  -2    4.98    0.72
   1  -9  -2   32.43    1.52
   2  -9  -2    5.50    0.77
   3  -9  -2  432.26    8.02
   4  -9  -2   25.81    1.33
   5  -9  -2   69.22    2.22
   6  -9  -2   35.09    1.98
   7  -9  -2   40.44    2.15
   8  -9  -2   87.34    3.34
   9  -9  -2    5.72    1.01
  10  -9  -2   10.76    1.36
  11  -9  -2   69.93    4.47
  12  -9  -2    3.34    0.93
  13  -9  -2   43.16    4.00
  14  -9  -2   20.41    2.27
  -6  -8  -2   13.08    1.86
  -5  -8  -2   10.42    1.44
  -4  -8  -2   67.85    3.23
  -3  -8  -2   16.09    1.75
  -2  -8  -2  158.95    4.98
  -1  -8  -2   90.88    3.44
   0  -8  -2  300.30    5.94
   1  -8  -2    3.94    0.60
   2  -8  -2   15.08    1.13
   3  -8  -2   36.60    1.52
   4  -8  -2   37.19    1.50
   5  -8  -2    6.15    0.75
   6  -8  -2  107.37    2.82
   7  -8  -2   43.00    1.67
   8  -8  -2  290.89    7.36
   9  -8  -2   30.52    1.83
  10  -8  -2   29.92    2.00
  11  -8  -2   42.08    3.25
  12  -8  -2    3.19    0.88
  13  -8  -2  103.51    6.26
  14  -8  -2    5.62    1.74
  -7  -7  -2   30.36    4.13
  -6  -7  -2   38.61    2.45
  -5  -7  -2   27.53    1.91
  -4  -7  -2  244.83    5.47
  -3  -7  -2   68.05    2.35
  -2  -7  -2   42.82    1.77
  -1  -7  -2   45.17    1.62
   0  -7  -2   17.01    1.08
   1  -7  -2  111.64    2.84
   2  -7  -2   72.68    2.12
   3  -7  -2  122.82    2.99
   4  -7  -2  400.80    7.20
   5  -7  -2  240.22    4.88
   6  -7  -2  129.04    3.14
   7  -7  -2   16.80    1.13
   8  -7  -2    4.61    0.66
   9  -7  -2    5.62    0.90
  10  -7  -2   19.47    1.72
  11  -7  -2  142.15    6.30
  12  -7  -2   96.40    5.74
  13  -7  -2   30.77    3.59
  -9  -6  -2    6.89    2.15
  -8  -6  -2    6.12    1.38
  -7  -6  -2   25.53    2.55
  -6  -6  -2   10.67    1.19
  -5  -6  -2    4.85    0.80
  -4  -6  -2  207.27    4.77
  -3  -6  -2   34.35    1.52
  -2  -6  -2  105.41    2.27
  -1  -6  -2  131.75    2.57
   0  -6  -2   22.31    0.86
   1  -6  -2  412.54    5.94
   2  -6  -2   26.02    0.82
   3  -6  -2   62.29    1.36
   4  -6  -2  166.05    3.13
   5  -6  -2  194.72    3.75
   6  -6  -2   23.02    0.99
   7  -6  -2  113.03    2.70
   8  -6  -2   14.18    1.05
   9  -6  -2  436.24    9.71
  10  -6  -2   13.82    1.16
  11  -6  -2   69.08    2.95
  12  -6  -2    9.24    1.86
  13  -6  -2   37.53    3.54
  14  -6  -2   16.72    3.01
  15  -6  -2    0.68    1.06
  -9  -5  -2   18.86    2.31
  -8  -5  -2  100.88    4.42
  -7  -5  -2   93.00    4.01
  -6  -5  -2   63.48    2.33
  -5  -5  -2   34.75    1.57
  -4  -5  -2   69.15    2.19
  -3  -5  -2    5.58    0.71
  -2  -5  -2  247.02    4.02
  -1  -5  -2  190.82    3.31
   0  -5  -2   76.96    1.66
   1  -5  -2   79.05    1.80
   2  -5  -2  108.22    2.21
   3  -5  -2   53.49    1.35
   4  -5  -2   79.26    1.89
   5  -5  -2   76.75    1.94
   6  -5  -2  406.19    6.95
   7  -5  -2   69.82    2.57
  11  -5  -2    6.61    0.89
  12  -5  -2   28.44    3.42
  13  -5  -2   16.55    1.97
  14  -5  -2  166.19    8.58
  15  -5  -2    2.78    1.62
 -10  -4  -2   24.27    2.64
  -9  -4  -2   36.38    3.10
  -8  -4  -2    4.65    1.13
  -7  -4  -2  137.25    4.75
  -6  -4  -2   14.38    1.21
  -5  -4  -2   25.10    1.28
  -4  -4  -2   35.29    1.43
  -3  -4  -2  412.72    5.96
  -2  -4  -2  163.10    2.80
  -1  -4  -2   77.47    1.65
   0  -4  -2  137.48    2.79
   1  -4  -2  279.33    4.84
   2  -4  -2  313.47    5.34
   3  -4  -2   93.03    2.48
   4  -4  -2  137.68    2.85
   5  -4  -2   79.80    2.38
   6  -4  -2   26.25    1.33
  10  -4  -2  212.86    4.70
  11  -4  -2  255.25    9.71
  12  -4  -2   77.33    3.45
  13  -4  -2    5.16    1.22
  14  -4  -2   32.66    4.29
 -11  -3  -2   -0.31    0.65
 -10  -3  -2   17.70    2.21
  -9  -3  -2    4.01    1.07
  -8  -3  -2   39.78    1.97
  -7  -3  -2   21.06    1.59
  -6  -3  -2  439.44    6.91
  -5  -3  -2   35.19    1.24
  -4  -3  -2  123.54    2.50
  -3  -3  -2   65.06    1.36
  -2  -3  -2   55.62    1.08
  -1  -3  -2   96.82    1.79
   0  -3  -2   46.96    1.29
   1  -3  -2   34.63    1.28
   2  -3  -2  609.54    9.63
   3  -3  -2   48.50    1.34
   4  -3  -2  279.31    6.09
   5  -3  -2  100.03    3.94
   8  -3  -2    4.06    1.05
   9  -3  -2   36.92    1.82
  10  -3  -2   65.62    2.29
  11  -3  -2   14.58    1.69
  12  -3  -2    8.96    1.42
  13  -3  -2   14.30    1.87
  14  -3  -2   16.22    3.13
 -12  -2  -2    8.48    2.47
 -11  -2  -2   61.52    3.47
 -10  -2  -2   53.71    2.52
  -9  -2  -2   72.57    2.78
  -8  -2  -2   30.59    1.84
  -7  -2  -2    6.10    0.85
  -6  -2  -2   14.31    0.84
  -5  -2  -2   71.59    1.74
  -4  -2  -2   26.12    0.91
  -3  -2  -2  106.04    1.68
  -2  -2  -2  313.43    4.61
  -1  -2  -2  624.94    8.23
   0  -2  -2  442.71    6.03
   1  -2  -2  155.84    3.52
   2  -2  -2  462.14    8.38
   3  -2  -2   33.03    1.19
   4  -2  -2  319.36    6.57
   5  -2  -2   56.38    2.62
   6  -2  -2  159.87    4.11
   7  -2  -2  249.22    4.72
   8  -2  -2  102.94    2.66
   9  -2  -2   40.86    1.65
  10  -2  -2  154.85    4.99
  11  -2  -2    3.70    0.97
  12  -2  -2   96.32    4.17
  13  -2  -2    1.60    0.85
 -12  -1  -2    8.14    1.28
 -11  -1  -2   18.57    1.79
 -10  -1  -2   73.24    2.91
  -9  -1  -2   10.56    1.24
  -8  -1  -2   29.66    1.65
  -7  -1  -2    3.52    0.63
  -6  -1  -2  112.92    2.36
  -5  -1  -2  402.14    5.98
  -4  -1  -2   79.85    1.62
  -3  -1  -2  280.49    4.19
  -2  -1  -2   33.91    1.00
  -1  -1  -2  159.50    2.46
   0  -1  -2  112.86    2.11
   1  -1  -2  112.93    2.14
   2  -1  -2  155.59    2.92
   3  -1  -2  631.80    9.48
   4  -1  -2   98.13    2.12
   5  -1  -2   81.25    2.44
   6  -1  -2  202.03    3.84
   7  -1  -2  131.84    2.96
   8  -1  -2   45.97    2.20
   9  -1  -2   84.92    3.41
  10  -1  -2   56.12    2.84
  11  -1  -2   58.79    3.10
  12  -1  -2   31.20    2.78
  13  -1  -2   14.59    2.11
 -13   0  -2   95.63    4.73
 -12   0  -2   21.77    2.00
 -11   0  -2   26.43    2.06
 -10   0  -2  108.23    3.46
  -9   0  -2    5.71    0.88
  -8   0  -2  295.58    6.11
  -7   0  -2   15.56    1.19
  -6   0  -2   22.84    0.83
  -5   0  -2   76.68    1.61
  -4   0  -2  135.94    2.34
  -3   0  -2   47.52    1.05
  -2   0  -2  448.24    5.42
  -1   0  -2  113.86    1.83
   0   0  -2  962.53   12.16
   1   0  -2  114.48    2.26
   2   0  -2  442.55    6.98
   3   0  -2   45.50    1.26
   4   0  -2  139.48    2.61
   5   0  -2   74.05    1.80
   6   0  -2   22.72    0.95
   7   0  -2   14.84    1.41
   8   0  -2  296.59    7.54
   9   0  -2    6.65    1.12
  10   0  -2  109.87    4.29
  11   0  -2   28.97    2.70
  12   0  -2   21.72    2.46
 -13   1  -2   18.87    2.41
 -12   1  -2   31.59    2.14
 -11   1  -2   55.12    2.42
 -10   1  -2   54.89    2.28
  -9   1  -2   84.74    2.76
  -8   1  -2   44.84    1.76
  -7   1  -2  129.27    3.19
  -6   1  -2  198.69    2.95
  -5   1  -2   79.97    1.52
  -4   1  -2   91.72    1.51
  -3   1  -2  624.41    7.33
  -2   1  -2  154.94    2.48
  -1   1  -2  115.64    1.87
   0   1  -2  111.65    1.86
   1   1  -2  158.93    2.86
   2   1  -2   35.22    1.08
   3   1  -2  277.90    4.09
   4   1  -2   79.91    1.71
   5   1  -2  396.12    6.74
   6   1  -2  113.98    3.62
   7   1  -2    3.33    0.74
   8   1  -2   28.63    2.02
   9   1  -2   10.21    1.46
  10   1  -2   76.21    3.64
  11   1  -2   17.82    2.12
  12   1  -2    8.58    1.68
 -13   2  -2    1.44    0.84
 -12   2  -2   95.63    4.27
 -11   2  -2    2.48    0.65
 -10   2  -2  150.36    4.01
  -9   2  -2   39.59    1.72
  -8   2  -2  105.92    2.51
  -7   2  -2  239.36    4.23
  -6   2  -2  158.64    2.98
  -5   2  -2   52.73    1.31
  -4   2  -2  314.65    4.69
  -3   2  -2   34.92    0.92
  -2   2  -2  437.58    6.12
  -1   2  -2  155.06    2.51
   0   2  -2  432.87    7.10
   1   2  -2  615.76    9.68
   2   2  -2  315.02    5.53
   3   2  -2  104.86    2.47
   4   2  -2   27.56    0.91
   5   2  -2   70.47    2.64
   6   2  -2   13.42    1.39
   7   2  -2    7.14    1.14
   8   2  -2   29.47    2.20
   9   2  -2   70.25    3.42
  10   2  -2   53.32    3.14
  11   2  -2   58.54    3.47
  12   2  -2    8.26    2.47
 -14   3  -2   15.16    2.21
 -13   3  -2   18.79    2.29
 -12   3  -2    9.72    1.60
 -11   3  -2   15.72    1.92
 -10   3  -2   65.61    2.06
  -9   3  -2   34.33    1.36
  -8   3  -2    4.91    0.56
  -7   3  -2  399.33    6.21
  -6   3  -2   66.39    1.59
  -5   3  -2  106.86    2.03
  -4   3  -2  277.14    4.21
  -3   3  -2   45.84    1.20
  -2   3  -2  599.01    7.38
  -1   3  -2   33.94    0.88
   0   3  -2   46.54    1.04
   1   3  -2   94.57    1.72
   2   3  -2   54.87    1.14
   3   3  -2   64.35    1.42
   4   3  -2  118.73    3.73
   5   3  -2   37.02    1.97
   6   3  -2  427.01   10.13
   7   3  -2   22.68    2.06
   8   3  -2   35.80    2.36
   9   3  -2    3.31    1.01
  10   3  -2   20.46    2.40
  11   3  -2    0.15    0.65
 -14   4  -2   24.66    2.71
 -13   4  -2    3.37    1.07
 -12   4  -2   63.61    3.33
 -11   4  -2  230.65    5.70
 -10   4  -2  204.51    5.03
  -9   4  -2   68.25    2.37
  -8   4  -2   35.68    1.24
  -7   4  -2  125.41    2.51
  -6   4  -2   26.45    0.88
  -5   4  -2   80.41    1.55
  -4   4  -2  133.18    2.09
  -3   4  -2   94.37    1.58
  -2   4  -2  312.20    4.69
  -1   4  -2  283.89    4.25
   0   4  -2  138.76    2.41
   1   4  -2   80.79    1.67
   2   4  -2  158.18    2.84
   3   4  -2  389.16    7.33
   4   4  -2   37.95    2.00
   5   4  -2   25.16    1.86
   6   4  -2   12.02    1.49
   7   4  -2  133.67    4.86
   8   4  -2    2.94    0.93
   9   4  -2   42.97    2.92
  10   4  -2   30.30    3.10
 -14   5  -2  176.42    6.33
 -13   5  -2   15.76    1.65
 -12   5  -2   27.85    2.09
 -11   5  -2    3.41    0.74
 -10   5  -2   31.63    1.65
  -9   5  -2   25.19    1.53
  -8   5  -2   34.83    1.55
  -7   5  -2   68.62    2.15
  -6   5  -2  393.90    6.14
  -5   5  -2   70.57    1.73
  -4   5  -2   79.25    1.78
  -3   5  -2   55.32    1.33
  -2   5  -2  106.78    2.32
  -1   5  -2   78.89    1.67
   0   5  -2   78.82    1.72
   1   5  -2  195.96    3.41
   2   5  -2  239.62    5.04
   3   5  -2    6.82    0.86
   4   5  -2   67.88    2.36
   5   5  -2   30.11    2.16
   6   5  -2   67.96    3.26
   7   5  -2   96.58    4.19
   8   5  -2  102.36    4.55
   9   5  -2   16.51    1.82
  10   5  -2    6.13    2.22
 -15   6  -2    1.53    1.36
 -14   6  -2   15.51    1.73
 -13   6  -2   37.51    2.35
 -12   6  -2   13.11    1.39
 -11   6  -2   65.67    2.55
 -10   6  -2   13.51    1.24
  -9   6  -2  433.94    8.26
  -8   6  -2   12.80    0.94
  -7   6  -2  108.48    2.49
  -6   6  -2   21.82    0.93
  -5   6  -2  192.03    3.48
  -4   6  -2  160.45    2.97
  -3   6  -2   65.64    1.59
  -2   6  -2   26.82    0.95
  -1   6  -2  404.09    6.06
   0   6  -2   23.42    0.92
   1   6  -2  130.12    3.28
   2   6  -2  104.41    2.99
   3   6  -2   33.46    1.66
   4   6  -2  205.94    5.04
   5   6  -2    4.26    0.82
   6   6  -2   13.91    1.49
   7   6  -2   25.35    2.09
   8   6  -2    5.97    1.16
   9   6  -2    7.82    1.67
 -14   7  -2   35.88    2.54
 -13   7  -2   30.45    2.25
 -12   7  -2   98.26    3.35
 -11   7  -2  136.87    3.87
 -10   7  -2   22.20    1.47
  -9   7  -2    7.02    0.74
  -8   7  -2    3.35    0.51
  -7   7  -2   18.42    0.99
  -6   7  -2  131.68    2.72
  -5   7  -2  240.59    4.20
  -4   7  -2  400.92    6.19
  -3   7  -2  122.09    2.51
  -2   7  -2   72.21    1.78
  -1   7  -2  111.68    2.42
   0   7  -2   17.73    1.28
   1   7  -2   43.38    1.78
   2   7  -2   41.19    1.83
   3   7  -2   71.78    2.59
   4   7  -2  239.76    5.75
   5   7  -2   25.99    2.00
   6   7  -2   36.24    2.49
   7   7  -2   34.43    2.58
   8   7  -2    2.09    1.10
 -14   8  -2    6.42    1.44
 -13   8  -2   98.82    4.62
 -12   8  -2    2.92    0.98
 -11   8  -2   37.36    2.53
 -10   8  -2   26.92    1.90
  -9   8  -2   32.68    1.42
  -8   8  -2  296.08    5.22
  -7   8  -2   43.79    1.43
  -6   8  -2  100.39    2.36
  -5   8  -2    5.12    0.55
  -4   8  -2   34.10    1.18
  -3   8  -2   37.09    1.25
  -2   8  -2   14.66    0.87
  -1   8  -2    3.45    0.49
   0   8  -2  301.25    6.15
   1   8  -2   88.49    2.83
   2   8  -2  157.50    4.16
   3   8  -2   16.53    1.51
   4   8  -2   68.69    2.82
   5   8  -2   15.15    1.62
   6   8  -2   14.71    1.66
   7   8  -2   14.13    1.80
 -14   9  -2   15.81    2.25
 -13   9  -2   45.67    3.27
 -12   9  -2    1.82    0.75
 -11   9  -2   73.95    2.89
 -10   9  -2   10.30    1.24
  -9   9  -2    5.08    0.82
  -8   9  -2   87.43    2.91
  -7   9  -2   37.77    1.79
  -6   9  -2   36.37    1.71
  -5   9  -2   67.76    2.35
  -4   9  -2   27.45    1.47
  -3   9  -2  433.19    8.21
  -2   9  -2    6.52    0.85
  -1   9  -2   31.81    2.08
   0   9  -2    7.90    1.29
   1   9  -2   50.25    2.86
   2   9  -2    4.22    1.07
   3   9  -2    9.94    1.62
   4   9  -2    5.74    1.32
   5   9  -2  174.90    6.54
   6   9  -2    3.06    1.80
 -14  10  -2   24.33    2.74
 -13  10  -2   19.59    2.43
 -12  10  -2   53.98    3.27
 -11  10  -2   73.26    2.95
 -10  10  -2   99.63    3.41
  -9  10  -2   55.52    2.38
  -8  10  -2  153.78    4.19
  -7  10  -2   62.78    2.47
  -6  10  -2  209.66    5.06
  -5  10  -2   32.32    1.72
  -4  10  -2   12.49    1.21
  -3  10  -2   20.66    1.55
  -2  10  -2   29.29    2.22
  -1  10  -2   10.33    1.50
   0  10  -2  103.50    4.31
   1  10  -2   56.97    3.14
   2  10  -2   89.29    4.21
   3  10  -2   16.52    2.17
   4  10  -2   25.27    2.72
 -14  11  -2    0.11    0.68
 -13  11  -2   60.21    3.59
 -12  11  -2   18.51    1.79
 -11  11  -2   25.82    2.08
 -10  11  -2   56.54    2.51
  -9  11  -2    5.49    0.93
  -8  11  -2   15.28    1.47
  -7  11  -2  227.96    5.63
  -6  11  -2    5.61    0.88
  -5  11  -2   63.59    2.49
  -4  11  -2  136.24    3.88
  -3  11  -2   39.50    2.74
  -2  11  -2   70.28    3.49
  -1  11  -2   76.20    3.73
   0  11  -2   23.00    2.42
   1  11  -2   34.50    3.07
   2  11  -2    0.47    0.66
   3  11  -2   13.17    2.00
 -14  12  -2   11.14    2.65
 -13  12  -2    7.45    1.25
 -12  12  -2   20.78    1.94
 -11  12  -2   30.55    2.31
 -10  12  -2   89.14    3.36
  -9  12  -2   10.79    1.34
  -8  12  -2   70.82    2.83
  -7  12  -2   26.56    2.00
  -6  12  -2   13.68    1.41
  -5  12  -2   95.38    4.21
  -4  12  -2    2.83    0.89
  -3  12  -2    3.52    0.98
  -2  12  -2   55.33    3.18
  -1  12  -2   22.29    2.48
   0  12  -2   19.89    2.48
   1  12  -2   16.40    2.19
   2  12  -2   10.13    2.50
 -13  13  -2   90.32    6.16
 -12  13  -2   18.74    1.91
 -11  13  -2    1.27    0.64
 -10  13  -2   14.01    1.61
  -9  13  -2    4.44    0.91
  -8  13  -2   13.69    1.49
  -7  13  -2   37.06    2.33
  -6  13  -2   27.86    2.76
  -5  13  -2  100.59    4.53
  -4  13  -2   42.62    3.06
  -3  13  -2   22.52    2.52
  -2  13  -2   57.04    3.41
  -1  13  -2    8.52    1.63
   0  13  -2   96.48    4.72
 -11  14  -2   13.42    1.64
 -10  14  -2   25.88    2.24
  -9  14  -2  176.74    5.18
  -8  14  -2   15.51    1.71
  -7  14  -2   32.55    3.10
  -6  14  -2    6.91    1.51
  -5  14  -2   21.00    2.52
  -4  14  -2   28.25    2.86
  -3  14  -2    0.46    1.14
 -10  15  -2    6.21    1.99
   4 -15  -1    3.28    1.44
   5 -15  -1   10.89    1.79
   6 -15  -1   73.61    3.79
   7 -15  -1   12.86    1.55
   8 -15  -1    1.07    0.63
   9 -15  -1    9.44    1.67
  10 -15  -1   58.27    5.03
   2 -14  -1    1.57    1.27
   3 -14  -1   30.44    2.72
   4 -14  -1   13.97    1.88
   5 -14  -1   36.19    2.96
   6 -14  -1   11.45    1.40
   7 -14  -1  151.53    4.57
   8 -14  -1   35.79    2.49
   9 -14  -1    8.13    1.23
  10 -14  -1   67.64    3.67
  11 -14  -1   29.81    2.90
  12 -14  -1   27.21    2.84
   0 -13  -1    3.29    1.55
   1 -13  -1   20.88    3.28
   2 -13  -1  112.98    4.48
   3 -13  -1   28.62    2.57
   4 -13  -1   92.49    3.90
   5 -13  -1   -0.28    0.35
   6 -13  -1    8.62    1.16
   7 -13  -1   33.44    2.13
   8 -13  -1    5.06    0.94
   9 -13  -1    8.14    1.16
  10 -13  -1   99.66    4.43
  11 -13  -1    8.16    1.49
  12 -13  -1  102.05    4.64
  13 -13  -1    3.94    1.11
  -2 -12  -1   29.49    3.98
  -1 -12  -1  105.81    6.44
   0 -12  -1   72.27    5.02
   1 -12  -1   48.37    3.98
   2 -12  -1    0.13    0.50
   3 -12  -1   21.26    2.05
   4 -12  -1   12.96    1.61
   5 -12  -1    9.63    1.37
   6 -12  -1   20.60    2.03
   7 -12  -1   83.81    3.51
   8 -12  -1   64.44    2.57
   9 -12  -1   61.17    2.55
  10 -12  -1    0.77    0.62
  11 -12  -1    5.07    1.11
  12 -12  -1   65.39    3.54
  13 -12  -1   17.72    2.18
  14 -12  -1    1.89    1.34
  -4 -11  -1    7.18    2.26
  -3 -11  -1   27.09    2.67
  -2 -11  -1    8.07    1.48
  -1 -11  -1    4.60    1.05
   0 -11  -1   40.88    2.45
   1 -11  -1   12.68    1.51
   2 -11  -1   13.99    1.62
   3 -11  -1  240.77    6.67
   4 -11  -1   80.21    3.33
   5 -11  -1  239.26    6.51
   6 -11  -1    0.78    0.48
   7 -11  -1   11.30    1.44
   8 -11  -1    2.56    0.76
   9 -11  -1   25.65    1.83
  10 -11  -1   18.19    2.01
  11 -11  -1   38.88    2.54
  12 -11  -1   52.69    3.05
  13 -11  -1  118.59    4.86
  14 -11  -1   30.19    4.41
  15 -11  -1    0.28    1.02
  -5 -10  -1   51.67    3.23
  -4 -10  -1   65.33    3.48
  -3 -10  -1  103.49    4.36
  -2 -10  -1    3.34    0.94
  -1 -10  -1   25.23    2.25
   0 -10  -1  180.68    4.29
   1 -10  -1    6.63    0.85
   2 -10  -1  103.87    2.98
   3 -10  -1   12.57    1.42
   4 -10  -1    7.09    1.04
   5 -10  -1   20.49    1.78
   6 -10  -1    1.04    0.49
   7 -10  -1   28.55    1.82
   8 -10  -1  214.06    6.04
   9 -10  -1   41.05    1.89
  10 -10  -1  164.64    5.54
  11 -10  -1    9.57    1.46
  12 -10  -1    0.23    0.52
  13 -10  -1   34.53    2.89
  14 -10  -1   12.16    1.82
  15 -10  -1    8.71    1.65
  -6  -9  -1   13.88    1.93
  -5  -9  -1    8.63    1.50
  -4  -9  -1    9.08    1.45
  -3  -9  -1   60.31    3.03
  -2  -9  -1   27.50    2.09
  -1  -9  -1   40.27    2.28
   0  -9  -1   51.51    1.95
   1  -9  -1  238.65    5.07
   2  -9  -1   11.48    1.02
   3  -9  -1    1.28    0.37
   4  -9  -1   16.87    1.10
   5  -9  -1  283.33    7.19
   6  -9  -1   73.23    2.86
   7  -9  -1  105.48    3.57
   8  -9  -1   41.95    2.12
   9  -9  -1   55.06    2.47
  10  -9  -1    7.67    1.20
  11  -9  -1   11.22    1.48
  12  -9  -1   17.93    1.87
  13  -9  -1   84.90    5.70
  14  -9  -1   38.45    3.23
  15  -9  -1   65.01    5.03
  -7  -8  -1    0.95    0.77
  -6  -8  -1   32.01    2.75
  -5  -8  -1    3.08    0.90
  -4  -8  -1   65.61    3.11
  -3  -8  -1    5.20    0.97
  -2  -8  -1  213.55    6.09
  -1  -8  -1   41.94    1.64
   0  -8  -1   11.73    1.00
   1  -8  -1  145.79    3.46
   2  -8  -1   74.65    2.13
   3  -8  -1  134.98    3.09
   4  -8  -1   31.02    1.25
   5  -8  -1    4.68    0.56
   6  -8  -1   52.07    2.25
   7  -8  -1    2.97    0.64
   8  -8  -1   10.69    1.16
   9  -8  -1  246.25    6.25
  10  -8  -1  107.25    3.94
  11  -8  -1  243.54    6.80
  12  -8  -1   17.73    1.87
  13  -8  -1    0.16    0.53
  14  -8  -1    9.57    2.17
  15  -8  -1   10.14    1.75
  -8  -7  -1   10.21    1.81
  -7  -7  -1  148.96    4.44
  -6  -7  -1   31.10    1.98
  -5  -7  -1   88.36    2.91
  -4  -7  -1   12.23    1.20
  -3  -7  -1   28.90    1.44
  -2  -7  -1  110.03    2.37
  -1  -7  -1    2.56    0.38
   0  -7  -1   25.91    0.96
   1  -7  -1  415.67    7.27
   2  -7  -1   82.73    2.19
   3  -7  -1  505.49    8.45
   4  -7  -1    0.40    0.22
   5  -7  -1   30.03    1.17
   6  -7  -1  350.59    6.19
   7  -7  -1   25.23    1.13
   8  -7  -1  144.19    4.22
   9  -7  -1   12.83    1.28
  10  -7  -1   14.53    1.51
  11  -7  -1   84.21    3.36
  12  -7  -1    9.66    1.42
  13  -7  -1   10.02    1.51
  14  -7  -1  151.61    5.58
  15  -7  -1    1.23    1.25
  -9  -6  -1   68.14    3.87
  -8  -6  -1    7.40    1.46
  -7  -6  -1    7.52    1.08
  -6  -6  -1   20.28    1.61
  -5  -6  -1    2.95    0.61
  -4  -6  -1    0.82    0.37
  -3  -6  -1   73.00    2.29
  -2  -6  -1   57.14    1.50
  -1  -6  -1  358.95    5.35
   0  -6  -1   94.73    1.96
   1  -6  -1   14.48    0.61
   2  -6  -1  112.57    2.54
   3  -6  -1  219.20    4.13
   4  -6  -1   69.96    1.89
   5  -6  -1   32.24    0.86
   6  -6  -1   96.16    2.35
   7  -6  -1  415.43    7.20
   8  -6  -1   74.94    2.05
   9  -6  -1    0.96    0.34
  10  -6  -1    9.35    1.18
  11  -6  -1  238.72    6.51
  12  -6  -1   24.65    2.18
  13  -6  -1   33.67    2.78
  14  -6  -1   37.42    3.02
  15  -6  -1    9.22    2.34
 -10  -5  -1   10.12    2.65
  -9  -5  -1   38.08    2.90
  -8  -5  -1   -0.03    0.55
  -7  -5  -1   11.59    1.21
  -6  -5  -1  232.10    5.25
  -5  -5  -1   21.79    1.39
  -4  -5  -1  279.31    5.78
  -3  -5  -1    5.08    0.48
  -2  -5  -1   29.93    0.97
  -1  -5  -1   30.44    0.95
   0  -5  -1  180.98    3.03
   1  -5  -1    0.46    0.15
   2  -5  -1  260.06    4.68
   3  -5  -1  114.78    2.44
   4  -5  -1  650.47    8.69
   5  -5  -1  179.90    3.60
   6  -5  -1   12.55    0.81
   7  -5  -1   86.36    2.68
   8  -5  -1  139.82    3.73
   9  -5  -1   19.33    1.17
  10  -5  -1   23.55    1.24
  11  -5  -1    4.11    0.85
  12  -5  -1   92.61    3.65
  13  -5  -1    2.13    0.84
  14  -5  -1    8.96    2.29
  15  -5  -1   58.00    3.56
 -10  -4  -1   11.82    1.81
  -9  -4  -1   89.26    4.05
  -8  -4  -1   13.24    1.74
  -7  -4  -1   86.41    2.74
  -6  -4  -1    9.04    0.98
  -5  -4  -1   17.43    1.15
  -4  -4  -1   30.01    1.27
  -3  -4  -1    0.79    0.19
  -2  -4  -1   73.25    1.58
  -1  -4  -1  658.35    8.75
   0  -4  -1  156.23    2.58
   1  -4  -1  489.92    6.61
   2  -4  -1   12.32    0.60
   3  -4  -1   49.14    1.17
   4  -4  -1  150.97    3.74
   5  -4  -1    0.55    0.26
   9  -4  -1  293.38    5.68
  10  -4  -1    1.80    0.56
  11  -4  -1    9.93    1.29
  12  -4  -1   60.68    2.94
  13  -4  -1    6.50    1.86
  14  -4  -1   61.64    3.56
  15  -4  -1    4.48    1.93
 -11  -3  -1   32.84    3.04
 -10  -3  -1   32.14    2.89
  -9  -3  -1   24.90    2.44
  -8  -3  -1  234.61    6.91
  -7  -3  -1   12.09    1.09
  -6  -3  -1    0.94    0.31
  -5  -3  -1  132.50    2.71
  -4  -3  -1  501.25    7.35
  -3  -3  -1  220.19    3.08
  -2  -3  -1  114.02    1.99
  -1  -3  -1   49.51    1.08
   0  -3  -1  466.00    6.12
   1  -3  -1  100.70    1.92
   2  -3  -1   68.23    1.45
   3  -3  -1  452.35    7.07
   8  -3  -1    6.26    0.81
   9  -3  -1   74.61    2.24
  10  -3  -1   29.49    1.78
  11  -3  -1    3.24    0.73
  12  -3  -1   60.31    4.49
  13  -3  -1   98.29    4.44
  14  -3  -1   28.51    2.88
 -12  -2  -1    2.40    1.09
 -11  -2  -1  119.36    4.95
 -10  -2  -1   -0.22    0.45
  -9  -2  -1   11.76    1.33
  -8  -2  -1  101.98    3.22
  -7  -2  -1   11.79    0.89
  -6  -2  -1   72.53    1.84
  -5  -2  -1   86.44    1.95
  -4  -2  -1  110.28    2.19
  -3  -2  -1  266.25    3.49
  -2  -2  -1   10.85    0.37
  -1  -2  -1   68.06    1.14
   0  -2  -1  630.28   11.16
   1  -2  -1  176.98    2.93
   2  -2  -1  608.34   11.23
   7  -2  -1   30.30    1.17
   8  -2  -1   58.42    1.77
   9  -2  -1  106.11    3.46
  10  -2  -1  217.84    5.94
  11  -2  -1   29.15    3.55
  12  -2  -1    2.24    0.87
  13  -2  -1    9.74    1.62
  14  -2  -1   25.69    2.81
 -12  -1  -1   17.37    2.20
 -11  -1  -1   56.87    2.61
 -10  -1  -1    8.75    1.17
  -9  -1  -1    7.48    0.97
  -8  -1  -1  229.41    5.33
  -7  -1  -1  148.93    3.04
  -6  -1  -1  411.86    6.32
  -5  -1  -1   13.35    0.70
  -4  -1  -1    0.44    0.16
  -3  -1  -1  500.55    7.74
  -2  -1  -1  100.54    1.97
  -1  -1  -1  180.66    2.53
   0  -1  -1   80.91    1.52
   1  -1  -1   84.23    1.74
   5  -1  -1  640.02   12.35
   6  -1  -1   30.75    1.06
   7  -1  -1  358.75    6.08
   8  -1  -1    2.34    0.55
   9  -1  -1   39.24    1.94
  10  -1  -1   39.69    2.39
  11  -1  -1   23.07    2.32
  12  -1  -1    3.29    0.97
  13  -1  -1  108.82    4.95
 -13   0  -1    4.05    1.02
 -12   0  -1   65.59    2.91
 -11   0  -1   39.91    2.24
 -10   0  -1  168.72    4.55
  -9   0  -1   54.52    2.17
  -8   0  -1   11.83    1.11
  -7   0  -1   25.12    1.00
  -6   0  -1   94.09    2.01
  -5   0  -1  180.00    3.08
  -4   0  -1  155.96    2.61
  -3   0  -1  460.56    6.13
  -2   0  -1  612.33    7.91
  -1   0  -1   81.37    1.14
   0   0  -1    1.87    0.17
   1   0  -1   80.98    1.46
   2   0  -1  604.94   11.22
   3   0  -1  459.94    7.05
   4   0  -1  156.76    3.57
   5   0  -1  182.88    3.00
   6   0  -1   95.41    1.91
   7   0  -1   25.77    1.18
   8   0  -1   10.89    0.97
   9   0  -1   59.01    2.80
  10   0  -1  172.38    5.70
  11   0  -1   39.25    2.63
  12   0  -1   67.53    3.69
  13   0  -1    5.02    1.37
 -13   1  -1  109.10    3.93
 -12   1  -1    6.12    1.05
 -11   1  -1   22.70    1.85
 -10   1  -1   40.75    1.94
  -9   1  -1   43.52    1.83
  -8   1  -1    1.84    0.44
  -7   1  -1  356.80    5.38
  -6   1  -1   30.09    0.93
  -5   1  -1  651.92    7.88
  -4   1  -1   49.60    0.96
  -3   1  -1   66.75    1.35
  -2   1  -1  177.46    2.57
  -1   1  -1   81.52    1.50
   0   1  -1   81.95    1.54
   1   1  -1  180.45    3.02
   2   1  -1  100.05    1.91
   3   1  -1  488.29    7.68
   4   1  -1    0.48    0.12
   5   1  -1   13.81    0.49
   6   1  -1  403.21    7.24
   7   1  -1  146.74    3.48
   8   1  -1  237.18    6.67
   9   1  -1    6.29    1.13
  10   1  -1   10.30    1.56
  11   1  -1   50.69    3.13
  12   1  -1   18.06    2.39
 -14   2  -1   29.98    2.99
 -13   2  -1    9.46    1.68
 -12   2  -1    3.63    0.81
 -11   2  -1   25.33    1.71
 -10   2  -1  221.92    5.10
  -9   2  -1  106.21    2.98
  -8   2  -1   55.45    1.66
  -7   2  -1   29.14    0.87
  -6   2  -1   74.76    1.55
  -5   2  -1  113.60    1.94
  -4   2  -1   10.66    0.49
  -3   2  -1   98.25    1.55
  -2   2  -1  592.80    7.09
  -1   2  -1  177.82    2.57
   0   2  -1  604.79    7.95
   1   2  -1   68.09    1.49
   2   2  -1   11.53    0.52
   3   2  -1  266.79    4.62
   4   2  -1  112.61    2.47
   5   2  -1   86.05    2.17
   6   2  -1   73.66    2.09
   7   2  -1   12.92    1.44
   8   2  -1  105.74    4.04
   9   2  -1   12.97    1.72
  10   2  -1   -0.09    0.50
  11   2  -1  106.91    4.89
  12   2  -1    1.85    1.02
 -14   3  -1   31.34    3.09
 -13   3  -1   99.90    4.50
 -12   3  -1   59.31    3.20
 -11   3  -1    2.31    0.61
 -10   3  -1   28.74    1.36
  -9   3  -1   73.09    2.05
  -8   3  -1    4.33    0.52
  -7   3  -1    0.81    0.19
  -6   3  -1  218.00    3.61
  -5   3  -1  260.74    3.62
  -4   3  -1  485.02    5.98
  -3   3  -1  449.17    6.25
  -2   3  -1   67.53    1.52
  -1   3  -1   98.74    1.76
   0   3  -1  455.83    6.21
   1   3  -1   51.00    1.32
   2   3  -1  112.76    2.39
   3   3  -1  221.72    4.11
   4   3  -1  495.03    8.43
   5   3  -1  131.37    3.04
   6   3  -1    4.05    0.77
   7   3  -1   15.85    1.72
   8   3  -1  236.08    7.03
   9   3  -1   22.22    2.34
  10   3  -1   31.65    2.98
  11   3  -1   31.08    3.09
 -14   4  -1   62.23    3.56
 -13   4  -1    7.69    1.46
 -12   4  -1   63.78    3.21
 -11   4  -1   13.29    1.33
 -10   4  -1    1.89    0.42
  -9   4  -1  291.04    5.09
  -8   4  -1   30.69    1.10
  -7   4  -1  508.32    6.59
  -6   4  -1  113.43    1.93
  -5   4  -1    0.64    0.13
  -4   4  -1  155.84    2.72
  -3   4  -1   49.51    1.16
  -2   4  -1   10.84    0.50
  -1   4  -1  479.05    6.75
   0   4  -1  158.97    2.71
   1   4  -1  648.95   10.31
   2   4  -1   74.13    1.95
   3   4  -1    0.55    0.24
   4   4  -1   31.15    1.26
   5   4  -1   17.66    1.65
   6   4  -1    8.14    1.27
   7   4  -1   80.23    3.57
   8   4  -1   12.92    1.79
   9   4  -1   90.08    4.20
  10   4  -1   15.46    2.17
 -15   5  -1   59.00    4.81
 -14   5  -1    6.93    1.39
 -13   5  -1    2.95    0.78
 -12   5  -1   84.69    3.05
 -11   5  -1    1.28    0.47
 -10   5  -1   25.05    1.55
  -9   5  -1   15.82    1.22
  -8   5  -1  132.55    2.38
  -7   5  -1   86.08    1.66
  -6   5  -1   14.41    0.53
  -5   5  -1  178.87    3.18
  -4   5  -1  631.99    8.89
  -3   5  -1  110.21    2.32
  -2   5  -1  257.90    4.05
  -1   5  -1    0.56    0.18
   0   5  -1  179.57    3.17
   1   5  -1   30.37    1.02
   2   5  -1   29.43    1.21
   3   5  -1    5.37    0.61
   4   5  -1  270.26    7.38
   5   5  -1   23.63    2.08
   6   5  -1  229.71    6.79
   7   5  -1    9.61    1.50
   8   5  -1    0.62    0.57
   9   5  -1   39.63    3.41
  10   5  -1   13.53    3.00
 -15   6  -1   14.23    2.06
 -14   6  -1   33.80    2.43
 -13   6  -1   36.45    2.26
 -12   6  -1   22.56    1.79
 -11   6  -1  236.44    5.48
 -10   6  -1    9.12    1.00
  -9   6  -1    1.92    0.38
  -8   6  -1   74.47    1.93
  -7   6  -1  407.27    6.41
  -6   6  -1   92.42    2.06
  -5   6  -1   28.98    0.96
  -4   6  -1   71.58    1.64
  -3   6  -1  216.51    3.56
  -2   6  -1  113.97    2.19
  -1   6  -1   14.34    0.68
   0   6  -1   91.06    2.06
   1   6  -1  354.39    5.53
   2   6  -1   56.79    1.88
   3   6  -1   68.19    3.01
   4   6  -1    1.54    0.63
   5   6  -1    3.61    0.90
   6   6  -1   20.82    2.22
   7   6  -1    7.40    1.46
   8   6  -1   12.15    1.90
   9   6  -1   73.72    4.15
 -15   7  -1   -0.21    0.69
 -14   7  -1  151.01    5.97
 -13   7  -1    8.06    1.15
 -12   7  -1    9.85    1.17
 -11   7  -1   83.68    2.82
 -10   7  -1   12.63    1.01
  -9   7  -1   11.35    0.92
  -8   7  -1  146.20    3.08
  -7   7  -1   25.85    1.05
  -6   7  -1  346.89    6.15
  -5   7  -1   29.75    0.98
  -4   7  -1    0.48    0.20
  -3   7  -1  494.35    7.29
  -2   7  -1   83.79    1.88
  -1   7  -1  404.02    6.31
   0   7  -1   26.00    1.04
   1   7  -1    1.95    0.36
   2   7  -1  107.47    3.02
   3   7  -1   25.22    2.16
   4   7  -1    9.83    1.46
   5   7  -1   87.24    3.90
   6   7  -1   32.17    2.91
   7   7  -1  147.07    5.87
   8   7  -1   11.11    1.91
 -15   8  -1   15.06    2.27
 -14   8  -1    8.59    1.51
 -13   8  -1    0.20    0.64
 -12   8  -1   11.64    1.67
 -11   8  -1  242.31    5.78
 -10   8  -1  101.61    3.24
  -9   8  -1  230.45    5.42
  -8   8  -1   10.56    1.06
  -7   8  -1    1.70    0.45
  -6   8  -1   56.72    2.02
  -5   8  -1    5.83    0.73
  -4   8  -1   29.63    1.37
  -3   8  -1  132.14    3.28
  -2   8  -1   70.51    2.24
  -1   8  -1  147.09    3.04
   0   8  -1    9.60    0.80
   1   8  -1   39.32    1.72
   2   8  -1  222.74    5.12
   3   8  -1    2.62    0.66
   4   8  -1   66.69    2.64
   5   8  -1    3.60    0.82
   6   8  -1   34.65    2.46
   7   8  -1   -0.01    0.59
 -15   9  -1   74.51    4.12
 -14   9  -1   38.06    3.34
 -13   9  -1   91.49    4.23
 -12   9  -1   23.49    1.91
 -11   9  -1   12.59    1.37
 -10   9  -1    6.79    0.96
  -9   9  -1   55.31    2.24
  -8   9  -1   43.11    1.91
  -7   9  -1  109.52    3.13
  -6   9  -1   74.33    2.50
  -5   9  -1  285.92    6.05
  -4   9  -1   18.31    1.36
  -3   9  -1    1.99    0.51
  -2   9  -1   12.90    1.12
  -1   9  -1  241.17    5.29
   0   9  -1   53.43    2.73
   1   9  -1   38.72    2.40
   2   9  -1   24.18    2.32
   3   9  -1   61.09    3.28
   4   9  -1    7.94    1.51
   5   9  -1    7.69    1.51
   6   9  -1   11.09    1.86
 -15  10  -1   13.65    2.85
 -14  10  -1   12.45    1.94
 -13  10  -1   29.76    2.28
 -12  10  -1    0.63    0.49
 -11  10  -1   10.38    1.27
 -10  10  -1  176.39    4.68
  -9  10  -1   42.03    1.99
  -8  10  -1  215.31    5.21
  -7  10  -1   28.13    1.74
  -6  10  -1    0.69    0.39
  -5  10  -1   22.11    1.48
  -4  10  -1    7.68    0.96
  -3  10  -1   11.74    1.15
  -2  10  -1  104.63    3.16
  -1  10  -1    7.52    1.22
   0  10  -1  172.82    5.69
   1  10  -1   22.37    2.29
   2  10  -1    3.61    1.05
   3  10  -1   98.36    4.48
   4  10  -1   61.62    3.63
   5  10  -1   58.81    3.94
 -15  11  -1    0.58    1.22
 -14  11  -1   38.92    3.39
 -13  11  -1  118.48    4.07
 -12  11  -1   55.15    2.60
 -11  11  -1   40.37    2.22
 -10  11  -1   22.80    1.83
  -9  11  -1   24.82    1.88
  -8  11  -1    3.40    0.73
  -7  11  -1   11.04    1.19
  -6  11  -1    3.17    0.61
  -5  11  -1  244.36    5.52
  -4  11  -1   79.65    2.82
  -3  11  -1  241.42    5.62
  -2  11  -1   12.55    1.69
  -1  11  -1   10.97    1.60
   0  11  -1   43.36    2.71
   1  11  -1    7.28    1.39
   2  11  -1    7.78    1.50
   3  11  -1   29.50    2.99
   4  11  -1    8.68    2.37
 -14  12  -1    3.91    0.95
 -13  12  -1   18.37    1.87
 -12  12  -1   64.48    2.86
 -11  12  -1    5.25    1.01
 -10  12  -1    2.39    0.69
  -9  12  -1   62.47    2.65
  -8  12  -1   64.23    2.62
  -7  12  -1   87.73    3.05
  -6  12  -1   19.91    1.67
  -5  12  -1    9.54    1.19
  -4  12  -1   15.87    1.51
  -3  12  -1   23.52    2.37
  -2  12  -1    0.21    0.53
  -1  12  -1   49.03    3.10
   0  12  -1   70.84    3.70
   1  12  -1  115.13    4.96
   2  12  -1   30.16    3.11
 -13  13  -1    4.75    1.25
 -12  13  -1  110.21    4.99
 -11  13  -1    7.71    1.55
 -10  13  -1  106.62    4.72
  -9  13  -1    7.62    1.44
  -8  13  -1    2.20    0.89
  -7  13  -1   32.34    2.81
  -6  13  -1    7.44    1.39
  -5  13  -1    0.34    0.57
  -4  13  -1   87.42    6.20
  -3  13  -1   23.94    3.92
  -2  13  -1  104.71    7.14
  -1  13  -1   14.56    3.07
   0  13  -1    2.79    1.71
 -12  14  -1   28.70    2.98
 -11  14  -1   25.91    2.79
 -10  14  -1   67.97    3.82
  -9  14  -1    8.63    1.58
  -8  14  -1   38.22    3.32
  -7  14  -1  156.39    5.91
  -6  14  -1   10.02    1.64
  -5  14  -1   39.00    4.99
  -4  14  -1   13.07    3.02
  -3  14  -1   31.31    4.66
  -2  14  -1    1.44    1.30
 -10  15  -1   58.73    4.94
  -9  15  -1   13.98    2.08
  -8  15  -1    0.97    0.80
  -7  15  -1   11.07    1.94
  -6  15  -1   72.88    6.12
   4 -15   0  142.95    7.68
   5 -15   0    6.59    1.34
   6 -15   0   -0.18    0.61
   7 -15   0    0.76    0.77
   8 -15   0   23.98    2.65
   9 -15   0   47.14    3.12
  10 -15   0   10.53    1.85
   2 -14   0   18.71    3.20
   3 -14   0   13.05    1.84
   4 -14   0   48.89    2.97
   5 -14   0   10.61    1.60
   6 -14   0   16.97    1.66
   7 -14   0   16.54    1.64
   8 -14   0   23.80    1.96
   9 -14   0  146.47    5.51
  10 -14   0    6.93    1.47
  11 -14   0   20.97    2.49
  12 -14   0   -0.17    0.59
  13 -14   0    3.21    1.67
   0 -13   0   71.77    5.27
   1 -13   0   -0.33    0.72
   2 -13   0    9.59    1.50
   3 -13   0   39.17    2.51
   4 -13   0    9.31    1.39
   5 -13   0  222.21    5.41
   6 -13   0   75.17    2.80
   7 -13   0   28.51    2.04
   8 -13   0   62.66    2.60
   9 -13   0    1.71    0.74
  10 -13   0   41.85    2.76
  11 -13   0    3.28    1.02
  12 -13   0   13.60    1.92
  13 -13   0   71.45    3.84
  -2 -12   0    1.03    1.00
  -1 -12   0   11.54    2.55
   0 -12   0    6.54    1.89
   1 -12   0   14.17    1.72
   2 -12   0   57.28    2.87
   3 -12   0   19.82    1.97
   4 -12   0    7.00    0.96
   5 -12   0   70.54    2.58
   6 -12   0    4.43    0.81
   7 -12   0   43.96    2.04
   8 -12   0   13.27    1.35
   9 -12   0   -0.11    0.46
  10 -12   0  255.17    7.74
  11 -12   0   12.24    1.74
  12 -12   0    7.12    1.34
  13 -12   0    0.41    0.62
  14 -12   0   17.73    3.38
  -4 -11   0    1.85    1.45
  -3 -11   0   17.77    2.22
  -2 -11   0    3.04    0.97
  -1 -11   0   11.45    2.35
   0 -11   0   24.01    2.10
   1 -11   0  125.10    4.33
   2 -11   0  201.38    5.80
   3 -11   0   86.65    2.73
   4 -11   0    5.24    0.77
   5 -11   0  116.60    3.34
   6 -11   0   34.58    1.68
   7 -11   0  394.11    7.83
   8 -11   0   15.12    1.34
   9 -11   0    0.42    0.43
  10 -11   0  101.66    4.18
  11 -11   0   27.75    2.50
  12 -11   0   16.13    1.99
  13 -11   0   10.28    1.61
  14 -11   0   11.61    1.84
  15 -11   0  127.08    7.99
  -5 -10   0    7.37    1.45
  -4 -10   0    6.30    1.32
  -3 -10   0   43.08    2.64
  -2 -10   0  278.28    7.67
  -1 -10   0  106.24    4.03
   0 -10   0   38.02    1.73
   1 -10   0   15.02    1.24
   2 -10   0    0.95    0.38
   3 -10   0    3.74    0.63
   4 -10   0    0.65    0.36
   5 -10   0    1.61    0.45
   6 -10   0  284.51    6.00
   7 -10   0   82.19    2.61
   8 -10   0    0.21    0.31
   9 -10   0   69.89    3.21
  10 -10   0   37.42    2.29
  11 -10   0  126.22    4.63
  12 -10   0   53.36    2.93
  13 -10   0   37.65    4.56
  14 -10   0   55.62    3.29
  15 -10   0    9.49    1.69
  -6  -9   0   44.97    2.96
  -5  -9   0  136.93    5.17
  -4  -9   0    2.46    0.86
  -3  -9   0    0.50    0.51
  -2  -9   0    1.30    0.63
  -1  -9   0   75.48    2.45
   0  -9   0   67.95    2.22
   1  -9   0    8.69    0.75
   2  -9   0   54.38    1.59
   3  -9   0  742.49   12.37
   4  -9   0    2.85    0.49
   5  -9   0  141.10    3.49
   6  -9   0   12.13    1.05
   7  -9   0   85.75    2.62
   8  -9   0   38.63    1.64
   9  -9   0   64.88    2.94
  10  -9   0   12.22    1.55
  11  -9   0  204.17    6.08
  12  -9   0   26.29    2.29
  13  -9   0    9.58    1.57
  14  -9   0   11.40    1.80
  15  -9   0    0.71    0.97
  -7  -8   0   33.91    3.00
  -6  -8   0   21.39    2.21
  -5  -8   0   61.20    3.14
  -4  -8   0   13.36    1.63
  -3  -8   0   14.27    1.63
  -2  -8   0    0.61    0.32
  -1  -8   0   37.13    1.54
   0  -8   0  405.91    7.29
   1  -8   0   12.54    0.97
   2  -8   0   11.47    0.91
   3  -8   0   17.87    0.96
   4  -8   0    0.21    0.25
   5  -8   0   40.41    1.82
   6  -8   0  118.73    2.97
   7  -8   0  313.79    6.11
   8  -8   0  406.20    7.43
   9  -8   0    8.44    1.18
  10  -8   0    0.91    0.48
  11  -8   0   87.18    3.46
  12  -8   0    5.28    1.06
  13  -8   0  220.49    6.80
  14  -8   0   16.22    2.03
  15  -8   0    1.83    1.25
  -8  -7   0    0.81    0.58
  -7  -7   0   18.22    1.71
  -6  -7   0   25.70    1.93
  -5  -7   0   43.22    2.01
  -4  -7   0  402.36    7.81
  -3  -7   0   80.92    2.56
  -2  -7   0   93.44    2.18
  -1  -7   0  324.04    5.12
   0  -7   0    7.75    0.62
   1  -7   0   15.54    0.89
   2  -7   0   14.13    0.86
   3  -7   0  103.77    2.82
   4  -7   0  480.66    7.88
   5  -7   0  495.28    7.93
   6  -7   0  212.36    4.39
   7  -7   0    7.79    0.79
   8  -7   0   12.52    0.99
   9  -7   0   52.82    2.40
  10  -7   0    3.66    0.77
  11  -7   0    8.63    1.30
  12  -7   0   65.73    3.15
  13  -7   0   73.94    3.47
  14  -7   0   17.45    2.92
  15  -7   0   24.93    2.64
  -9  -6   0    0.70    0.81
  -8  -6   0   15.63    1.58
  -7  -6   0   70.26    2.76
  -6  -6   0    6.05    0.88
  -5  -6   0   35.62    1.70
  -4  -6   0  300.05    6.04
  -3  -6   0   13.27    0.80
  -2  -6   0  118.25    2.41
  -1  -6   0  220.41    3.67
   0  -6   0   18.00    0.73
   1  -6   0  461.74    7.84
   2  -6   0    4.14    0.45
   3  -6   0  189.42    4.21
   4  -6   0  100.49    2.10
   5  -6   0    1.69    0.24
   6  -6   0   18.63    0.71
   7  -6   0   16.16    0.94
   8  -6   0   11.30    0.89
   9  -6   0  765.36   15.20
  10  -6   0   -0.01    0.24
  11  -6   0  123.11    4.23
  12  -6   0    5.49    1.04
  13  -6   0   31.42    3.77
  14  -6   0   25.60    2.55
  15  -6   0   44.78    3.19
 -10  -5   0    8.79    1.78
  -9  -5   0    9.66    1.66
  -8  -5   0  212.41    5.41
  -7  -5   0   68.54    2.57
  -6  -5   0  116.31    3.33
  -5  -5   0    2.87    0.59
  -4  -5   0  148.70    3.53
  -3  -5   0   38.55    1.19
  -2  -5   0  479.38    7.00
  -1  -5   0    1.50    0.23
   0  -5   0   28.87    0.87
   1  -5   0  630.01    8.49
   2  -5   0  178.38    3.27
   3  -5   0    6.97    0.43
   4  -5   0    1.38    0.21
   5  -5   0   30.64    0.93
   6  -5   0  484.24    6.77
   7  -5   0   15.24    0.86
   8  -5   0   18.14    0.90
   9  -5   0    3.55    0.54
  10  -5   0    2.00    0.59
  11  -5   0   28.58    1.85
  12  -5   0   42.25    2.50
  13  -5   0   62.76    3.24
  14  -5   0  137.90    5.29
  15  -5   0    6.20    2.06
 -10  -4   0   57.72    3.41
  -9  -4   0    4.95    1.17
  -8  -4   0    5.52    0.88
  -7  -4   0    5.93    0.85
  -6  -4   0    0.45    0.36
  -5  -4   0    2.80    0.51
  -4  -4   0    0.12    0.15
  -3  -4   0  479.87    6.92
  -2  -4   0   95.98    1.90
  -1  -4   0    1.78    0.22
   0  -4   0  157.99    2.54
   1  -4   0  243.31    4.00
   2  -4   0  917.49   13.70
   3  -4   0  466.81    7.19
   4  -4   0  163.72    3.41
   5  -4   0  630.16    9.96
   6  -4   0    3.46    0.41
   7  -4   0  105.62    2.38
   8  -4   0    0.50    0.24
   9  -4   0  147.30    3.32
  10  -4   0  294.88    7.20
  11  -4   0  406.18    9.72
  12  -4   0   15.20    1.79
  13  -4   0    2.07    0.86
  14  -4   0    7.11    1.42
 -11  -3   0   13.18    2.02
 -10  -3   0   37.94    3.15
  -9  -3   0   21.59    2.25
  -8  -3   0   82.33    2.73
  -7  -3   0    3.01    0.63
  -6  -3   0  750.26   12.44
  -5  -3   0   17.90    1.10
  -4  -3   0  105.51    2.04
  -3  -3   0  190.14    3.50
  -2  -3   0    6.94    0.41
  -1  -3   0  466.26    6.31
   0  -3   0    9.51    0.42
   1  -3   0   10.94    0.45
   2  -3   0  469.13    7.21
   3  -3   0    8.34    0.38
   4  -3   0  236.86    4.96
   5  -3   0  181.10    4.12
   6  -3   0  191.21    4.40
   7  -3   0  500.42    8.02
   8  -3   0   41.75    1.37
   9  -3   0   12.09    1.18
  10  -3   0   84.67    3.24
  11  -3   0   15.48    1.65
  12  -3   0    0.21    0.44
  13  -3   0   44.01    2.68
  14  -3   0   22.24    3.72
 -12  -2   0   20.27    2.44
 -11  -2   0   10.41    1.70
 -10  -2   0   54.70    3.04
  -9  -2   0  198.38    4.90
  -8  -2   0    0.97    0.41
  -7  -2   0   51.47    2.24
  -6  -2   0   10.71    0.82
  -5  -2   0   14.10    0.59
  -4  -2   0    4.15    0.33
  -3  -2   0  182.07    2.83
  -2  -2   0  919.66   11.88
  -1  -2   0  478.96    6.31
   0  -2   0  129.01    1.89
   1  -2   0   12.92    0.46
   2  -2   0  130.45    2.15
   3  -2   0   11.60    0.78
   4  -2   0  982.67   16.86
   5  -2   0    7.48    0.48
   6  -2   0   99.02    2.13
   7  -2   0  494.08    7.91
   8  -2   0  116.60    2.82
   9  -2   0   92.11    3.26
  10  -2   0   -0.30    0.31
  11  -2   0   -0.01    0.37
  12  -2   0  277.23    7.63
  13  -2   0    4.40    1.73
  14  -2   0   -0.61    0.54
 -12  -1   0    0.19    0.70
 -11  -1   0   13.33    1.84
 -10  -1   0  121.78    4.61
  -9  -1   0   13.10    1.07
  -8  -1   0    8.32    0.78
  -7  -1   0   13.12    0.92
  -6  -1   0   17.21    0.88
  -5  -1   0  478.98    6.07
  -4  -1   0  648.53    8.53
  -3  -1   0  246.57    3.19
  -2  -1   0   11.28    0.34
  -1  -1   0   12.80    0.38
   0  -1   0   12.50    0.32
   1  -1   0   12.66    0.40
   3  -1   0  492.62    8.91
   4  -1   0  474.86    8.86
   5  -1   0    0.87    0.36
   6  -1   0    1.20    0.25
   7  -1   0  221.47    4.22
   8  -1   0  319.63    7.43
   9  -1   0   38.22    2.00
  10  -1   0   79.08    3.16
  11  -1   0  104.09    3.98
  12  -1   0   11.79    1.75
  13  -1   0   11.63    1.88
 -13   0   0   71.80    3.87
 -12   0   0    5.84    1.23
 -11   0   0   26.62    2.07
 -10   0   0   38.31    1.94
  -9   0   0   67.42    2.00
  -8   0   0  403.23    6.49
  -7   0   0    7.53    0.65
  -6   0   0   18.70    0.63
  -5   0   0   30.18    0.76
  -4   0   0  162.69    2.51
  -3   0   0    8.80    0.37
  -2   0   0  129.20    1.56
  -1   0   0   12.64    0.29
   1   0   0   12.09    0.39
   2   0   0  129.31    2.15
   3   0   0    8.86    0.39
   4   0   0  160.72    3.43
   5   0   0   30.16    1.09
   6   0   0   18.51    0.79
   7   0   0    8.77    0.98
   8   0   0  398.04    9.03
   9   0   0   63.94    2.72
  10   0   0   35.48    1.86
  11   0   0   25.06    2.48
  12   0   0    6.18    1.42
  13   0   0   67.19    3.94
 -14   1   0    5.46    2.06
 -13   1   0   15.76    1.70
 -12   1   0   11.61    1.40
 -11   1   0  107.79    3.49
 -10   1   0   75.89    2.71
  -9   1   0   37.02    1.44
  -8   1   0  325.38    5.29
  -7   1   0  222.07    3.26
  -6   1   0    1.32    0.19
  -5   1   0    1.01    0.15
  -4   1   0  466.73    5.17
  -3   1   0  481.94    5.14
  -2   1   0   12.91    0.26
  -1   1   0   12.64    0.60
   0   1   0   12.86    0.35
   1   1   0   13.13    0.52
   2   1   0   11.18    0.56
   3   1   0  244.67    3.99
   4   1   0  660.77   11.72
   5   1   0  498.63    7.69
   6   1   0   17.03    1.16
   7   1   0   11.75    1.17
   8   1   0    8.74    0.92
   9   1   0   12.77    1.21
  10   1   0  124.60    4.83
  11   1   0   16.46    2.10
  12   1   0    0.46    0.69
 -14   2   0    0.25    0.74
 -13   2   0    2.88    0.82
 -12   2   0  269.13    6.39
 -11   2   0    1.36    0.43
 -10   2   0    1.08    0.43
  -9   2   0   91.87    2.76
  -8   2   0  114.45    2.22
  -7   2   0  489.72    6.39
  -6   2   0   97.28    1.57
  -5   2   0    7.11    0.36
  -4   2   0  926.46    8.44
  -3   2   0   11.06    0.33
  -2   2   0  128.12    1.71
  -1   2   0   13.14    0.40
   0   2   0  130.06    1.95
   1   2   0  470.82    6.30
   2   2   0  909.53   13.83
   3   2   0  174.42    3.38
   4   2   0    3.61    0.44
   5   2   0   13.69    0.88
   6   2   0   10.27    0.91
   7   2   0   52.44    1.91
   8   2   0    0.61    0.38
   9   2   0  188.07    6.24
  10   2   0   53.72    3.13
  11   2   0   12.66    1.99
  12   2   0   17.56    2.46
 -14   3   0   22.69    2.52
 -13   3   0   35.10    2.98
 -12   3   0    0.28    0.41
 -11   3   0   15.22    1.37
 -10   3   0   82.84    2.35
  -9   3   0   11.53    0.92
  -8   3   0   40.52    1.14
  -7   3   0  484.65    5.74
  -6   3   0  190.51    2.83
  -5   3   0  180.38    2.20
  -4   3   0  243.78    2.98
  -3   3   0    7.98    0.35
  -2   3   0  473.43    5.68
  -1   3   0   11.55    0.38
   0   3   0    8.24    0.41
   1   3   0  461.43    6.33
   2   3   0    6.88    0.36
   3   3   0  192.94    3.74
   4   3   0  101.49    2.51
   5   3   0   15.75    1.01
   6   3   0  738.54   12.44
   7   3   0    6.29    0.75
   8   3   0   79.47    3.58
   9   3   0   22.15    2.37
  10   3   0   43.28    3.14
  11   3   0   12.47    2.01
 -15   4   0    0.78    1.28
 -14   4   0    5.96    1.31
 -13   4   0    2.74    0.84
 -12   4   0   12.66    1.64
 -11   4   0  408.15    6.90
 -10   4   0  301.96    5.32
  -9   4   0  147.66    3.08
  -8   4   0    0.31    0.16
  -7   4   0  103.16    1.74
  -6   4   0    4.47    0.35
  -5   4   0  628.56    7.08
  -4   4   0  160.13    2.38
  -3   4   0  460.84    5.71
  -2   4   0  885.28   12.06
  -1   4   0  247.32    3.23
   0   4   0  160.58    2.66
   1   4   0    1.39    0.21
   2   4   0  101.66    1.87
   3   4   0  476.64    8.19
   4   4   0    0.33    0.23
   5   4   0    2.75    0.51
   6   4   0    0.28    0.28
   7   4   0    4.64    0.95
   8   4   0    6.40    1.27
   9   4   0    9.53    1.69
  10   4   0   55.56    3.47
 -15   5   0    7.61    1.52
 -14   5   0  127.20    5.14
 -13   5   0   71.45    3.42
 -12   5   0   45.11    2.13
 -11   5   0   32.70    1.71
 -10   5   0    1.90    0.44
  -9   5   0    2.97    0.42
  -8   5   0   17.34    0.80
  -7   5   0   13.24    0.64
  -6   5   0  476.30    5.62
  -5   5   0   29.71    0.91
  -4   5   0    1.31    0.19
  -3   5   0    7.35    0.54
  -2   5   0  179.95    2.56
  -1   5   0  628.45    7.71
   0   5   0   30.96    0.95
   1   5   0    1.22    0.24
   2   5   0  499.28    7.02
   3   5   0   40.88    1.53
   4   5   0  143.26    3.50
   5   5   0    2.01    0.49
   6   5   0  111.75    4.25
   7   5   0   75.13    3.50
   8   5   0  218.90    7.05
   9   5   0   10.14    1.73
  10   5   0    6.25    1.56
 -15   6   0   47.34    3.06
 -14   6   0   21.80    1.92
 -13   6   0   28.39    2.09
 -12   6   0    4.69    0.84
 -11   6   0  114.88    3.39
 -10   6   0   -0.06    0.23
  -9   6   0  749.03   10.83
  -8   6   0   12.55    0.88
  -7   6   0   16.55    0.76
  -6   6   0   18.35    0.74
  -5   6   0    1.39    0.21
  -4   6   0   97.16    2.12
  -3   6   0  190.75    3.34
  -2   6   0    4.87    0.32
  -1   6   0  476.66    6.13
   0   6   0   18.26    0.80
   1   6   0  220.22    3.72
   2   6   0  114.16    2.95
   3   6   0   11.83    1.03
   4   6   0  295.65    6.06
   5   6   0   31.39    2.23
   6   6   0    4.55    1.07
   7   6   0   73.33    3.67
   8   6   0   14.56    2.04
   9   6   0    0.37    0.76
 -15   7   0   29.06    2.94
 -14   7   0   19.75    2.38
 -13   7   0   84.04    3.86
 -12   7   0   68.19    2.60
 -11   7   0    6.08    0.75
 -10   7   0    2.86    0.52
  -9   7   0   54.65    1.68
  -8   7   0   12.36    0.79
  -7   7   0    7.89    0.58
  -6   7   0  220.21    3.39
  -5   7   0  474.06    7.35
  -4   7   0  483.55    7.26
  -3   7   0  105.61    2.28
  -2   7   0   14.21    0.58
  -1   7   0   16.47    0.69
   0   7   0    8.24    0.67
   1   7   0  322.82    6.23
   2   7   0   94.00    2.73
   3   7   0   84.89    2.67
   4   7   0  389.48    9.87
   5   7   0   43.30    2.62
   6   7   0   27.85    2.58
   7   7   0   17.46    2.17
   8   7   0    1.06    0.80
 -15   8   0    1.36    0.88
 -14   8   0   15.57    2.05
 -13   8   0  228.46    7.11
 -12   8   0    5.47    0.83
 -11   8   0   82.69    2.90
 -10   8   0    1.00    0.45
  -9   8   0    6.71    0.87
  -8   8   0  406.91    7.71
  -7   8   0  314.23    5.50
  -6   8   0  115.94    2.68
  -5   8   0   40.17    1.40
  -4   8   0    0.30    0.21
  -3   8   0   17.04    0.92
  -2   8   0   10.41    0.78
  -1   8   0   12.72    0.87
   0   8   0  399.26    7.54
   1   8   0   37.04    1.67
   2   8   0    0.49    0.37
   3   8   0   14.64    1.71
   4   8   0   12.11    1.66
   5   8   0   71.31    3.60
   6   8   0   23.65    2.56
   7   8   0   22.28    2.66
 -15   9   0    0.01    0.66
 -14   9   0    9.90    1.63
 -13   9   0    7.07    1.03
 -12   9   0   21.92    1.81
 -11   9   0  205.38    5.09
 -10   9   0   14.57    1.36
  -9   9   0   68.57    2.47
  -8   9   0   37.69    1.72
  -7   9   0   96.76    2.49
  -6   9   0   10.94    0.90
  -5   9   0  146.54    3.18
  -4   9   0    2.26    0.43
  -3   9   0  744.40   10.85
  -2   9   0   50.64    1.65
  -1   9   0    8.19    0.93
   0   9   0   64.88    2.35
   1   9   0   77.29    2.64
   2   9   0   -0.20    0.39
   3   9   0    0.89    0.62
   4   9   0    2.87    0.97
   5   9   0  141.90    5.60
   6   9   0   37.98    3.43
 -15  10   0    6.61    1.50
 -14  10   0   53.60    2.64
 -13  10   0   43.17    2.48
 -12  10   0   52.74    2.44
 -11  10   0  118.12    3.72
 -10  10   0   38.22    1.91
  -9  10   0   82.29    2.79
  -8  10   0    0.28    0.32
  -7  10   0   81.94    2.37
  -6  10   0  295.92    5.38
  -5  10   0    2.39    0.46
  -4  10   0    0.11    0.23
  -3  10   0    3.78    0.68
  -2  10   0    0.55    0.33
  -1  10   0   16.60    1.39
   0  10   0   39.35    1.87
   1  10   0  109.40    4.31
   2  10   0  273.72    7.93
   3  10   0   40.56    2.74
   4  10   0    7.10    1.53
   5  10   0    7.50    1.61
 -14  11   0   13.02    1.95
 -13  11   0    8.10    1.54
 -12  11   0   17.85    2.23
 -11  11   0   26.24    1.98
 -10  11   0  106.84    3.46
  -9  11   0   -0.12    0.29
  -8  11   0   16.06    1.40
  -7  11   0  401.29    7.99
  -6  11   0   30.15    1.74
  -5  11   0  119.29    3.44
  -4  11   0    7.22    0.95
  -3  11   0   82.32    2.81
  -2  11   0  194.16    4.86
  -1  11   0  134.97    3.87
   0  11   0   21.26    3.39
   1  11   0   12.30    2.70
   2  11   0    2.02    1.33
   3  11   0   17.36    3.30
 -14  12   0   22.93    2.63
 -13  12   0   -0.07    0.61
 -12  12   0    5.38    1.31
 -11  12   0   10.71    1.67
 -10  12   0  274.45    8.11
  -9  12   0    0.26    0.54
  -8  12   0   12.31    1.71
  -7  12   0   41.14    2.65
  -6  12   0    6.05    1.20
  -5  12   0   69.98    3.44
  -4  12   0    4.86    1.12
  -3  12   0   20.22    2.20
  -2  12   0   55.65    3.09
  -1  12   0   21.34    3.51
   0  12   0    8.47    2.30
   1  12   0   11.25    2.84
   2  12   0   -0.11    1.03
 -13  13   0   69.42    3.95
 -12  13   0   12.30    1.89
 -11  13   0    2.96    1.01
 -10  13   0   39.54    3.29
  -9  13   0    1.61    0.87
  -8  13   0   66.09    3.50
  -7  13   0   33.29    2.96
  -6  13   0   69.40    3.62
  -5  13   0  214.38    7.02
  -4  13   0   10.49    1.63
  -3  13   0   39.54    2.90
  -2  13   0   10.97    2.64
  -1  13   0    0.32    1.05
   0  13   0   72.00    5.95
 -12  14   0   -0.03    0.60
 -11  14   0   17.76    2.36
 -10  14   0    4.96    1.31
  -9  14   0  138.87    5.59
  -8  14   0   23.03    2.58
  -7  14   0   15.83    2.11
  -6  14   0   16.96    2.16
  -5  14   0    9.57    1.70
  -4  14   0   55.20    3.34
  -3  14   0   12.57    2.94
  -2  14   0   22.53    3.94
 -10  15   0    7.47    1.68
  -9  15   0   53.28    3.60
  -8  15   0   28.63    2.93
  -7  15   0    2.89    1.13
  -6  15   0    0.59    0.77
  -5  15   0    5.04    2.07
   4 -15   1    3.94    1.69
   5 -15   1   10.40    1.68
   6 -15   1   69.16    3.63
   7 -15   1   10.76    2.40
   8 -15   1    1.85    0.92
   9 -15   1   15.40    2.10
  10 -15   1   52.09    4.84
   2 -14   1    3.34    1.01
   3 -14   1   36.85    2.70
   4 -14   1    9.18    1.49
   5 -14   1   34.18    2.83
   6 -14   1   17.21    1.93
   7 -14   1  164.84    4.68
   8 -14   1   27.25    2.60
   9 -14   1    6.50    1.38
  10 -14   1   62.59    3.52
  11 -14   1   27.80    2.83
  12 -14   1   30.66    3.07
   0 -13   1    3.37    1.53
   1 -13   1   20.14    2.20
   2 -13   1  122.73    4.64
   3 -13   1   38.71    2.43
   4 -13   1   79.74    3.60
   5 -13   1    0.25    0.55
   6 -13   1    8.62    1.08
   7 -13   1   36.30    2.01
   8 -13   1    3.69    1.00
   9 -13   1    6.91    1.39
  10 -13   1  107.00    4.58
  11 -13   1   13.44    1.90
  12 -13   1  110.20    4.82
  13 -13   1    5.79    1.39
  -2 -12   1   24.07    3.63
  -1 -12   1  108.62    6.51
   0 -12   1   66.05    4.80
   1 -12   1   55.40    2.88
   2 -12   1    1.00    0.61
   3 -12   1   22.75    2.12
   4 -12   1   11.69    1.51
   5 -12   1   10.74    1.16
   6 -12   1   24.46    1.73
   7 -12   1   74.82    2.73
   8 -12   1   66.22    3.23
   9 -12   1   62.12    3.19
  10 -12   1    4.38    1.04
  11 -12   1    5.91    1.29
  12 -12   1   68.14    3.56
  13 -12   1   16.68    2.13
  14 -12   1    3.72    1.21
  -4 -11   1    6.44    2.14
  -3 -11   1   29.22    3.81
  -2 -11   1   11.51    2.45
  -1 -11   1    5.49    1.55
   0 -11   1   35.70    2.24
   1 -11   1    9.13    1.34
   2 -11   1   12.45    1.48
   3 -11   1  240.53    6.57
   4 -11   1   87.37    2.72
   5 -11   1  233.08    5.21
   6 -11   1    2.29    0.55
   7 -11   1   11.27    1.11
   8 -11   1    4.42    0.94
   9 -11   1   24.12    2.25
  10 -11   1   24.97    2.32
  11 -11   1   35.53    2.57
  12 -11   1   56.17    3.05
  13 -11   1  113.91    4.93
  14 -11   1   31.80    3.03
  -5 -10   1   53.21    3.27
  -4 -10   1   63.85    3.44
  -3 -10   1  106.55    4.35
  -2 -10   1    4.11    1.03
  -1 -10   1   24.93    1.72
   0 -10   1  170.01    5.17
   1 -10   1    8.15    1.12
   2 -10   1  101.19    3.62
   3 -10   1   11.56    1.01
   4 -10   1    8.10    0.89
   5 -10   1   22.44    1.64
   6 -10   1    2.38    0.54
   7 -10   1   31.22    1.48
   8 -10   1  211.32    6.26
   9 -10   1   42.48    2.41
  10 -10   1  166.80    5.49
  11 -10   1    9.84    1.45
  12 -10   1    0.63    0.52
  13 -10   1   36.98    2.81
  14 -10   1   10.78    1.78
  15 -10   1   11.02    2.78
  -6  -9   1   11.53    1.84
  -5  -9   1    6.56    1.39
  -4  -9   1    7.59    1.35
  -3  -9   1   64.91    3.14
  -2  -9   1   30.84    2.20
  -1  -9   1   41.89    1.77
   0  -9   1   53.73    1.96
   1  -9   1  247.99    5.05
   2  -9   1    8.92    0.87
   3  -9   1    1.42    0.38
   4  -9   1   14.04    1.06
   5  -9   1  297.04    5.84
   6  -9   1   78.40    2.35
   7  -9   1  102.87    2.83
   8  -9   1   36.08    2.09
   9  -9   1   52.69    2.59
  10  -9   1    9.60    1.32
  11  -9   1   14.42    1.67
  12  -9   1   21.56    2.21
  13  -9   1   84.38    3.95
  14  -9   1   31.97    2.93
  15  -9   1   73.33    3.92
  -7  -8   1    0.67    0.68
  -6  -8   1   35.63    2.64
  -5  -8   1    4.24    0.87
  -4  -8   1   61.49    2.46
  -3  -8   1    3.63    0.72
  -2  -8   1  222.60    4.84
  -1  -8   1   36.21    1.56
   0  -8   1   10.81    0.94
   1  -8   1  158.77    2.94
   2  -8   1   66.92    1.69
   3  -8   1  125.84    3.05
   4  -8   1   24.36    1.16
   5  -8   1    6.74    0.71
   6  -8   1   51.99    1.77
   7  -8   1    2.30    0.44
   8  -8   1   10.67    1.25
   9  -8   1  246.32    6.49
  10  -8   1  106.27    3.80
  11  -8   1  243.51    5.49
  12  -8   1   13.36    1.73
  13  -8   1    1.28    0.71
  14  -8   1   16.65    2.08
  15  -8   1    9.90    2.42
  -8  -7   1   14.33    1.57
  -7  -7   1  154.88    4.58
  -6  -7   1   38.88    2.03
  -5  -7   1   81.47    2.87
  -4  -7   1    9.42    1.06
  -3  -7   1   27.89    1.19
  -2  -7   1  102.80    2.40
  -1  -7   1    1.55    0.40
   0  -7   1   30.32    1.01
   1  -7   1  424.29    6.20
   2  -7   1   81.84    1.81
   3  -7   1  505.76    7.18
   4  -7   1    1.78    0.36
   5  -7   1   33.67    1.26
   6  -7   1  335.52    6.20
   7  -7   1   26.77    1.12
   8  -7   1  152.16    4.42
   9  -7   1    9.25    1.12
  10  -7   1   14.29    1.21
  11  -7   1   82.10    3.48
  12  -7   1    8.18    1.30
  13  -7   1   11.58    1.67
  14  -7   1  157.66    8.02
  15  -7   1    0.59    0.73
  -9  -6   1   70.67    3.08
  -8  -6   1   14.86    1.56
  -7  -6   1    8.23    1.15
  -6  -6   1   20.88    1.70
  -5  -6   1    1.44    0.52
  -4  -6   1    1.94    0.52
  -3  -6   1   77.14    1.97
  -2  -6   1   53.79    1.53
  -1  -6   1  342.28    4.69
   0  -6   1   99.54    1.97
   1  -6   1   10.40    0.58
   2  -6   1  109.44    2.08
   3  -6   1  218.77    3.43
   4  -6   1   75.29    1.94
   5  -6   1   33.36    1.39
   6  -6   1  100.45    2.31
   7  -6   1  425.39    7.12
   8  -6   1   68.79    2.58
   9  -6   1    2.85    0.51
  10  -6   1    9.25    1.24
  11  -6   1  235.26    6.58
  12  -6   1   26.93    2.30
  13  -6   1   37.16    4.06
  14  -6   1   33.19    2.97
  15  -6   1   10.58    1.79
 -10  -5   1   12.60    2.82
  -9  -5   1   35.92    2.29
  -8  -5   1    1.05    0.55
  -7  -5   1   10.74    1.24
  -6  -5   1  230.22    5.33
  -5  -5   1   24.68    1.52
  -4  -5   1  306.68    5.00
  -3  -5   1    6.26    0.59
  -2  -5   1   30.55    1.18
  -1  -5   1   33.73    0.84
   0  -5   1  193.81    3.05
   1  -5   1    0.40    0.14
   2  -5   1  271.63    3.96
   3  -5   1  114.74    1.93
   4  -5   1  650.75   10.16
   5  -5   1  196.36    3.55
   6  -5   1   10.63    0.59
   7  -5   1   80.62    1.93
   8  -5   1  124.72    3.03
   9  -5   1   15.13    1.00
  10  -5   1   24.12    1.75
  11  -5   1    1.43    0.62
  12  -5   1   79.07    3.45
  13  -5   1    3.75    1.04
  14  -5   1    9.06    1.65
  15  -5   1   48.24    4.34
 -10  -4   1    8.58    1.74
  -9  -4   1   80.26    3.07
  -8  -4   1   13.39    1.37
  -7  -4   1   82.98    2.78
  -6  -4   1    8.46    0.98
  -5  -4   1   14.08    1.16
  -4  -4   1   25.24    0.98
  -3  -4   1    2.10    0.33
  -2  -4   1   81.76    1.72
  -1  -4   1  658.40    7.81
   0  -4   1  165.91    2.59
   1  -4   1  483.09    6.62
   2  -4   1   10.25    0.42
   3  -4   1   52.40    1.30
   4  -4   1  163.19    2.97
   5  -4   1    0.24    0.14
   6  -4   1  112.35    2.25
   7  -4   1  511.82    8.41
   8  -4   1   26.12    1.10
   9  -4   1  310.22    7.22
  10  -4   1    1.75    0.53
  11  -4   1   12.30    1.22
  12  -4   1   66.67    3.24
  13  -4   1    3.87    1.07
  14  -4   1   63.66    3.55
  15  -4   1    5.57    1.83
 -11  -3   1   32.63    3.13
 -10  -3   1   36.43    2.84
  -9  -3   1   20.15    1.69
  -8  -3   1  239.89    5.50
  -7  -3   1   12.79    1.19
  -6  -3   1    0.92    0.38
  -5  -3   1  126.54    2.59
  -4  -3   1  511.44    7.31
  -3  -3   1  217.35    3.57
  -2  -3   1  113.75    2.10
  -1  -3   1   52.91    0.97
   0  -3   1  452.86    7.02
   1  -3   1  105.78    1.70
   2  -3   1   77.78    1.43
   3  -3   1  460.13    7.02
   4  -3   1  500.38    7.54
   5  -3   1  267.38    3.85
   6  -3   1  224.94    3.35
   7  -3   1    1.32    0.25
   8  -3   1    7.61    0.91
   9  -3   1   77.74    2.81
  10  -3   1   28.46    1.51
  11  -3   1    5.42    1.04
  12  -3   1   62.19    3.16
  13  -3   1  112.17    4.55
  14  -3   1   27.69    2.72
 -12  -2   1    2.78    1.16
 -11  -2   1  118.58    5.04
 -10  -2   1    1.10    0.54
  -9  -2   1   14.04    1.35
  -8  -2   1  106.29    3.11
  -7  -2   1   12.48    1.06
  -6  -2   1   65.07    1.70
  -5  -2   1   80.39    1.84
  -4  -2   1  111.89    2.44
  -3  -2   1  274.65    4.08
  -2  -2   1   10.71    0.51
  -1  -2   1   76.55    1.18
   0  -2   1  617.85    7.90
   1  -2   1  172.76    2.49
   2  -2   1  625.35    9.07
   3  -2   1  107.84    2.01
   4  -2   1    9.47    0.49
   5  -2   1  114.86    2.28
   6  -2   1   80.72    1.78
   7  -2   1   30.90    1.01
   8  -2   1   53.32    1.80
   9  -2   1  101.59    2.81
  10  -2   1  224.72    6.26
  11  -2   1   26.77    2.26
  12  -2   1    5.24    1.17
  13  -2   1    8.01    1.46
  14  -2   1   23.79    3.90
 -12  -1   1   16.09    2.14
 -11  -1   1   59.77    3.29
 -10  -1   1   10.42    1.20
  -9  -1   1    7.55    0.95
  -8  -1   1  245.96    5.26
  -7  -1   1  152.32    3.59
  -6  -1   1  423.01    6.26
  -5  -1   1   10.17    0.60
  -4  -1   1    0.34    0.14
  -3  -1   1  493.46    5.94
  -2  -1   1  108.29    1.72
  -1  -1   1  175.37    2.28
   0  -1   1   81.86    1.12
   1  -1   1   81.51    1.24
   2  -1   1  170.75    3.46
   3  -1   1   75.45    1.46
   4  -1   1   53.07    1.16
   5  -1   1  667.08    9.90
   6  -1   1   33.10    0.81
   7  -1   1  344.61    6.24
   8  -1   1    2.26    0.43
   9  -1   1   38.72    2.10
  10  -1   1   45.66    2.40
  11  -1   1   21.58    2.08
  12  -1   1    8.15    1.47
  13  -1   1  107.05    7.02
 -13   0   1    3.73    1.22
 -12   0   1   70.75    3.68
 -11   0   1   36.92    2.75
 -10   0   1  173.09    4.40
  -9   0   1   54.37    1.84
  -8   0   1   11.57    0.92
  -7   0   1   30.16    0.96
  -6   0   1   99.05    1.86
  -5   0   1  192.85    2.74
  -4   0   1  165.08    2.58
  -3   0   1  441.99    5.04
  -2   0   1  602.16    6.47
  -1   0   1   83.84    1.29
   0   0   1    1.29    0.12
   1   0   1   82.29    1.46
   2   0   1  610.41    7.87
   3   0   1  447.41    7.11
   4   0   1  165.23    3.06
   5   0   1  190.39    3.59
   6   0   1   98.17    2.33
   7   0   1   27.13    1.33
   8   0   1   10.42    1.20
   9   0   1   53.46    2.53
  10   0   1  175.02    5.43
  11   0   1   36.75    2.53
  12   0   1   69.08    2.93
  13   0   1    3.14    1.16
 -13   1   1  114.19    4.88
 -12   1   1    6.90    1.34
 -11   1   1   25.03    1.98
 -10   1   1   44.56    1.68
  -9   1   1   38.31    1.46
  -8   1   1    2.49    0.44
  -7   1   1  346.39    4.88
  -6   1   1   32.49    0.82
  -5   1   1  639.54    6.68
  -4   1   1   53.47    0.82
  -3   1   1   76.67    0.98
  -2   1   1  173.75    1.81
  -1   1   1   81.57    1.17
   0   1   1   80.50    1.29
   1   1   1  174.14    2.51
   2   1   1  108.33    1.66
   3   1   1  495.17    7.72
   4   1   1    0.46    0.17
   5   1   1   10.03    0.66
   6   1   1  431.00    7.18
   7   1   1  154.09    4.40
   8   1   1  251.72    6.43
   9   1   1    8.35    1.16
  10   1   1    8.34    1.10
  11   1   1   55.80    2.51
  12   1   1   16.23    2.25
 -14   2   1   29.10    2.88
 -13   2   1   10.01    1.65
 -12   2   1    4.58    0.92
 -11   2   1   28.49    2.01
 -10   2   1  230.76    4.37
  -9   2   1  101.21    2.50
  -8   2   1   55.50    1.40
  -7   2   1   30.57    0.80
  -6   2   1   79.74    1.21
  -5   2   1  116.14    1.50
  -4   2   1   10.57    0.35
  -3   2   1  107.94    1.28
  -2   2   1  609.07    7.14
  -1   2   1  172.66    2.60
   0   2   1  613.36    7.09
   1   2   1   76.61    1.33
   2   2   1   10.13    0.57
   3   2   1  273.99    4.62
   4   2   1  114.03    2.42
   5   2   1   83.71    2.05
   6   2   1   61.39    2.49
   7   2   1   10.40    1.18
   8   2   1  105.07    3.13
   9   2   1   11.80    1.25
  10   2   1    0.63    0.46
  11   2   1  124.87    5.24
  12   2   1    1.75    0.97
 -14   3   1   25.87    2.68
 -13   3   1  106.44    3.69
 -12   3   1   67.63    2.68
 -11   3   1    7.02    0.92
 -10   3   1   29.41    1.27
  -9   3   1   79.34    1.65
  -8   3   1    6.55    0.43
  -7   3   1    1.80    0.22
  -6   3   1  221.32    2.56
  -5   3   1  267.68    2.90
  -4   3   1  486.02    4.79
  -3   3   1  453.27    5.07
  -2   3   1   78.14    1.24
  -1   3   1  106.68    1.57
   0   3   1  455.83    6.19
   1   3   1   54.58    1.32
   2   3   1  114.54    2.08
   3   3   1  221.73    3.53
   4   3   1  510.06    7.25
   5   3   1  126.57    3.14
   6   3   1    1.20    0.38
   7   3   1   12.69    1.18
   8   3   1  239.16    5.53
   9   3   1   20.36    1.71
  10   3   1   35.40    3.17
  11   3   1   38.39    3.44
 -14   4   1   67.70    3.61
 -13   4   1    7.86    1.44
 -12   4   1   63.10    2.53
 -11   4   1    9.75    0.95
 -10   4   1    1.73    0.37
  -9   4   1  314.22    3.84
  -8   4   1   25.82    0.73
  -7   4   1  510.25    5.22
  -6   4   1  110.12    1.56
  -5   4   1    0.62    0.11
  -4   4   1  166.09    2.21
  -3   4   1   51.15    1.17
  -2   4   1   10.16    0.43
  -1   4   1  500.79    6.78
   0   4   1  171.05    2.73
   1   4   1  648.28    8.86
   2   4   1   81.36    1.71
   3   4   1    1.42    0.27
   4   4   1   26.40    1.24
   5   4   1   14.30    1.15
   6   4   1    8.39    0.94
   7   4   1   82.14    2.78
   8   4   1   14.36    1.41
   9   4   1   83.87    4.08
  10   4   1   12.29    1.99
 -15   5   1   56.19    3.45
 -14   5   1    6.56    1.39
 -13   5   1    5.20    1.17
 -12   5   1   75.99    2.85
 -11   5   1    2.53    0.51
 -10   5   1   25.80    0.99
  -9   5   1   15.68    0.77
  -8   5   1  127.95    1.89
  -7   5   1   81.10    1.45
  -6   5   1    9.57    0.52
  -5   5   1  195.52    2.61
  -4   5   1  645.47    8.05
  -3   5   1  112.75    2.16
  -2   5   1  267.17    4.11
  -1   5   1    0.84    0.19
   0   5   1  195.31    3.22
   1   5   1   31.99    1.03
   2   5   1   33.25    1.07
   3   5   1    5.96    0.69
   4   5   1  309.02    5.98
   5   5   1   26.09    1.44
   6   5   1  226.42    5.28
   7   5   1   11.15    1.22
   8   5   1    0.11    0.51
   9   5   1   32.91    3.05
  10   5   1   15.42    3.13
 -15   6   1   14.40    2.91
 -14   6   1   30.75    2.71
 -13   6   1   37.48    2.00
 -12   6   1   23.81    1.78
 -11   6   1  241.75    4.64
 -10   6   1    8.78    0.83
  -9   6   1    1.89    0.31
  -8   6   1   66.74    1.63
  -7   6   1  423.14    5.71
  -6   6   1  100.86    1.86
  -5   6   1   32.57    1.10
  -4   6   1   79.70    1.79
  -3   6   1  218.28    3.67
  -2   6   1  109.80    2.52
  -1   6   1    9.59    0.66
   0   6   1  100.31    2.13
   1   6   1  346.07    5.46
   2   6   1   51.84    1.85
   3   6   1   77.18    2.40
   4   6   1    2.19    0.53
   5   6   1    1.90    0.50
   6   6   1   22.49    1.71
   7   6   1    8.22    1.47
   8   6   1   13.83    2.00
   9   6   1   73.07    4.05
 -15   7   1   -0.51    0.88
 -14   7   1  161.32    5.88
 -13   7   1   11.28    1.63
 -12   7   1   10.25    1.17
 -11   7   1   83.12    2.81
 -10   7   1   11.87    0.99
  -9   7   1    9.31    0.84
  -8   7   1  160.32    3.27
  -7   7   1   29.61    1.17
  -6   7   1  339.85    5.62
  -5   7   1   31.80    1.14
  -4   7   1    1.89    0.34
  -3   7   1  501.28    7.44
  -2   7   1   82.88    2.19
  -1   7   1  427.64    6.42
   0   7   1   28.35    1.09
   1   7   1    1.78    0.40
   2   7   1  103.15    2.94
   3   7   1   30.71    1.60
   4   7   1   10.02    1.09
   5   7   1   73.44    2.77
   6   7   1   41.89    2.69
   7   7   1  156.55    5.90
   8   7   1   13.49    2.07
 -15   8   1   11.99    1.87
 -14   8   1   18.73    2.25
 -13   8   1   -0.06    0.39
 -12   8   1   15.61    1.47
 -11   8   1  250.77    5.67
 -10   8   1  105.75    2.79
  -9   8   1  249.42    4.70
  -8   8   1   10.15    0.87
  -7   8   1    2.13    0.39
  -6   8   1   55.98    1.68
  -5   8   1    6.48    0.63
  -4   8   1   25.95    1.08
  -3   8   1  129.54    2.73
  -2   8   1   64.71    1.80
  -1   8   1  155.31    3.10
   0   8   1   10.93    0.86
   1   8   1   36.75    1.68
   2   8   1  229.43    5.12
   3   8   1    4.56    0.74
   4   8   1   61.01    2.48
   5   8   1    4.78    1.12
   6   8   1   34.63    3.04
   7   8   1    1.22    0.91
 -15   9   1   71.90    5.72
 -14   9   1   32.21    2.93
 -13   9   1   87.23    3.20
 -12   9   1   24.50    1.89
 -11   9   1   12.07    1.25
 -10   9   1    9.13    0.91
  -9   9   1   51.35    1.83
  -8   9   1   38.67    1.51
  -7   9   1  101.97    2.57
  -6   9   1   80.37    2.14
  -5   9   1  312.01    5.25
  -4   9   1   16.73    0.99
  -3   9   1    2.80    0.46
  -2   9   1   10.44    0.85
  -1   9   1  251.37    4.52
   0   9   1   51.91    2.05
   1   9   1   44.34    1.93
   2   9   1   32.82    1.78
   3   9   1   68.81    2.65
   4   9   1    5.03    1.75
   5   9   1    7.92    2.30
   6   9   1    8.76    2.59
 -15  10   1   13.77    2.98
 -14  10   1   15.09    2.06
 -13  10   1   35.00    3.02
 -12  10   1    1.59    0.69
 -11  10   1    8.65    1.43
 -10  10   1  170.41    4.71
  -9  10   1   42.48    2.08
  -8  10   1  223.73    5.39
  -7  10   1   28.99    1.82
  -6  10   1    2.67    0.58
  -5  10   1   23.62    1.59
  -4  10   1    9.68    1.04
  -3  10   1   11.35    1.15
  -2  10   1  109.03    3.23
  -1  10   1    7.12    1.22
   0  10   1  169.10    5.59
   1  10   1   23.14    2.20
   2  10   1    4.80    1.10
   3  10   1  111.83    6.93
   4  10   1   64.73    5.37
 -15  11   1    5.45    2.22
 -14  11   1   40.04    3.41
 -13  11   1  118.96    5.04
 -12  11   1   57.73    3.27
 -11  11   1   34.41    2.96
 -10  11   1   23.58    1.93
  -9  11   1   26.80    2.01
  -8  11   1    5.72    0.96
  -7  11   1   11.59    1.30
  -6  11   1    1.82    0.58
  -5  11   1  229.64    5.56
  -4  11   1   86.82    2.97
  -3  11   1  244.91    5.69
  -2  11   1   14.07    1.75
  -1  11   1    8.83    1.43
   0  11   1   35.17    2.59
   1  11   1    7.23    1.39
   2  11   1    7.49    2.11
   3  11   1   29.37    4.38
 -14  12   1    3.40    1.11
 -13  12   1   14.09    2.03
 -12  12   1   68.13    3.67
 -11  12   1    7.88    1.41
 -10  12   1    5.19    1.01
  -9  12   1   59.97    2.68
  -8  12   1   61.46    2.69
  -7  12   1   78.05    3.05
  -6  12   1   23.24    1.93
  -5  12   1   11.03    1.30
  -4  12   1   13.55    1.44
  -3  12   1   20.55    2.23
  -2  12   1    1.17    0.69
  -1  12   1   51.39    3.07
   0  12   1   68.64    3.61
   1  12   1  124.55    7.64
   2  12   1   22.95    3.88
 -13  13   1    3.62    1.23
 -12  13   1  108.22    4.89
 -11  13   1    9.97    1.67
 -10  13   1  105.01    4.64
  -9  13   1    7.18    1.20
  -8  13   1    4.12    0.93
  -7  13   1   38.85    2.40
  -6  13   1   10.47    1.38
  -5  13   1   -0.46    0.38
  -4  13   1   82.63    4.03
  -3  13   1   33.35    2.99
  -2  13   1  122.72    5.06
  -1  13   1   19.92    2.57
   0  13   1    5.66    2.14
 -12  14   1   28.70    2.91
 -11  14   1   31.11    3.09
 -10  14   1   62.55    3.62
  -9  14   1    6.05    1.41
  -8  14   1   32.88    3.05
  -7  14   1  164.69    6.10
  -6  14   1   14.77    2.02
  -5  14   1   37.56    3.25
  -4  14   1   13.45    2.02
  -3  14   1   37.72    3.31
  -2  14   1    1.26    1.34
 -10  15   1   51.18    4.94
  -9  15   1   13.77    2.07
  -8  15   1    0.60    0.74
  -7  15   1   13.96    2.12
  -6  15   1   70.38    3.98
  -5  15   1   16.02    2.27
  -4  15   1    4.33    1.81
   5 -15   2    7.08    2.19
   8 -15   2   16.89    3.04
   9 -15   2    0.86    1.14
   2 -14   2   11.65    2.44
   3 -14   2   -0.06    0.61
   4 -14   2   29.37    2.63
   5 -14   2   16.25    1.94
   6 -14   2    4.88    1.64
   7 -14   2   36.35    2.75
   8 -14   2   14.54    2.01
   9 -14   2  172.04    6.23
  10 -14   2   19.20    2.28
  11 -14   2   12.89    1.93
  12 -14   2    9.70    2.36
   1 -13   2    9.01    1.49
   2 -13   2   58.08    3.12
   3 -13   2   15.43    1.89
   4 -13   2   39.94    2.50
   5 -13   2  103.86    4.15
   6 -13   2   28.35    2.10
   7 -13   2   39.89    2.57
   8 -13   2   18.23    2.09
   9 -13   2    5.29    1.23
  10 -13   2   15.70    2.01
  11 -13   2    1.10    0.78
  12 -13   2   17.36    2.26
  -1 -12   2   11.11    2.43
   0 -12   2   25.41    2.33
   1 -12   2   24.83    2.29
   2 -12   2   50.10    2.74
   3 -12   2    1.47    0.67
   4 -12   2    3.62    0.91
   5 -12   2   92.36    3.04
   6 -12   2   11.25    1.21
   7 -12   2   21.32    2.12
   8 -12   2   70.48    3.40
   9 -12   2   10.91    1.59
  10 -12   2   91.42    4.07
  11 -12   2   29.31    2.70
  12 -12   2   18.37    1.80
  13 -12   2    8.34    1.63
  -3 -11   2   15.42    2.88
  -2 -11   2    1.48    1.13
  -1 -11   2   32.11    3.78
   0 -11   2   24.75    2.21
   1 -11   2   74.20    3.28
   2 -11   2   68.04    3.08
   3 -11   2   40.23    2.24
   4 -11   2  138.00    3.65
   5 -11   2   61.66    2.29
   6 -11   2    5.33    0.82
   7 -11   2  240.67    6.88
   8 -11   2   12.15    1.54
   9 -11   2    4.38    0.99
  10 -11   2   53.44    2.93
  11 -11   2   22.91    2.25
  12 -11   2   19.85    1.75
  13 -11   2   50.84    3.24
  14 -11   2    0.38    0.67
  -5 -10   2    1.92    1.49
  -4 -10   2   24.68    2.56
  -3 -10   2   16.49    2.04
  -2 -10   2   93.03    5.58
  -1 -10   2   56.27    2.74
   0 -10   2  109.05    3.94
   1 -10   2    7.68    1.15
   2 -10   2   25.62    2.06
   3 -10   2   19.55    1.40
   4 -10   2   13.39    1.16
   5 -10   2   29.78    1.46
   6 -10   2  209.24    4.74
   7 -10   2   67.86    3.00
   8 -10   2  148.34    4.96
   9 -10   2   55.99    2.80
  10 -10   2  105.21    4.12
  11 -10   2   79.70    2.89
  12 -10   2   55.72    3.15
  13 -10   2   19.63    2.33
  14 -10   2   24.44    2.62
  15 -10   2   10.05    2.89
  -6  -9   2    1.64    1.35
  -5  -9   2  183.94    6.37
  -4  -9   2    4.06    1.08
  -3  -9   2   11.49    1.61
  -2  -9   2    4.67    0.77
  -1  -9   2   54.65    2.13
   0  -9   2    4.96    0.75
   1  -9   2   27.11    1.73
   2  -9   2    6.10    0.73
   3  -9   2  442.39    7.93
   4  -9   2   27.47    1.31
   5  -9   2   62.26    2.08
   6  -9   2   33.37    1.47
   7  -9   2   38.62    2.12
   8  -9   2   84.22    3.36
   9  -9   2    4.55    0.92
  10  -9   2    7.12    0.95
  11  -9   2   70.12    2.63
  12  -9   2    1.22    0.65
  13  -9   2   42.04    3.06
  14  -9   2   15.06    2.04
  15  -9   2   11.13    2.61
  -7  -8   2   15.15    2.09
  -6  -8   2   16.74    2.12
  -5  -8   2   16.69    2.04
  -4  -8   2   67.11    3.30
  -3  -8   2   13.00    1.23
  -2  -8   2  152.76    3.87
  -1  -8   2   89.84    2.67
   0  -8   2  306.18    5.94
   1  -8   2    5.16    0.56
   2  -8   2    9.63    0.88
   3  -8   2   37.07    1.45
   4  -8   2   33.24    1.37
   5  -8   2    7.07    0.72
   6  -8   2  107.31    2.71
   7  -8   2   35.81    1.96
   8  -8   2  294.52    7.42
   9  -8   2   28.69    1.80
  10  -8   2   29.12    1.60
  11  -8   2   39.14    2.40
  12  -8   2    2.98    0.88
  13  -8   2  102.92    4.41
  14  -8   2    4.68    1.19
  -8  -7   2    5.25    1.37
  -7  -7   2   32.34    2.89
  -6  -7   2   36.91    2.26
  -5  -7   2   22.96    2.22
  -4  -7   2  239.78    6.83
  -3  -7   2   63.84    2.24
  -2  -7   2   40.53    1.66
  -1  -7   2   35.73    1.53
   0  -7   2   16.85    0.88
   1  -7   2  117.32    2.37
   2  -7   2   69.85    1.67
   3  -7   2  124.56    2.88
   4  -7   2  407.02    7.05
   5  -7   2  252.19    4.73
   6  -7   2  125.84    2.90
   7  -7   2   12.66    1.25
   8  -7   2    3.69    0.75
   9  -7   2    5.03    0.70
  10  -7   2   18.21    1.80
  11  -7   2  125.51    4.63
  12  -7   2   99.87    4.07
  13  -7   2   26.10    2.45
  14  -7   2   32.57    4.19
  15  -7   2   18.63    3.55
  -9  -6   2    9.09    1.67
  -8  -6   2    5.40    1.09
  -7  -6   2   25.37    2.02
  -6  -6   2   11.65    1.32
  -5  -6   2    6.30    0.95
  -4  -6   2  213.94    4.16
  -3  -6   2   34.59    1.50
  -2  -6   2  107.80    2.79
  -1  -6   2  128.12    3.06
   0  -6   2   21.17    0.83
   1  -6   2  404.72    5.94
   2  -6   2   22.96    0.84
   3  -6   2   61.48    1.41
   4  -6   2  157.50    3.27
   5  -6   2  198.53    3.81
   6  -6   2   22.73    0.95
   7  -6   2  110.62    2.81
   8  -6   2   10.05    0.91
   9  -6   2  436.75    7.95
  10  -6   2   14.52    1.62
  11  -6   2   61.72    2.97
  12  -6   2   11.88    1.56
  13  -6   2   36.75    2.63
  14  -6   2   12.35    1.91
 -10  -5   2    8.15    2.02
  -9  -5   2   16.03    1.75
  -8  -5   2  110.72    3.69
  -7  -5   2   98.27    3.33
  -6  -5   2   62.86    2.47
  -5  -5   2   30.67    1.71
  -4  -5   2   62.21    1.84
  -3  -5   2    5.52    0.60
  -2  -5   2  239.50    4.78
  -1  -5   2  197.25    3.29
   0  -5   2   72.36    1.62
   1  -5   2   68.43    1.55
   2  -5   2   98.46    2.18
   3  -5   2   41.42    1.31
   4  -5   2   77.97    1.87
   5  -5   2   74.60    1.77
   6  -5   2  393.03    6.96
   7  -5   2   66.27    1.98
   8  -5   2   39.36    1.47
   9  -5   2   30.13    1.78
  10  -5   2   35.10    2.05
  11  -5   2    5.22    1.03
  12  -5   2   21.19    1.77
  13  -5   2   16.17    2.06
  14  -5   2  180.48    6.46
 -10  -4   2   29.58    2.33
  -9  -4   2   45.71    2.44
  -8  -4   2    1.09    0.51
  -7  -4   2  127.21    3.78
  -6  -4   2   11.68    1.17
  -5  -4   2   25.76    1.16
  -4  -4   2   33.45    1.24
  -3  -4   2  394.94    6.19
  -2  -4   2  159.53    2.74
  -1  -4   2   75.02    1.62
   0  -4   2  132.34    2.36
   1  -4   2  274.88    4.15
   2  -4   2  312.41    4.55
   3  -4   2   93.97    2.02
   4  -4   2  139.14    2.63
   5  -4   2   67.93    1.39
   6  -4   2   24.09    1.01
   7  -4   2  121.04    2.80
   8  -4   2   34.03    1.78
   9  -4   2   61.74    2.62
  10  -4   2  222.12    6.00
  11  -4   2  248.13    5.63
  12  -4   2   62.15    3.27
  13  -4   2    5.46    1.27
  14  -4   2   21.96    2.51
 -11  -3   2    0.19    0.75
 -10  -3   2   16.48    1.70
  -9  -3   2    2.07    0.70
  -8  -3   2   35.71    1.97
  -7  -3   2   18.49    1.50
  -6  -3   2  446.09    6.97
  -5  -3   2   38.44    1.32
  -4  -3   2  120.53    2.55
  -3  -3   2   62.60    1.28
  -2  -3   2   43.58    1.12
  -1  -3   2   92.94    1.78
   0  -3   2   43.48    1.07
   1  -3   2   35.65    0.90
   2  -3   2  621.10    8.17
   3  -3   2   45.33    0.99
   4  -3   2  280.27    4.01
   5  -3   2   97.92    2.23
   6  -3   2   59.68    1.64
   7  -3   2  402.75    6.85
   8  -3   2    6.36    0.89
   9  -3   2   34.36    1.86
  10  -3   2   66.41    2.38
  11  -3   2   13.09    1.65
  12  -3   2   11.55    1.64
  13  -3   2   15.42    2.04
  14  -3   2   14.44    2.10
 -11  -2   2   56.55    3.42
 -10  -2   2   51.02    2.41
  -9  -2   2   65.54    2.63
  -8  -2   2   26.36    1.60
  -7  -2   2    7.14    0.84
  -6  -2   2    9.46    0.77
  -5  -2   2   69.68    1.80
  -4  -2   2   23.29    0.72
  -3  -2   2   98.18    1.75
  -2  -2   2  319.62    4.63
  -1  -2   2  612.69    8.28
   0  -2   2  448.47    5.37
   1  -2   2  152.53    2.36
   2  -2   2  452.26    5.99
   3  -2   2   35.05    0.78
   4  -2   2  317.87    5.28
   5  -2   2   40.54    1.23
   6  -2   2  160.73    3.12
   7  -2   2  240.23    5.82
   8  -2   2  107.11    2.84
   9  -2   2   37.30    1.65
  10  -2   2  147.48    4.95
  11  -2   2    3.52    0.87
  12  -2   2   96.23    4.12
  13  -2   2    1.19    0.80
  14  -2   2   14.77    2.90
 -12  -1   2    7.00    1.56
 -11  -1   2   23.24    2.51
 -10  -1   2   79.62    2.92
  -9  -1   2    7.44    0.94
  -8  -1   2   25.48    1.60
  -7  -1   2    4.52    0.56
  -6  -1   2  116.30    2.50
  -5  -1   2  397.50    5.33
  -4  -1   2   68.23    1.42
  -3  -1   2  282.62    3.82
  -2  -1   2   35.61    0.93
  -1  -1   2  153.68    2.51
   0  -1   2  106.49    1.75
   1  -1   2  106.89    1.77
   2  -1   2  152.75    2.36
   3  -1   2  617.60    9.46
   4  -1   2   94.82    1.97
   5  -1   2   79.31    1.75
   6  -1   2  187.91    3.96
   7  -1   2  125.68    3.07
   8  -1   2   33.67    1.49
   9  -1   2   90.08    3.44
  10  -1   2   52.71    2.71
  11  -1   2   55.56    2.97
  12  -1   2   32.13    2.84
  13  -1   2   13.94    1.96
 -13   0   2  102.87    6.99
 -12   0   2   19.65    2.40
 -11   0   2   26.00    1.99
 -10   0   2  105.02    3.36
  -9   0   2    5.28    0.79
  -8   0   2  298.52    6.13
  -7   0   2   15.43    0.92
  -6   0   2   21.84    0.78
  -5   0   2   74.80    1.53
  -4   0   2  133.53    2.21
  -3   0   2   45.68    0.86
  -2   0   2  441.84    6.07
  -1   0   2  104.44    1.82
   0   0   2  928.30   12.15
   1   0   2  105.69    1.79
   2   0   2  441.50    6.02
   3   0   2   43.77    1.01
   4   0   2  136.32    2.28
   5   0   2   73.56    1.97
   6   0   2   20.13    1.01
   7   0   2   14.10    0.97
   8   0   2  304.05    7.47
   9   0   2    4.95    0.99
  10   0   2  103.40    4.08
  11   0   2   25.72    2.45
  12   0   2   20.31    2.30
 -13   1   2   11.69    1.86
 -12   1   2   29.66    2.79
 -11   1   2   57.22    2.43
 -10   1   2   57.92    2.32
  -9   1   2   89.48    2.81
  -8   1   2   36.78    1.35
  -7   1   2  128.48    2.35
  -6   1   2  193.63    3.07
  -5   1   2   79.27    1.40
  -4   1   2   94.29    1.65
  -3   1   2  601.74    7.44
  -2   1   2  153.35    1.99
  -1   1   2  106.00    1.86
   0   1   2  103.62    1.59
   1   1   2  155.15    2.42
   2   1   2   36.17    0.88
   3   1   2  282.65    4.11
   4   1   2   67.07    1.85
   5   1   2  396.54    6.95
   6   1   2  115.19    2.81
   7   1   2    4.42    0.81
   8   1   2   24.00    1.99
   9   1   2    9.13    1.29
  10   1   2   75.65    3.47
  11   1   2   22.92    2.35
  12   1   2    7.15    1.22
 -14   2   2   12.11    2.91
 -13   2   2    0.74    0.72
 -12   2   2   93.24    4.14
 -11   2   2    5.21    0.89
 -10   2   2  158.98    4.08
  -9   2   2   38.59    1.29
  -8   2   2  103.46    1.96
  -7   2   2  246.69    3.15
  -6   2   2  159.81    2.08
  -5   2   2   42.33    0.85
  -4   2   2  314.02    3.32
  -3   2   2   34.83    1.01
  -2   2   2  436.41    5.46
  -1   2   2  151.83    2.43
   0   2   2  445.34    6.10
   1   2   2  611.04    8.25
   2   2   2  316.08    4.58
   3   2   2   98.06    1.85
   4   2   2   23.75    1.03
   5   2   2   70.26    2.00
   6   2   2    8.75    1.11
   7   2   2    4.84    0.88
   8   2   2   28.06    1.98
   9   2   2   66.58    3.18
  10   2   2   53.05    2.47
  11   2   2   54.05    2.65
 -14   3   2   19.09    2.36
 -13   3   2   14.61    2.00
 -12   3   2   11.00    1.67
 -11   3   2   11.65    1.06
 -10   3   2   65.62    2.06
  -9   3   2   35.39    1.10
  -8   3   2    6.68    0.45
  -7   3   2  408.83    4.39
  -6   3   2   62.51    1.12
  -5   3   2   98.40    1.45
  -4   3   2  281.90    3.49
  -3   3   2   45.05    1.03
  -2   3   2  616.52    8.35
  -1   3   2   36.47    0.96
   0   3   2   45.23    0.92
   1   3   2   93.40    1.82
   2   3   2   43.80    1.28
   3   3   2   59.99    1.76
   4   3   2  125.66    2.90
   5   3   2   35.93    1.87
   6   3   2  426.67    9.91
   7   3   2   20.85    1.57
   8   3   2   38.39    1.91
   9   3   2    2.69    0.71
  10   3   2   16.42    1.72
  11   3   2    0.43    0.77
 -14   4   2   20.10    3.26
 -13   4   2    4.97    0.95
 -12   4   2   72.27    2.79
 -11   4   2  248.21    4.80
 -10   4   2  219.80    2.95
  -9   4   2   63.99    1.31
  -8   4   2   34.38    0.88
  -7   4   2  125.31    1.82
  -6   4   2   23.99    0.66
  -5   4   2   69.16    1.35
  -4   4   2  135.80    2.19
  -3   4   2   93.28    1.57
  -2   4   2  318.72    4.79
  -1   4   2  281.16    3.72
   0   4   2  136.18    2.13
   1   4   2   78.71    1.70
   2   4   2  160.76    2.90
   3   4   2  410.01    6.14
   4   4   2   36.34    1.49
   5   4   2   28.24    1.40
   6   4   2   11.09    1.09
   7   4   2  132.35    3.79
   8   4   2    1.03    0.48
   9   4   2   44.45    2.26
  10   4   2   31.54    3.05
 -15   5   2    2.61    1.51
 -14   5   2  185.09    6.19
 -13   5   2   18.13    2.05
 -12   5   2   24.86    1.85
 -11   5   2    5.29    0.48
 -10   5   2   32.88    0.95
  -9   5   2   28.39    0.84
  -8   5   2   36.71    0.92
  -7   5   2   68.90    1.34
  -6   5   2  409.15    5.50
  -5   5   2   74.03    1.68
  -4   5   2   78.92    1.52
  -3   5   2   43.19    0.98
  -2   5   2   96.28    2.09
  -1   5   2   70.01    1.39
   0   5   2   75.09    1.67
   1   5   2  198.38    3.42
   2   5   2  249.16    4.16
   3   5   2    6.30    0.61
   4   5   2   62.30    2.16
   5   5   2   31.36    1.57
   6   5   2   61.14    2.40
   7   5   2   98.95    3.28
   8   5   2  101.74    3.53
   9   5   2   18.58    2.31
  10   5   2    8.84    2.44
 -15   6   2    1.62    1.21
 -14   6   2   14.45    2.78
 -13   6   2   38.39    2.02
 -12   6   2   12.40    1.12
 -11   6   2   66.22    1.45
 -10   6   2   13.65    0.74
  -9   6   2  447.86    5.71
  -8   6   2    8.76    0.61
  -7   6   2  113.85    2.25
  -6   6   2   22.16    0.85
  -5   6   2  203.81    3.41
  -4   6   2  159.97    2.59
  -3   6   2   61.27    1.30
  -2   6   2   24.18    0.82
  -1   6   2  396.10    6.01
   0   6   2   21.29    0.88
   1   6   2  128.18    2.64
   2   6   2  103.82    2.38
   3   6   2   36.60    1.59
   4   6   2  219.13    4.91
   5   6   2    4.82    0.81
   6   6   2   11.39    1.26
   7   6   2   29.50    2.16
   8   6   2    5.74    1.32
   9   6   2   11.51    2.73
 -14   7   2   30.19    4.06
 -13   7   2   27.42    2.01
 -12   7   2   99.73    3.21
 -11   7   2  134.98    3.29
 -10   7   2   19.46    1.29
  -9   7   2    5.71    0.61
  -8   7   2    4.66    0.52
  -7   7   2   15.21    0.82
  -6   7   2  129.13    2.42
  -5   7   2  243.76    4.43
  -4   7   2  399.20    7.44
  -3   7   2  124.00    3.17
  -2   7   2   69.82    2.22
  -1   7   2  115.04    2.43
   0   7   2   15.59    0.91
   1   7   2   37.08    1.35
   2   7   2   38.83    1.67
   3   7   2   67.40    2.38
   4   7   2  244.63    5.53
   5   7   2   21.36    1.72
   6   7   2   42.70    2.89
   7   7   2   36.19    4.81
 -14   8   2    3.30    1.49
 -13   8   2  116.32    4.54
 -12   8   2    1.25    0.55
 -11   8   2   35.99    1.93
 -10   8   2   30.66    1.86
  -9   8   2   29.56    1.81
  -8   8   2  298.84    6.32
  -7   8   2   32.18    1.65
  -6   8   2  104.14    3.05
  -5   8   2    5.71    0.77
  -4   8   2   38.46    2.02
  -3   8   2   37.03    1.65
  -2   8   2    9.20    0.96
  -1   8   2    4.96    0.72
   0   8   2  305.21    6.17
   1   8   2   85.23    3.47
   2   8   2  151.15    5.05
   3   8   2   14.43    1.74
   4   8   2   75.07    3.50
   5   8   2   14.81    1.92
   6   8   2   11.27    2.59
 -14   9   2   15.45    2.01
 -13   9   2   43.03    2.96
 -12   9   2    1.83    0.66
 -11   9   2   72.40    2.83
 -10   9   2    7.63    1.03
  -9   9   2    4.86    0.84
  -8   9   2   82.73    2.88
  -7   9   2   37.13    1.84
  -6   9   2   35.31    1.75
  -5   9   2   64.45    2.37
  -4   9   2   28.83    1.61
  -3   9   2  430.46    8.34
  -2   9   2    6.35    0.85
  -1   9   2   25.65    1.63
   0   9   2    4.63    0.95
   1   9   2   54.42    2.85
   2   9   2    3.37    0.91
   3   9   2    9.72    1.57
   4   9   2    4.63    1.20
   5   9   2  173.85    9.34
 -15  10   2    3.97    1.60
 -14  10   2   31.09    2.88
 -13  10   2   17.38    2.06
 -12  10   2   53.47    2.55
 -11  10   2   78.32    3.04
 -10  10   2  105.98    3.52
  -9  10   2   56.58    2.43
  -8  10   2  155.97    4.30
  -7  10   2   66.81    2.58
  -6  10   2  213.37    5.19
  -5  10   2   31.78    1.76
  -4  10   2   11.47    1.18
  -3  10   2   22.40    1.68
  -2  10   2   28.03    1.67
  -1  10   2    6.62    1.19
   0  10   2  107.77    4.30
   1  10   2   55.72    3.04
   2  10   2   88.12    4.01
   3  10   2   13.34    1.92
   4  10   2   22.55    3.76
 -14  11   2    1.42    0.86
 -13  11   2   59.87    3.37
 -12  11   2   21.66    2.00
 -11  11   2   23.78    2.03
 -10  11   2   57.25    2.57
  -9  11   2    3.24    0.71
  -8  11   2   13.18    1.41
  -7  11   2  245.95    5.89
  -6  11   2    5.23    0.89
  -5  11   2   62.73    2.55
  -4  11   2  130.09    3.92
  -3  11   2   38.25    1.97
  -2  11   2   65.91    3.34
  -1  11   2   78.81    3.72
   0  11   2   24.21    2.43
   1  11   2   28.74    2.69
   2  11   2    2.11    0.94
   3  11   2   16.24    3.34
 -13  12   2    8.54    1.67
 -12  12   2   24.15    2.12
 -11  12   2   34.08    2.50
 -10  12   2   90.05    3.42
  -9  12   2    9.88    1.31
  -8  12   2   69.90    2.91
  -7  12   2   23.21    1.96
  -6  12   2   10.36    1.31
  -5  12   2   95.69    3.39
  -4  12   2    2.83    0.76
  -3  12   2    1.41    0.69
  -2  12   2   53.20    3.10
  -1  12   2   20.81    2.38
   0  12   2   23.48    2.51
   1  12   2   11.84    1.89
 -13  13   2   99.21    6.61
 -12  13   2   12.09    1.59
 -11  13   2    2.33    0.82
 -10  13   2   15.21    1.69
  -9  13   2    5.14    1.02
  -8  13   2   13.64    1.58
  -7  13   2   40.07    2.52
  -6  13   2   27.74    2.22
  -5  13   2  104.11    3.70
  -4  13   2   44.97    2.90
  -3  13   2   17.19    2.17
  -2  13   2   55.39    3.37
  -1  13   2    7.05    1.42
   0  13   2   89.30    4.58
 -12  14   2   11.35    2.68
 -11  14   2   16.98    1.82
 -10  14   2   22.21    2.06
  -9  14   2  173.85    5.28
  -8  14   2   13.61    1.69
  -7  14   2   35.15    2.63
  -6  14   2    4.99    1.04
  -5  14   2   15.71    2.24
  -4  14   2   27.98    2.93
  -3  14   2    0.12    0.70
  -2  14   2   11.54    2.73
 -10  15   2    3.28    1.65
  -9  15   2    1.14    0.94
  -8  15   2   14.63    2.22
  -7  15   2    6.87    1.25
  -6  15   2   10.61    2.74
   3 -14   3   26.14    3.81
   4 -14   3    7.01    1.39
   5 -14   3   29.08    3.79
   6 -14   3   28.62    3.86
   7 -14   3  125.76    7.30
   8 -14   3   16.85    2.11
   9 -14   3    0.65    0.68
  10 -14   3   42.89    3.23
  11 -14   3   31.02    4.05
   1 -13   3    3.07    1.01
   2 -13   3  104.10    4.46
   3 -13   3   41.00    2.82
   4 -13   3   87.69    3.89
   5 -13   3    0.30    0.65
   6 -13   3    8.91    2.01
   7 -13   3   47.26    2.87
   8 -13   3    3.29    0.99
   9 -13   3    9.95    1.66
  10 -13   3   84.77    4.13
  11 -13   3   11.05    1.42
  12 -13   3   78.20    3.90
  -1 -12   3   76.50    6.11
   0 -12   3   54.39    3.06
   1 -12   3   28.73    2.52
   2 -12   3   23.67    2.28
   3 -12   3   16.23    1.85
   4 -12   3   21.21    2.08
   5 -12   3    1.79    0.68
   6 -12   3   20.88    2.11
   7 -12   3   75.16    3.51
   8 -12   3   66.12    3.32
   9 -12   3   47.41    2.90
  10 -12   3    4.31    0.88
  11 -12   3   25.61    2.10
  12 -12   3   51.74    3.25
  13 -12   3    2.90    1.47
  -2 -11   3   11.00    2.41
  -1 -11   3   23.61    2.31
   0 -11   3   42.30    2.55
   1 -11   3    4.21    0.98
   2 -11   3    6.03    1.15
   3 -11   3  144.81    4.81
   4 -11   3   61.39    2.32
   5 -11   3  150.21    3.92
   6 -11   3   18.84    1.91
   7 -11   3    4.19    0.98
   8 -11   3   13.95    1.75
   9 -11   3   43.21    2.62
  10 -11   3   15.37    1.54
  11 -11   3   42.52    2.31
  12 -11   3   29.09    2.83
  13 -11   3   99.23    4.71
  -3 -10   3   84.30    5.61
  -2 -10   3    4.38    1.01
  -1 -10   3   14.42    1.74
   0 -10   3  156.29    5.11
   1 -10   3   33.56    2.09
   2 -10   3   83.38    3.37
   3 -10   3   22.43    1.44
   4 -10   3   15.05    1.26
   5 -10   3   20.70    1.48
   6 -10   3   19.25    1.87
   7 -10   3   10.61    1.41
   8 -10   3  165.39    5.42
   9 -10   3   18.65    1.56
  10 -10   3  156.57    4.32
  11 -10   3    5.26    0.92
  12 -10   3   20.91    2.37
  13 -10   3   42.29    3.11
  14 -10   3    8.17    1.65
  -5  -9   3    1.88    0.96
  -4  -9   3   11.26    1.72
  -3  -9   3   53.09    3.06
  -2  -9   3   40.47    1.96
  -1  -9   3   20.35    1.93
   0  -9   3   34.63    2.07
   1  -9   3  196.36    5.62
   2  -9   3   32.29    1.51
   3  -9   3    2.43    0.51
   4  -9   3   33.06    1.50
   5  -9   3  289.73    5.94
   6  -9   3   73.48    3.11
   7  -9   3   38.69    2.19
   8  -9   3    2.85    0.63
   9  -9   3   36.22    1.78
  10  -9   3   32.98    1.94
  11  -9   3    6.22    1.17
  12  -9   3   15.76    2.00
  13  -9   3   85.93    4.16
  14  -9   3   35.75    3.20
  -6  -8   3   18.80    2.26
  -5  -8   3    3.21    1.03
  -4  -8   3   61.31    3.22
  -3  -8   3   15.84    1.44
  -2  -8   3  173.23    4.31
  -1  -8   3    2.82    0.61
   0  -8   3    5.20    0.77
   1  -8   3  142.48    4.35
   2  -8   3   99.20    2.66
   3  -8   3  152.50    3.51
   4  -8   3    2.85    0.52
   5  -8   3   29.90    1.32
   6  -8   3   74.44    2.96
   7  -8   3    1.23    0.41
   8  -8   3    6.21    0.83
   9  -8   3  203.15    4.70
  10  -8   3   85.40    2.94
  11  -8   3  142.96    5.09
  12  -8   3   17.43    2.02
  13  -8   3    0.02    0.56
  14  -8   3   25.84    2.70
  -7  -7   3  127.51    5.28
  -6  -7   3   46.95    2.90
  -5  -7   3   76.25    3.62
  -4  -7   3    5.33    0.82
  -3  -7   3   11.89    1.18
  -2  -7   3   40.49    1.76
  -1  -7   3    1.06    0.41
   0  -7   3   35.81    1.55
   1  -7   3  256.45    4.39
   2  -7   3   46.67    1.65
   3  -7   3  288.79    5.52
   4  -7   3   38.64    1.46
   5  -7   3   24.09    1.11
   6  -7   3  313.19    5.94
   7  -7   3   36.81    1.55
   8  -7   3  138.57    3.54
   9  -7   3   32.17    1.53
  10  -7   3   20.10    1.92
  11  -7   3   58.86    3.00
  12  -7   3    0.64    0.54
  13  -7   3    8.61    1.53
  14  -7   3  133.52    4.51
  -8  -6   3   19.64    2.35
  -7  -6   3    9.98    1.62
  -6  -6   3   19.47    2.14
  -5  -6   3   15.40    1.78
  -4  -6   3   22.84    1.49
  -3  -6   3   81.69    2.59
  -2  -6   3   73.52    2.37
  -1  -6   3  303.70    5.94
   0  -6   3  101.37    2.27
   1  -6   3   42.19    1.30
   2  -6   3   14.74    0.77
   3  -6   3  151.69    3.33
   4  -6   3   97.18    2.05
   5  -6   3   44.58    1.28
   6  -6   3  104.06    2.71
   7  -6   3  255.36    5.16
   8  -6   3   94.76    2.67
   9  -6   3    2.86    0.70
  10  -6   3   14.31    1.60
  11  -6   3  140.65    4.94
  12  -6   3   21.90    2.19
  13  -6   3   43.60    2.48
  14  -6   3   15.49    2.20
  -9  -5   3   33.88    3.06
  -8  -5   3   -0.09    0.61
  -7  -5   3    0.70    0.56
  -6  -5   3  143.63    5.03
  -5  -5   3   16.69    1.35
  -4  -5   3  292.16    6.08
  -3  -5   3   29.30    1.40
  -2  -5   3   23.64    1.22
  -1  -5   3   41.25    1.26
   0  -5   3  132.86    2.58
   1  -5   3    2.00    0.33
   2  -5   3  273.65    3.87
   3  -5   3   55.57    1.36
   4  -5   3  436.13    6.20
   5  -5   3  129.16    2.97
   6  -5   3   42.83    1.52
   7  -5   3   46.56    1.65
   8  -5   3  145.68    3.43
   9  -5   3   29.16    1.84
  10  -5   3   19.59    1.90
  11  -5   3   17.83    1.92
  12  -5   3   79.97    3.02
  13  -5   3    2.28    0.81
  14  -5   3    0.28    0.78
 -10  -4   3    9.30    2.24
  -9  -4   3   79.83    4.00
  -8  -4   3   17.87    2.12
  -7  -4   3   62.49    3.13
  -6  -4   3   14.80    1.25
  -5  -4   3   31.54    1.52
  -4  -4   3    1.05    0.37
  -3  -4   3   38.15    1.55
  -2  -4   3   96.74    2.10
  -1  -4   3  423.05    6.32
   0  -4   3  125.01    2.00
   1  -4   3  422.84    5.44
   2  -4   3    2.58    0.31
   3  -4   3   68.02    1.50
   4  -4   3  119.62    2.22
   5  -4   3    1.18    0.29
   6  -4   3   14.18    0.89
   7  -4   3  289.82    5.46
   8  -4   3    2.23    0.57
   9  -4   3  285.44    7.48
  10  -4   3   19.95    1.87
  11  -4   3    5.20    0.86
  12  -4   3   58.46    3.23
  13  -4   3   11.04    1.76
  14  -4   3   41.61    3.57
 -11  -3   3   19.74    3.22
 -10  -3   3   37.02    2.44
  -9  -3   3   15.91    1.64
  -8  -3   3  139.74    4.18
  -7  -3   3   24.19    1.80
  -6  -3   3    2.14    0.54
  -5  -3   3  151.84    3.62
  -4  -3   3  291.81    5.70
  -3  -3   3  154.70    2.90
  -2  -3   3   56.25    1.45
  -1  -3   3   67.37    1.60
   0  -3   3  215.15    2.97
   1  -3   3   68.24    1.37
   2  -3   3  131.38    2.27
   3  -3   3  215.36    3.32
   4  -3   3  435.68    6.84
   5  -3   3  275.64    5.09
   6  -3   3  154.82    3.30
   7  -3   3   38.14    1.88
   8  -3   3   25.50    1.61
   9  -3   3   78.92    2.64
  10  -3   3   12.60    1.25
  11  -3   3   17.20    2.85
  12  -3   3   51.19    2.99
  13  -3   3   83.06    4.13
 -11  -2   3  106.45    3.92
 -10  -2   3   18.87    1.80
  -9  -2   3    7.53    1.13
  -8  -2   3   85.40    3.02
  -7  -2   3   28.51    1.36
  -6  -2   3   97.55    2.45
  -5  -2   3   50.12    1.81
  -4  -2   3   12.85    0.74
  -3  -2   3  275.53    4.49
  -2  -2   3    2.19    0.32
  -1  -2   3  130.90    2.43
   0  -2   3  421.70    5.42
   1  -2   3   88.21    1.70
   2  -2   3  431.39    6.04
   3  -2   3   65.92    1.37
   4  -2   3    2.51    0.32
   5  -2   3   55.65    1.59
   6  -2   3   97.88    2.32
   7  -2   3   22.30    1.25
   8  -2   3   75.42    2.42
   9  -2   3   36.89    1.73
  10  -2   3  165.42    5.39
  11  -2   3   41.28    2.56
  12  -2   3    5.15    1.29
  13  -2   3   10.36    1.72
 -12  -1   3    0.39    1.29
 -11  -1   3   26.88    2.19
 -10  -1   3    4.95    0.98
  -9  -1   3   32.63    2.10
  -8  -1   3  194.66    4.87
  -7  -1   3  141.36    3.19
  -6  -1   3  253.64    4.63
  -5  -1   3   40.57    1.29
  -4  -1   3    1.62    0.29
  -3  -1   3  419.07    6.30
  -2  -1   3   66.13    1.74
  -1  -1   3   90.46    1.55
   0  -1   3  104.44    1.89
   1  -1   3  104.46    1.92
   2  -1   3   89.89    1.73
   3  -1   3  130.78    2.68
   4  -1   3   68.59    1.76
   5  -1   3  427.13    6.23
   6  -1   3   39.20    1.51
   7  -1   3  307.93    5.97
   8  -1   3    1.36    0.44
   9  -1   3    2.91    0.62
  10  -1   3   16.45    1.80
  11  -1   3   14.90    1.90
  12  -1   3   23.98    2.55
  13  -1   3   74.04    5.36
 -12   0   3   54.50    3.47
 -11   0   3   38.20    2.35
 -10   0   3  157.26    4.47
  -9   0   3   35.97    1.98
  -8   0   3    7.41    0.79
  -7   0   3   38.21    1.44
  -6   0   3  103.71    2.15
  -5   0   3  132.00    2.67
  -4   0   3  124.29    2.06
  -3   0   3  214.64    3.06
  -2   0   3  429.42    6.08
  -1   0   3  102.95    1.92
   0   0   3    0.24    0.09
   1   0   3  103.48    1.67
   2   0   3  421.01    6.05
   3   0   3  213.88    3.38
   4   0   3  125.43    2.31
   5   0   3  128.92    3.03
   6   0   3  106.50    3.40
   7   0   3   35.12    1.54
   8   0   3    6.60    0.86
   9   0   3   33.61    2.14
  10   0   3  153.88    5.31
  11   0   3   40.98    2.67
  12   0   3   52.24    3.21
 -13   1   3   77.18    4.26
 -12   1   3   21.17    2.51
 -11   1   3   18.01    1.72
 -10   1   3   16.88    1.54
  -9   1   3    3.66    0.58
  -8   1   3    1.52    0.42
  -7   1   3  309.18    4.66
  -6   1   3   43.20    1.14
  -5   1   3  424.63    5.67
  -4   1   3   69.70    1.45
  -3   1   3  130.62    2.18
  -2   1   3   90.85    1.81
  -1   1   3  103.11    2.27
   0   1   3  103.09    1.67
   1   1   3   89.12    1.72
   2   1   3   65.34    1.43
   3   1   3  427.51    6.14
   4   1   3    2.14    0.30
   5   1   3   41.99    1.56
   6   1   3  259.81    5.23
   7   1   3  140.28    3.56
   8   1   3  192.62    5.75
   9   1   3   32.71    2.61
  10   1   3    3.51    0.96
  11   1   3   25.65    2.61
  12   1   3    3.18    1.10
 -13   2   3   13.93    2.05
 -12   2   3    4.06    0.92
 -11   2   3   43.29    2.17
 -10   2   3  172.30    4.52
  -9   2   3   40.16    1.58
  -8   2   3   72.46    1.85
  -7   2   3   26.17    0.87
  -6   2   3   96.29    1.95
  -5   2   3   56.06    1.34
  -4   2   3    1.82    0.22
  -3   2   3   67.22    1.24
  -2   2   3  417.78    6.23
  -1   2   3   93.66    1.57
   0   2   3  423.48    6.08
   1   2   3  129.85    2.34
   2   2   3    2.23    0.30
   3   2   3  270.58    4.36
   4   2   3   14.03    1.01
   5   2   3   49.32    1.76
   6   2   3   94.86    2.70
   7   2   3   30.00    1.92
   8   2   3   87.86    3.60
   9   2   3    5.86    1.13
  10   2   3   23.03    2.41
  11   2   3  103.18    3.82
 -14   3   3   36.64    4.87
 -13   3   3   85.24    6.08
 -12   3   3   57.32    2.57
 -11   3   3   11.70    1.32
 -10   3   3   11.67    1.03
  -9   3   3   78.63    2.01
  -8   3   3   29.52    1.07
  -7   3   3   40.03    1.09
  -6   3   3  156.70    2.46
  -5   3   3  291.03    4.05
  -4   3   3  419.01    5.59
  -3   3   3  218.82    3.11
  -2   3   3  129.97    2.13
  -1   3   3   68.27    1.48
   0   3   3  216.90    3.46
   1   3   3   69.35    1.60
   2   3   3   57.01    1.63
   3   3   3  154.55    2.85
   4   3   3  298.18    5.68
   5   3   3  149.65    3.57
   6   3   3    2.92    0.78
   7   3   3   22.19    2.04
   8   3   3  151.01    4.20
   9   3   3   16.86    1.61
  10   3   3   44.18    2.66
  11   3   3   26.10    2.72
 -14   4   3   40.88    4.99
 -13   4   3   10.26    1.69
 -12   4   3   61.54    2.61
 -11   4   3    5.89    0.96
 -10   4   3   19.80    1.19
  -9   4   3  295.99    3.98
  -8   4   3    2.23    0.34
  -7   4   3  299.55    4.07
  -6   4   3   13.14    0.73
  -5   4   3    1.96    0.30
  -4   4   3  121.23    2.20
  -3   4   3   67.64    1.63
  -2   4   3    1.99    0.31
  -1   4   3  421.28    6.28
   0   4   3  125.73    2.04
   1   4   3  435.29    5.60
   2   4   3   95.07    2.10
   3   4   3   42.24    1.60
   4   4   3    2.98    0.46
   5   4   3   30.98    1.51
   6   4   3   17.57    1.46
   7   4   3   54.96    2.35
   8   4   3   20.64    1.77
   9   4   3   82.40    3.28
  10   4   3    6.20    1.18
 -14   5   3   -0.25    1.08
 -13   5   3    4.11    1.17
 -12   5   3   80.58    2.92
 -11   5   3   18.13    1.31
 -10   5   3   18.26    0.94
  -9   5   3   32.12    1.00
  -8   5   3  149.81    2.52
  -7   5   3   51.92    1.26
  -6   5   3   41.21    1.24
  -5   5   3  134.25    2.73
  -4   5   3  426.76    6.51
  -3   5   3   57.47    1.55
  -2   5   3  266.88    4.56
  -1   5   3    1.54    0.32
   0   5   3  132.71    2.66
   1   5   3   40.92    1.09
   2   5   3   24.05    1.03
   3   5   3   30.38    1.18
   4   5   3  298.34    6.08
   5   5   3   19.74    1.49
   6   5   3  146.39    4.03
   7   5   3    0.31    0.46
   8   5   3    0.28    0.55
   9   5   3   28.70    2.84
 -12   6   3   21.37    1.72
 -11   6   3  153.48    3.46
 -10   6   3   17.02    1.08
  -9   6   3    3.03    0.47
  -8   6   3   99.84    2.46
  -7   6   3  259.18    4.64
  -6   6   3  101.81    2.46
  -5   6   3   42.72    1.43
  -4   6   3   96.98    2.29
  -3   6   3  154.86    3.11
  -2   6   3   14.94    0.95
  -1   6   3   40.10    1.36
   0   6   3   98.57    2.79
   1   6   3  309.10    6.07
   2   6   3   73.61    2.40
   3   6   3   77.36    3.25
   4   6   3   20.47    2.00
   5   6   3   17.59    1.92
   6   6   3   22.55    2.25
   7   6   3    8.37    1.53
   8   6   3   23.78    2.57
 -12   7   3    0.75    0.46
 -11   7   3   60.00    2.42
 -10   7   3   25.27    1.42
  -9   7   3   31.09    1.44
  -8   7   3  143.38    3.23
  -7   7   3   37.46    1.46
  -6   7   3  315.24    5.37
  -5   7   3   22.40    1.19
  -4   7   3   38.35    1.41
  -3   7   3  292.38    5.05
  -2   7   3   47.75    1.82
  -1   7   3  256.74    5.39
   0   7   3   37.28    1.66
   1   7   3    1.40    0.45
   2   7   3   43.76    2.37
   3   7   3   11.51    1.55
   4   7   3    4.13    0.99
   5   7   3   75.73    3.62
   6   7   3   42.95    3.07
   7   7   3  121.66    5.20
 -13   8   3    0.47    0.93
 -12   8   3   23.62    2.38
 -11   8   3  155.07    4.26
 -10   8   3   90.69    2.61
  -9   8   3  196.32    4.15
  -8   8   3    6.36    0.76
  -7   8   3    1.69    0.39
  -6   8   3   73.52    2.18
  -5   8   3   26.33    1.33
  -4   8   3    2.46    0.54
  -3   8   3  148.84    3.79
  -2   8   3   96.82    2.91
  -1   8   3  136.85    3.72
   0   8   3    6.60    0.90
   1   8   3    3.41    0.84
   2   8   3  167.38    5.54
   3   8   3   13.38    1.74
   4   8   3   57.34    3.18
   5   8   3    1.55    0.76
   6   8   3   18.24    2.27
 -13   9   3   97.22    4.31
 -12   9   3   17.08    2.04
 -11   9   3    6.10    1.23
 -10   9   3   34.02    1.99
  -9   9   3   35.90    1.93
  -8   9   3    3.26    0.63
  -7   9   3   40.98    1.94
  -6   9   3   79.15    2.76
  -5   9   3  293.03    6.39
  -4   9   3   31.20    1.71
  -3   9   3    2.36    0.58
  -2   9   3   32.44    1.78
  -1   9   3  195.50    4.84
   0   9   3   34.35    2.21
   1   9   3   19.96    2.07
   2   9   3   40.12    2.79
   3   9   3   52.72    3.10
   4   9   3    7.84    1.53
   5   9   3    0.01    0.61
 -14  10   3    5.33    1.76
 -13  10   3   47.32    3.22
 -12  10   3   19.90    2.31
 -11  10   3    4.63    1.14
 -10  10   3  160.56    5.63
  -9  10   3   20.80    1.71
  -8  10   3  172.84    4.62
  -7  10   3   11.93    1.30
  -6  10   3   18.50    1.59
  -5  10   3   17.36    1.54
  -4  10   3   13.05    1.33
  -3  10   3   20.70    1.68
  -2  10   3   85.95    3.02
  -1  10   3   34.43    2.55
   0  10   3  155.38    5.47
   1  10   3   10.94    1.56
   2  10   3    5.41    1.27
   3  10   3   82.45    4.09
   4  10   3   42.82    3.53
 -14  11   3   23.46    2.77
 -13  11   3  100.69    4.73
 -12  11   3   23.22    2.52
 -11  11   3   40.22    2.98
 -10  11   3   14.88    1.97
  -9  11   3   40.15    2.13
  -8  11   3   14.88    1.51
  -7  11   3    5.45    0.91
  -6  11   3   18.34    1.67
  -5  11   3  141.73    4.18
  -4  11   3   62.12    2.59
  -3  11   3  143.87    4.25
  -2  11   3    6.12    1.22
  -1  11   3    5.95    1.27
   0  11   3   31.90    2.85
   1  11   3   23.21    2.53
   2  11   3   15.50    2.11
   3  11   3   34.51    4.46
 -13  12   3    3.27    1.12
 -12  12   3   52.99    3.38
 -11  12   3   22.25    2.50
 -10  12   3    4.74    1.22
  -9  12   3   51.75    2.53
  -8  12   3   56.91    2.64
  -7  12   3   82.15    3.15
  -6  12   3   20.64    1.88
  -5  12   3    0.88    0.56
  -4  12   3   20.62    1.87
  -3  12   3   16.89    2.13
  -2  12   3   19.45    2.25
  -1  12   3   29.80    2.82
   0  12   3   50.18    3.23
   1  12   3   75.67    4.03
 -12  13   3   68.70    5.39
 -11  13   3   10.26    1.80
 -10  13   3   84.97    4.26
  -9  13   3   10.59    1.75
  -8  13   3    4.66    1.01
  -7  13   3   40.19    2.58
  -6  13   3    8.51    1.27
  -5  13   3    0.24    0.49
  -4  13   3   86.90    4.23
  -3  13   3   39.74    3.39
  -2  13   3  101.73    4.72
  -1  13   3    4.58    1.29
 -10  14   3   49.25    3.66
  -9  14   3   -0.18    0.66
  -8  14   3   16.11    2.20
  -7  14   3  130.19    4.46
  -6  14   3   24.49    2.24
  -5  14   3   32.82    3.11
  -4  14   3    5.73    1.34
  -3  14   3   24.26    3.89
   8 -14   4   11.97    2.66
   2 -13   4   34.25    4.34
   3 -13   4   26.00    2.53
   4 -13   4    6.47    1.87
   5 -13   4   63.15    4.79
   6 -13   4   53.14    4.41
   7 -13   4   20.52    2.34
   8 -13   4    3.30    1.04
   9 -13   4    3.20    1.05
  10 -13   4   21.77    2.54
  11 -13   4    4.49    1.18
   0 -12   4    3.84    1.11
   1 -12   4    9.18    1.57
   2 -12   4   37.54    3.01
   3 -12   4    0.88    0.71
   4 -12   4    1.15    0.94
   5 -12   4   33.38    3.91
   6 -12   4    9.26    1.39
   7 -12   4   37.47    2.77
   8 -12   4   18.85    2.12
   9 -12   4   18.99    1.74
  10 -12   4  172.77    4.93
  11 -12   4   10.55    1.39
  12 -12   4    2.45    1.39
  -1 -11   4    8.75    1.53
   0 -11   4   15.12    1.91
   1 -11   4   21.57    2.23
   2 -11   4  115.00    4.42
   3 -11   4   48.72    2.67
   4 -11   4    7.80    1.90
   5 -11   4   62.94    3.10
   6 -11   4   22.87    2.22
   7 -11   4   84.32    3.75
   8 -11   4   13.16    1.35
   9 -11   4   -0.01    0.40
  10 -11   4   15.69    1.56
  11 -11   4   18.16    2.18
  12 -11   4    7.96    1.57
  -3 -10   4   25.11    3.58
  -2 -10   4  175.72    5.94
  -1 -10   4   16.47    1.91
   0 -10   4   24.91    2.28
   1 -10   4   16.24    1.82
   2 -10   4   36.46    2.43
   3 -10   4    5.50    1.04
   4 -10   4    0.87    0.46
   5 -10   4   26.21    2.24
   6 -10   4  153.91    5.15
   7 -10   4   50.78    2.12
   8 -10   4   33.81    1.88
   9 -10   4   36.91    2.04
  10 -10   4   25.89    1.93
  11 -10   4   19.19    2.16
  12 -10   4   36.89    3.24
  13 -10   4   24.47    2.65
  -4  -9   4    3.29    1.52
  -3  -9   4   20.46    2.18
  -2  -9   4    0.52    0.55
  -1  -9   4   39.01    2.39
   0  -9   4   -0.13    0.39
   1  -9   4   20.85    1.96
   2  -9   4   32.70    2.03
   3  -9   4  231.41    5.00
   4  -9   4    9.93    1.03
   5  -9   4   79.44    3.26
   6  -9   4   19.29    1.46
   7  -9   4   44.18    1.92
   8  -9   4   20.98    1.60
   9  -9   4    0.34    0.38
  10  -9   4   15.31    1.83
  11  -9   4  118.36    4.71
  12  -9   4    0.68    0.69
  13  -9   4    9.29    1.63
  -6  -8   4   17.63    3.51
  -5  -8   4    1.21    0.76
  -4  -8   4   15.59    1.99
  -3  -8   4   11.30    1.27
  -2  -8   4   31.81    1.98
  -1  -8   4   18.54    1.86
   0  -8   4  220.40    6.13
   1  -8   4   30.04    1.88
   2  -8   4    6.53    0.81
   3  -8   4    9.04    0.94
   4  -8   4   64.03    2.19
   5  -8   4   29.67    1.40
   6  -8   4   56.86    2.07
   7  -8   4   47.44    1.90
   8  -8   4  215.26    4.98
   9  -8   4   23.09    1.65
  10  -8   4   29.29    2.52
  11  -8   4   51.84    2.90
  12  -8   4    2.13    0.84
  13  -8   4   56.34    3.35
  14  -8   4   11.68    2.86
  -6  -7   4   21.65    2.46
  -5  -7   4   35.14    3.03
  -4  -7   4   87.35    3.05
  -3  -7   4   44.05    2.06
  -2  -7   4   45.76    2.03
  -1  -7   4   47.24    1.98
   0  -7   4    6.00    0.82
   1  -7   4   16.78    1.24
   2  -7   4   30.75    1.41
   3  -7   4   63.27    2.06
   4  -7   4  237.33    4.12
   5  -7   4   63.26    2.07
   6  -7   4  115.63    3.04
   7  -7   4    7.15    0.85
   8  -7   4   27.63    1.46
   9  -7   4   31.16    2.04
  10  -7   4    0.91    0.50
  11  -7   4   11.43    1.62
  12  -7   4   44.46    2.83
  13  -7   4   45.72    3.27
  14  -7   4   50.00    4.74
  -7  -6   4   48.17    3.15
  -6  -6   4   11.44    1.77
  -5  -6   4   19.50    1.64
  -4  -6   4  156.10    4.18
  -3  -6   4   16.23    1.39
  -2  -6   4   63.01    2.28
  -1  -6   4  111.49    3.12
   0  -6   4   35.52    1.31
   1  -6   4  263.75    4.62
   2  -6   4    3.80    0.55
   3  -6   4    3.96    0.46
   4  -6   4   36.28    1.18
   5  -6   4   23.53    1.23
   6  -6   4   33.19    1.47
   7  -6   4   15.41    1.21
   8  -6   4    7.17    0.86
   9  -6   4  220.15    6.34
  10  -6   4    0.74    0.50
  11  -6   4   67.20    3.33
  12  -6   4   10.33    1.65
  13  -6   4   20.04    1.99
  -8  -5   4   56.13    3.37
  -7  -5   4   38.37    3.16
  -6  -5   4   70.52    3.49
  -5  -5   4   26.15    1.84
  -4  -5   4   76.42    2.63
  -3  -5   4   27.73    1.66
  -2  -5   4   59.71    2.16
  -1  -5   4   23.29    1.04
   0  -5   4   12.94    0.89
   1  -5   4   81.14    1.97
   2  -5   4  102.99    2.11
   3  -5   4   31.40    1.05
   4  -5   4  122.22    3.01
   5  -5   4   14.17    1.03
   6  -5   4  266.03    5.33
   7  -5   4   28.99    1.36
   8  -5   4    8.55    1.17
   9  -5   4    9.06    1.27
  10  -5   4   31.02    2.51
  11  -5   4   17.87    2.00
  12  -5   4   38.85    2.29
  13  -5   4    4.83    1.32
  -9  -4   4    8.26    1.58
  -8  -4   4    1.33    0.77
  -7  -4   4   12.24    1.74
  -6  -4   4    0.30    0.41
  -5  -4   4    7.63    0.96
  -4  -4   4   64.40    2.34
  -3  -4   4  230.96    5.10
  -2  -4   4   36.42    1.29
  -1  -4   4  128.78    2.74
   0  -4   4   68.39    1.78
   1  -4   4  101.74    2.03
   2  -4   4  151.75    2.69
   3  -4   4  215.89    3.60
   4  -4   4   66.77    1.95
   5  -4   4   81.30    2.24
   6  -4   4    3.35    0.51
   7  -4   4   59.34    1.96
   8  -4   4   64.74    2.84
   9  -4   4   77.58    3.26
  10  -4   4  150.91    4.24
  11  -4   4   90.03    3.20
  12  -4   4   16.12    2.05
  13  -4   4    1.50    0.82
 -10  -3   4   24.31    2.62
  -9  -3   4    0.25    0.62
  -8  -3   4   48.25    2.92
  -7  -3   4    2.17    0.64
  -6  -3   4  225.33    5.19
  -5  -3   4    8.29    0.98
  -4  -3   4   58.39    2.14
  -3  -3   4    3.27    0.49
  -2  -3   4   29.88    1.15
  -1  -3   4  213.53    3.82
   0  -3   4   79.15    2.17
   1  -3   4    2.98    0.34
   2  -3   4  240.87    3.93
   3  -3   4   80.67    1.79
   4  -3   4  103.90    2.53
   5  -3   4  101.10    2.56
   6  -3   4    3.79    0.53
   7  -3   4  233.04    6.19
   8  -3   4   26.46    1.77
   9  -3   4   19.82    1.56
  10  -3   4   46.70    2.16
  11  -3   4   11.59    1.35
  12  -3   4   20.06    2.30
  13  -3   4   25.42    2.73
 -11  -2   4   34.07    4.34
 -10  -2   4   34.34    3.10
  -9  -2   4  114.03    4.75
  -8  -2   4   32.56    2.46
  -7  -2   4   30.93    1.73
  -6  -2   4    5.78    0.85
  -5  -2   4   29.16    1.56
  -4  -2   4    3.39    0.49
  -3  -2   4  102.05    2.35
  -2  -2   4  144.46    2.90
  -1  -2   4  231.59    4.13
   0  -2   4   62.75    1.45
   1  -2   4  106.25    2.11
   2  -2   4   65.53    1.53
   3  -2   4    2.53    0.34
   4  -2   4  147.40    3.20
   5  -2   4   32.46    1.28
   6  -2   4   38.06    1.56
   7  -2   4   64.68    2.19
   8  -2   4   59.27    2.20
   9  -2   4   46.20    2.02
  10  -2   4   34.36    1.96
  11  -2   4   -0.01    0.40
  12  -2   4  176.22    6.29
 -11  -1   4    6.81    1.48
 -10  -1   4   21.38    2.39
  -9  -1   4   11.22    1.64
  -8  -1   4   20.14    1.64
  -7  -1   4   29.25    1.78
  -6  -1   4   15.29    1.30
  -5  -1   4  268.36    4.79
  -4  -1   4   82.65    2.08
  -3  -1   4  101.31    2.35
  -2  -1   4    2.08    0.36
  -1  -1   4  107.60    2.10
   0  -1   4   10.01    0.64
   1  -1   4   11.14    0.70
   2  -1   4  102.94    2.12
   3  -1   4  239.68    3.95
   4  -1   4  217.56    3.68
   5  -1   4  126.82    2.60
   6  -1   4   23.51    1.30
   7  -1   4  109.37    3.07
   8  -1   4   47.20    1.96
   9  -1   4   23.85    1.77
  10  -1   4   38.87    2.49
  11  -1   4   14.49    1.98
  12  -1   4    8.85    1.65
 -12   0   4    4.19    1.74
 -11   0   4   16.23    2.13
 -10   0   4   29.42    2.77
  -9   0   4    0.21    0.52
  -8   0   4  214.21    5.16
  -7   0   4    6.46    0.89
  -6   0   4   37.34    1.70
  -5   0   4   13.81    0.98
  -4   0   4   68.42    1.88
  -3   0   4   78.64    2.01
  -2   0   4   61.23    1.50
  -1   0   4    9.54    0.60
   0   0   4  924.83   12.45
   1   0   4   11.91    0.57
   2   0   4   64.49    1.50
   3   0   4   82.06    1.82
   4   0   4   70.92    1.70
   5   0   4   15.40    1.14
   6   0   4   33.23    1.52
   7   0   4    7.72    0.90
   8   0   4  218.77    5.10
   9   0   4    0.41    0.48
  10   0   4   24.94    2.41
  11   0   4   17.94    2.18
  12   0   4    2.08    1.05
 -12   1   4   11.32    1.87
 -11   1   4   17.80    2.13
 -10   1   4   39.64    2.81
  -9   1   4   21.74    1.71
  -8   1   4   42.75    1.95
  -7   1   4  115.25    3.26
  -6   1   4   24.75    1.19
  -5   1   4  126.36    2.86
  -4   1   4  211.31    3.38
  -3   1   4  240.79    4.05
  -2   1   4  104.90    2.20
  -1   1   4    9.38    0.66
   0   1   4   10.56    0.46
   1   1   4  104.24    2.07
   2   1   4    2.30    0.33
   3   1   4  102.36    2.15
   4   1   4   81.31    2.30
   5   1   4  265.08    5.42
   6   1   4   15.64    1.23
   7   1   4   27.03    1.63
   8   1   4   20.25    1.99
   9   1   4   10.83    1.57
  10   1   4   22.47    2.36
  11   1   4    6.22    1.38
 -12   2   4  174.32    6.28
 -11   2   4   -0.03    0.59
 -10   2   4   35.28    2.11
  -9   2   4   41.89    2.01
  -8   2   4   55.22    2.23
  -7   2   4   62.69    1.97
  -6   2   4   36.36    1.40
  -5   2   4   30.76    1.13
  -4   2   4  145.45    2.85
  -3   2   4    2.59    0.38
  -2   2   4   64.31    1.65
  -1   2   4   99.84    2.22
   0   2   4   61.05    1.45
   1   2   4  238.30    3.97
   2   2   4  149.94    2.78
   3   2   4  102.54    2.22
   4   2   4    3.85    0.59
   5   2   4   31.27    1.47
   6   2   4    5.92    0.82
   7   2   4   33.63    2.31
   8   2   4   31.82    2.37
   9   2   4  107.96    4.50
  10   2   4   38.70    3.21
  11   2   4   37.06    4.82
 -13   3   4   18.43    3.46
 -12   3   4   22.08    2.42
 -11   3   4   12.89    1.78
 -10   3   4   47.43    2.21
  -9   3   4   19.01    1.60
  -8   3   4   28.52    1.34
  -7   3   4  233.88    4.54
  -6   3   4    3.32    0.49
  -5   3   4  101.93    2.36
  -4   3   4  101.34    2.33
  -3   3   4   79.11    2.24
  -2   3   4  237.15    4.19
  -1   3   4    2.41    0.32
   0   3   4   79.36    1.83
   1   3   4  216.53    3.73
   2   3   4   31.72    1.13
   3   3   4    3.35    0.56
   4   3   4   63.09    2.14
   5   3   4    9.59    0.99
   6   3   4  217.45    6.27
   7   3   4    1.81    0.71
   8   3   4   45.32    2.73
   9   3   4    0.95    0.73
  10   3   4   23.89    2.58
 -13   4   4    2.50    1.53
 -12   4   4   17.07    2.10
 -11   4   4   90.25    3.16
 -10   4   4  155.01    4.26
  -9   4   4   79.14    2.40
  -8   4   4   65.97    2.42
  -7   4   4   60.48    1.85
  -6   4   4    4.74    0.58
  -5   4   4   82.08    2.12
  -4   4   4   71.16    1.91
  -3   4   4  209.70    4.50
  -2   4   4  148.99    2.79
  -1   4   4  101.24    2.20
   0   4   4   67.94    1.74
   1   4   4  130.90    2.73
   2   4   4   35.76    1.26
   3   4   4  236.05    5.04
   4   4   4   66.95    2.33
   5   4   4    6.98    1.13
   6   4   4    0.39    0.45
   7   4   4   10.73    1.56
   8   4   4    2.23    0.87
   9   4   4   10.23    1.78
 -13   5   4    1.80    1.40
 -12   5   4   37.07    3.11
 -11   5   4   21.91    1.82
 -10   5   4   28.65    1.95
  -9   5   4    7.86    1.01
  -8   5   4    8.62    0.85
  -7   5   4   31.45    1.35
  -6   5   4  265.78    4.89
  -5   5   4   13.33    1.14
  -4   5   4  127.98    3.35
  -3   5   4   31.87    1.46
  -2   5   4   99.08    2.27
  -1   5   4   80.78    2.00
   0   5   4   14.80    0.97
   1   5   4   23.83    1.06
   2   5   4   63.97    2.22
   3   5   4   28.17    1.57
   4   5   4   76.40    3.27
   5   5   4   26.74    2.32
   6   5   4   65.33    3.26
   7   5   4   44.57    2.81
   8   5   4   50.69    3.18
 -12   6   4   12.78    1.67
 -11   6   4   68.37    2.71
 -10   6   4    0.39    0.40
  -9   6   4  230.22    4.56
  -8   6   4    7.78    0.84
  -7   6   4   15.32    1.31
  -6   6   4   37.88    1.73
  -5   6   4   21.60    1.51
  -4   6   4   33.75    1.60
  -3   6   4    3.69    0.50
  -2   6   4    3.94    0.52
  -1   6   4  265.01    4.74
   0   6   4   35.56    1.34
   1   6   4  111.33    3.13
   2   6   4   58.04    2.20
   3   6   4   16.08    1.73
   4   6   4  150.47    5.15
   5   6   4   17.87    1.99
   6   6   4   11.43    1.73
   7   6   4   52.39    3.20
 -12   7   4   44.31    2.77
 -11   7   4    9.15    1.50
 -10   7   4    3.33    0.72
  -9   7   4   34.01    1.77
  -8   7   4   28.58    1.95
  -7   7   4    6.27    0.89
  -6   7   4  112.92    3.30
  -5   7   4   64.60    2.36
  -4   7   4  239.37    5.31
  -3   7   4   57.73    1.82
  -2   7   4   27.87    1.24
  -1   7   4   17.05    1.14
   0   7   4    6.69    0.87
   1   7   4   45.84    1.96
   2   7   4   47.97    2.58
   3   7   4   49.57    2.76
   4   7   4   83.45    3.79
   5   7   4   35.24    2.94
   6   7   4   18.57    2.30
   7   7   4   42.16    3.67
 -13   8   4   63.58    4.74
 -12   8   4    2.33    0.86
 -11   8   4   43.22    2.19
 -10   8   4   35.65    1.92
  -9   8   4   21.01    1.72
  -8   8   4  217.91    5.33
  -7   8   4   43.76    2.03
  -6   8   4   59.60    2.35
  -5   8   4   29.39    1.79
  -4   8   4   69.29    2.53
  -3   8   4    7.39    0.76
  -2   8   4    7.77    0.98
  -1   8   4   26.10    1.68
   0   8   4  217.11    5.17
   1   8   4   21.65    1.69
   2   8   4   36.02    2.57
   3   8   4   12.39    1.73
   4   8   4   17.32    2.16
   5   8   4    3.00    1.06
   6   8   4   14.39    3.11
 -13   9   4    9.90    2.55
 -12   9   4    0.62    0.56
 -11   9   4  115.47    3.81
 -10   9   4   13.10    1.43
  -9   9   4   -0.01    0.37
  -8   9   4   24.36    1.94
  -7   9   4   45.47    2.15
  -6   9   4   17.32    1.55
  -5   9   4   79.47    2.85
  -4   9   4    7.22    1.28
  -3   9   4  215.45    5.21
  -2   9   4   31.89    1.93
  -1   9   4   20.86    1.72
   0   9   4    0.51    0.42
   1   9   4   40.13    2.77
   2   9   4    0.65    0.63
   3   9   4   22.34    2.42
   4   9   4    2.00    0.94
 -13  10   4   22.46    3.78
 -12  10   4   47.09    3.34
 -11  10   4   22.66    2.43
 -10  10   4   27.64    2.74
  -9  10   4   41.37    3.30
  -8  10   4   35.92    3.01
  -7  10   4   46.82    2.86
  -6  10   4  154.59    5.51
  -5  10   4   25.05    2.43
  -4  10   4    0.46    0.52
  -3  10   4    2.26    0.66
  -2  10   4   32.93    1.97
  -1  10   4   13.47    1.47
   0  10   4   24.04    2.44
   1  10   4   15.73    2.00
   2  10   4  173.96    6.24
   3  10   4   23.07    2.63
 -13  11   4   35.44    4.37
 -12  11   4    6.95    1.48
 -11  11   4   14.27    2.04
 -10  11   4   11.05    1.79
  -9  11   4    0.53    0.58
  -8  11   4   14.73    2.02
  -7  11   4   81.59    3.99
  -6  11   4   14.88    1.99
  -5  11   4   64.65    3.47
  -4  11   4   10.82    1.71
  -3  11   4   49.71    2.98
  -2  11   4  108.99    3.80
  -1  11   4   18.03    2.12
   0  11   4   15.20    2.08
   1  11   4    9.73    1.75
   2  11   4    7.28    2.24
 -12  12   4    2.43    1.40
 -11  12   4   10.16    1.85
 -10  12   4  181.49    6.51
  -9  12   4   18.71    2.39
  -8  12   4   15.19    2.08
  -7  12   4   32.82    3.03
  -6  12   4   12.09    1.82
  -5  12   4   44.24    3.19
  -4  12   4    3.51    1.11
  -3  12   4   -0.03    0.79
  -2  12   4   42.31    4.81
  -1  12   4   10.93    1.85
   0  12   4    2.84    1.15
 -10  13   4   20.86    2.58
  -9  13   4    0.98    0.80
  -8  13   4    2.16    1.02
  -7  13   4   19.55    2.45
  -6  13   4   51.94    3.34
  -5  13   4   55.28    3.41
  -4  13   4   10.50    2.59
  -3  13   4   25.51    3.87
  -7  14   4   48.17    4.71
  -6  14   4    9.73    2.60
   8 -13   5    0.97    1.20
   2 -12   5    6.42    1.38
   3 -12   5    7.03    2.06
   4 -12   5   20.44    3.32
   5 -12   5    3.19    1.48
   6 -12   5    7.52    1.52
   7 -12   5   90.26    4.33
   8 -12   5   72.64    3.81
   9 -12   5   26.94    2.76
  10 -12   5    4.28    1.21
   0 -11   5   58.24    3.30
   1 -11   5    6.06    1.30
   2 -11   5    2.43    0.89
   3 -11   5   48.17    4.16
   4 -11   5   29.41    3.72
   5 -11   5   59.35    3.18
   6 -11   5   23.08    2.36
   7 -11   5    8.92    1.53
   8 -11   5    7.64    1.43
   9 -11   5    0.46    0.62
  10 -11   5    6.06    1.06
  11 -11   5   55.43    3.36
  -2 -10   5    3.92    1.15
  -1 -10   5    5.20    1.17
   0 -10   5  145.37    5.32
   1 -10   5   24.07    2.34
   2 -10   5   52.93    2.86
   3 -10   5   26.82    3.57
   4 -10   5   25.92    2.36
   5 -10   5    5.03    1.12
   6 -10   5   14.40    1.82
   7 -10   5    4.73    1.12
   8 -10   5   96.64    4.17
   9 -10   5    0.58    0.51
  10 -10   5  160.97    5.63
  11 -10   5    7.66    1.54
  12 -10   5    5.94    1.98
  -3  -9   5   24.07    2.46
  -2  -9   5    1.35    0.78
  -1  -9   5    0.93    0.66
   0  -9   5   22.29    2.15
   1  -9   5   29.27    2.21
   2  -9   5   42.01    2.42
   3  -9   5    0.27    0.48
   4  -9   5   71.91    3.25
   5  -9   5   33.61    2.21
   6  -9   5   30.66    2.53
   7  -9   5   24.27    2.30
   8  -9   5   11.22    1.25
   9  -9   5   22.00    1.79
  10  -9   5   24.76    2.46
  11  -9   5    0.97    0.76
  12  -9   5    9.19    1.63
  -5  -8   5    1.27    1.48
  -4  -8   5   77.27    3.21
  -3  -8   5    7.63    1.35
  -2  -8   5   94.49    3.94
  -1  -8   5    9.04    1.41
   0  -8   5    8.23    1.24
   1  -8   5   38.87    2.28
   2  -8   5  115.62    3.33
   3  -8   5  141.83    4.70
   4  -8   5   31.00    2.20
   5  -8   5   15.38    1.72
   6  -8   5  112.09    4.19
   7  -8   5    0.41    0.36
   8  -8   5    9.11    1.11
   9  -8   5   30.23    2.27
  10  -8   5   47.53    2.84
  11  -8   5   46.67    2.94
  12  -8   5   21.96    2.54
  -6  -7   5    0.69    1.32
  -5  -7   5  103.93    4.77
  -4  -7   5    6.98    1.12
  -3  -7   5    2.68    0.73
  -2  -7   5   25.64    1.90
  -1  -7   5    0.61    0.47
   0  -7   5    3.04    0.80
   1  -7   5   40.38    1.76
   2  -7   5   43.58    1.86
   3  -7   5   89.56    3.44
   4  -7   5   26.61    1.93
   5  -7   5    8.15    1.25
   6  -7   5  285.95    6.05
   7  -7   5    4.48    0.76
   8  -7   5   40.47    1.86
   9  -7   5   43.74    2.54
  10  -7   5   34.06    2.50
  11  -7   5   31.53    2.82
  12  -7   5    1.74    0.86
  13  -7   5    1.49    0.96
  -7  -6   5    1.61    1.74
  -6  -6   5    6.33    1.47
  -5  -6   5   24.75    1.98
  -4  -6   5   14.97    1.53
  -3  -6   5   31.61    1.98
  -2  -6   5  104.02    3.33
  -1  -6   5  292.95    6.30
   0  -6   5   35.94    1.45
   1  -6   5   37.85    1.66
   2  -6   5   10.79    1.03
   3  -6   5   81.02    2.57
   4  -6   5    1.99    0.63
   5  -6   5    7.82    0.86
   6  -6   5   33.65    1.57
   7  -6   5   43.91    1.84
   8  -6   5  115.24    4.24
   9  -6   5   -0.09    0.38
  10  -6   5   20.65    2.17
  11  -6   5   61.50    3.34
  12  -6   5    5.63    1.07
  13  -6   5    1.63    0.99
  -7  -5   5    2.40    0.97
  -6  -5   5   59.18    2.65
  -5  -5   5    4.13    0.83
  -4  -5   5   34.66    1.95
  -3  -5   5   16.07    1.47
  -2  -5   5    6.41    0.90
  -1  -5   5    7.75    0.78
   0  -5   5    4.93    0.70
   1  -5   5    0.81    0.34
   2  -5   5  198.56    4.37
   3  -5   5    2.85    0.67
   4  -5   5  273.15    5.41
   5  -5   5    3.56    0.60
   6  -5   5   36.97    1.62
   7  -5   5   49.84    1.94
   8  -5   5  136.93    4.68
   9  -5   5   67.35    3.21
  10  -5   5    3.38    0.96
  11  -5   5   23.53    2.02
  12  -5   5  101.00    3.76
  13  -5   5    1.63    1.41
  -8  -4   5   24.82    2.73
  -7  -4   5   32.47    2.98
  -6  -4   5   24.32    1.91
  -5  -4   5   65.16    2.64
  -4  -4   5   30.78    1.90
  -3  -4   5   28.95    1.77
  -2  -4   5    1.75    0.48
  -1  -4   5  261.15    4.81
   0  -4   5    0.55    0.28
   1  -4   5  309.63    6.02
   2  -4   5    4.89    0.64
   3  -4   5    9.16    0.83
   4  -4   5    0.08    0.21
   5  -4   5    0.93    0.36
   6  -4   5    9.98    0.96
   7  -4   5   85.37    3.38
   8  -4   5   30.82    2.16
   9  -4   5   33.89    1.89
  10  -4   5   14.16    1.46
  11  -4   5    6.71    1.13
  12  -4   5   77.50    3.96
  -9  -3   5   10.01    1.79
  -8  -3   5   42.95    3.18
  -7  -3   5   32.34    2.07
  -6  -3   5    0.35    0.45
  -5  -3   5  129.05    3.85
  -4  -3   5   86.17    2.88
  -3  -3   5   79.92    2.66
  -2  -3   5    2.66    0.48
  -1  -3   5    7.80    0.83
   0  -3   5  133.57    3.31
   1  -3   5   25.27    1.27
   2  -3   5   57.72    1.58
   3  -3   5  132.98    3.18
   4  -3   5  309.26    5.93
   5  -3   5  195.53    4.30
   6  -3   5   78.46    3.09
   7  -3   5   26.28    1.46
   8  -3   5   16.95    1.44
   9  -3   5   28.77    1.99
  10  -3   5    2.25    0.71
  11  -3   5    7.82    1.14
  12  -3   5   21.26    2.46
 -10  -2   5    5.94    1.94
  -9  -2   5    1.04    0.84
  -8  -2   5   46.92    2.32
  -7  -2   5   42.12    2.21
  -6  -2   5  110.63    3.55
  -5  -2   5   43.14    2.01
  -4  -2   5    8.73    1.04
  -3  -2   5  196.53    3.94
  -2  -2   5    6.06    0.75
  -1  -2   5   56.22    1.97
   0  -2   5   83.87    2.48
   1  -2   5   61.36    1.61
   2  -2   5   86.94    2.04
   3  -2   5   25.95    1.23
   4  -2   5    6.50    0.72
   5  -2   5    3.63    0.49
   6  -2   5    3.36    0.61
   7  -2   5    8.32    0.97
   8  -2   5  104.96    3.28
   9  -2   5   28.01    2.00
  10  -2   5   97.84    3.39
  11  -2   5    0.31    0.56
  12  -2   5    4.89    1.87
 -10  -1   5    7.18    1.56
  -9  -1   5   22.86    2.51
  -8  -1   5   31.78    2.02
  -7  -1   5   39.56    2.11
  -6  -1   5   43.68    2.05
  -5  -1   5   37.47    1.83
  -4  -1   5    0.96    0.35
  -3  -1   5  297.20    6.08
  -2  -1   5   24.12    1.27
  -1  -1   5   58.82    2.03
   0  -1   5  111.53    2.37
   1  -1   5  111.90    2.40
   2  -1   5   60.63    1.65
   3  -1   5   58.19    1.91
   4  -1   5    9.95    0.76
   5  -1   5  270.50    5.48
   6  -1   5    7.10    0.85
   7  -1   5  290.28    6.21
   8  -1   5    0.58    0.41
   9  -1   5   11.88    1.33
  10  -1   5    1.21    0.71
  11  -1   5    5.13    1.23
 -11   0   5   53.07    3.71
 -10   0   5  145.85    5.80
  -9   0   5   23.89    1.97
  -8   0   5    6.62    1.04
  -7   0   5    3.39    0.74
  -6   0   5   33.14    1.75
  -5   0   5    3.58    0.57
  -4   0   5    0.44    0.31
  -3   0   5  132.06    3.41
  -2   0   5   91.56    2.63
  -1   0   5  112.37    2.42
   0   0   5    0.11    0.18
   1   0   5  112.44    2.43
   2   0   5   81.67    2.38
   3   0   5  128.90    3.22
   4   0   5    0.45    0.25
   5   0   5    3.27    0.58
   6   0   5   38.40    1.72
   7   0   5    3.79    0.71
   8   0   5    7.46    0.99
   9   0   5   25.44    2.40
  10   0   5  146.16    5.50
  11   0   5   55.45    3.38
 -11   1   5    6.33    1.45
 -10   1   5    0.69    0.75
  -9   1   5    8.77    1.13
  -8   1   5    1.32    0.53
  -7   1   5  291.16    6.50
  -6   1   5    7.97    0.86
  -5   1   5  267.13    5.69
  -4   1   5    8.81    0.93
  -3   1   5   55.95    2.05
  -2   1   5   61.40    1.70
  -1   1   5  114.05    2.50
   0   1   5  111.07    2.48
   1   1   5   57.72    1.92
   2   1   5   26.08    1.26
   3   1   5  314.14    6.00
   4   1   5    0.91    0.35
   5   1   5   38.51    1.70
   6   1   5   42.72    1.89
   7   1   5   42.56    1.96
   8   1   5   32.26    2.64
   9   1   5   27.46    2.58
  10   1   5    5.57    1.30
 -12   2   5    4.95    1.46
 -11   2   5    0.52    0.72
 -10   2   5   98.17    3.47
  -9   2   5   28.97    2.11
  -8   2   5  111.71    3.55
  -7   2   5    6.95    0.93
  -6   2   5    2.61    0.58
  -5   2   5    1.94    0.49
  -4   2   5    6.64    0.81
  -3   2   5   26.51    1.12
  -2   2   5   83.83    2.14
  -1   2   5   59.22    1.72
   0   2   5   88.35    2.51
   1   2   5   53.20    1.90
   2   2   5    6.16    0.75
   3   2   5  204.71    4.52
   4   2   5   10.77    1.05
   5   2   5   48.75    1.98
   6   2   5  118.26    3.47
   7   2   5   40.62    2.45
   8   2   5   46.43    2.77
   9   2   5    1.70    0.81
  10   2   5    4.21    1.74
 -12   3   5   23.39    2.64
 -11   3   5    8.42    1.26
 -10   3   5    2.81    0.73
  -9   3   5   31.29    2.55
  -8   3   5   13.60    1.34
  -7   3   5   29.49    1.98
  -6   3   5   77.88    2.69
  -5   3   5  205.27    4.76
  -4   3   5  311.45    5.34
  -3   3   5  131.73    2.93
  -2   3   5   55.08    1.72
  -1   3   5   26.67    1.32
   0   3   5  134.21    3.37
   1   3   5    8.34    0.88
   2   3   5    3.17    0.56
   3   3   5   81.78    2.56
   4   3   5   90.74    2.80
   5   3   5  140.60    3.83
   6   3   5   -0.06    0.41
   7   3   5   34.02    2.73
   8   3   5   49.21    2.97
   9   3   5   10.07    1.72
 -12   4   5   80.90    5.79
 -11   4   5    5.43    1.23
 -10   4   5   15.20    1.90
  -9   4   5   31.34    2.00
  -8   4   5   34.19    1.92
  -7   4   5   89.47    3.00
  -6   4   5   11.34    1.20
  -5   4   5    0.19    0.25
  -4   4   5    0.64    0.28
  -3   4   5    9.43    0.92
  -2   4   5    4.65    0.68
  -1   4   5  306.08    6.17
   0   4   5    0.15    0.29
   1   4   5  263.44    5.57
   2   4   5    2.69    0.71
   3   4   5   29.34    1.62
   4   4   5   30.66    1.73
   5   4   5   71.41    2.68
   6   4   5   24.90    2.38
   7   4   5   31.16    2.72
   8   4   5   23.15    2.49
 -13   5   5    1.09    1.28
 -12   5   5  104.46    4.55
 -11   5   5   23.22    2.38
 -10   5   5    3.19    0.75
  -9   5   5   68.33    2.73
  -8   5   5  144.17    4.12
  -7   5   5   46.92    2.16
  -6   5   5   41.50    1.62
  -5   5   5    4.24    0.70
  -4   5   5  272.71    5.77
  -3   5   5    3.45    0.63
  -2   5   5  198.70    4.60
  -1   5   5    0.33    0.33
   0   5   5    3.20    0.61
   1   5   5    9.35    1.00
   2   5   5    7.06    1.16
   3   5   5   16.13    1.44
   4   5   5   35.45    1.93
   5   5   5    5.36    1.11
   6   5   5   60.26    3.27
   7   5   5    1.18    0.82
   8   5   5    0.61    1.27
 -13   6   5    0.94    1.40
 -12   6   5    7.48    1.47
 -11   6   5   55.44    3.18
 -10   6   5   25.18    2.01
  -9   6   5    0.28    0.43
  -8   6   5  117.81    3.74
  -7   6   5   42.18    1.96
  -6   6   5   33.58    1.74
  -5   6   5    9.27    1.07
  -4   6   5    1.58    0.49
  -3   6   5   79.22    2.67
  -2   6   5   10.95    1.14
  -1   6   5   36.51    1.75
   0   6   5   35.85    1.72
   1   6   5  290.61    7.83
   2   6   5  102.89    4.10
   3   6   5   28.49    2.42
   4   6   5   13.34    1.75
   5   6   5   21.58    2.27
   6   6   5    6.17    1.37
   7   6   5    1.48    1.23
 -13   7   5    1.12    1.22
 -12   7   5    1.78    1.24
 -11   7   5   32.53    2.89
 -10   7   5   37.65    2.79
  -9   7   5   40.81    2.67
  -8   7   5   44.67    2.12
  -7   7   5    3.23    0.71
  -6   7   5  291.88    6.47
  -5   7   5    7.70    1.00
  -4   7   5   25.91    1.82
  -3   7   5   86.66    2.92
  -2   7   5   44.81    2.02
  -1   7   5   42.93    1.95
   0   7   5    2.72    0.84
   1   7   5    1.55    0.73
   2   7   5   24.58    2.38
   3   7   5    3.93    1.53
   4   7   5    8.64    2.19
   5   7   5  106.92    4.85
   6   7   5    2.21    1.55
 -13   8   5   -0.15    0.99
 -12   8   5   21.88    2.46
 -11   8   5   52.43    3.16
 -10   8   5   45.58    2.93
  -9   8   5   30.90    2.23
  -8   8   5    7.89    1.08
  -7   8   5    1.00    0.48
  -6   8   5  101.85    3.45
  -5   8   5   14.94    1.46
  -4   8   5   31.61    1.96
  -3   8   5  137.38    3.96
  -2   8   5  116.36    3.59
  -1   8   5   43.76    2.06
   0   8   5    6.81    1.29
   1   8   5    9.06    1.52
   2   8   5   84.35    5.69
   3   8   5    2.52    1.41
   4   8   5   69.38    5.31
 -12   9   5    9.76    1.70
 -11   9   5    1.57    0.87
 -10   9   5   24.76    2.02
  -9   9   5   27.20    2.12
  -8   9   5    8.59    1.20
  -7   9   5   26.98    2.04
  -6   9   5   32.24    2.26
  -5   9   5   35.96    2.19
  -4   9   5   64.14    2.69
  -3   9   5   -0.08    0.38
  -2   9   5   40.11    2.66
  -1   9   5   32.66    2.83
   0   9   5   25.12    2.46
   1   9   5    0.48    0.86
   2   9   5    0.53    0.96
   3   9   5   23.54    3.77
 -12  10   5    6.84    1.55
 -11  10   5    8.69    1.68
 -10  10   5  142.55    4.55
  -9  10   5    1.23    0.65
  -8  10   5   88.94    3.43
  -7  10   5    4.38    0.91
  -6  10   5   13.15    1.49
  -5  10   5    4.80    1.22
  -4  10   5   26.96    2.66
  -3  10   5   33.46    2.92
  -2  10   5   48.87    3.01
  -1  10   5   24.60    2.58
   0  10   5  148.11    8.04
   1  10   5    3.08    1.51
 -11  11   5   49.66    3.28
 -10  11   5    5.33    1.36
  -9  11   5    0.36    0.70
  -8  11   5    6.72    1.35
  -7  11   5    5.58    1.33
  -6  11   5   21.38    2.42
  -5  11   5   54.80    3.31
  -4  11   5   29.72    2.88
  -3  11   5   48.59    3.10
  -2  11   5    0.61    0.71
  -1  11   5    5.58    1.91
   0  11   5   47.94    5.34
 -10  12   5    3.69    1.69
  -9  12   5   21.83    2.60
  -8  12   5   74.84    4.09
  -7  12   5   96.35    4.70
  -6  12   5    3.48    1.15
  -5  12   5    3.77    1.21
  -4  12   5   23.17    2.68
  -3  12   5    9.86    1.78
  -6  13   5    1.15    1.30
  -5  13   5    0.04    1.19
   3 -11   6    8.37    2.21
   4 -11   6   73.30    5.45
   5 -11   6   12.42    2.60
   6 -11   6    0.26    0.67
   7 -11   6   37.85    3.25
   8 -11   6    2.33    1.01
   9 -11   6    2.85    1.60
   0 -10   6   24.41    2.52
   1 -10   6    1.99    0.92
   2 -10   6   39.42    4.52
   3 -10   6   10.53    2.29
   4 -10   6   12.65    2.59
   5 -10   6   31.96    2.79
   6 -10   6   75.48    3.74
   7 -10   6   27.26    2.62
   8 -10   6   85.04    4.07
   9 -10   6    9.52    1.63
  -2  -9   6    2.19    1.00
  -1  -9   6    7.31    1.46
   0  -9   6   10.37    1.60
   1  -9   6    7.95    1.36
   2  -9   6    0.34    0.84
   3  -9   6   81.05    5.35
   4  -9   6    1.10    0.70
   5  -9   6   10.02    1.56
   6  -9   6   33.69    2.55
   7  -9   6    3.09    0.97
   8  -9   6   43.85    2.97
   9  -9   6    9.28    2.45
  10  -9   6    1.47    0.83
  11  -9   6   34.28    4.06
  -3  -8   6    3.59    1.10
  -2  -8   6   82.66    3.91
  -1  -8   6   43.82    2.74
   0  -8   6  115.13    4.45
   1  -8   6   20.31    2.08
   2  -8   6    4.58    1.48
   3  -8   6    1.97    0.78
   4  -8   6   33.85    2.42
   5  -8   6    1.04    0.66
   6  -8   6   13.08    1.73
   7  -8   6   13.89    1.78
   8  -8   6  110.88    4.47
   9  -8   6   10.76    1.49
  10  -8   6   38.86    3.27
  11  -8   6    7.31    1.51
  -4  -7   6   33.36    2.47
  -3  -7   6   30.91    2.72
  -2  -7   6    2.55    0.80
  -1  -7   6   13.56    1.75
   0  -7   6    1.45    0.71
   1  -7   6   12.39    1.57
   2  -7   6   51.83    2.71
   3  -7   6   18.81    1.98
   4  -7   6  135.32    4.77
   5  -7   6   20.85    2.10
   6  -7   6   14.26    1.72
   7  -7   6    0.72    0.59
   8  -7   6   23.16    2.23
   9  -7   6    0.39    0.54
  10  -7   6   10.08    1.67
  11  -7   6   79.99    3.97
  -5  -6   6    0.17    0.54
  -4  -6   6   78.79    3.16
  -3  -6   6   31.29    2.24
  -2  -6   6   11.69    1.36
  -1  -6   6   15.50    1.75
   0  -6   6   16.40    1.78
   1  -6   6  172.39    4.34
   2  -6   6   15.18    1.70
   3  -6   6   79.33    3.39
   4  -6   6   46.61    2.54
   5  -6   6   34.44    2.21
   6  -6   6   20.68    2.02
   7  -6   6   15.02    1.34
   8  -6   6    4.88    1.07
   9  -6   6   78.17    3.69
  10  -6   6    9.96    1.57
  11  -6   6   12.50    1.87
  -6  -5   6   12.82    1.53
  -5  -5   6   31.41    2.33
  -4  -5   6   10.77    1.36
  -3  -5   6    2.44    0.70
  -2  -5   6   20.89    2.01
  -1  -5   6   33.39    2.14
   0  -5   6   38.17    1.77
   1  -5   6   18.01    1.43
   2  -5   6   19.57    1.86
   3  -5   6   14.78    1.66
   4  -5   6   78.53    3.34
   5  -5   6   34.80    2.13
   6  -5   6  170.64    4.26
   7  -5   6   45.61    2.53
   8  -5   6    1.24    0.66
   9  -5   6   -0.03    0.45
  10  -5   6   31.85    2.85
  11  -5   6    1.16    0.79
  -7  -4   6   81.89    3.36
  -6  -4   6   13.56    1.59
  -5  -4   6    0.15    0.47
  -4  -4   6   35.63    2.36
  -3  -4   6  137.00    4.00
  -2  -4   6   45.86    2.52
  -1  -4   6   78.81    2.67
   0  -4   6   12.06    1.18
   1  -4   6   31.38    1.58
   2  -4   6   19.36    1.87
   3  -4   6   41.72    2.29
   4  -4   6   12.36    1.45
   5  -4   6   17.35    1.32
   6  -4   6   13.54    1.53
   7  -4   6   19.04    1.93
   8  -4   6   33.30    2.44
   9  -4   6   11.41    1.63
  10  -4   6   74.00    3.72
  11  -4   6   35.72    3.13
  -8  -3   6    7.23    1.60
  -7  -3   6    9.83    1.33
  -6  -3   6   74.59    3.08
  -5  -3   6    1.13    0.55
  -4  -3   6   18.40    1.68
  -3  -3   6   78.51    3.38
  -2  -3   6   14.19    1.29
  -1  -3   6   39.10    1.79
   0  -3   6   26.83    1.46
   1  -3   6    0.63    0.33
   2  -3   6  216.23    6.07
   3  -3   6   28.28    1.86
   4  -3   6   32.74    1.53
   5  -3   6   22.29    1.54
   6  -3   6   79.63    3.32
   7  -3   6  128.89    4.64
   8  -3   6    1.90    0.72
   9  -3   6   31.67    2.75
  10  -3   6   33.78    2.97
  11  -3   6    2.27    0.96
  -8  -2   6   40.29    2.51
  -7  -2   6    0.69    0.57
  -6  -2   6    6.01    1.05
  -5  -2   6   49.54    2.31
  -4  -2   6   13.47    1.61
  -3  -2   6   19.77    1.53
  -2  -2   6   16.70    1.38
  -1  -2   6  213.67    4.93
   0  -2   6   56.19    2.10
   1  -2   6   96.46    2.84
   2  -2   6   52.35    2.52
   3  -2   6    0.30    0.28
   4  -2   6   19.61    1.42
   5  -2   6   15.78    1.66
   6  -2   6   48.08    2.53
   7  -2   6   22.70    2.17
   8  -2   6   12.99    1.72
   9  -2   6    3.43    0.99
  10  -2   6   82.79    3.99
  -9  -1   6    0.78    0.88
  -8  -1   6   10.89    1.45
  -7  -1   6   21.68    1.91
  -6  -1   6   13.23    1.45
  -5  -1   6  169.16    5.53
  -4  -1   6   15.93    1.39
  -3  -1   6   34.13    1.69
  -2  -1   6    0.47    0.34
  -1  -1   6   90.34    2.82
   0  -1   6   27.61    1.46
   1  -1   6   29.36    1.49
   2  -1   6   93.27    2.67
   3  -1   6  220.15    4.78
   4  -1   6   41.65    1.77
   5  -1   6   86.81    3.47
   6  -1   6   37.31    2.27
   7  -1   6   20.31    2.05
   8  -1   6   12.91    1.74
   9  -1   6   44.26    2.80
  10  -1   6    7.21    2.08
  -9   0   6    9.76    1.37
  -8   0   6  110.87    3.84
  -7   0   6    1.24    0.59
  -6   0   6   15.11    1.77
  -5   0   6   32.87    1.83
  -4   0   6    9.72    1.09
  -3   0   6   29.65    1.77
  -2   0   6   53.94    2.11
  -1   0   6   28.97    1.53
   0   0   6  112.51    3.23
   1   0   6   28.25    1.21
   2   0   6   55.71    2.00
   3   0   6   28.58    1.49
   4   0   6   12.17    1.46
   5   0   6   35.08    2.18
   6   0   6   17.34    1.89
   7   0   6    1.72    0.74
   8   0   6   99.40    4.31
   9   0   6    8.52    2.11
 -10   1   6    8.17    1.31
  -9   1   6   46.33    2.46
  -8   1   6   14.77    1.88
  -7   1   6   17.68    1.99
  -6   1   6   37.56    2.01
  -5   1   6   82.97    2.85
  -4   1   6   39.67    1.89
  -3   1   6  211.90    5.02
  -2   1   6   89.78    2.88
  -1   1   6   28.82    1.52
   0   1   6   27.95    1.24
   1   1   6   88.94    2.69
   2   1   6    0.42    0.33
   3   1   6   30.88    1.97
   4   1   6   18.66    1.86
   5   1   6  171.50    5.52
   6   1   6   13.18    1.69
   7   1   6   26.20    2.42
   8   1   6   12.11    2.46
   9   1   6    0.89    1.08
 -10   2   6   89.52    4.16
  -9   2   6    2.61    1.00
  -8   2   6    8.80    1.48
  -7   2   6   19.13    1.64
  -6   2   6   44.82    2.11
  -5   2   6   14.68    1.40
  -4   2   6   19.68    1.60
  -3   2   6    0.41    0.32
  -2   2   6   53.77    2.16
  -1   2   6   90.38    2.39
   0   2   6   53.74    2.02
   1   2   6  213.63    4.85
   2   2   6   18.37    1.40
   3   2   6   19.91    1.95
   4   2   6   14.89    1.72
   5   2   6   53.88    2.84
   6   2   6    6.98    1.24
   7   2   6    0.37    0.91
   8   2   6   40.86    4.61
 -11   3   6    2.02    0.97
 -10   3   6   28.96    2.76
  -9   3   6   28.27    2.60
  -8   3   6    1.05    0.72
  -7   3   6  138.70    4.07
  -6   3   6   76.28    2.85
  -5   3   6   19.42    1.63
  -4   3   6   33.10    1.75
  -3   3   6   29.44    1.82
  -2   3   6  218.63    4.91
  -1   3   6    0.63    0.37
   0   3   6   31.60    1.57
   1   3   6   40.80    1.83
   2   3   6   14.61    1.65
   3   3   6   78.83    3.44
   4   3   6   18.16    2.00
   5   3   6    0.93    0.64
   6   3   6   81.29    3.79
   7   3   6   14.08    2.75
   8   3   6    6.89    2.00
 -11   4   6   31.53    2.91
 -10   4   6   76.56    3.87
  -9   4   6   10.76    1.66
  -8   4   6   30.84    2.23
  -7   4   6   18.87    1.72
  -6   4   6   13.84    1.41
  -5   4   6   17.16    1.57
  -4   4   6   10.83    1.18
  -3   4   6   41.45    1.87
  -2   4   6   19.17    1.47
  -1   4   6   30.94    1.61
   0   4   6   12.32    1.18
   1   4   6   80.02    2.74
   2   4   6   45.59    2.58
   3   4   6  124.38    4.69
   4   4   6   31.09    2.38
   5   4   6    0.31    0.54
   6   4   6    9.79    2.30
   7   4   6   78.08    5.55
 -11   5   6    0.56    0.81
 -10   5   6   31.79    2.91
  -9   5   6    0.46    0.51
  -8   5   6    0.83    0.51
  -7   5   6   47.46    2.33
  -6   5   6  174.96    4.77
  -5   5   6   35.18    2.36
  -4   5   6   77.42    2.78
  -3   5   6   15.52    1.38
  -2   5   6   17.92    1.48
  -1   5   6   15.96    1.40
   0   5   6   35.96    1.80
   1   5   6   35.49    2.32
   2   5   6   20.18    2.09
   3   5   6    0.71    0.55
   4   5   6   11.10    1.64
   5   5   6   26.73    3.76
   6   5   6   14.11    2.91
 -11   6   6    9.89    1.72
 -10   6   6   13.44    1.59
  -9   6   6   86.13    3.32
  -8   6   6    5.71    1.21
  -7   6   6   12.57    1.70
  -6   6   6   16.65    1.97
  -5   6   6   35.18    1.92
  -4   6   6   44.22    2.08
  -3   6   6   78.21    2.81
  -2   6   6   15.17    1.40
  -1   6   6  172.67    4.54
   0   6   6   18.78    2.00
   1   6   6   18.77    2.10
   2   6   6   12.02    1.63
   3   6   6   29.30    2.69
   4   6   6   79.63    5.49
   5   6   6   -0.14    0.82
 -11   7   6   85.65    4.22
 -10   7   6   14.40    2.06
  -9   7   6   -0.19    0.46
  -8   7   6   19.32    2.32
  -7   7   6    0.41    0.52
  -6   7   6   19.89    1.75
  -5   7   6   20.71    1.74
  -4   7   6  126.16    3.91
  -3   7   6   18.95    1.67
  -2   7   6   50.09    2.26
  -1   7   6   12.68    1.37
   0   7   6    0.93    0.69
   1   7   6   15.03    1.95
   2   7   6    2.91    1.02
   3   7   6   25.01    3.59
   4   7   6   36.57    4.52
 -11   8   6    8.76    1.65
 -10   8   6   38.60    3.38
  -9   8   6   12.01    1.87
  -8   8   6  107.03    4.78
  -7   8   6   14.93    1.57
  -6   8   6   11.90    1.41
  -5   8   6    1.52    0.60
  -4   8   6   32.74    2.27
  -3   8   6    1.97    0.63
  -2   8   6    4.39    0.87
  -1   8   6   23.69    2.45
   0   8   6  113.49    4.74
   1   8   6   40.75    3.02
   2   8   6   94.53    6.13
   3   8   6    4.16    1.75
 -11   9   6   26.88    4.20
 -10   9   6    1.29    0.90
  -9   9   6    9.50    1.68
  -8   9   6   44.07    2.45
  -7   9   6    3.07    0.78
  -6   9   6   31.88    2.33
  -5   9   6   10.58    1.37
  -4   9   6    0.23    0.44
  -3   9   6   83.67    3.20
  -2   9   6    0.07    0.58
  -1   9   6    7.63    1.49
   0   9   6   11.13    1.78
   1   9   6    7.19    2.18
 -10  10   6   24.85    4.39
  -9  10   6    6.96    1.53
  -8  10   6   84.08    3.39
  -7  10   6   28.48    2.30
  -6  10   6   78.77    3.23
  -5  10   6   33.35    2.44
  -4  10   6   12.10    1.92
  -3  10   6    9.20    1.61
  -2  10   6   39.94    3.41
  -1  10   6    0.73    0.78
  -9  11   6    2.79    1.56
  -8  11   6    4.13    1.35
  -7  11   6   26.37    2.77
  -6  11   6   -0.06    0.64
  -5  11   6   10.05    1.80
  -4  11   6   82.24    4.26
  -3  11   6    7.21    1.51
  -2  11   6   23.39    3.89
   6 -10   7    0.90    1.18
   2  -9   7    7.30    2.07
   3  -9   7    1.55    1.09
   4  -9   7   23.82    2.48
   5  -9   7   69.87    3.69
   6  -9   7   24.64    2.63
   7  -9   7    7.58    1.46
  -1  -8   7    2.14    1.50
   0  -8   7    3.96    1.56
   1  -8   7   46.31    4.12
   2  -8   7   10.57    2.32
   3  -8   7   33.46    2.90
   4  -8   7    0.79    0.68
   5  -8   7    0.17    0.61
   6  -8   7   43.64    2.85
   7  -8   7    0.56    0.66
   8  -8   7    1.85    1.19
  -2  -7   7    7.60    1.47
  -1  -7   7    0.23    0.64
   0  -7   7    2.39    0.91
   1  -7   7   25.43    3.44
   2  -7   7   10.64    1.57
   3  -7   7   38.48    2.82
   4  -7   7    1.50    0.72
   5  -7   7    6.21    1.35
   6  -7   7   67.01    3.45
   7  -7   7    1.66    1.18
   8  -7   7   47.77    4.56
   9  -7   7    7.84    2.28
  -4  -6   7    0.95    1.27
  -3  -6   7   25.75    2.59
  -2  -6   7   44.41    2.84
  -1  -6   7   66.35    3.41
   0  -6   7   41.00    2.80
   1  -6   7    3.52    0.96
   2  -6   7   11.85    1.63
   3  -6   7   38.30    2.48
   4  -6   7    3.57    0.96
   5  -6   7   -0.23    0.43
   6  -6   7   35.66    2.63
   7  -6   7   38.40    4.70
   8  -6   7    9.58    2.50
   9  -6   7    0.37    0.69
  10  -6   7   13.50    2.60
  -5  -5   7    1.63    1.22
  -4  -5   7   55.53    3.33
  -3  -5   7    0.16    0.59
  -2  -5   7    4.86    1.18
  -1  -5   7    0.91    0.68
   0  -5   7   10.75    1.28
   1  -5   7    1.46    0.70
   2  -5   7  114.99    4.45
   3  -5   7    3.74    1.00
   4  -5   7   82.41    3.69
   5  -5   7   10.68    1.57
   6  -5   7    4.54    1.60
   7  -5   7   10.21    2.44
   8  -5   7   30.60    2.73
   9  -5   7   28.24    2.77
  10  -5   7    3.33    1.55
  -6  -4   7   17.86    3.03
  -5  -4   7   24.52    2.53
  -4  -4   7    0.15    0.53
  -3  -4   7    1.51    0.77
  -2  -4   7    6.75    1.26
  -1  -4   7   81.96    2.95
   0  -4   7    4.32    0.83
   1  -4   7  106.88    4.21
   2  -4   7    0.51    0.57
   3  -4   7    0.60    0.45
   4  -4   7    3.51    0.93
   5  -4   7    1.26    0.64
   6  -4   7   13.32    2.71
   7  -4   7   39.26    2.54
   8  -4   7    0.52    0.63
   9  -4   7   64.05    3.52
  10  -4   7    0.33    1.02
  -6  -3   7    0.42    0.70
  -5  -3   7   31.27    2.83
  -4  -3   7   42.79    2.91
  -3  -3   7   35.59    2.56
  -2  -3   7    4.25    0.81
  -1  -3   7    0.33    0.36
   0  -3   7   17.44    1.56
   1  -3   7    1.53    0.70
   2  -3   7    0.88    0.60
   3  -3   7   19.45    2.02
   4  -3   7  110.33    4.25
   5  -3   7  114.88    6.72
   6  -3   7   33.49    2.43
   7  -3   7    0.96    0.68
   8  -3   7    0.71    0.64
   9  -3   7   29.11    2.81
  -7  -2   7    7.92    1.54
  -6  -2   7   11.18    1.75
  -5  -2   7   13.24    1.83
  -4  -2   7   13.75    1.82
  -3  -2   7  113.36    4.49
  -2  -2   7    0.20    0.38
  -1  -2   7    0.81    0.43
   0  -2   7   54.13    2.29
   1  -2   7   16.62    1.87
   2  -2   7   54.71    2.83
   3  -2   7    1.47    0.64
   4  -2   7    0.64    0.53
   5  -2   7    3.31    0.84
   6  -2   7    4.53    1.09
   7  -2   7    6.08    1.27
   8  -2   7   43.94    3.04
   9  -2   7    8.50    1.62
  -8  -1   7   31.60    4.05
  -7  -1   7   48.07    3.04
  -6  -1   7   26.86    2.58
  -5  -1   7    5.29    1.25
  -4  -1   7    0.84    0.68
  -3  -1   7  104.80    3.42
  -2  -1   7    1.46    0.54
  -1  -1   7   14.44    1.41
   0  -1   7   52.22    2.25
   1  -1   7   51.70    2.74
   2  -1   7   14.07    1.74
   3  -1   7    1.08    0.60
   4  -1   7   -0.16    0.42
   5  -1   7   84.95    3.66
   6  -1   7    0.29    0.50
   7  -1   7   65.84    3.41
   8  -1   7   -0.02    0.57
   9  -1   7    5.70    1.36
  -8   0   7    3.61    1.18
  -7   0   7    1.92    0.91
  -6   0   7   32.94    2.86
  -5   0   7   11.80    1.65
  -4   0   7    4.62    0.85
  -3   0   7   17.27    1.59
  -2   0   7   52.63    2.30
  -1   0   7   52.36    2.28
   0   0   7    0.13    0.35
   1   0   7   49.94    2.69
   2   0   7   54.99    2.82
   3   0   7   15.14    1.71
   4   0   7    3.98    0.97
   5   0   7   11.74    1.63
   6   0   7   35.74    2.61
   7   0   7    1.73    0.78
   8   0   7    3.04    1.09
  -9   1   7    5.48    1.86
  -8   1   7   -0.34    0.61
  -7   1   7   62.87    3.43
  -6   1   7    0.28    0.63
  -5   1   7   81.51    3.06
  -4   1   7    0.93    0.53
  -3   1   7    0.59    0.42
  -2   1   7   15.47    1.46
  -1   1   7   48.64    2.22
   0   1   7   48.20    2.68
   1   1   7   14.76    1.75
   2   1   7    2.40    0.60
   3   1   7  112.95    4.26
   4   1   7    1.58    0.65
   5   1   7    4.34    1.03
   6   1   7   29.83    2.78
   7   1   7   45.56    2.96
  -9   2   7    8.15    1.55
  -8   2   7   40.40    3.31
  -7   2   7    7.21    1.46
  -6   2   7    4.31    0.92
  -5   2   7    2.22    0.73
  -4   2   7   -0.26    0.35
  -3   2   7    1.23    0.53
  -2   2   7   53.34    2.36
  -1   2   7   13.22    1.65
   0   2   7   51.33    2.80
   1   2   7    0.50    0.41
   2   2   7   -0.34    0.40
   3   2   7  112.20    4.45
   4   2   7   13.80    1.68
   5   2   7   12.49    1.81
   6   2   7    8.37    1.52
   7   2   7   10.06    1.78
  -9   3   7   26.93    2.82
  -8   3   7    0.58    0.69
  -7   3   7    2.29    0.75
  -6   3   7   34.67    2.42
  -5   3   7  114.65    3.81
  -4   3   7  106.14    3.58
  -3   3   7   15.94    1.55
  -2   3   7    0.53    0.54
  -1   3   7    1.48    0.68
   0   3   7   15.74    1.42
   1   3   7    0.34    0.42
   2   3   7    2.71    0.87
   3   3   7   35.83    2.93
   4   3   7   40.65    2.95
   5   3   7   27.15    2.67
   6   3   7    0.19    0.64
  -9   4   7   57.92    3.54
  -8   4   7   -0.04    0.50
  -7   4   7   41.01    2.40
  -6   4   7   11.72    1.42
  -5   4   7    2.09    0.69
  -4   4   7    5.04    1.20
  -3   4   7    0.28    0.53
  -2   4   7    0.68    0.53
  -1   4   7  102.82    3.37
   0   4   7    5.31    0.88
   1   4   7   83.42    3.74
   2   4   7    3.82    1.08
   3   4   7    1.57    0.77
   4   4   7    0.04    0.57
   5   4   7   20.13    2.38
  -9   5   7   21.12    2.06
  -8   5   7   26.79    2.24
  -7   5   7    8.90    1.33
  -6   5   7    4.87    1.22
  -5   5   7   11.90    1.82
  -4   5   7   77.74    3.81
  -3   5   7    2.73    0.89
  -2   5   7  110.87    3.60
  -1   5   7    1.65    0.61
   0   5   7    9.79    1.52
   1   5   7    0.65    0.62
   2   5   7    5.66    1.29
   3   5   7    0.53    0.68
   4   5   7   66.13    3.65
  -9   6   7    0.31    0.81
  -8   6   7    7.07    1.44
  -7   6   7   33.31    3.06
  -6   6   7   32.65    2.91
  -5   6   7    0.30    0.54
  -4   6   7    5.39    1.23
  -3   6   7   34.18    2.13
  -2   6   7   11.81    1.40
  -1   6   7    5.29    0.98
   0   6   7   34.16    2.92
   1   6   7   68.44    3.59
   2   6   7   42.82    3.15
   3   6   7   25.02    2.63
  -9   7   7   10.51    1.85
  -8   7   7   41.04    3.59
  -7   7   7    1.11    0.84
  -6   7   7   64.66    3.64
  -5   7   7    7.06    1.44
  -4   7   7    1.46    0.62
  -3   7   7   37.39    2.31
  -2   7   7   11.16    1.40
  -1   7   7   29.43    2.83
   0   7   7    1.57    0.84
   1   7   7    0.32    0.71
   2   7   7    8.04    1.63
  -9   8   7   33.56    4.80
  -8   8   7    3.28    1.11
  -7   8   7    0.70    0.71
  -6   8   7   43.27    3.26
  -5   8   7    0.51    0.54
  -4   8   7   -0.33    0.44
  -3   8   7   28.89    2.24
  -2   8   7   11.25    1.82
  -1   8   7   43.77    3.55
   0   8   7    1.86    0.92
   1   8   7    4.07    1.93
  -7   9   7    5.79    1.46
  -6   9   7   26.18    2.21
  -5   9   7   63.58    2.95
  -4   9   7   23.56    2.13
  -3   9   7    0.72    0.81
  -2   9   7   10.79    1.80
  -1   9   7   29.07    2.98
  -6  10   7    0.52    0.75
  -5  10   7    4.72    1.26
  -4  10   7   14.64    2.02
   2  -7   8   15.35    3.05
   3  -7   8    8.78    1.59
   4  -7   8   46.89    3.07
   5  -7   8    7.29    1.48
   6  -7   8   16.43    2.93
   0  -6   8   11.58    2.47
   1  -6   8   70.46    5.21
   2  -6   8    6.06    1.38
   3  -6   8   26.33    2.66
   4  -6   8    7.31    1.52
   5  -6   8    1.08    0.78
   6  -6   8    9.92    2.65
  -2  -5   8    7.55    2.18
  -1  -5   8    0.49    0.90
   0  -5   8   17.55    3.08
   1  -5   8   21.22    2.39
   2  -5   8   14.81    1.97
   3  -5   8    3.26    0.88
   4  -5   8   46.09    3.17
   5  -5   8   13.03    1.88
   6  -5   8   69.15    5.60
  -3  -4   8   49.25    3.14
  -2  -4   8    5.15    1.22
  -1  -4   8   47.84    4.17
   0  -4   8    8.86    1.57
   1  -4   8   11.78    1.79
   2  -4   8   24.14    2.47
   3  -4   8   40.28    2.89
   4  -4   8   12.25    1.82
   5  -4   8   23.12    3.89
   6  -4   8    2.39    1.43
   7  -4   8   12.42    2.91
  -4  -3   8    8.84    1.60
  -3  -3   8   23.10    2.53
  -2  -3   8    2.44    0.93
  -1  -3   8   39.55    2.40
   0  -3   8   19.69    2.19
   1  -3   8    6.29    1.33
   2  -3   8   56.59    3.23
   3  -3   8   20.94    2.29
   4  -3   8   10.10    2.48
   5  -3   8   13.40    2.87
   6  -3   8   34.05    4.62
   7  -3   8   50.13    4.78
  -5  -2   8   17.93    2.32
  -4  -2   8    4.70    1.22
  -3  -2   8   16.49    2.08
  -2  -2   8   24.53    2.03
  -1  -2   8   60.34    2.70
   0  -2   8    2.99    0.91
   1  -2   8   39.30    2.62
   2  -2   8    6.10    1.29
   3  -2   8    4.81    1.18
   4  -2   8   18.65    3.42
   5  -2   8    2.20    1.29
   6  -2   8    6.75    2.09
   7  -2   8    9.15    1.71
  -5  -1   8   67.73    3.71
  -4  -1   8   17.47    2.22
  -3  -1   8    9.75    1.23
  -2  -1   8    3.27    0.84
  -1  -1   8   33.20    2.34
   0  -1   8    2.94    0.92
   1  -1   8    3.82    1.05
   2  -1   8   31.94    2.78
   3  -1   8   61.32    5.02
   4  -1   8   33.77    4.39
   5  -1   8   44.84    4.42
   6  -1   8    2.05    0.93
   7  -1   8   14.46    2.68
  -6   0   8    9.48    1.71
  -5   0   8   13.54    1.92
  -4   0   8    8.83    1.30
  -3   0   8   19.36    1.83
  -2   0   8    3.88    0.92
  -1   0   8    3.08    0.79
   0   0   8  153.93    5.52
   1   0   8    3.59    1.00
   2   0   8    2.75    0.90
   3   0   8   21.02    3.52
   4   0   8    9.74    2.49
   5   0   8   12.73    1.86
   6   0   8    9.85    1.70
  -6   1   8    0.12    0.67
  -5   1   8   46.94    2.63
  -4   1   8   36.67    2.39
  -3   1   8   60.40    2.76
  -2   1   8   31.35    2.32
  -1   1   8    2.78    0.76
   0   1   8    4.36    1.16
   1   1   8   29.48    2.70
   2   1   8    4.67    1.73
   3   1   8   15.18    3.09
   4   1   8   19.03    2.26
   5   1   8   67.32    3.67
   6   1   8   -0.40    0.70
  -7   2   8    6.59    2.46
  -6   2   8    3.99    1.22
  -5   2   8    0.98    0.63
  -4   2   8   24.01    2.03
  -3   2   8    4.52    0.95
  -2   2   8    2.96    0.95
  -1   2   8   37.55    2.82
   0   2   8    3.25    1.05
   1   2   8   66.55    5.27
   2   2   8   15.79    3.05
   3   2   8   16.92    2.10
   4   2   8    3.25    1.08
   5   2   8   19.60    2.39
  -7   3   8   48.30    3.43
  -6   3   8   29.44    2.37
  -5   3   8   13.92    1.57
  -4   3   8   10.58    1.43
  -3   3   8   17.68    2.24
  -2   3   8   61.06    3.44
  -1   3   8    2.88    0.96
   0   3   8   17.67    2.19
   1   3   8   35.17    4.64
   2   3   8    1.60    0.82
   3   3   8   28.25    2.76
   4   3   8   10.03    1.70
  -7   4   8    9.50    1.43
  -6   4   8    4.86    1.05
  -5   4   8   18.18    2.31
  -4   4   8    9.53    1.70
  -3   4   8   40.28    3.35
  -2   4   8   24.78    2.56
  -1   4   8   11.32    1.73
   0   4   8    6.46    2.16
   1   4   8   51.85    3.10
   2   4   8    7.06    1.48
   3   4   8   45.06    3.30
  -7   5   8   22.68    3.97
  -6   5   8   59.95    3.66
  -5   5   8   11.93    1.93
  -4   5   8   41.43    3.49
  -3   5   8    2.09    1.02
  -2   5   8   17.04    2.18
  -1   5   8   19.57    3.47
   0   5   8   17.41    2.18
   1   5   8    0.59    0.67
   2   5   8    6.20    1.40
  -7   6   8    0.60    1.25
  -6   6   8    7.52    1.54
  -5   6   8    0.36    0.69
  -4   6   8    7.04    1.53
  -3   6   8   27.61    2.85
  -2   6   8    2.71    1.01
  -1   6   8   62.30    3.56
   0   6   8   11.58    1.88
   1   6   8   17.79    2.39
  -5   7   8    7.67    2.19
  -4   7   8   45.59    3.39
  -3   7   8    9.81    1.82
  -2   7   8   15.59    2.11
  -1   7   8    0.22    0.90
   0  -3   9   22.13    3.70
   1  -3   9    5.72    1.41
   2  -3   9   16.24    2.98
   3  -3   9   15.46    2.77
  -1  -2   9   15.80    3.18
   0  -2   9   15.52    2.11
   1  -2   9    5.76    1.35
   2  -2   9   12.61    1.95
  -2  -1   9   10.90    2.60
  -1  -1   9    7.98    1.58
   0  -1   9    7.74    1.54
   1  -1   9    6.65    1.47
  -3   0   9   18.27    2.28
  -2   0   9   15.03    2.13
  -1   0   9    8.82    1.69
   0   0   9    0.73    0.81
   1   0   9    6.16    1.36
  -3   1   9   12.23    1.98
  -2   1   9    8.71    1.70
  -1   1   9    8.97    1.62
   0   1   9    6.37    1.41
  -3   2   9    6.31    2.24
  -2   2   9   12.67    2.01
  -1   2   9    6.97    2.04
   0   2   9   14.21    2.74
  -2   3   9   13.58    2.71
  -1   3   9    5.17    1.89
   0   0   0    0.00    0.00
;
_shelx_hkl_checksum              24543
loop_
_space_group_symop_operation_xyz
'x, y, z'
'-y, x-y, z'
'-x+y, -x, z'
'-x, -y, z+1/2'
'y, -x+y, z+1/2'
'x-y, x, z+1/2'
loop_
_atom_site_label
_atom_site_type_symbol
_atom_site_fract_x
_atom_site_fract_y
_atom_site_fract_z
_atom_site_U_iso_or_equiv
_atom_site_adp_type
_atom_site_occupancy
_atom_site_site_symmetry_order
_atom_site_calc_flag
_atom_site_refinement_flags_posn
_atom_site_refinement_flags_adp
_atom_site_refinement_flags_occupancy
_atom_site_disorder_assembly
_atom_site_disorder_group
La La 0.13954(3) 0.37475(3) 0.42019(8) 0.01473(8) Uani 1 1 d . . . . .
AgA Ag 0.0000 0.0000 0.0000(9) 0.0613(15) Uani 0.363(3) 3 d S T P . .
AgB Ag 0.0000 0.0000 0.2096(14) 0.0613(15) Uani 0.237(3) 3 d S T P . .
Ga Ga 0.3333 0.6667 0.83956(15) 0.01163(17) Uani 1 3 d S T P . .
S1 S 0.24398(19) 0.15171(16) 0.4509(3) 0.0296(4) Uani 1 1 d . . . . .
S2 S 0.51835(14) 0.09900(14) 0.1914(2) 0.0134(2) Uani 1 1 d . . . . .
S3 S 0.3333 0.6667 0.2085(3) 0.0117(3) Uani 1 3 d S T P . .
loop_
_atom_site_aniso_label
_atom_site_aniso_U_11
_atom_site_aniso_U_22
_atom_site_aniso_U_33
_atom_site_aniso_U_23
_atom_site_aniso_U_13
_atom_site_aniso_U_12
La 0.01234(11) 0.00956(11) 0.02240(13) -0.00166(13) -0.00299(13) 0.00555(8)
AgA 0.0174(4) 0.0174(4) 0.149(4) 0.000 0.000 0.00870(19)
AgB 0.0174(4) 0.0174(4) 0.149(4) 0.000 0.000 0.00870(19)
Ga 0.0132(2) 0.0132(2) 0.0086(3) 0.000 0.000 0.00658(12)
S1 0.0383(8) 0.0233(6) 0.0381(10) -0.0141(6) -0.0148(7) 0.0238(6)
S2 0.0128(5) 0.0114(5) 0.0118(5) 0.0010(4) 0.0012(4) 0.0030(4)
S3 0.0142(5) 0.0142(5) 0.0067(8) 0.000 0.000 0.0071(3)
loop_
_atom_type_symbol
_atom_type_description
_atom_type_scat_dispersion_real
_atom_type_scat_dispersion_imag
_atom_type_scat_source
S S 0.1246 0.1234 'International Tables Vol C Tables 4.2.6.8 and 6.1.1.4'
Ga Ga 0.2307 1.6083 'International Tables Vol C Tables 4.2.6.8 and 6.1.1.4'
Ag Ag -0.8971 1.1015 'International Tables Vol C Tables 4.2.6.8 and 6.1.1.4'
La La -0.2871 2.4523 'International Tables Vol C Tables 4.2.6.8 and 6.1.1.4'
loop_
_geom_angle_atom_site_label_1
_geom_angle_atom_site_label_2
_geom_angle_atom_site_label_3
_geom_angle
_geom_angle_site_symmetry_1
_geom_angle_site_symmetry_3
S2 La S3 76.91(4) 5_565 .
S2 La S1 103.80(4) 5_565 2
S3 La S1 150.06(5) . 2
S2 La S1 140.38(4) 5_565 .
S3 La S1 119.40(4) . .
S1 La S1 79.52(7) 2 .
S2 La S2 77.14(5) 5_565 6
S3 La S2 75.17(4) . 6
S1 La S2 134.62(5) 2 6
S1 La S2 73.60(4) . 6
S2 La S2 74.18(2) 5_565 2
S3 La S2 80.33(3) . 2
S1 La S2 71.38(4) 2 2
S1 La S2 140.35(4) . 2
S2 La S2 145.71(3) 6 2
S2 La S1 143.32(4) 5_565 6_554
S3 La S1 85.32(5) . 6_554
S1 La S1 76.66(4) 2 6_554
S1 La S1 76.25(4) . 6_554
S2 La S1 128.94(4) 6 6_554
S2 La S1 71.34(4) 2 6_554
S2 La AgA 128.09(8) 5_565 4
S3 La AgA 154.60(7) . 4
S1 La AgA 39.93(3) 2 4
S1 La AgA 39.84(3) . 4
S2 La AgA 103.71(6) 6 4
S2 La AgA 108.64(5) 2 4
S1 La AgA 75.75(10) 6_554 4
S2 La AgB 149.74(8) 5_565 .
S3 La AgB 129.71(13) . .
S1 La AgB 46.11(7) 2 .
S1 La AgB 46.01(7) . .
S2 La AgB 119.62(7) 6 .
S2 La AgB 94.49(7) 2 .
S1 La AgB 46.76(13) 6_554 .
AgA La AgB 28.99(15) 4 .
S2 La AgB 111.10(11) 5_565 4
S3 La AgB 162.889(10) . 4
S1 La AgB 44.93(6) 2 4
S1 La AgB 44.87(6) . 4
S2 La AgB 91.56(8) 6 4
S2 La AgB 116.07(5) 2 4
S1 La AgB 95.13(12) 6_554 4
AgA La AgB 19.38(14) 4 4
AgB La AgB 48.366(14) . 4
AgB AgA AgB 180.0 . 4_554
AgB AgA S1 97.75(15) . 4_554
AgB AgA S1 82.25(15) 4_554 4_554
AgB AgA S1 97.75(15) . 6_554
AgB AgA S1 82.25(15) 4_554 6_554
S1 AgA S1 118.21(7) 4_554 6_554
AgB AgA S1 97.75(15) . 5_554
AgB AgA S1 82.25(15) 4_554 5_554
S1 AgA S1 118.21(7) 4_554 5_554
S1 AgA S1 118.21(7) 6_554 5_554
AgB AgA AgA 180.0 . 4_554
AgB AgA AgA 0.000(1) 4_554 4_554
S1 AgA AgA 82.25(15) 4_554 4_554
S1 AgA AgA 82.25(15) 6_554 4_554
S1 AgA AgA 82.25(15) 5_554 4_554
AgB AgA AgA 0.000(1) . 4
AgB AgA AgA 180.0 4_554 4
S1 AgA AgA 97.75(15) 4_554 4
S1 AgA AgA 97.75(15) 6_554 4
S1 AgA AgA 97.75(15) 5_554 4
AgA AgA AgA 180.0 4_554 4
AgB AgA La 98.19(9) . 4_554
AgB AgA La 81.81(9) 4_554 4_554
S1 AgA La 59.74(4) 4_554 4_554
S1 AgA La 164.1(2) 6_554 4_554
S1 AgA La 58.99(4) 5_554 4_554
AgA AgA La 81.81(9) 4_554 4_554
AgA AgA La 98.19(9) 4 4_554
AgB AgA La 98.19(9) . 5_554
AgB AgA La 81.81(9) 4_554 5_554
S1 AgA La 164.1(2) 4_554 5_554
S1 AgA La 58.99(4) 6_554 5_554
S1 AgA La 59.74(4) 5_554 5_554
AgA AgA La 81.81(9) 4_554 5_554
AgA AgA La 98.19(9) 4 5_554
La AgA La 118.00(5) 4_554 5_554
AgB AgA La 98.19(9) . 6_554
AgB AgA La 81.81(9) 4_554 6_554
S1 AgA La 58.99(4) 4_554 6_554
S1 AgA La 59.74(4) 6_554 6_554
S1 AgA La 164.1(2) 5_554 6_554
AgA AgA La 81.81(9) 4_554 6_554
AgA AgA La 98.19(9) 4 6_554
La AgA La 118.00(5) 4_554 6_554
La AgA La 118.00(5) 5_554 6_554
AgA AgB AgA 180.0 . 4
AgA AgB S1 123.79(16) . .
AgA AgB S1 56.21(16) 4 .
AgA AgB S1 123.79(16) . 3
AgA AgB S1 56.21(16) 4 3
S1 AgB S1 92.1(2) . 3
AgA AgB S1 123.79(16) . 2
AgA AgB S1 56.21(16) 4 2
S1 AgB S1 92.1(2) . 2
S1 AgB S1 92.1(2) 3 2
AgA AgB S1 54.34(15) . 4_554
AgA AgB S1 125.66(15) 4 4_554
S1 AgB S1 178.1(3) . 4_554
S1 AgB S1 89.23(3) 3 4_554
S1 AgB S1 89.23(3) 2 4_554
AgA AgB S1 54.34(15) . 6_554
AgA AgB S1 125.66(15) 4 6_554
S1 AgB S1 89.23(3) . 6_554
S1 AgB S1 178.1(3) 3 6_554
S1 AgB S1 89.23(3) 2 6_554
S1 AgB S1 89.4(2) 4_554 6_554
AgA AgB S1 54.34(15) . 5_554
AgA AgB S1 125.66(15) 4 5_554
S1 AgB S1 89.23(3) . 5_554
S1 AgB S1 89.23(3) 3 5_554
S1 AgB S1 178.1(3) 2 5_554
S1 AgB S1 89.4(2) 4_554 5_554
S1 AgB S1 89.4(2) 6_554 5_554
AgA AgB AgB 180.0 . 4
AgA AgB AgB 0.000(1) 4 4
S1 AgB AgB 56.21(16) . 4
S1 AgB AgB 56.21(16) 3 4
S1 AgB AgB 56.21(16) 2 4
S1 AgB AgB 125.66(15) 4_554 4
S1 AgB AgB 125.66(15) 6_554 4
S1 AgB AgB 125.66(15) 5_554 4
AgA AgB AgB 0.0 . 4_554
AgA AgB AgB 180.0 4 4_554
S1 AgB AgB 123.79(16) . 4_554
S1 AgB AgB 123.79(16) 3 4_554
S1 AgB AgB 123.79(16) 2 4_554
S1 AgB AgB 54.34(15) 4_554 4_554
S1 AgB AgB 54.34(15) 6_554 4_554
S1 AgB AgB 54.34(15) 5_554 4_554
AgB AgB AgB 180.0 4 4_554
AgA AgB La 110.80(13) . 2
AgA AgB La 69.20(13) 4 2
S1 AgB La 125.4(3) . 2
S1 AgB La 53.82(7) 3 2
S1 AgB La 54.45(7) 2 2
S1 AgB La 56.45(4) 4_554 2
S1 AgB La 126.23(7) 6_554 2
S1 AgB La 125.62(7) 5_554 2
AgB AgB La 69.20(13) 4 2
AgB AgB La 110.80(13) 4_554 2
AgA AgB La 110.80(13) . 3
AgA AgB La 69.20(13) 4 3
S1 AgB La 53.82(7) . 3
S1 AgB La 54.45(7) 3 3
S1 AgB La 125.4(3) 2 3
S1 AgB La 126.23(7) 4_554 3
S1 AgB La 125.62(7) 6_554 3
S1 AgB La 56.45(4) 5_554 3
AgB AgB La 69.20(13) 4 3
AgB AgB La 110.80(13) 4_554 3
La AgB La 108.11(14) 2 3
S3 Ga S2 113.12(4) 1_556 6
S3 Ga S2 113.12(4) 1_556 4_665
S2 Ga S2 105.59(4) 6 4_665
S3 Ga S2 113.12(4) 1_556 5_565
S2 Ga S2 105.59(4) 6 5_565
S2 Ga S2 105.58(4) 4_665 5_565
AgA S1 AgB 41.5(2) 4 .
AgA S1 AgB 27.91(19) 4 4
AgB S1 AgB 69.45(4) . 4
AgA S1 La 81.08(5) 4 3
AgB S1 La 80.07(4) . 3
AgB S1 La 84.42(5) 4 3
AgA S1 La 80.42(5) 4 .
AgB S1 La 79.54(4) . .
AgB S1 La 83.87(5) 4 .
La S1 La 159.02(6) 3 .
AgA S1 La 104.69(16) 4 5
AgB S1 La 146.23(17) . 5
AgB S1 La 76.78(16) 4 5
La S1 La 97.39(5) 3 5
La S1 La 96.79(4) . 5
Ga S2 La 89.91(4) 4_664 6_654
Ga S2 La 87.11(4) 4_664 5_554
La S2 La 102.79(4) 6_654 5_554
Ga S2 La 122.09(5) 4_664 3
La S2 La 142.85(5) 6_654 3
La S2 La 97.61(4) 5_554 3
Ga S3 La 115.96(3) 1_554 .
Ga S3 La 115.96(3) 1_554 3_565
La S3 La 102.27(4) . 3_565
Ga S3 La 115.96(3) 1_554 2_665
La S3 La 102.27(4) . 2_665
La S3 La 102.27(4) 3_565 2_665
loop_
_geom_bond_atom_site_label_1
_geom_bond_atom_site_label_2
_geom_bond_distance
_geom_bond_site_symmetry_2
La S2 2.8595(13) 5_565
La S3 2.9272(9) .
La S1 2.9413(13) 2
La S1 2.9696(14) .
La S2 2.9732(13) 6
La S2 3.0320(13) 2
La S1 3.0730(17) 6_554
La AgA 3.3902(9) 4
La AgB 3.589(3) .
La AgB 3.785(4) 4
AgA AgB 1.269(9) .
AgA AgB 1.757(9) 4_554
AgA S1 2.2027(19) 4_554
AgA S1 2.2027(19) 6_554
AgA S1 2.2027(19) 5_554
AgA AgA 3.0264(3) 4_554
AgA AgA 3.0264(3) 4
AgA La 3.3902(9) 4_554
AgA La 3.3902(9) 5_554
AgA La 3.3902(9) 6_554
AgB AgA 1.757(9) 4
AgB S1 2.626(5) .
AgB S1 2.626(5) 3
AgB S1 2.626(5) 2
AgB S1 2.686(5) 4_554
AgB S1 2.686(5) 6_554
AgB S1 2.686(5) 5_554
AgB AgB 3.0265(2) 4
AgB AgB 3.0264(2) 4_554
AgB La 3.589(3) 2
AgB La 3.589(3) 3
Ga S3 2.233(2) 1_556
Ga S2 2.2836(13) 6
Ga S2 2.2836(13) 4_665
Ga S2 2.2836(13) 5_565
S1 AgA 2.2027(19) 4
S1 AgB 2.686(5) 4
S1 La 2.9412(13) 3
S1 La 3.0730(17) 5
S2 Ga 2.2836(13) 4_664
S2 La 2.8594(13) 6_654
S2 La 2.9732(13) 5_554
S2 La 3.0320(13) 3
S3 Ga 2.233(2) 1_554
S3 La 2.9272(9) 3_565
S3 La 2.9272(9) 2_665
