#------------------------------------------------------------------------------
#$Date: 2021-04-12 12:07:51 +0300 (Mon, 12 Apr 2021) $
#$Revision: 264055 $
#$URL: file:///home/coder/svn-repositories/cod/cif/1/56/16/1561660.cif $
#------------------------------------------------------------------------------
#
# This file is available in the Crystallography Open Database (COD),
# http://www.crystallography.net/
#
# All data on this site have been placed in the public domain by the
# contributors.
#
data_1561660
loop_
_publ_author_name
'Kohlgruber, Tsuyoshi A.'
'Mackley, Stephanie A.'
'Bo, Fabrice Dal'
'Aksenov, Sergey M.'
'Burns, Peter C.'
_publ_section_title
;
 The role of 1-ethyl-3-methylimidazolium diethyl phosphate ionic liquid in
 uranyl phosphate compounds
;
_journal_name_full               'Journal of Solid State Chemistry'
_journal_page_first              120938
_journal_paper_doi               10.1016/j.jssc.2019.120938
_journal_volume                  279
_journal_year                    2019
_chemical_formula_sum            'C2 H5 O2.5 P0.5 U0.25'
_chemical_formula_weight         144.05
_space_group_crystal_system      triclinic
_space_group_IT_number           2
_space_group_name_Hall           '-P 1'
_space_group_name_H-M_alt        'P -1'
_atom_sites_solution_hydrogens   geom
_atom_sites_solution_primary     dual
_atom_sites_solution_secondary   difmap
_audit_creation_method           SHELXL-2016/6
_cell_angle_alpha                105.333(6)
_cell_angle_beta                 90.562(6)
_cell_angle_gamma                98.269(6)
_cell_formula_units_Z            4
_cell_length_a                   5.374(3)
_cell_length_b                   7.674(4)
_cell_length_c                   11.132(6)
_cell_measurement_reflns_used    2716
_cell_measurement_temperature    220(2)
_cell_measurement_theta_max      25.65
_cell_measurement_theta_min      2.78
_cell_volume                     437.6(4)
_computing_cell_refinement       'Bruker SAINT (Bruker, 2015)'
_computing_data_collection       'Bruker APEX-3 (Bruker, 2015)'
_computing_data_reduction        'Bruker SAINT (Bruker, 2015)'
_computing_molecular_graphics    'Bruker XP (Bruker, 2015)'
_computing_publication_material  'CIFTAB (Sheldrick, 2008)'
_computing_structure_refinement  'SHELXL-2016/6 (Sheldrick, 2016)'
_computing_structure_solution    'SHELXT 2014/5 (Sheldrick, 2014)'
_diffrn_ambient_temperature      220(2)
_diffrn_detector_area_resol_mean 8.33
_diffrn_measured_fraction_theta_full 0.999
_diffrn_measured_fraction_theta_max 0.994
_diffrn_measurement_device_type  'Bruker APEX-II'
_diffrn_measurement_method       'combination of \w and \f-scans '
_diffrn_radiation_type           MoK\a
_diffrn_radiation_wavelength     0.71073
_diffrn_reflns_av_R_equivalents  0.0332
_diffrn_reflns_av_unetI/netI     0.0410
_diffrn_reflns_Laue_measured_fraction_full 0.999
_diffrn_reflns_Laue_measured_fraction_max 0.994
_diffrn_reflns_limit_h_max       6
_diffrn_reflns_limit_h_min       -6
_diffrn_reflns_limit_k_max       9
_diffrn_reflns_limit_k_min       -9
_diffrn_reflns_limit_l_max       14
_diffrn_reflns_limit_l_min       -14
_diffrn_reflns_number            5141
_diffrn_reflns_point_group_measured_fraction_full 0.999
_diffrn_reflns_point_group_measured_fraction_max 0.994
_diffrn_reflns_theta_full        25.242
_diffrn_reflns_theta_max         27.544
_diffrn_reflns_theta_min         1.899
_diffrn_source                   'Incoatec micro-focus'
_exptl_absorpt_coefficient_mu    9.494
_exptl_absorpt_correction_type   multi-scan
_exptl_absorpt_process_details   'SADABS (Krause et al., 2015)'
_exptl_crystal_colour            'pale yellow'
_exptl_crystal_density_diffrn    2.186
_exptl_crystal_description       blocky
_exptl_crystal_F_000             270
_exptl_crystal_size_max          0.075
_exptl_crystal_size_mid          0.025
_exptl_crystal_size_min          0.015
_exptl_transmission_factor_max   0.7456
_exptl_transmission_factor_min   0.6043
_refine_diff_density_max         1.376
_refine_diff_density_min         -0.456
_refine_diff_density_rms         0.131
_refine_ls_extinction_coef       .
_refine_ls_extinction_method     none
_refine_ls_goodness_of_fit_ref   1.011
_refine_ls_hydrogen_treatment    constr
_refine_ls_matrix_type           full
_refine_ls_number_parameters     97
_refine_ls_number_reflns         1993
_refine_ls_number_restraints     0
_refine_ls_restrained_S_all      1.011
_refine_ls_R_factor_all          0.0250
_refine_ls_R_factor_gt           0.0243
_refine_ls_shift/su_max          0.000
_refine_ls_shift/su_mean         0.000
_refine_ls_structure_factor_coef Fsqd
_refine_ls_weighting_details
'w=1/[\s^2^(Fo^2^)+(0.0241P)^2^] where P=(Fo^2^+2Fc^2^)/3'
_refine_ls_weighting_scheme      calc
_refine_ls_wR_factor_gt          0.0497
_refine_ls_wR_factor_ref         0.0501
_reflns_Friedel_coverage         0.000
_reflns_Friedel_fraction_full    .
_reflns_Friedel_fraction_max     .
_reflns_number_gt                1979
_reflns_number_total             1993
_reflns_threshold_expression     'I > 2\s(I)'
_cod_data_source_file            chain1_final.cif
_cod_data_source_block           try3_a
_cod_original_formula_sum        'C2 H5 O2.50 P0.50 U0.25'
_cod_database_code               1561660
_shelx_shelxl_version_number     2016/6
_shelx_space_group_comment
;
The symmetry employed for this shelxl refinement is uniquely defined
by the following loop, which should always be used as a source of
symmetry information in preference to the above space-group names.
They are only intended as comments.
;
_shelx_estimated_absorpt_t_min   0.536
_shelx_estimated_absorpt_t_max   0.871
_diffrn_source_monochromator     'MONTEL Multi-layer'
_shelx_res_file
;
TITL try3_a.res in P-1
    try3_a.res
    created by SHELXL-2016/6 at 15:38:14 on 29-Jan-2019
REM Old TITL try3 in P-1

REM SHELXT solution in P-1
REM R1 0.074,  Rweak 0.247,  Alpha 0.043,  Orientation as input
REM Formula found by SHELXT:  C6 O10 P2 U

CELL  0.71073   5.3744   7.6744  11.1321  105.333   90.562   98.269
ZERR    4.000   0.0030   0.0042   0.0062    0.006    0.006    0.006
LATT  1
SFAC C H O P U
UNIT 8 20 10 2 1
TEMP -53
L.S. 10
LIST 6
FMAP 2
PLAN 5
SIZE 0.075 0.025 0.015
BOND $H
CONF
BOND
ACTA
WGHT    0.024100
FVAR       0.68725
U1    5    1.000000    0.500000    0.500000    10.50000    0.02002    0.03355 =
         0.02989    0.00614   -0.00113    0.00573
P1    4    0.491003    0.464521    0.712760    11.00000    0.02819    0.03997 =
         0.03009    0.00844    0.00094    0.01261
O1    3    0.851650    0.274108    0.436200    11.00000    0.04146    0.04372 =
         0.04738    0.00970   -0.00230   -0.00008
O2    3    0.725293    0.533940    0.657785    11.00000    0.03086    0.06513 =
         0.04344    0.00858    0.00841    0.01046
O3    3    0.264044    0.401079    0.623791    11.00000    0.03200    0.05063 =
         0.04299    0.01400   -0.00471    0.01295
O4    3    0.448037    0.622311    0.827934    11.00000    0.04300    0.04938 =
         0.04169   -0.00123    0.01300    0.00696
O5    3    0.533694    0.306427    0.771628    11.00000    0.06951    0.04900 =
         0.04628    0.01477   -0.01358    0.01935
C1    1    0.229532    0.608132    0.901959    11.00000    0.05045    0.07229 =
         0.04712    0.00947    0.01887    0.01932
AFIX  23
H1A   2    0.277141    0.582207    0.979947    11.00000   -1.20000
H1B   2    0.101354    0.507892    0.856031    11.00000   -1.20000
AFIX   0
C2    1    0.127304    0.782340    0.929468    11.00000    0.07041    0.07808 =
         0.08588   -0.00508    0.02434    0.03544
AFIX  33
H2A   2   -0.019154    0.773991    0.979039    11.00000   -1.50000
H2B   2    0.254593    0.880770    0.975490    11.00000   -1.50000
H2C   2    0.079329    0.806677    0.851943    11.00000   -1.50000
AFIX   0
C3    1    0.505237    0.116613    0.698667    11.00000    0.08438    0.04295 =
         0.11953    0.01291   -0.03512    0.01672
AFIX  23
H3A   2    0.372783    0.045222    0.733294    11.00000   -1.20000
H3B   2    0.450070    0.108944    0.613008    11.00000   -1.20000
AFIX   0
C4    1    0.724476    0.038489    0.695760    11.00000    0.09539    0.06893 =
         0.15293    0.00840   -0.00217    0.04364
AFIX  33
H4A   2    0.691961   -0.087542    0.645717    11.00000   -1.50000
H4B   2    0.855711    0.106216    0.659561    11.00000   -1.50000
H4C   2    0.778337    0.042423    0.779981    11.00000   -1.50000
AFIX   0
HKLF 4




REM  try3_a.res in P-1
REM R1 =  0.0243 for    1979 Fo > 4sig(Fo)  and  0.0250 for all    1993 data
REM     97 parameters refined using      0 restraints

END

WGHT      0.0241      0.0000

REM Highest difference peak  1.376,  deepest hole -0.456,  1-sigma level  0.131
Q1    1   1.0811  0.6173  0.4943  11.00000  0.05    1.38
Q2    1   1.0411  0.4971  0.4039  11.00000  0.05    0.80
Q3    1   0.9893  0.3678  0.4070  11.00000  0.05    0.67
Q4    1   1.1812  0.4841  0.4610  11.00000  0.05    0.67
Q5    1   0.1205  0.4144  0.5679  11.00000  0.05    0.62
;
_shelx_res_checksum              66859
_shelx_hkl_file
;
  -1   0   0  385.36   12.70
  -1   0   0  367.46   13.10
   1   0   0  382.46   12.40
   1   0   0  356.66   13.60
  -2   0   0 2457.55   72.99
  -2   0   0 2412.56   71.59
   2   0   0 2481.65   71.09
   2   0   0 2481.55   74.29
  -3   0   0  301.07   15.00
  -3   0   0  306.37   16.30
   3   0   0  300.67   13.90
   3   0   0  296.87   17.30
  -4   0   0 1919.41   63.49
  -4   0   0 1927.61   61.09
   4   0   0 1920.11   59.79
   4   0   0 1785.52   65.79
  -5   0   0  222.88   21.50
   5   0   0  236.68   24.10
  -6   0   0  460.65   31.10
   6   0   0  371.96   31.60
   6  -1   0  446.56   34.00
  -6   1   0  405.06   30.60
   5  -1   0  278.47   23.90
  -5   1   0  276.37   22.10
   4  -1   0 1502.45   53.99
  -4   1   0 1425.86   51.79
  -4   1   0 1380.16   48.20
   3  -1   0 1287.27   40.10
   3  -1   0 1288.67   46.80
  -3   1   0 1368.56   43.60
  -3   1   0 1346.57   45.70
   2  -1   0 3287.67   90.39
   2  -1   0 3036.90   95.19
  -2   1   0 3354.86   93.49
   1  -1   0 2252.87   65.59
   1  -1   0 2480.45   68.59
   1  -1   0 2349.06   67.79
  -1   1   0 2383.96   68.09
   0  -1   0 8477.85  242.88
   0  -1   0 9235.28  242.58
   0   1   0 8766.32  242.68
  -1  -1   0  277.17   10.70
  -1  -1   0  287.07   11.10
   1   1   0  295.27   11.70
   1   1   0  256.37   10.70
  -2  -1   0 1502.15   47.40
  -2  -1   0 1551.44   47.10
   2   1   0 1501.75   47.80
   2   1   0 1573.74   48.80
  -3  -1   0  336.07   16.90
  -3  -1   0  315.87   15.80
   3   1   0  328.77   16.20
   3   1   0  315.57   18.00
  -4  -1   0 1949.90   65.09
  -4  -1   0 2075.99   63.69
   4   1   0 1808.62   67.09
   4   1   0 1989.30   63.99
  -5  -1   0  284.97   22.40
   5   1   0  274.97   23.50
  -6  -1   0  353.56   28.50
   6   1   0  346.17   30.10
   6  -2   0  494.95   35.80
  -6   2   0  502.75   34.00
   5  -2   0  253.27   23.30
  -5   2   0  266.87   22.90
   4  -2   0 1500.15   54.79
  -4   2   0 1401.26   49.90
  -4   2   0 1421.66   52.99
   3  -2   0 2017.20   59.19
   3  -2   0 2110.69   68.09
  -3   2   0 2077.79   65.19
   2  -2   0 1323.17   43.60
   2  -2   0 1394.76   39.60
   2  -2   0 1322.37   44.80
  -2   2   0 1411.06   44.70
   1  -2   0  545.75   19.40
   1  -2   0  557.14   17.40
   1  -2   0  535.05   19.40
   1  -2   0  538.45   19.70
   0  -2   0 3907.71  111.99
   0  -2   0 4064.39  111.29
   0   2   0 3825.12  111.59
  -1  -2   0  993.00   32.00
  -1  -2   0 1013.30   33.00
   1   2   0 1001.80   31.00
   1   2   0 1041.30   34.00
  -2  -2   0 1416.16   46.70
  -2  -2   0 1434.06   46.10
   2   2   0 1447.86   48.30
   2   2   0 1569.34   47.20
  -3  -2   0  674.63   27.00
  -3  -2   0  659.53   26.30
   3   2   0  631.84   27.60
   3   2   0  674.93   28.00
  -4  -2   0 1604.84   55.79
  -4  -2   0 1574.94   55.59
   4   2   0 1599.84   57.09
   4   2   0 1746.03   59.39
  -5  -2   0  241.68   20.90
   5   2   0  253.97   23.10
  -6  -2   0  275.77   26.90
   6   2   0  312.87   29.80
   6  -3   0  578.84   38.70
  -6   3   0  596.04   38.10
   5  -3   0  264.27   24.40
  -5   3   0  288.37   24.50
   4  -3   0  933.01   42.40
  -4   3   0 1145.59   44.30
  -4   3   0 1007.50   40.40
   3  -3   0  929.11   34.30
   3  -3   0  884.11   36.30
  -3   3   0  907.31   35.80
   2  -3   0 1522.45   49.80
   2  -3   0 1486.45   44.60
   2  -3   0 1588.64   49.20
  -2   3   0 1429.06   50.59
   1  -3   0  823.32   29.00
   1  -3   0  908.61   31.00
   1  -3   0  910.11   30.20
  -1   3   0  893.61   29.30
   0  -3   0 1959.80   58.09
   0  -3   0 1904.81   59.19
   0   3   0 1867.01   58.79
  -1  -3   0 2039.00   64.79
  -1  -3   0 2156.38   63.99
   1   3   0 2083.09   65.89
  -2  -3   0 1705.03   53.59
  -2  -3   0 1747.43   55.29
   2   3   0 1686.23   56.79
   2   3   0 1607.64   52.49
  -3  -3   0  618.34   25.70
  -3  -3   0  617.04   27.20
   3   3   0  563.64   27.90
   3   3   0  576.84   26.10
  -4  -3   0  729.93   31.70
  -4  -3   0  704.43   32.70
   4   3   0  687.03   33.80
   4   3   0  753.62   33.70
  -5  -3   0  195.98   20.30
   5   3   0  217.68   23.00
   6  -4   0  524.55   37.70
  -6   4   0  548.85   38.00
   5  -4   0  180.78   23.40
  -5   4   0  195.48   23.70
   4  -4   0  653.23   31.20
   4  -4   0  678.93   34.30
  -4   4   0  668.43   33.60
   3  -4   0  751.22   31.40
   3  -4   0  773.72   33.00
  -3   4   0  737.43   33.80
   2  -4   0 1519.65   50.19
   2  -4   0 1518.75   50.19
  -2   4   0 1457.95   47.30
  -2   4   0 1508.05   53.79
   1  -4   0  844.62   29.60
   1  -4   0  872.81   33.20
   1  -4   0  906.01   31.90
  -1   4   0  903.01   31.60
   0  -4   0 1394.76   48.60
   0  -4   0 1415.56   46.70
   0   4   0 1484.85   48.60
  -1  -4   0 1870.71   61.19
  -1  -4   0 1880.41   59.59
   1   4   0 1803.22   61.59
  -2  -4   0  783.52   32.40
  -2  -4   0  788.42   31.00
   2   4   0  781.82   34.00
   2   4   0  776.02   28.00
  -3  -4   0  364.26   21.10
  -3  -4   0  396.66   23.20
   3   4   0  398.76   24.90
  -4  -4   0  338.07   24.30
  -4  -4   0  326.67   21.80
   4   4   0  337.97   25.80
   5   4   0  204.58   26.00
   6  -5   0  410.96   35.30
  -6   5   0  362.16   35.40
   5  -5   0  172.18   23.20
  -5   5   0  113.89   20.90
   4  -5   0  656.43   32.50
   4  -5   0  686.93   34.90
  -4   5   0  648.84   37.00
   3  -5   0  315.67   20.80
   3  -5   0  342.07   21.70
  -3   5   0  359.16   26.00
   2  -5   0 1734.03   57.89
   2  -5   0 1739.43   56.89
  -2   5   0 1660.23   55.49
  -2   5   0 1735.13   63.19
   1  -5   0  503.25   23.30
   1  -5   0  538.45   25.80
  -1   5   0  523.55   24.30
   0  -5   0 1097.99   39.00
   0  -5   0 1014.80   40.90
   0   5   0 1068.69   41.00
  -1  -5   0  517.05   26.40
  -1  -5   0  515.15   24.10
   1   5   0  510.65   27.10
  -2  -5   0  628.04   28.70
  -2  -5   0  621.44   31.00
   2   5   0  589.64   31.60
  -3  -5   0  269.07   20.40
  -3  -5   0  267.47   22.40
   3   5   0  265.07   26.50
  -4  -5   0  262.57   24.80
   4   5   0  274.07   30.70
   5   5   0  202.68   28.10
   6  -6   0  307.27   34.30
  -6   6   0  168.78   28.10
   5  -6   0  161.48   24.10
   4  -6   0  392.16   26.80
   4  -6   0  411.46   27.80
  -4   6   0  370.96   33.60
   3  -6   0  453.05   26.10
   3  -6   0  445.86   25.20
  -3   6   0  431.66   33.30
   2  -6   0  841.92   35.00
  -2   6   0  785.82   33.80
   1  -6   0  336.37   22.50
   1  -6   0  296.07   19.30
  -1   6   0  299.87   21.00
   0  -6   0  445.16   23.80
   0  -6   0  491.55   27.70
   0   6   0  492.75   27.60
  -1  -6   0  422.26   23.60
  -1  -6   0  437.26   26.80
   1   6   0  402.96   27.30
  -2  -6   0  417.96   28.30
  -2  -6   0  392.76   24.60
   2   6   0  389.46   28.40
  -3  -6   0  291.97   26.90
   3   6   0  240.38   28.00
  -4  -6   0  166.18   24.20
   4   6   0  182.78   27.20
   5  -7   0  147.39   22.30
   4  -7   0  275.37   25.50
  -4   7   0  294.27   34.60
   3  -7   0  263.77   22.80
  -3   7   0  271.87   32.20
   2  -7   0  319.07   22.80
  -2   7   0  324.67   24.30
   1  -7   0  348.77   26.20
   1  -7   0  332.37   22.40
  -1   7   0  342.97   25.80
   0  -7   0  318.37   26.50
   0  -7   0  274.97   21.40
   0   7   0  294.47   27.40
  -1  -7   0  315.67   23.90
  -1  -7   0  335.47   28.20
   1   7   0  315.27   30.40
  -2  -7   0  295.27   27.80
   2   7   0  219.68   27.10
  -3  -7   0  260.27   30.60
   3   7   0  194.68   28.60
   4  -8   0  144.09   22.40
  -4   8   0  178.98   35.70
   3  -8   0  175.78   22.00
  -3   8   0  187.78   32.00
   2  -8   0  226.08   23.60
   1  -8   0  196.28   24.40
   1  -8   0  176.78   20.00
  -1   8   0  149.79   23.00
   0  -8   0  228.08   27.70
   0   8   0  225.88   27.70
  -1  -8   0  239.78   29.20
   1   8   0  168.58   27.30
  -2  -8   0  116.79   22.20
   2   8   0   97.59   25.00
   3  -9   0  104.89   20.60
  -3   9   0  113.99   34.20
   2  -9   0   53.49   16.80
  -2   9   0   80.99   28.60
   1  -9   0  168.78   27.20
  -1   9   0  165.58   28.30
   0  -9   0  122.59   24.90
   0   9   0  123.79   26.60
  -1  -9   0   93.39   26.00
   1   9   0  115.29   28.30
   1   9  -1  180.08   30.70
  -1  -9   1  195.78   30.80
   0   9  -1  122.79   27.50
   0  -9   1  132.79   25.20
  -1   9  -1  190.48   29.50
   1  -9   1  224.78   28.80
   2  -9   1   69.29   21.40
  -3   9  -1  188.08   36.70
   3  -9   1  143.39   21.40
   3   8  -1  159.28   27.80
  -3  -8   1  157.48   26.90
   2   8  -1   49.99   20.30
  -2  -8   1   89.69   20.10
   1   8  -1  339.27   35.90
  -1  -8   1  358.86   32.70
   0   8  -1  168.28   26.10
   0  -8   1  203.98   26.40
  -1   8  -1  298.87   29.10
   1  -8   1  286.87   24.50
   1  -8   1  276.17   28.90
   2  -8   1   85.59   15.50
   2  -8   1   77.89   18.90
  -3   8  -1  217.18   33.70
   3  -8   1  276.97   24.50
  -4   8  -1  110.79   30.10
   4  -8   1  108.59   19.30
   4   7  -1   83.59   24.00
  -4  -7   1   94.79   23.00
   3   7  -1  352.46   36.70
  -3  -7   1  334.07   32.20
   2   7  -1   99.59   19.60
  -2  -7   1  105.79   20.00
   1   7  -1  428.66   32.00
  -1  -7   1  455.65   30.50
   0   7  -1  142.59   20.10
   0  -7   1  108.39   14.70
   0  -7   1  132.49   19.30
  -1   7  -1  664.23   34.60
   1  -7   1  636.94   35.50
   1  -7   1  671.83   30.40
  -2   7  -1  176.58   19.20
   2  -7   1  159.88   17.50
   2  -7   1  165.38   20.70
  -3   7  -1  399.46   35.30
   3  -7   1  474.75   27.70
  -4   7  -1  192.48   29.30
   4  -7   1  229.58   23.20
  -5   7  -1  203.48   29.60
   5  -7   1  303.87   29.90
   4   6  -1  156.28   26.50
  -4  -6   1  110.79   20.70
   3   6  -1  505.25   34.50
  -3  -6   1  503.85   32.70
   2   6  -1  101.89   16.70
  -2  -6   1   91.99   16.20
   1   6  -1  678.23   33.80
  -1  -6   1  575.14   31.40
  -1  -6   1  641.04   28.00
   0   6  -1  212.08   18.80
   0  -6   1  232.08   19.10
   0  -6   1  194.98   15.10
  -1   6  -1 1578.84   56.09
   1  -6   1 1518.65   53.19
   1  -6   1 1601.14   58.19
  -2   6  -1  174.98   15.90
   2  -6   1  168.48   14.90
   2  -6   1  162.98   15.00
   2  -6   1  155.18   17.90
  -3   6  -1  941.41   46.20
   3  -6   1 1030.40   40.90
   3  -6   1  978.90   40.80
  -4   6  -1  158.48   23.90
   4  -6   1  194.68   20.90
   4  -6   1  167.48   20.30
  -5   6  -1  413.96   35.20
   5  -6   1  460.85   33.00
  -6   6  -1   89.79   22.60
   6  -6   1   81.69   21.00
   5   5  -1  186.88   27.00
  -5  -5   1  188.88   27.30
   4   5  -1  185.58   23.80
  -4  -5   1  219.58   24.00
   3   5  -1  439.86   29.10
  -3  -5   1  428.96   26.70
   2   5  -1  385.76   24.60
  -2  -5   1  396.56   23.60
  -2  -5   1  380.86   20.70
   1   5  -1  853.61   36.40
  -1  -5   1  829.92   31.50
  -1  -5   1  831.92   35.30
   0   5  -1  787.02   28.90
   0   5  -1  802.42   33.40
   0  -5   1  781.02   32.90
   0  -5   1  813.02   29.80
  -1   5  -1 1919.91   61.39
   1  -5   1 1879.91   63.19
   1  -5   1 1782.12   58.89
   1  -5   1 1902.41   59.89
  -2   5  -1  504.75   22.80
   2  -5   1  502.95   24.80
   2  -5   1  471.35   22.90
   2  -5   1  492.55   23.00
  -3   5  -1  722.13   35.30
   3  -5   1  735.93   32.70
   3  -5   1  712.63   31.50
  -4   5  -1  172.88   20.40
   4  -5   1  213.28   20.50
   4  -5   1  231.68   23.50
  -5   5  -1  612.64   37.20
   5  -5   1  538.15   35.20
  -6   5  -1  149.88   25.00
   6  -5   1  170.48   26.50
   5   4  -1  261.97   28.50
  -5  -4   1  279.37   27.50
   4   4  -1  266.17   23.20
  -4  -4   1  289.47   22.90
   3   4  -1  662.03   33.00
   3   4  -1  638.84   29.70
  -3  -4   1  715.63   32.20
  -3  -4   1  734.33   28.90
   2   4  -1  901.11   32.60
   2   4  -1  859.41   36.60
  -2  -4   1  933.41   33.00
  -2  -4   1  864.91   35.30
   1   4  -1 1210.08   38.40
   1   4  -1 1209.58   43.30
  -1  -4   1 1174.18   39.60
  -1  -4   1 1180.68   42.30
   0   4  -1 1771.12   55.59
   0   4  -1 1799.02   57.99
   0  -4   1 1839.02   58.69
   0  -4   1 1780.72   55.19
  -1   4  -1 1150.28   39.20
   1  -4   1 1134.39   38.30
   1  -4   1 1140.99   38.20
   1  -4   1 1170.58   40.50
   2  -4   1  399.16   19.80
   2  -4   1  424.66   19.50
   2  -4   1  421.86   16.70
  -3   4  -1  846.42   35.10
   3  -4   1  821.22   35.10
   3  -4   1  847.22   33.20
  -4   4  -1  542.55   29.40
  -4   4  -1  624.64   32.70
   4  -4   1  631.54   31.90
  -5   4  -1  731.03   39.30
   5  -4   1  744.33   39.70
  -6   4  -1  246.98   28.00
   6  -4   1  241.58   29.00
   5   3  -1  441.26   30.10
  -5  -3   1  422.26   27.80
   4   3  -1  392.26   24.30
   4   3  -1  475.95   26.40
  -4  -3   1  419.26   24.10
  -4  -3   1  395.56   22.00
   3   3  -1 1140.29   40.80
   3   3  -1 1052.39   41.10
  -3  -3   1 1023.90   37.10
  -3  -3   1 1013.70   39.40
   2   3  -1 1240.48   43.10
   2   3  -1 1174.28   40.50
  -2  -3   1 1206.48   41.80
  -2  -3   1 1176.48   38.90
   1   3  -1 1664.73   54.39
   1   3  -1 1672.03   51.49
  -1  -3   1 1753.32   54.09
  -1  -3   1 1694.93   51.59
   0   3  -1 1223.08   39.00
   0   3  -1 1231.18   40.00
   0  -3   1 1212.18   37.70
   0  -3   1 1202.68   39.90
   1  -3   1  576.64   22.50
   1  -3   1  590.54   20.50
   1  -3   1  608.64   22.10
   1  -3   1  596.14   21.30
  -2   3  -1 1648.73   53.89
   2  -3   1 1692.33   52.69
   2  -3   1 1644.44   49.50
   2  -3   1 1649.13   54.09
  -3   3  -1 1501.95   50.09
   3  -3   1 1446.66   52.09
   3  -3   1 1466.05   44.70
  -4   3  -1  956.90   40.00
  -4   3  -1  905.91   35.80
   4  -3   1  899.51   40.00
  -5   3  -1  572.14   33.40
   5  -3   1  627.04   35.00
  -6   3  -1  333.47   30.00
   6  -3   1  295.67   29.50
   6   2  -1  185.18   25.70
   5   2  -1  614.84   34.50
  -5  -2   1  600.64   30.80
  -5  -2   1  580.94   30.10
   4   2  -1  642.14   30.80
   4   2  -1  560.44   26.90
  -4  -2   1  566.84   26.10
  -4  -2   1  567.94   26.90
   3   2  -1 1177.98   44.10
   3   2  -1 1204.68   42.80
  -3  -2   1 1216.08   42.40
  -3  -2   1 1246.58   41.00
   2   2  -1  818.32   29.90
   2   2  -1  839.02   30.10
  -2  -2   1  823.72   29.50
  -2  -2   1  802.72   27.40
   1   2  -1 1569.34   47.70
   1   2  -1 1582.54   48.80
  -1  -2   1 1584.64   48.50
  -1  -2   1 1564.64   46.20
   0   2  -1 4015.50  114.59
   0  -2   1 3834.02  113.39
   0  -2   1 4108.29  114.49
   0  -2   1 4196.38  112.79
   1  -2   1 1753.12   50.09
   1  -2   1 1691.43   51.99
   1  -2   1 1738.03   51.19
   1  -2   1 1713.73   51.09
  -2   2  -1 2627.64   76.89
   2  -2   1 2568.94   77.29
   2  -2   1 2718.33   74.49
   2  -2   1 2495.65   79.09
  -3   2  -1 1502.45   50.59
  -3   2  -1 1491.85   47.20
   3  -2   1 1400.66   50.79
   3  -2   1 1448.36   44.10
  -4   2  -1 1304.47   49.00
  -4   2  -1 1353.26   44.80
   4  -2   1 1236.68   49.80
  -5   2  -1  280.27   23.70
   5  -2   1  338.37   25.40
  -6   2  -1  342.77   31.30
   6  -2   1  296.27   29.00
   6   1  -1  209.48   26.60
  -6  -1   1  225.38   24.10
   5   1  -1  787.92   38.40
  -5  -1   1  625.04   32.00
  -5  -1   1  722.33   33.80
   4   1  -1  513.25   28.00
   4   1  -1  523.65   23.50
  -4  -1   1  502.25   24.70
  -4  -1   1  561.14   25.30
   3   1  -1 1349.86   43.90
   3   1  -1 1321.17   47.30
  -3  -1   1 1342.47   44.50
  -3  -1   1 1329.87   44.70
   2   1  -1  698.13   25.70
   2   1  -1  668.03   23.70
  -2  -1   1  655.03   23.20
  -2  -1   1  661.43   24.10
   1   1  -1 6919.81  191.48
   1   1  -1 6921.61  190.58
  -1  -1   1 6834.62  189.28
  -1  -1   1 6773.82  190.98
   0   1  -1 2906.11   83.99
   0  -1   1 3058.79   82.89
   0  -1   1 2920.41   82.59
  -1   1  -1 2993.30   83.89
   1  -1   1 2841.22   82.19
   1  -1   1 2979.10   84.49
  -2   1  -1 1761.42   51.09
  -2   1  -1 1731.33   53.69
   2  -1   1 1728.03   50.69
   2  -1   1 1675.63   54.39
  -3   1  -1 1821.02   57.69
  -3   1  -1 1695.73   53.29
   3  -1   1 1639.54   52.79
   3  -1   1 1848.12   58.89
  -4   1  -1  926.31   33.90
  -4   1  -1  934.11   38.10
   4  -1   1  883.51   39.00
   4  -1   1 1020.30   33.60
  -5   1  -1  325.07   23.80
   5  -1   1  337.87   25.60
  -6   1  -1  408.56   31.30
   6  -1   1  381.16   31.70
   6   0  -1  292.77   28.50
  -6   0   1  284.37   26.30
   5   0  -1  487.05   30.60
  -5   0   1  453.55   27.00
  -5   0   1  421.76   24.60
   4   0  -1  784.62   35.00
  -4   0   1  715.53   31.40
  -4   0   1  736.13   30.80
   3   0  -1 1758.82   51.49
   3   0  -1 1595.34   56.99
  -3   0   1 1750.52   54.49
  -3   0   1 1662.93   54.69
   2   0  -1 1830.52   55.59
   2   0  -1 1711.43   50.69
  -2   0   1 1696.03   53.29
  -2   0   1 1746.33   53.39
   1   0  -1 2840.62   78.39
   1   0  -1 2924.41   81.39
   1   0  -1 2731.93   79.59
  -1   0   1 2813.42   80.69
   0   0  -1 4930.61  127.99
   0   0  -1 4361.16  127.09
   0   0   1 4641.74  127.19
   0   0   1 4532.75  126.99
  -1   0  -1 2289.87   66.39
   1   0   1 2339.87   66.79
   1   0   1 2307.97   66.19
  -2   0  -1 1088.59   32.40
  -2   0  -1 1034.00   34.70
   2   0   1 1041.90   33.70
   2   0   1 1046.60   35.50
  -3   0  -1 1039.00   33.10
  -3   0  -1 1025.30   36.20
   3   0   1  930.81   36.70
   3   0   1  972.20   33.90
  -4   0  -1 1257.37   43.90
  -4   0  -1 1340.37   48.30
   4   0   1 1303.67   49.80
   4   0   1 1369.96   45.20
  -5   0  -1  312.07   23.40
   5   0   1  370.66   26.30
  -6   0  -1  422.46   31.40
   6   0   1  485.75   34.00
   6  -1  -1  364.56   31.20
  -6   1   1  381.46   29.60
   5  -1  -1  376.36   26.80
  -5   1   1  330.07   24.60
  -5   1   1  324.17   22.10
   4  -1  -1 1066.29   43.50
  -4   1   1 1089.19   40.10
  -4   1   1 1038.40   41.50
   3  -1  -1 1712.83   56.79
  -3   1   1 1567.34   54.49
  -3   1   1 1671.93   54.09
   2  -1  -1 2491.85   73.99
   2  -1  -1 2469.75   75.89
  -2   1   1 2533.35   74.89
   1  -1  -1 1547.15   46.50
   1  -1  -1 1570.34   46.10
  -1   1   1 1525.65   47.20
   0  -1  -1 3733.63  113.29
   0  -1  -1 4127.39  113.09
   0   1   1 4244.78  112.99
  -1  -1  -1 1165.48   35.70
  -1  -1  -1 1131.79   34.90
   1   1   1 1131.79   36.40
   1   1   1 1201.28   34.80
  -2  -1  -1 1706.93   51.59
  -2  -1  -1 1673.43   52.89
   2   1   1 1701.13   53.59
   2   1   1 1766.92   53.39
  -3  -1  -1  858.41   31.90
  -3  -1  -1  863.51   30.00
   3   1   1  827.22   31.80
   3   1   1  849.41   32.60
  -4  -1  -1 1559.74   51.19
  -4  -1  -1 1424.36   47.60
   4   1   1 1333.57   51.79
   4   1   1 1327.47   49.20
  -5  -1  -1  352.96   24.10
   5   1   1  308.77   24.80
  -6  -1  -1  334.87   28.60
   6   1   1  348.47   30.30
   6  -2  -1  400.06   32.00
  -6   2   1  383.06   31.40
   5  -2  -1  264.67   23.60
  -5   2   1  254.07   22.80
  -5   2   1  275.57   21.30
   4  -2  -1 1044.40   43.70
  -4   2   1 1059.59   42.80
  -4   2   1 1073.89   41.50
   3  -2  -1 2200.38   69.59
   3  -2  -1 2072.09   66.39
  -3   2   1 2053.09   67.59
   2  -2  -1 2129.79   65.59
   2  -2  -1 2081.79   64.39
  -2   2   1 2115.69   66.39
   1  -2  -1  540.15   18.30
   1  -2  -1  484.65   18.80
  -1   2   1  490.35   20.60
  -1   2   1  487.05   16.90
   0  -2  -1 2555.44   74.09
   0  -2  -1 2403.76   73.69
   0   2   1 2578.54   73.59
  -1  -2  -1 3088.19   88.49
  -1  -2  -1 2920.51   88.19
   1   2   1 3059.99   89.59
  -2  -2  -1 1527.75   48.50
  -2  -2  -1 1499.25   48.80
   2   2   1 1560.44   48.00
   2   2   1 1519.95   50.49
  -3  -2  -1  620.64   24.80
  -3  -2  -1  580.74   24.80
   3   2   1  579.84   26.10
   3   2   1  548.15   24.60
  -4  -2  -1 1046.10   40.80
  -4  -2  -1 1045.10   39.60
   4   2   1 1099.39   42.70
   4   2   1 1047.20   42.20
  -5  -2  -1  295.97   23.10
   5   2   1  292.27   22.90
   5   2   1  289.87   24.40
  -6  -2  -1  242.48   25.80
   6  -3  -1  419.16   34.30
  -6   3   1  416.66   32.50
   5  -3  -1  240.98   25.00
  -5   3   1  267.77   24.40
  -5   3   1  236.18   23.00
   4  -3  -1 1138.79   46.90
   4  -3  -1 1132.89   43.60
  -4   3   1 1141.49   45.20
   3  -3  -1 1107.19   41.40
   3  -3  -1 1183.88   43.50
  -3   3   1 1184.98   44.40
   2  -3  -1 1702.53   56.49
   2  -3  -1 1703.53   56.59
  -2   3   1 1805.42   52.39
  -2   3   1 1907.71   60.39
   1  -3  -1  252.07   14.00
   1  -3  -1  237.78   11.30
   1  -3  -1  249.48   13.20
  -1   3   1  237.18   11.70
   0  -3  -1 2662.23   79.29
   0  -3  -1 2592.84   78.49
   0   3   1 2578.54   78.49
  -1  -3  -1 1752.62   55.59
  -1  -3  -1 1711.03   55.89
   1   3   1 1762.12   56.99
  -2  -3  -1 1505.45   48.50
  -2  -3  -1 1417.26   48.40
   2   3   1 1488.35   50.89
   2   3   1 1377.76   45.00
  -3  -3  -1  329.07   19.00
  -3  -3  -1  323.07   18.70
   3   3   1  340.27   17.70
   3   3   1  320.57   20.70
  -4  -3  -1  687.73   32.10
  -4  -3  -1  748.23   32.80
   4   3   1  720.23   35.20
  -5  -3  -1  221.88   22.70
   5   3   1  203.08   24.20
  -6  -3  -1  190.88   23.90
   6  -4  -1  497.65   37.80
  -6   4   1  468.25   36.70
   5  -4  -1  225.78   25.80
  -5   4   1  187.78   23.30
  -5   4   1  172.08   22.70
   4  -4  -1  758.52   34.00
   4  -4  -1  767.52   36.90
  -4   4   1  762.52   38.10
   3  -4  -1  681.73   31.00
   3  -4  -1  773.22   32.60
  -3   4   1  752.62   35.20
   2  -4  -1 1437.96   48.90
   2  -4  -1 1451.15   50.09
  -2   4   1 1535.65   54.79
  -2   4   1 1444.36   46.20
   1  -4  -1  268.87   16.10
   1  -4  -1  256.07   12.30
   1  -4  -1  264.47   15.40
  -1   4   1  259.97   14.30
   0  -4  -1 1325.87   48.50
   0  -4  -1 1439.06   47.90
   0   4   1 1474.25   48.60
  -1  -4  -1 1556.04   53.49
  -1  -4  -1 1525.25   52.99
   1   4   1 1638.74   55.09
  -2  -4  -1  877.71   36.00
  -2  -4  -1  948.81   36.00
   2   4   1  862.31   37.70
  -3  -4  -1  182.88   16.70
  -3  -4  -1  211.28   17.90
   3   4   1  202.78   21.00
  -4  -4  -1  357.16   25.10
  -4  -4  -1  400.76   25.00
   4   4   1  425.96   28.90
  -5  -4  -1  219.28   23.10
   5   4   1  210.08   26.30
   6  -5  -1  409.46   35.80
  -6   5   1  353.76   35.10
   5  -5  -1  177.38   22.40
   5  -5  -1  139.89   21.70
  -5   5   1   94.19   21.20
   4  -5  -1  665.63   33.30
   4  -5  -1  670.63   34.70
  -4   5   1  634.44   38.30
   3  -5  -1  296.17   20.30
   3  -5  -1  245.08   19.20
  -3   5   1  276.87   25.30
   2  -5  -1 1464.05   48.30
   2  -5  -1 1364.36   50.49
  -2   5   1 1431.56   56.39
  -2   5   1 1381.46   47.30
   1  -5  -1  281.07   17.80
   1  -5  -1  297.47   18.90
  -1   5   1  262.67   17.10
   0  -5  -1 1402.46   52.39
   0  -5  -1 1458.35   50.69
   0   5   1 1442.06   51.59
  -1  -5  -1  444.96   23.70
  -1  -5  -1  457.65   25.10
   1   5   1  480.55   26.30
  -2  -5  -1  698.53   31.90
  -2  -5  -1  664.73   32.60
   2   5   1  636.04   33.80
  -3  -5  -1  151.18   19.00
  -3  -5  -1  125.59   16.40
   3   5   1  174.08   22.20
  -4  -5  -1  313.07   25.70
  -4  -5  -1  352.66   28.20
   4   5   1  281.17   29.20
   5   5   1  141.39   24.70
   5  -6  -1  114.89   21.00
   5  -6  -1  113.89   20.50
  -5   6   1   97.99   26.00
   4  -6  -1  449.36   29.10
   4  -6  -1  432.56   28.80
  -4   6   1  438.66   37.20
   3  -6  -1  184.08   20.10
  -3   6   1  204.78   26.80
   2  -6  -1 1345.27   51.09
  -2   6   1 1373.66   58.59
  -2   6   1 1310.67   48.60
   1  -6  -1  150.48   16.30
   1  -6  -1  127.79   16.00
  -1   6   1  134.09   16.00
   0  -6  -1  795.62   37.70
   0  -6  -1  722.13   34.00
   0   6   1  793.42   36.40
  -1  -6  -1  139.09   18.00
  -1  -6  -1  153.68   17.30
   1   6   1  139.59   19.70
  -2  -6  -1  667.53   33.40
  -2  -6  -1  677.93   35.60
   2   6   1  598.84   36.60
  -3  -6  -1  114.59   19.80
  -3  -6  -1   96.89   24.00
   3   6   1  126.69   22.40
  -4  -6  -1  259.07   29.20
   4   6   1  289.97   32.40
   5  -7  -1  147.09   22.80
  -5   7   1  135.59   31.90
   4  -7  -1  356.66   28.30
  -4   7   1  328.57   39.30
   3  -7  -1  159.18   20.50
  -3   7   1  179.28   28.70
   2  -7  -1  454.35   28.50
  -2   7   1  464.05   37.90
   1  -7  -1  156.78   20.50
   1  -7  -1  165.78   19.30
  -1   7   1  183.18   21.10
   0  -7  -1  443.36   30.90
   0  -7  -1  364.06   25.50
   0   7   1  421.36   30.60
  -1  -7  -1  123.49   20.10
  -1  -7  -1  117.79   17.80
   1   7   1  107.49   19.90
  -2  -7  -1  392.36   32.50
   2   7   1  405.36   33.80
  -3  -7  -1  123.29   23.20
   3   7   1   98.89   24.00
   4  -8  -1  167.28   24.60
  -4   8   1  181.18   36.30
   3  -8  -1   55.59   17.20
  -3   8   1   89.19   28.70
   2  -8  -1  296.47   28.20
  -2   8   1  270.47   35.80
   1  -8  -1  129.99   23.00
   1  -8  -1  129.89   18.90
  -1   8   1  155.48   23.90
   0  -8  -1  278.67   26.40
   0  -8  -1  261.27   29.20
   0   8   1  236.08   29.20
  -1  -8  -1  137.09   26.00
   1   8   1   63.99   21.70
  -2  -8  -1  227.78   30.20
   2   8   1  181.48   29.20
  -3   9   1   46.90   30.30
   2  -9  -1  139.79   23.40
  -2   9   1  154.18   32.90
   1  -9  -1   98.39   24.70
   1  -9  -1   84.59   19.30
   0  -9  -1  100.09   24.70
   0   9   1  136.89   28.70
   1   9   1   34.00   24.00
   1   9  -2  131.29   28.40
  -1  -9   2  175.98   28.10
   0   9  -2  192.28   30.60
   0  -9   2  159.98   26.40
  -1   9  -2  170.48   28.10
   1  -9   2  159.98   26.80
   2  -9   2   52.49   20.00
  -3   9  -2  119.59   30.90
   3   8  -2  125.89   26.60
  -3  -8   2  119.09   25.00
   2   8  -2  101.09   23.90
  -2  -8   2  132.49   23.50
   1   8  -2  221.08   29.10
  -1  -8   2  208.48   26.50
   0   8  -2  264.47   30.10
   0  -8   2  265.97   28.60
  -1   8  -2  248.78   27.60
   1  -8   2  255.17   27.40
  -2   8  -2   77.39   18.10
   2  -8   2   94.49   14.90
   2  -8   2   87.59   17.90
  -3   8  -2  298.07   35.10
   3  -8   2  300.07   24.00
   4  -8   2  152.68   21.30
   4   7  -2  144.99   27.30
  -4  -7   2  166.08   26.60
   3   7  -2  166.78   24.70
  -3  -7   2  188.18   25.10
   2   7  -2  239.08   26.90
  -2  -7   2  214.78   25.40
   1   7  -2  179.28   23.30
  -1  -7   2  246.98   23.80
   0   7  -2  524.25   31.80
   0  -7   2  407.16   28.40
  -1   7  -2  364.86   26.40
   1  -7   2  374.56   21.20
   1  -7   2  392.16   27.20
  -2   7  -2  272.27   22.70
   2  -7   2  283.77   23.30
   2  -7   2  306.87   20.20
  -3   7  -2  409.96   34.00
   3  -7   2  330.07   32.60
   3  -7   2  457.25   26.00
   4  -7   2  275.57   25.10
   4  -7   2  241.18   23.50
  -5   7  -2  196.18   28.00
   5  -7   2  230.78   27.10
   4   6  -2  213.38   29.00
  -4  -6   2  207.38   25.70
   3   6  -2  333.17   29.20
  -3  -6   2  366.96   27.80
   2   6  -2  222.08   24.40
  -2  -6   2  153.18   19.20
   1   6  -2  422.56   26.90
   0   6  -2  597.54   30.70
   0  -6   2  588.64   24.70
   0  -6   2  592.14   29.50
  -1   6  -2 1021.20   40.90
  -1   6  -2 1129.19   43.10
   1  -6   2 1119.39   43.70
   1  -6   2 1043.20   38.40
  -2   6  -2  237.48   18.60
   2  -6   2  247.68   16.90
   2  -6   2  232.08   18.40
   2  -6   2  220.48   17.40
  -3   6  -2  468.15   32.10
   3  -6   2  577.44   27.90
   3  -6   2  602.94   30.10
   4  -6   2  295.17   24.30
  -5   6  -2  393.66   33.10
   5  -6   2  391.16   31.40
  -6   6  -2   70.89   21.20
   6  -6   2   59.29   20.00
   5   5  -2  229.08   28.40
  -5  -5   2  194.98   25.40
   4   5  -2  108.79   19.50
  -4  -5   2  177.98   22.40
   3   5  -2  619.64   33.70
  -3  -5   2  634.04   32.60
   2   5  -2  287.37   20.40
   2   5  -2  329.17   22.70
  -2  -5   2  303.07   20.90
   1   5  -2  984.60   40.50
   1   5  -2 1017.00   36.10
  -1  -5   2 1044.10   39.80
  -1  -5   2  971.30   34.40
   0   5  -2  600.04   25.20
   0   5  -2  603.24   27.20
   0  -5   2  570.34   26.70
   0  -5   2  579.44   22.50
  -1   5  -2 1588.94   54.69
   1  -5   2 1651.93   55.69
   1  -5   2 1647.74   51.99
   1  -5   2 1605.44   52.29
   2  -5   2  272.97   14.70
   2  -5   2  269.87   16.80
   2  -5   2  291.97   16.40
   2  -5   2  268.07   17.20
  -3   5  -2  977.60   40.50
   3  -5   2  968.90   37.10
   3  -5   2  877.51   32.40
   3  -5   2  939.41   39.20
  -4   5  -2  317.27   25.30
   4  -5   2  305.27   23.70
  -5   5  -2  640.64   38.00
   5  -5   2  638.64   37.90
  -6   5  -2   93.59   22.30
   6  -5   2  113.59   21.70
  -5  -4   2  276.37   26.40
   4   4  -2  155.28   19.70
   4   4  -2  143.89   18.00
  -4  -4   2  171.88   19.70
   3   4  -2  966.10   41.10
   3   4  -2  947.71   39.30
  -3  -4   2 1044.30   40.70
   2   4  -2  817.32   31.50
   2   4  -2  815.62   34.30
  -2  -4   2  809.22   33.50
  -2  -4   2  799.42   29.10
   1   4  -2 1215.28   40.90
   1   4  -2 1204.88   43.30
  -1  -4   2 1194.98   42.70
   0   4  -2  667.13   27.50
   0   4  -2  706.63   27.30
   0  -4   2  678.43   23.50
   0  -4   2  679.03   27.20
   1  -4   2 2259.37   67.99
   1  -4   2 2212.68   70.09
   1  -4   2 2286.27   67.89
   1  -4   2 2287.87   70.39
   2  -4   2  652.93   25.50
   2  -4   2  652.23   23.70
   2  -4   2  635.64   25.70
   2  -4   2  654.03   27.30
  -3   4  -2  931.61   37.00
   3  -4   2  967.00   32.40
   3  -4   2  985.90   39.20
  -4   4  -2  472.45   27.90
   4  -4   2  473.85   28.10
  -5   4  -2  899.71   42.80
   5  -4   2  804.82   42.40
  -6   4  -2  132.99   23.60
   6  -4   2  143.39   24.60
   6   3  -2  171.18   27.00
   5   3  -2  454.75   31.80
  -5  -3   2  430.36   28.70
   4   3  -2  204.98   19.00
   4   3  -2  210.18   20.10
  -4  -3   2  176.08   14.90
  -4  -3   2  182.08   17.50
   3   3  -2 1659.23   56.49
   3   3  -2 1671.03   57.29
  -3  -3   2 1618.84   51.89
  -3  -3   2 1559.04   55.59
   2   3  -2 1011.10   36.60
   2   3  -2  976.10   36.90
  -2  -3   2 1016.50   37.00
  -2  -3   2 1028.60   32.90
   1   3  -2 2064.69   63.09
   1   3  -2 2030.10   63.59
  -1  -3   2 2026.30   63.39
   0   3  -2  336.87   16.30
   0  -3   2  328.37   14.40
   0  -3   2  363.96   15.50
   1  -3   2 3053.19   88.39
   1  -3   2 2901.61   89.39
   1  -3   2 3121.39   90.99
   1  -3   2 3195.28   88.79
  -2   3  -2 1048.70   36.50
   2  -3   2 1019.70   38.10
   2  -3   2 1112.09   34.50
   2  -3   2 1099.29   36.20
  -3   3  -2 1773.82   59.19
  -3   3  -2 1661.63   55.09
   3  -3   2 1706.93   52.79
   3  -3   2 1790.32   60.09
  -4   3  -2  458.85   25.70
   4  -3   2  392.56   24.70
  -5   3  -2  904.11   42.60
   5  -3   2  865.61   42.60
  -6   3  -2  200.68   25.40
   6  -3   2  189.68   25.40
   6   2  -2  219.38   28.70
   5   2  -2  659.73   36.80
  -5  -2   2  598.34   29.60
  -5  -2   2  583.04   31.20
   4   2  -2  260.37   20.40
   4   2  -2  269.37   17.40
  -4  -2   2  286.67   17.40
  -4  -2   2  253.67   18.40
   3   2  -2 2241.88   70.89
   3   2  -2 1990.40   66.99
  -3  -2   2 2126.99   65.39
  -3  -2   2 2147.89   68.49
   2   2  -2 1197.38   38.80
   2   2  -2 1154.98   40.10
  -2  -2   2 1108.59   38.80
  -2  -2   2 1120.99   35.60
   1   2  -2 1721.63   52.39
   1   2  -2 1760.32   53.29
  -1  -2   2 1629.44   52.09
   0   2  -2  254.87   12.80
   0  -2   2  261.27   10.80
   0  -2   2  262.17   11.30
  -1   2  -2 3725.73  122.59
   1  -2   2 4482.25  121.89
   1  -2   2 4664.73  122.29
   1  -2   2 4488.75  124.59
  -2   2  -2 2432.66   72.59
   2  -2   2 2251.07   73.29
   2  -2   2 2443.86   69.49
  -3   2  -2 1418.56   48.10
   3  -2   2 1306.27   42.90
   3  -2   2 1406.46   49.20
  -4   2  -2  494.35   26.40
   4  -2   2  496.75   20.60
   4  -2   2  489.85   26.80
  -5   2  -2  815.42   39.10
   5  -2   2  827.62   40.40
  -6   2  -2  274.07   28.40
   6  -2   2  277.17   29.40
   6   1  -2  240.58   29.80
  -6  -1   2  258.17   25.60
   5   1  -2  703.73   39.60
  -5  -1   2  782.72   35.30
  -5  -1   2  823.32   36.50
   4   1  -2  296.07   21.40
  -4  -1   2  275.87   17.80
  -4  -1   2  304.67   18.70
   3   1  -2 1906.71   59.59
   3   1  -2 1915.81   64.89
  -3  -1   2 1959.10   61.89
  -3  -1   2 1952.10   60.39
   2   1  -2  415.76   19.00
   2   1  -2  407.86   16.10
  -2  -1   2  425.16   18.20
  -2  -1   2  415.86   16.30
   1   1  -2 4187.08  116.79
  -1  -1   2 4041.80  115.49
  -1  -1   2 3958.70  113.59
   0   1  -2  539.35   20.20
   0  -1   2  538.65   17.70
   0  -1   2  583.04   17.90
  -1   1  -2 6598.34  182.78
   1  -1   2 6318.17  182.28
   1  -1   2 6776.22  184.18
  -2   1  -2 1402.66   45.80
   2  -1   2 1439.46   47.10
   2  -1   2 1474.95   44.30
  -3   1  -2 2149.88   69.49
   3  -1   2 2242.28   71.39
   3  -1   2 2200.58   66.79
  -4   1  -2  382.46   22.10
   4  -1   2  345.77   22.20
   4  -1   2  366.36   18.30
  -5   1  -2  818.92   38.20
   5  -1   2  775.52   39.00
  -6   1  -2  294.07   28.90
   6  -1   2  295.87   28.30
   6   0  -2  218.28   27.90
  -6   0   2  216.88   24.30
   5   0  -2  744.03   38.60
  -5   0   2  745.43   34.30
  -5   0   2  686.03   34.10
   4   0  -2  308.47   21.90
  -4   0   2  276.77   18.60
  -4   0   2  291.07   18.60
   3   0  -2 1989.40   57.49
   3   0  -2 1880.41   65.09
  -3   0   2 1912.61   62.19
  -3   0   2 2008.40   62.09
   2   0  -2  665.73   26.20
   2   0  -2  638.74   23.00
  -2   0   2  690.43   25.20
   1   0  -2 6656.13  181.98
   1   0  -2 6402.46  179.48
  -1   0   2 6316.47  177.98
  -1   0   2 6545.44  181.58
   0   0  -2  469.35   15.90
   0   0  -2  473.65   17.00
   0   0   2  468.95   15.50
   0   0   2  493.95   16.00
  -1   0  -2 9999.00  274.47
   1   0   2 9798.72  274.57
   1   0   2 9962.60  274.77
  -2   0  -2  384.76   17.00
   2   0   2  403.66   17.50
   2   0   2  397.46   16.50
  -3   0  -2 2036.70   63.89
   3   0   2 1877.61   64.29
   3   0   2 2027.80   62.19
  -4   0  -2  332.27   20.30
   4   0   2  256.07   19.40
   4   0   2  301.57   17.70
  -5   0  -2  955.80   42.40
   5   0   2  948.21   43.70
  -6   0  -2  254.17   27.10
   6   0   2  236.48   27.90
   6  -1  -2  145.79   23.20
  -6   1   2  189.88   23.50
   5  -1  -2  550.14   33.50
  -5   1   2  621.94   31.20
  -5   1   2  629.34   32.40
   4  -1  -2  713.63   34.00
  -4   1   2  684.83   31.40
  -4   1   2  719.63   31.40
   3  -1  -2 1720.23   58.99
   3  -1  -2 1705.73   55.49
  -3   1   2 1750.62   57.59
   2  -1  -2 1704.03   52.69
   2  -1  -2 1552.74   49.90
  -2   1   2 1574.04   51.79
   1  -1  -2 3705.43  106.79
   1  -1  -2 3796.72  107.29
  -1   1   2 3716.83  103.79
  -1   1   2 3776.42  108.79
   0  -1  -2 2867.41   77.09
   0  -1  -2 2646.74   79.19
   0   1   2 2698.43   78.19
   0   1   2 2685.53   79.29
  -1  -1  -2 2535.15   73.69
  -1  -1  -2 2583.54   75.29
   1   1   2 2603.64   73.59
   1   1   2 2542.75   75.89
  -2  -1  -2  353.46   16.20
  -2  -1  -2  346.27   14.00
   2   1   2  351.66   15.70
   2   1   2  339.17   16.50
  -3  -1  -2 1751.42   55.49
  -3  -1  -2 1799.92   58.89
   3   1   2 1875.41   59.59
   3   1   2 1791.02   59.09
  -4  -1  -2  548.75   27.20
   4   1   2  556.54   27.80
   4   1   2  558.34   27.00
  -5  -1  -2  720.33   35.90
   5   1   2  784.02   38.10
   5   1   2  721.73   34.40
  -6  -1  -2  187.18   24.00
   6   1   2  235.98   27.40
   6  -2  -2  153.78   23.10
  -6   2   2  197.48   24.30
   5  -2  -2  690.23   38.80
  -5   2   2  747.23   36.80
  -5   2   2  714.33   35.80
   4  -2  -2  901.01   39.20
  -4   2   2  845.82   37.40
   3  -2  -2 1499.65   49.90
   3  -2  -2 1397.26   51.99
  -3   2   2 1541.55   52.49
   2  -2  -2 1523.85   50.49
   2  -2  -2 1635.64   51.89
  -2   2   2 1597.74   53.69
   1  -2  -2 1145.39   35.20
   1  -2  -2 1053.29   36.50
  -1   2   2 1089.99   38.70
  -1   2   2 1124.49   34.00
   0  -2  -2 1040.90   34.00
   0  -2  -2  994.80   34.70
   0   2   2 1048.30   33.90
  -1  -2  -2 1917.61   59.39
  -1  -2  -2 1983.70   60.69
   1   2   2 1951.30   60.99
  -2  -2  -2  958.40   34.50
  -2  -2  -2  957.90   33.30
   2   2   2  990.50   32.50
   2   2   2  949.11   35.70
  -3  -2  -2 1296.77   45.60
  -3  -2  -2 1255.87   43.30
   3   2   2 1358.46   45.10
   3   2   2 1263.47   47.10
  -4  -2  -2  528.25   27.00
   4   2   2  526.25   26.70
   4   2   2  507.55   27.50
  -5  -2  -2  489.15   30.00
   5   2   2  515.25   30.50
   5   2   2  519.35   32.70
  -6  -2  -2  138.99   20.50
  -6   3   2  235.68   27.20
   5  -3  -2  820.02   41.20
  -5   3   2  721.73   39.10
  -5   3   2  748.93   39.80
   4  -3  -2  587.74   31.20
   4  -3  -2  575.04   28.00
  -4   3   2  560.24   31.00
   3  -3  -2  848.92   34.30
   3  -3  -2  803.62   35.20
  -3   3   2  984.70   38.90
   2  -3  -2  631.44   25.60
   2  -3  -2  632.74   26.60
  -2   3   2  654.63   21.90
  -2   3   2  673.73   29.80
   1  -3  -2  565.74   21.10
   1  -3  -2  614.04   24.70
  -1   3   2  599.34   27.30
  -1   3   2  634.24   22.60
   0  -3  -2 2716.63   81.99
   0  -3  -2 2662.33   82.09
   0   3   2 2695.63   81.59
  -1  -3  -2 1363.86   47.80
  -1  -3  -2 1430.96   47.30
   1   3   2 1436.86   48.50
  -2  -3  -2 1187.78   42.60
  -2  -3  -2 1220.98   43.40
   2   3   2 1239.28   45.20
  -3  -3  -2  591.84   26.80
  -3  -3  -2  596.94   27.40
   3   3   2  570.04   29.00
  -4  -3  -2  492.45   27.10
   4   3   2  478.05   29.30
  -5  -3  -2  262.07   24.10
   5   3   2  258.97   26.80
  -6  -3  -2  141.79   22.60
   6  -4  -2  220.78   29.30
  -6   4   2  172.78   25.60
   5  -4  -2  544.35   34.60
   5  -4  -2  505.75   31.30
  -5   4   2  513.45   35.20
   4  -4  -2  216.38   22.40
   4  -4  -2  183.28   18.90
  -4   4   2  203.68   23.50
   3  -4  -2  764.22   32.70
   3  -4  -2  697.53   31.90
  -3   4   2  728.73   36.80
   2  -4  -2  962.50   35.00
   2  -4  -2  957.10   37.20
  -2   4   2  957.80   41.70
  -2   4   2  952.60   32.70
   1  -4  -2 1282.27   45.60
   1  -4  -2 1284.87   39.90
  -1   4   2 1269.57   43.30
   0  -4  -2 1356.26   48.20
   0  -4  -2 1367.26   48.40
   0   4   2 1399.96   48.00
  -1  -4  -2  878.41   36.10
  -1  -4  -2  974.50   37.10
   1   4   2  910.81   37.00
  -2  -4  -2  877.41   35.00
  -2  -4  -2  793.02   34.50
   2   4   2  814.72   36.30
  -3  -4  -2  218.58   18.80
  -3  -4  -2  243.58   19.50
   3   4   2  211.58   22.90
  -4  -4  -2  346.57   25.30
   4   4   2  402.56   29.60
  -5  -4  -2  202.08   23.80
   5   4   2  181.18   25.10
   6  -5  -2  118.69   24.50
  -6   5   2  112.09   24.10
   5  -5  -2  316.47   26.90
   5  -5  -2  316.37   29.40
  -5   5   2  342.57   34.90
   4  -5  -2  182.08   21.30
   4  -5  -2  171.88   19.10
  -4   5   2  150.88   24.30
   3  -5  -2 1034.50   41.00
   3  -5  -2 1028.50   42.00
  -3   5   2  958.60   47.10
   2  -5  -2  637.94   30.20
  -2   5   2  631.14   35.60
  -2   5   2  645.24   26.90
   1  -5  -2 1060.69   41.50
   1  -5  -2 1038.20   42.70
  -1   5   2 1054.99   39.70
   0  -5  -2  396.76   23.80
   0  -5  -2  400.86   22.90
   0   5   2  391.36   23.20
  -1  -5  -2  631.34   30.30
  -1  -5  -2  610.14   30.70
   1   5   2  621.84   31.60
  -2  -5  -2  403.36   25.10
  -2  -5  -2  341.57   23.90
   2   5   2  369.36   26.50
  -3  -5  -2  244.98   21.90
  -3  -5  -2  233.38   22.20
   3   5   2  233.68   25.30
  -4  -5  -2  259.67   26.50
   4   5   2  236.58   28.00
   5   5   2  164.78   26.70
   5  -6  -2  230.58   27.60
   5  -6  -2  285.77   28.40
  -5   6   2  278.57   34.80
   4  -6  -2  233.18   25.40
  -4   6   2  314.37   36.70
   3  -6  -2  389.26   26.40
  -3   6   2  433.96   35.80
   2  -6  -2  513.45   29.30
  -2   6   2  579.64   37.30
   1  -6  -2  434.86   25.60
   1  -6  -2  388.06   27.10
  -1   6   2  402.36   24.80
   0  -6  -2  200.68   20.60
   0  -6  -2  172.98   20.10
   0   6   2  221.58   21.50
  -1  -6  -2  361.96   24.70
  -1  -6  -2  335.07   26.70
   1   6   2  338.97   26.90
  -2  -6  -2  449.06   31.00
  -2  -6  -2  462.65   29.30
   2   6   2  442.86   32.30
  -3  -6  -2  197.68   24.90
  -3  -6  -2  172.38   22.30
   3   6   2  214.98   27.10
   4   6   2  184.38   27.80
   5  -7  -2  124.79   22.90
  -5   7   2  109.29   33.80
   4  -7  -2  210.58   25.80
  -4   7   2  191.08   35.80
   3  -7  -2  223.28   24.90
  -3   7   2  200.58   33.00
   2  -7  -2  323.67   25.80
  -2   7   2  308.47   34.20
   1  -7  -2  204.68   24.20
   1  -7  -2  190.18   21.80
  -1   7   2  179.98   21.40
   0  -7  -2  243.18   24.40
   0  -7  -2  202.88   23.90
   0   7   2  227.58   26.20
  -1  -7  -2  316.07   30.00
  -1  -7  -2  302.37   26.10
   1   7   2  246.48   27.70
  -2  -7  -2  337.27   28.40
  -2  -7  -2  310.27   32.50
   2   7   2  275.47   31.80
  -3  -7  -2   80.29   22.00
   3   7   2  153.28   26.40
   4  -8  -2  122.19   24.20
  -4   8   2  156.38   37.90
   3  -8  -2   68.09   17.40
  -3   8   2  113.99   32.60
   2  -8  -2  260.97   27.80
  -2   8   2  295.37   40.80
   1  -8  -2  154.48   21.90
  -1   8   2  128.49   23.40
   0  -8  -2  194.78   23.80
   0  -8  -2  197.78   26.60
   0   8   2  142.49   25.00
  -1  -8  -2  110.79   21.00
  -1  -8  -2  126.19   24.70
   1   8   2  134.59   26.00
  -2  -8  -2  127.79   26.50
   2   8   2  147.59   27.00
   2  -9  -2  217.18   27.80
  -2   9   2  119.99   33.80
   1  -9  -2   71.79   19.50
  -1   9   2   31.80   26.10
   0  -9  -2  134.89   29.50
   0   9   2  100.09   26.30
   2   9  -3   96.49   26.00
  -2  -9   3  157.38   28.40
   1   9  -3  108.09   24.60
  -1  -9   3   66.49   20.60
   0   9  -3  304.67   36.20
   0  -9   3  207.98   27.70
  -1   9  -3   45.10   20.60
   1  -9   3   47.10   19.70
  -2   9  -3  211.08   28.90
   2  -9   3  187.58   25.70
  -3   9  -3   69.49   30.00
   3   8  -3   49.99   21.80
  -3  -8   3   50.49   20.10
   2   8  -3  247.88   30.90
  -2  -8   3  219.18   26.70
   1   8  -3  104.79   22.60
  -1  -8   3  143.99   22.60
   0   8  -3  318.17   32.20
   0  -8   3  375.96   30.60
  -1   8  -3  144.29   22.10
   1  -8   3  139.99   21.50
  -2   8  -3  284.87   27.30
   2  -8   3  247.58   25.50
  -3   8  -3  158.88   28.80
   3  -8   3  174.28   19.10
   4   7  -3  162.68   27.30
  -4  -7   3  145.69   26.20
   3   7  -3  155.28   24.40
  -3  -7   3  132.49   23.20
   2   7  -3  376.46   30.60
  -2  -7   3  353.56   29.80
   1   7  -3  126.99   19.50
  -1  -7   3  129.59   18.60
   0   7  -3  537.25   32.30
   0  -7   3  530.25   30.80
  -1   7  -3  196.68   21.30
   1  -7   3  156.58   19.20
  -2   7  -3  494.45   30.60
  -2   7  -3  503.45   30.30
   2  -7   3  522.15   25.40
   2  -7   3  502.95   29.60
  -3   7  -3  249.88   27.80
   3  -7   3  267.37   20.30
   3  -7   3  271.67   23.10
  -4   7  -3  400.66   32.60
   4  -7   3  463.45   30.90
  -5   7  -3   99.09   21.80
   5  -7   3   86.49   19.60
   4   6  -3  207.18   27.10
  -4  -6   3  243.98   28.10
   3   6  -3  216.48   26.30
  -3  -6   3  239.78   25.40
   2   6  -3  446.76   29.40
  -2  -6   3  450.55   27.80
   1   6  -3  141.29   18.10
  -1  -6   3  167.38   18.20
   0   6  -3 1025.10   40.50
   0   6  -3 1042.50   42.90
  -1   6  -3  491.45   26.30
   1  -6   3  453.45   21.10
   1  -6   3  484.25   25.80
   2  -6   3  985.70   40.70
   2  -6   3 1007.60   37.80
   2  -6   3 1071.79   42.10
   2  -6   3 1015.10   37.70
  -3   6  -3  172.48   20.70
   3  -6   3  190.28   14.50
   3  -6   3  193.98   16.70
   3  -6   3  185.38   18.60
  -4   6  -3  666.73   37.20
   4  -6   3  697.83   36.80
  -5   6  -3  160.48   23.90
   5  -6   3  195.88   25.20
  -6   6  -3  189.68   28.40
   6  -6   3  215.38   28.50
  -5  -5   3  122.89   22.50
   4   5  -3  244.18   26.80
  -4  -5   3  258.57   26.90
   3   5  -3  368.16   26.90
   3   5  -3  406.66   27.90
  -3  -5   3  421.86   26.90
   2   5  -3  477.15   24.50
   2   5  -3  560.64   28.80
  -2  -5   3  508.75   27.20
   1   5  -3  647.34   27.50
   1   5  -3  606.44   29.10
  -1  -5   3  608.74   28.30
   0   5  -3 1142.69   42.70
   0   5  -3 1167.58   43.60
   0  -5   3 1146.79   42.60
  -1   5  -3 1301.07   47.00
   1  -5   3 1282.17   41.90
   1  -5   3 1262.97   43.20
   1  -5   3 1286.17   45.50
   2  -5   3  672.43   30.90
   2  -5   3  726.83   27.80
   2  -5   3  710.13   27.10
   2  -5   3  716.63   29.30
  -3   5  -3  320.47   21.60
   3  -5   3  322.47   21.60
   3  -5   3  288.77   16.00
  -4   5  -3  616.84   33.90
   4  -5   3  690.33   35.40
  -5   5  -3  313.77   28.10
   5  -5   3  334.27   28.80
  -6   5  -3  257.07   30.20
   6  -5   3  232.58   28.60
   5   4  -3  118.29   22.40
  -5  -4   3  126.09   19.30
   4   4  -3  328.87   24.80
   4   4  -3  336.17   24.40
  -4  -4   3  301.87   23.90
   3   4  -3  761.72   35.00
   3   4  -3  850.31   36.40
  -3  -4   3  776.32   34.90
   2   4  -3 1086.49   40.40
   2   4  -3 1084.49   41.60
  -2  -4   3 1059.09   40.60
   1   4  -3  960.60   36.00
   1   4  -3 1006.60   37.10
  -1  -4   3  923.31   35.80
   0   4  -3  704.13   30.00
   0  -4   3  751.32   28.60
   0  -4   3  782.12   27.90
   1  -4   3 1984.30   63.99
   1  -4   3 2048.99   62.99
   1  -4   3 2144.29   66.39
   1  -4   3 2052.69   61.59
   2  -4   3  713.13   25.50
   2  -4   3  677.63   25.80
   2  -4   3  664.43   29.00
  -3   4  -3  415.16   23.10
  -3   4  -3  401.76   21.00
   3  -4   3  443.56   18.70
   3  -4   3  416.26   23.50
  -4   4  -3  689.03   34.10
   4  -4   3  678.93   34.20
  -5   4  -3  663.33   37.70
   5  -4   3  674.83   37.60
  -6   4  -3  246.28   29.20
   6  -4   3  360.26   31.30
   6   3  -3  228.48   30.40
  -6  -3   3  244.98   39.60
   5   3  -3  265.97   26.20
  -5  -3   3  233.98   24.20
   4   3  -3  584.84   29.40
   4   3  -3  578.54   31.80
  -4  -3   3  597.54   30.20
   3   3  -3 1109.09   43.10
   3   3  -3  992.10   40.00
  -3  -3   3 1069.79   41.00
  -3  -3   3 1099.69   36.00
   2   3  -3 1299.47   45.20
   2   3  -3 1281.67   44.30
  -2  -3   3 1226.58   44.10
   1   3  -3  918.71   33.80
  -1  -3   3  893.91   30.80
  -1  -3   3  903.51   32.50
   0   3  -3  406.96   19.80
   0  -3   3  409.76   17.50
   0  -3   3  429.56   16.80
   1  -3   3 3231.48   98.09
   1  -3   3 3042.70   94.69
   1  -3   3 3541.35   95.29
  -2   3  -3  688.13   27.40
   2  -3   3  705.83   24.60
   2  -3   3  715.83   29.00
   2  -3   3  744.13   25.50
  -3   3  -3 1345.27   48.30
   3  -3   3 1445.76   50.49
   3  -3   3 1310.57   43.70
  -4   3  -3  575.24   29.80
   4  -3   3  575.24   30.00
   4  -3   3  545.65   23.10
  -5   3  -3  905.21   42.20
   5  -3   3  860.51   43.10
  -6   3  -3  211.48   25.90
   6  -3   3  207.18   27.60
   6   2  -3  290.37   32.10
  -6  -2   3  259.57   27.50
   5   2  -3  369.06   29.10
  -5  -2   3  423.76   27.10
   4   2  -3  548.35   30.70
   4   2  -3  605.34   31.80
  -4  -2   3  568.74   25.50
  -4  -2   3  618.34   29.40
   3   2  -3  635.24   25.70
   3   2  -3  623.54   29.40
  -3  -2   3  601.54   27.10
  -3  -2   3  615.84   23.70
   2   2  -3 1891.11   59.69
   2   2  -3 1852.41   56.39
  -2  -2   3 1659.53   57.19
   1   2  -3  876.91   32.20
  -1  -2   3  909.31   30.70
  -1  -2   3  873.61   28.80
   0   2  -3  681.73   26.50
   0  -2   3  672.23   22.70
   0  -2   3  645.44   22.50
  -1   2  -3 4982.10  144.59
   1  -2   3 5158.58  147.89
   1  -2   3 5273.17  144.89
  -2   2  -3 2267.87   68.69
   2  -2   3 2212.28   66.59
   2  -2   3 2230.58   70.29
  -3   2  -3 1581.84   53.59
   3  -2   3 1586.84   55.29
   3  -2   3 1571.04   50.09
  -4   2  -3  308.87   20.30
   4  -2   3  244.38   19.50
   4  -2   3  251.07   15.20
  -5   2  -3 1045.90   46.20
   5  -2   3 1072.49   47.80
  -6   2  -3  228.08   26.90
   6  -2   3  203.38   25.90
   6   1  -3  340.97   31.40
  -6  -1   3  317.77   29.00
   5   1  -3  472.05   31.80
  -5  -1   3  431.36   27.20
  -5  -1   3  468.75   26.10
   4   1  -3  459.95   27.60
  -4  -1   3  458.85   24.50
  -4  -1   3  477.95   22.90
   3   1  -3  379.46   16.80
   3   1  -3  398.26   22.20
  -3  -1   3  380.46   18.00
  -3  -1   3  404.36   20.70
   2   1  -3 2850.91   84.19
   2   1  -3 2698.83   78.89
  -2  -1   3 2702.23   82.09
  -2  -1   3 2604.34   78.69
   1   1  -3 1989.70   60.09
  -1  -1   3 1849.61   55.49
  -1  -1   3 1915.11   58.09
   0   1  -3 4576.64  141.29
   0  -1   3 5151.28  137.89
   0  -1   3 5032.00  137.89
  -1   1  -3 2469.35   74.09
   1  -1   3 2546.65   74.49
   1  -1   3 2657.53   76.49
  -2   1  -3 2543.05   76.99
   2  -1   3 2597.44   78.39
   2  -1   3 2514.15   75.79
  -3   1  -3  917.61   35.20
   3  -1   3  919.41   33.10
   3  -1   3  936.51   36.50
  -4   1  -3  411.26   23.40
   4  -1   3  371.76   23.00
   4  -1   3  418.06   20.80
  -5   1  -3  726.53   37.10
   5  -1   3  821.72   39.20
  -6   1  -3  263.97   27.80
   6  -1   3  249.68   27.70
   6   0  -3  246.48   29.50
  -6   0   3  247.78   26.20
  -6   0   3  310.97   27.60
   5   0  -3  769.42   40.10
  -5   0   3  691.23   35.70
  -5   0   3  719.93   34.70
   4   0  -3  333.47   22.80
  -4   0   3  290.47   20.20
  -4   0   3  317.07   19.70
   3   0  -3  964.30   37.90
  -3   0   3  900.71   35.30
   2   0  -3 3418.66   99.39
   2   0  -3 3446.06  103.89
  -2   0   3 3484.25  102.69
   1   0  -3 5736.33  161.18
   1   0  -3 5578.04  157.88
  -1   0   3 5712.33  160.68
  -1   0   3 5604.34  156.48
   0   0  -3  870.61   28.00
   0   0  -3  891.01   29.70
   0   0   3  842.62   27.40
   0   0   3  886.61   28.10
  -1   0  -3  945.71   31.10
   1   0   3  968.60   31.70
   1   0   3  967.00   31.50
  -2   0  -3 1673.83   53.29
   2   0   3 1738.23   53.89
   2   0   3 1637.04   53.09
  -3   0  -3 1141.99   43.60
   3   0   3 1294.37   43.80
   3   0   3 1338.07   45.50
  -4   0  -3  402.66   22.90
   4   0   3  396.36   23.50
   4   0   3  372.56   21.00
  -5   0  -3  819.22   38.80
   5   0   3  823.12   36.00
   5   0   3  787.32   39.10
  -6   0  -3  338.77   31.50
   6   0   3  255.67   27.80
   6  -1  -3  180.78   27.50
  -6   1   3  224.28   25.00
  -6   1   3  183.88   23.40
   5  -1  -3  850.21   44.40
  -5   1   3  943.81   41.70
  -5   1   3  968.00   41.90
   4  -1  -3  410.46   25.30
  -4   1   3  366.06   23.40
  -4   1   3  419.56   23.90
   3  -1  -3 1748.03   61.19
   3  -1  -3 1804.12   57.19
  -3   1   3 1762.32   60.29
   2  -1  -3 1473.05   46.30
   2  -1  -3 1380.26   48.60
  -2   1   3 1509.15   49.40
   1  -1  -3 3594.94  100.69
   1  -1  -3 3360.26  100.69
  -1   1   3 3418.06  102.49
  -1   1   3 3508.65   97.49
   0  -1  -3  350.76   13.60
   0  -1  -3  302.37   14.80
   0   1   3  315.67   13.70
   0   1   3  335.07   15.00
  -1  -1  -3 1194.68   38.40
  -1  -1  -3 1161.68   36.00
   1   1   3 1123.99   36.40
   1   1   3 1193.28   38.70
  -2  -1  -3 1394.86   46.20
   2   1   3 1371.86   46.90
   2   1   3 1426.06   45.30
  -3  -1  -3 1790.72   59.99
   3   1   3 1801.82   60.59
   3   1   3 1848.12   59.89
  -4  -1  -3  506.15   26.20
   4   1   3  443.76   25.30
   4   1   3  511.05   26.30
  -5  -1  -3  528.95   31.40
   5   1   3  555.74   30.70
   5   1   3  552.34   31.60
  -6  -1  -3  227.58   26.20
   6   1   3  189.28   28.50
   6  -2  -3  200.98   27.30
  -6   2   3  167.88   22.90
  -6   2   3  175.38   23.80
   5  -2  -3  925.31   46.10
  -5   2   3 1023.50   45.20
  -5   2   3  989.20   44.70
   4  -2  -3  305.47   19.30
   4  -2  -3  252.17   21.20
  -4   2   3  278.17   22.30
   3  -2  -3 1190.78   42.00
   3  -2  -3 1160.38   44.30
  -3   2   3 1145.99   44.90
   2  -2  -3  571.34   24.40
   2  -2  -3  577.34   23.80
  -2   2   3  564.14   26.80
   1  -2  -3 3852.81  110.49
   1  -2  -3 3879.51  112.59
  -1   2   3 3818.02  108.99
  -1   2   3 3778.72  114.59
   0  -2  -3  301.17   16.20
   0   2   3  340.27   17.20
   0   2   3  320.67   15.20
  -1  -2  -3 2100.79   65.39
  -1  -2  -3 2033.10   63.39
   1   2   3 2082.09   65.39
  -2  -2  -3 1320.17   44.20
  -2  -2  -3 1276.67   41.70
   2   2   3 1255.77   45.10
   2   2   3 1211.58   40.50
  -3  -2  -3 1609.54   56.09
  -3  -2  -3 1674.73   53.29
   3   2   3 1669.43   57.99
   3   2   3 1601.14   54.29
  -4  -2  -3  255.67   20.30
   4   2   3  262.17   21.20
   4   2   3  258.07   19.40
  -5  -2  -3  354.16   26.40
   5   2   3  368.86   27.50
  -6  -2  -3  145.99   22.50
   6  -3  -3  135.29   23.80
  -6   3   3  159.08   24.70
  -6   3   3  163.28   25.00
   5  -3  -3  623.54   38.00
  -5   3   3  662.23   38.40
   4  -3  -3  216.78   22.40
   4  -3  -3  197.28   18.00
  -4   3   3  229.08   23.60
   3  -3  -3 1318.87   48.80
   3  -3  -3 1267.47   47.20
  -3   3   3 1338.47   51.69
   2  -3  -3  377.86   20.20
   2  -3  -3  381.96   19.20
  -2   3   3  434.36   24.00
   1  -3  -3 2670.43   80.29
   1  -3  -3 2764.22   84.99
  -1   3   3 2782.62   88.09
  -1   3   3 2766.42   81.59
   0  -3  -3  565.54   24.50
   0  -3  -3  565.64   25.10
   0   3   3  564.94   23.80
  -1  -3  -3 2212.68   72.09
  -1  -3  -3 2375.16   74.09
   1   3   3 2302.17   73.29
  -2  -3  -3  462.35   21.60
  -2  -3  -3  407.16   22.60
   2   3   3  444.96   23.70
  -3  -3  -3  943.61   39.20
  -3  -3  -3  998.80   37.90
   3   3   3  990.40   42.00
  -4  -3  -3  169.48   19.80
   4   3   3  156.38   20.70
  -5  -3  -3  303.97   26.80
   5   3   3  327.67   31.30
   6  -4  -3  122.39   23.20
  -6   4   3  112.09   24.70
  -6   4   3   84.69   22.00
   5  -4  -3  517.55   31.40
   5  -4  -3  466.65   33.60
  -5   4   3  472.95   36.20
   4  -4  -3  303.97   23.00
   4  -4  -3  320.67   24.30
  -4   4   3  320.07   31.00
   3  -4  -3 1026.90   40.50
   3  -4  -3  953.40   40.10
  -3   4   3 1018.80   46.50
   2  -4  -3  508.65   25.20
   2  -4  -3  481.85   22.10
  -2   4   3  474.55   20.30
  -2   4   3  497.85   29.70
   1  -4  -3 1590.94   55.49
  -1   4   3 1628.74   59.49
  -1   4   3 1555.94   52.29
   0  -4  -3  538.55   26.60
   0  -4  -3  557.64   26.30
   0   4   3  578.24   26.00
  -1  -4  -3  929.61   38.40
  -1  -4  -3  998.70   40.00
   1   4   3  994.30   39.50
  -2  -4  -3  316.37   20.60
  -2  -4  -3  293.27   20.80
   2   4   3  311.57   21.90
  -3  -4  -3  570.74   30.30
  -3  -4  -3  524.45   28.10
   3   4   3  505.15   31.00
  -4  -4  -3  183.18   21.90
   4   4   3  214.88   25.30
  -5  -4  -3  286.07   28.90
   5   4   3  284.67   31.60
   6  -5  -3  101.29   23.40
  -6   5   3   56.59   23.20
  -6   5   3   93.59   33.20
   5  -5  -3  339.57   29.00
   5  -5  -3  418.76   32.60
  -5   5   3  396.86   37.20
   4  -5  -3  230.08   24.20
   4  -5  -3  203.08   22.60
  -4   5   3  196.58   28.90
   3  -5  -3  863.41   39.00
  -3   5   3  867.21   45.40
   2  -5  -3  255.47   20.20
  -2   5   3  284.77   26.60
   1  -5  -3  907.71   39.30
  -1   5   3  983.10   45.20
  -1   5   3  955.50   37.50
   0  -5  -3  241.38   19.60
   0  -5  -3  200.78   18.50
   0   5   3  226.08   19.10
  -1  -5  -3  826.42   37.80
  -1  -5  -3  861.51   38.40
   1   5   3  844.92   38.70
  -2  -5  -3  230.98   21.30
  -2  -5  -3  175.88   20.90
   2   5   3  209.58   22.80
  -3  -5  -3  472.15   29.70
  -3  -5  -3  432.36   29.00
   3   5   3  397.76   31.10
  -4  -5  -3  137.29   21.50
   4   5   3  163.08   25.30
   5  -6  -3  258.27   29.20
  -5   6   3  310.47   40.40
   4  -6  -3  204.98   24.20
  -4   6   3  200.48   32.90
   3  -6  -3  529.85   31.90
  -3   6   3  535.35   40.40
   2  -6  -3  114.99   17.30
  -2   6   3  198.88   27.60
   1  -6  -3  571.44   32.00
  -1   6   3  560.64   37.60
  -1   6   3  602.24   30.80
   0  -6  -3  177.58   20.50
   0  -6  -3  200.68   21.80
   0   6   3  206.88   22.40
  -1  -6  -3  547.35   32.30
  -1  -6  -3  534.65   33.20
   1   6   3  608.44   35.50
  -2  -6  -3  162.78   22.60
  -2  -6  -3  183.18   22.80
   2   6   3  190.68   25.40
  -3  -6  -3  355.06   31.40
  -3  -6  -3  296.97   30.00
   3   6   3  304.67   32.80
  -4  -6  -3   70.19   19.70
   4   6   3  113.29   25.20
   4  -7  -3   91.49   20.20
  -4   7   3  143.49   33.20
   3  -7  -3  274.67   28.10
  -3   7   3  287.17   37.10
   2  -7  -3  180.68   23.20
  -2   7   3  176.28   28.50
   1  -7  -3  289.37   26.60
  -1   7   3  312.47   27.50
  -1   7   3  239.48   31.20
   0  -7  -3  146.99   20.90
   0  -7  -3  183.38   25.00
   0   7   3  174.98   23.50
  -1  -7  -3  307.57   28.50
  -1  -7  -3  375.16   32.00
   1   7   3  317.07   31.90
  -2  -7  -3  101.59   21.80
  -2  -7  -3  152.98   23.00
   2   7   3  141.79   25.10
  -3  -7  -3  143.09   26.30
  -3  -7  -3  134.99   28.50
   3   7   3  131.29   26.90
   3  -8  -3  148.79   24.70
  -3   8   3  193.88   36.30
   2  -8  -3   74.39   19.80
  -2   8   3   98.89   28.40
   1  -8  -3  159.58   23.30
  -1   8   3  181.58   33.80
   0  -8  -3  110.79   24.90
   0  -8  -3  104.29   21.00
   0   8   3   74.29   22.80
  -1  -8  -3  134.69   23.60
  -1  -8  -3  141.49   25.10
   1   8   3  159.18   27.50
   2   9  -4  124.89   28.30
  -2  -9   4  122.79   28.40
   1   9  -4   93.69   26.30
  -1  -9   4  114.49   24.50
   0   9  -4  177.78   28.50
   0  -9   4  213.08   27.50
  -1   9  -4   67.79   22.50
   1  -9   4   63.39   19.70
  -2   9  -4  213.78   28.70
   2  -9   4  213.38   26.90
   3   8  -4   82.09   22.80
  -3  -8   4  117.69   25.40
   2   8  -4  157.68   26.20
  -2  -8   4  254.87   30.40
   1   8  -4  155.38   24.20
  -1  -8   4  174.28   24.80
   0   8  -4  212.38   27.90
   0  -8   4  219.98   25.30
  -1   8  -4  157.28   23.20
   1  -8   4   96.39   18.40
  -2   8  -4  372.76   31.60
   2  -8   4  347.57   28.90
  -4   8  -4  269.37   28.50
   4  -8   4  212.58   26.80
   4   7  -4  136.49   24.70
  -4  -7   4  163.18   25.90
   3   7  -4  113.39   22.10
  -3  -7   4  132.89   22.50
   2   7  -4  164.18   23.60
  -2  -7   4  201.68   24.30
   1   7  -4  193.28   23.00
  -1  -7   4  260.67   24.00
   0   7  -4  366.06   27.60
   0  -7   4  361.76   26.30
  -1   7  -4  392.36   27.10
  -1   7  -4  370.36   28.00
   1  -7   4  376.76   25.50
  -2   7  -4  391.76   28.20
   2  -7   4  459.05   24.20
   2  -7   4  452.35   27.70
   3  -7   4  274.57   19.70
   3  -7   4  278.17   24.50
  -4   7  -4  336.97   28.50
   4  -7   4  290.77   27.40
  -5   7  -4   77.69   20.80
   5  -7   4   81.79   19.70
   4   6  -4  258.17   31.20
  -4  -6   4  237.68   28.10
   3   6  -4   87.99   18.40
  -3  -6   4  112.39   19.30
   2   6  -4  457.85   30.10
  -2  -6   4  458.35   28.20
   1   6  -4  336.97   23.10
   1   6  -4  277.67   20.20
  -1  -6   4  248.88   20.40
   0   6  -4  959.90   40.80
   0   6  -4 1023.70   42.90
   0  -6   4 1000.70   41.20
  -1   6  -4  465.65   26.60
   1  -6   4  440.16   24.20
   1  -6   4  421.76   22.10
   2  -6   4  830.82   34.40
   2  -6   4  728.23   35.30
   2  -6   4  733.93   30.00
   2  -6   4  753.42   30.70
  -3   6  -4  238.78   29.40
  -3   6  -4  238.18   20.30
   3  -6   4  222.18   21.20
   3  -6   4  209.78   15.80
  -4   6  -4  476.75   30.80
   4  -6   4  474.25   31.10
  -5   6  -4  157.98   23.20
   5  -6   4  107.19   19.90
  -6   6  -4  227.98   29.40
   6  -6   4  229.28   30.70
  -5  -5   4   68.19   18.50
   4   5  -4  371.96   29.10
  -4  -5   4  354.46   28.60
   3   5  -4  130.49   17.00
   3   5  -4  198.08   22.00
  -3  -5   4  177.68   20.10
   2   5  -4  904.81   37.60
   2   5  -4  896.71   39.30
  -2  -5   4  863.31   38.00
   1   5  -4  402.06   23.30
   1   5  -4  365.76   22.30
  -1  -5   4  403.86   22.40
   0   5  -4 1611.64   58.09
   0  -5   4 1646.94   55.69
   0  -5   4 1669.83   54.39
  -1   5  -4  402.36   22.80
   1  -5   4  363.86   19.50
   1  -5   4  351.76   15.60
   1  -5   4  342.37   17.80
  -2   5  -4  882.61   32.60
   2  -5   4  730.13   30.90
   2  -5   4  728.53   34.00
   2  -5   4  775.22   29.70
  -3   5  -4  213.88   18.10
   3  -5   4  231.58   14.80
   3  -5   4  269.47   20.10
  -4   5  -4  897.31   40.80
   4  -5   4  873.51   41.80
  -5   5  -4  267.77   28.30
   5  -5   4  281.57   28.70
  -6   5  -4  282.17   31.60
   6  -5   4  264.17   32.00
   5   4  -4  106.59   20.30
  -5  -4   4  129.49   21.20
   4   4  -4  522.65   30.40
   4   4  -4  520.05   32.70
  -4  -4   4  574.64   31.70
   3   4  -4  229.18   20.20
   3   4  -4  298.97   20.60
  -3  -4   4  264.57   20.30
   2   4  -4 1568.74   55.29
   2   4  -4 1571.04   56.19
  -2  -4   4 1613.04   55.69
   1   4  -4  396.46   21.40
  -1  -4   4  382.06   18.10
  -1  -4   4  370.06   19.50
   0   4  -4 1811.92   59.29
   0  -4   4 1658.03   53.59
   0  -4   4 1602.74   54.49
  -1   4  -4  263.97   13.30
  -1   4  -4  282.87   18.00
   1  -4   4  267.37   14.10
   1  -4   4  271.17   14.60
  -2   4  -4 1628.24   53.39
   2  -4   4 1643.84   51.99
   2  -4   4 1634.04   56.79
   2  -4   4 1577.24   51.39
  -3   4  -4  414.16   22.10
   3  -4   4  359.46   17.60
   3  -4   4  359.96   22.40
  -4   4  -4 1180.08   47.40
   4  -4   4 1118.79   40.30
   4  -4   4 1128.99   47.90
  -5   4  -4  304.27   28.10
   5  -4   4  266.17   25.30
  -6   4  -4  351.66   33.60
   6  -4   4  353.26   32.10
   6   3  -4  275.87   33.20
  -6  -3   4  280.67   29.90
   5   3  -4  157.18   23.70
  -5  -3   4  213.48   23.70
   4   3  -4  677.93   32.50
   4   3  -4  678.73   36.60
  -4  -3   4  684.83   33.20
   3   3  -4  363.66   20.30
   3   3  -4  360.76   23.30
  -3  -3   4  378.66   21.60
   2   3  -4 1798.42   59.89
   2   3  -4 1866.61   62.69
  -2  -3   4 1845.02   60.39
   1   3  -4  257.57   16.40
  -1  -3   4  230.98   12.70
  -1  -3   4  260.07   14.40
   0   3  -4 2022.10   67.69
   0  -3   4 2048.00   62.39
   0  -3   4 2099.59   62.89
  -1   3  -4  840.42   28.80
  -1   3  -4  907.41   34.80
   1  -3   4  873.51   29.10
   1  -3   4  872.01   30.20
  -2   3  -4 2869.11   87.49
   2  -3   4 2867.01   90.59
   2  -3   4 2964.40   86.29
  -3   3  -4  414.96   21.40
   3  -3   4  363.96   21.50
   3  -3   4  379.26   17.90
  -4   3  -4 1250.27   49.99
   4  -3   4 1340.47   45.40
   4  -3   4 1348.07   52.59
  -5   3  -4  282.67   24.60
   5  -3   4  254.37   24.00
  -6   3  -4  378.26   32.50
   6  -3   4  388.26   32.10
   6   2  -4  394.26   35.50
  -6  -2   4  320.07   30.30
   5   2  -4  266.27   26.40
  -5  -2   4  278.07   24.60
   4   2  -4  561.34   32.20
  -4  -2   4  598.24   29.80
   3   2  -4  362.36   18.40
   3   2  -4  389.26   23.30
  -3  -2   4  371.66   20.60
  -3  -2   4  381.06   16.80
   2   2  -4 1978.30   67.09
  -2  -2   4 2085.99   64.99
   1   2  -4 1097.99   39.50
  -1  -2   4 1076.19   34.40
  -1  -2   4 1029.50   36.00
   0   2  -4 1777.82   57.99
   0  -2   4 1742.03   52.59
   0  -2   4 1685.43   52.39
  -1   2  -4 1663.33   48.80
   1  -2   4 1578.04   52.79
   1  -2   4 1572.74   49.50
  -2   2  -4 2931.41   88.59
   2  -2   4 2838.62   90.89
   2  -2   4 3106.99   87.89
  -3   2  -4  643.84   27.20
   3  -2   4  555.94   27.30
   3  -2   4  601.74   24.30
  -4   2  -4  720.53   33.00
   4  -2   4  689.83   33.20
   4  -2   4  657.13   28.60
  -5   2  -4  402.36   27.60
   5  -2   4  379.46   27.30
  -6   2  -4  413.56   32.70
   6  -2   4  394.96   31.40
   6   1  -4  441.16   36.30
  -6  -1   4  400.96   32.10
   5   1  -4  306.77   26.90
  -5  -1   4  304.57   24.70
   4   1  -4  631.04   33.00
  -4  -1   4  575.54   26.50
  -4  -1   4  577.44   29.80
   3   1  -4  561.84   27.40
   3   1  -4  495.55   20.00
  -3  -1   4  524.55   25.00
  -3  -1   4  490.15   21.40
   2   1  -4 3503.85  104.59
   2   1  -4 3419.56   97.29
  -2  -1   4 3466.85  102.39
  -2  -1   4 3242.88   96.99
   1   1  -4  992.50   35.40
  -1  -1   4  940.21   30.30
  -1  -1   4  957.40   33.00
   0   1  -4 1932.31   57.49
   0   1  -4 2024.10   63.29
   0  -1   4 2035.20   58.59
   0  -1   4 1906.71   58.39
  -1   1  -4 1213.48   38.20
   1  -1   4 1154.38   40.80
   1  -1   4 1276.67   39.40
  -2   1  -4 3198.58   93.19
   2  -1   4 3200.58   92.99
   2  -1   4 2980.10   94.49
  -3   1  -4  407.56   20.80
   3  -1   4  372.66   19.00
   3  -1   4  378.26   21.00
  -4   1  -4  669.23   32.50
   4  -1   4  764.02   34.20
   4  -1   4  713.03   30.70
  -5   1  -4  454.65   29.20
   5  -1   4  454.25   29.60
   5  -1   4  468.85   26.00
  -6   1  -4  420.36   33.80
   6  -1   4  550.44   35.30
   6   0  -4  350.06   33.00
  -6   0   4  363.26   30.40
   5   0  -4  333.87   27.70
  -5   0   4  303.47   23.20
  -5   0   4  325.97   25.70
   4   0  -4  689.83   35.50
  -4   0   4  727.83   33.50
  -4   0   4  706.73   31.00
   3   0  -4  489.35   21.70
   3   0  -4  569.04   27.70
  -3   0   4  548.95   25.90
   2   0  -4 3102.39   95.19
   2   0  -4 3096.99   90.09
  -2   0   4 3068.59   94.19
   1   0  -4 1618.14   52.09
   1   0  -4 1618.94   48.30
  -1   0   4 1502.95   46.60
  -1   0   4 1611.54   51.09
   0   0  -4 1608.94   51.19
   0   0  -4 1519.35   48.80
   0   0   4 1571.64   48.20
   0   0   4 1643.64   49.00
  -1   0  -4  479.75   19.30
   1   0   4  503.15   19.80
  -2   0  -4 3096.59   94.69
   2   0   4 3204.48   95.39
   2   0   4 3208.18   94.99
  -3   0  -4  588.74   27.20
   3   0   4  661.03   27.40
   3   0   4  645.04   28.00
  -4   0  -4  701.33   32.90
   4   0   4  733.43   31.90
   4   0   4  702.83   33.10
  -5   0  -4  377.36   27.30
   5   0   4  380.36   25.30
   5   0   4  339.97   26.10
  -6   0  -4  467.95   34.00
   6   0   4  435.66   33.00
   6  -1  -4  248.08   29.40
  -6   1   4  321.37   28.90
  -6   1   4  309.17   29.50
   5  -1  -4  302.77   27.80
  -5   1   4  376.66   27.30
  -5   1   4  352.86   25.40
   4  -1  -4  708.93   36.50
   4  -1  -4  781.52   32.30
  -4   1   4  777.72   35.80
   3  -1  -4  761.32   29.80
   3  -1  -4  763.22   34.00
  -3   1   4  780.12   34.10
   2  -1  -4 1823.62   58.29
   2  -1  -4 1958.70   61.79
  -2   1   4 1799.92   61.59
   1  -1  -4 1942.41   58.89
   1  -1  -4 1846.92   58.29
  -1   1   4 1883.41   60.39
  -1   1   4 1815.12   54.99
   0  -1  -4  867.21   30.90
   0  -1  -4  838.52   29.30
   0   1   4  845.92   30.50
   0   1   4  817.22   28.80
  -1  -1  -4  992.90   33.70
  -1  -1  -4  976.10   34.80
   1   1   4  987.90   33.30
   1   1   4  977.50   34.70
  -2  -1  -4 2231.08   68.39
   2   1   4 2032.50   66.29
   2   1   4 2214.88   69.19
  -3  -1  -4  873.61   34.00
   3   1   4  835.02   34.40
   3   1   4  783.62   32.60
  -4  -1  -4  562.24   28.50
   4   1   4  492.35   26.50
   4   1   4  470.25   27.20
  -5  -1  -4  345.37   26.50
   5   1   4  333.57   25.50
   5   1   4  289.57   24.50
  -6  -1  -4  307.67   30.30
   6  -2  -4  217.08   29.90
  -6   2   4  225.58   27.80
  -6   2   4  248.48   27.80
   5  -2  -4  399.76   30.90
  -5   2   4  390.06   30.30
  -5   2   4  387.86   29.20
   4  -2  -4 1032.50   45.00
   4  -2  -4  952.30   39.40
  -4   2   4  978.30   44.20
   3  -2  -4  617.34   26.80
   3  -2  -4  541.95   28.40
  -3   2   4  599.54   30.40
   2  -2  -4  899.81   34.50
   2  -2  -4  874.21   33.50
  -2   2   4  919.11   37.50
   1  -2  -4 1937.01   58.99
   1  -2  -4 1823.92   60.79
  -1   2   4 1925.81   63.19
  -1   2   4 1865.91   56.99
   0  -2  -4  990.80   36.70
   0  -2  -4  947.81   31.80
   0   2   4 1006.30   37.20
   0   2   4 1023.20   34.70
  -1  -2  -4  930.01   33.40
  -1  -2  -4  965.40   35.90
   1   2   4  944.51   35.30
  -2  -2  -4 1293.87   41.90
  -2  -2  -4 1208.48   44.10
   2   2   4 1197.48   40.40
   2   2   4 1223.78   45.10
  -3  -2  -4  839.22   35.90
   3   2   4  882.41   33.40
  -4  -2  -4  353.96   24.60
   4   2   4  391.46   26.10
  -5  -2  -4  254.67   26.10
   5   2   4  213.98   24.40
  -6  -2  -4  210.18   27.00
   6  -3  -4  209.98   28.40
  -6   3   4  214.88   28.30
  -6   3   4  221.78   28.00
   5  -3  -4  412.36   28.20
   5  -3  -4  430.86   31.80
  -5   3   4  393.46   33.70
   4  -3  -4  764.92   38.80
   4  -3  -4  782.82   35.50
  -4   3   4  797.32   41.10
   3  -3  -4  447.76   23.80
   3  -3  -4  432.16   25.00
  -3   3   4  440.06   28.60
   2  -3  -4  485.55   24.10
   2  -3  -4  527.05   23.00
  -2   3   4  459.85   27.50
  -2   3   4  430.56   17.80
   1  -3  -4 1721.13   58.79
   1  -3  -4 1651.33   53.19
  -1   3   4 1750.92   54.69
  -1   3   4 1782.62   61.69
   0  -3  -4  765.62   32.30
   0   3   4  773.12   33.90
   0   3   4  776.92   30.60
  -1  -3  -4 1152.98   42.10
  -1  -3  -4 1226.38   45.00
   1   3   4 1221.48   44.60
  -2  -3  -4  461.65   22.90
  -2  -3  -4  482.85   25.30
   2   3   4  441.66   25.20
  -3  -3  -4  815.72   36.30
   3   3   4  777.12   37.10
  -4  -3  -4  207.98   22.00
   4   3   4  193.48   24.40
  -5  -3  -4  234.68   25.50
   5   3   4  200.88   25.00
   6  -4  -4  138.39   25.40
  -6   4   4  159.38   30.40
  -6   4   4  167.98   26.80
   5  -4  -4  282.37   27.20
   5  -4  -4  299.07   28.70
  -5   4   4  228.38   30.10
   4  -4  -4  654.43   35.50
   4  -4  -4  611.24   33.30
  -4   4   4  587.64   39.20
   3  -4  -4  284.67   21.30
   3  -4  -4  243.38   19.40
  -3   4   4  292.57   27.30
   2  -4  -4  473.45   25.60
   2  -4  -4  440.76   22.20
  -2   4   4  471.85   29.80
   1  -4  -4 1178.68   45.80
  -1   4   4 1212.58   49.99
  -1   4   4 1151.18   42.00
   0  -4  -4  989.40   41.20
   0   4   4 1047.90   39.90
  -1  -4  -4  553.04   29.80
  -1  -4  -4  598.34   28.20
   1   4   4  622.04   30.20
  -2  -4  -4  225.48   20.10
  -2  -4  -4  244.38   19.60
   2   4   4  213.58   21.60
  -3  -4  -4  609.74   33.40
   3   4   4  603.44   34.70
  -4  -4  -4  174.68   22.00
   4   4   4  143.79   22.80
  -5  -4  -4  224.68   27.60
   5   4   4  184.48   26.70
   5  -5  -4  177.98   24.40
   5  -5  -4  237.98   27.30
  -5   5   4  157.38   28.30
   4  -5  -4  377.06   28.80
  -4   5   4  400.36   36.80
   3  -5  -4  357.46   26.10
  -3   5   4  297.37   31.30
   2  -5  -4  530.25   30.20
  -2   5   4  578.04   36.60
   1  -5  -4  499.65   29.30
  -1   5   4  561.74   27.70
  -1   5   4  584.24   36.00
   0  -5  -4  562.54   31.10
   0   5   4  615.54   31.00
  -1  -5  -4  293.27   22.70
  -1  -5  -4  299.67   23.50
   1   5   4  287.27   23.60
  -2  -5  -4  216.48   22.40
  -2  -5  -4  242.98   25.10
   2   5   4  252.17   25.80
  -3  -5  -4  333.87   28.50
   3   5   4  360.56   31.00
  -4  -5  -4  167.98   23.90
   4   5   4  141.89   25.00
   5  -6  -4  220.78   28.10
  -5   6   4  212.58   35.10
   4  -6  -4  288.87   30.60
  -4   6   4  256.37   36.60
   3  -6  -4  378.36   29.40
  -3   6   4  396.86   39.80
   2  -6  -4  231.98   24.80
  -2   6   4  144.79   26.00
   1  -6  -4  377.76   27.60
  -1   6   4  388.36   26.30
  -1   6   4  352.46   35.30
   0  -6  -4  340.67   27.10
   0   6   4  284.27   25.40
  -1  -6  -4  276.77   27.20
  -1  -6  -4  253.67   26.20
   1   6   4  266.37   27.40
  -2  -6  -4  209.88   25.00
  -2  -6  -4  146.09   21.50
   2   6   4  152.98   24.30
  -3  -6  -4  248.08   28.60
   3   6   4  208.98   29.00
   4  -7  -4   90.69   21.30
  -4   7   4   70.79   29.50
   3  -7  -4  261.67   29.20
  -3   7   4  132.49   30.00
   2  -7  -4   98.49   19.90
  -2   7   4   83.19   24.10
   1  -7  -4  231.78   26.40
  -1   7   4  256.37   35.30
   0  -7  -4  157.08   23.40
   0   7   4  137.69   23.40
  -1  -7  -4  245.98   30.00
  -1  -7  -4  240.08   26.80
   1   7   4  230.98   29.60
  -2  -7  -4  112.29   21.70
  -2  -7  -4  108.19   21.70
   2   7   4  119.99   25.10
   3  -8  -4  179.08   26.10
  -3   8   4  110.59   32.70
   2  -8  -4   36.90   18.10
  -2   8   4   41.40   26.90
   1  -8  -4  206.48   27.40
  -1   8   4  167.58   33.90
   0  -8  -4   61.69   18.70
   0   8   4   95.49   30.00
   0   8   4   73.09   23.00
  -1  -8  -4  139.79   25.30
  -1  -8  -4  158.78   29.60
   1   8   4  175.38   29.10
   2   9  -5   24.20   20.80
   1   9  -5  183.88   30.20
  -1  -9   5  192.78   27.90
   0   9  -5   73.79   22.80
   0  -9   5   74.19   20.40
  -1   9  -5  186.08   28.40
   1  -9   5  172.18   26.30
  -2   9  -5   82.89   23.80
   2  -9   5   61.69   18.40
   3   8  -5   87.89   23.90
  -3  -8   5  115.09   25.20
   2   8  -5  110.19   22.40
  -2  -8   5  131.49   23.10
   1   8  -5  214.78   28.10
  -1  -8   5  239.98   26.80
   0   8  -5  142.49   22.60
   0  -8   5  109.89   19.10
  -1   8  -5  248.08   29.50
   1  -8   5  211.48   24.30
   2  -8   5  236.28   25.00
   2  -8   5  271.87   21.70
  -3   8  -5  222.18   27.80
   3  -8   5  240.68   31.40
   4  -8   5   81.69   19.80
   4   7  -5   77.49   21.70
  -4  -7   5  103.99   23.30
   3   7  -5  120.79   23.30
  -3  -7   5  162.38   24.50
   2   7  -5  154.98   22.40
  -2  -7   5  208.08   24.40
   1   7  -5  356.36   27.90
  -1  -7   5  411.46   28.00
   0   7  -5  196.88   23.00
   0   7  -5  229.88   23.20
   0  -7   5  179.38   21.20
  -1   7  -5  362.56   28.20
   1  -7   5  407.86   26.00
   1  -7   5  381.46   22.70
  -2   7  -5  395.06   28.50
   2  -7   5  333.17   21.70
   2  -7   5  320.67   25.10
  -3   7  -5  391.06   26.40
   3  -7   5  375.76   22.80
   3  -7   5  396.36   29.20
  -4   7  -5  146.89   21.20
   4  -7   5  168.48   23.70
  -5   7  -5  159.18   25.10
   5  -7   5  131.59   23.40
   4   6  -5  110.69   23.10
  -4  -6   5  141.99   23.00
   3   6  -5  157.38   22.50
  -3  -6   5  192.68   23.60
   2   6  -5  325.47   23.80
   2   6  -5  285.47   24.40
  -2  -6   5  284.97   24.00
   1   6  -5  666.83   34.40
   1   6  -5  670.63   33.90
  -1  -6   5  687.13   33.20
   0   6  -5  372.36   24.80
   0  -6   5  373.16   23.30
   0  -6   5  400.16   21.50
  -1   6  -5  505.45   29.40
   1  -6   5  474.35   23.40
   1  -6   5  474.75   25.50
  -2   6  -5  484.95   29.90
  -2   6  -5  477.45   23.90
   2  -6   5  458.55   24.70
   2  -6   5  425.56   22.50
  -3   6  -5  617.44   31.30
   3  -6   5  640.74   35.10
   3  -6   5  615.54   27.80
  -4   6  -5  245.88   24.20
   4  -6   5  243.58   26.30
  -5   6  -5  206.38   25.50
   5  -6   5  230.98   28.90
  -5  -5   5  203.98   26.70
   4   5  -5  180.28   24.20
   4   5  -5  183.38   23.10
  -4  -5   5  209.08   24.50
   3   5  -5  230.28   22.10
   3   5  -5  264.27   23.00
  -3  -5   5  294.57   23.70
   2   5  -5  563.84   29.50
   2   5  -5  552.64   30.10
  -2  -5   5  567.74   29.20
   1   5  -5  746.93   34.70
  -1  -5   5  718.93   32.40
  -1  -5   5  754.52   30.50
   0   5  -5  839.52   36.80
   0  -5   5  835.42   31.60
   0  -5   5  770.22   32.70
  -1   5  -5  447.16   26.10
   1  -5   5  457.45   22.10
   1  -5   5  427.66   20.70
  -2   5  -5  701.43   29.50
   2  -5   5  689.73   29.10
   2  -5   5  761.32   29.50
   2  -5   5  790.22   35.40
  -3   5  -5  558.84   28.00
   3  -5   5  530.85   30.50
   3  -5   5  599.54   25.60
  -4   5  -5  484.35   29.10
   4  -5   5  467.05   30.30
   4  -5   5  432.96   22.90
  -5   5  -5  228.08   25.70
   5  -5   5  190.88   24.60
  -6   5  -5  267.27   30.30
   6  -5   5  278.27   31.00
   5   4  -5  182.68   26.00
  -5  -4   5  259.17   27.90
   4   4  -5  382.16   29.80
   4   4  -5  318.87   25.00
  -4  -4   5  400.96   27.80
   3   4  -5  464.95   26.10
   3   4  -5  458.15   27.90
  -3  -4   5  461.65   26.80
   2   4  -5  759.02   33.00
   2   4  -5  765.82   35.30
  -2  -4   5  769.42   32.90
   1   4  -5  754.62   34.30
  -1  -4   5  747.13   31.10
  -1  -4   5  810.72   29.90
   0   4  -5 1248.18   48.00
   0  -4   5 1223.48   42.60
   0  -4   5 1225.98   41.70
  -1   4  -5  331.27   15.30
  -1   4  -5  387.06   22.60
   1  -4   5  372.16   17.60
   1  -4   5  379.06   17.40
  -2   4  -5 1202.28   41.10
   2  -4   5 1212.58   46.30
   2  -4   5 1109.29   40.30
  -3   4  -5  650.43   29.00
   3  -4   5  668.43   32.00
   3  -4   5  570.64   25.70
  -4   4  -5  700.23   33.90
   4  -4   5  650.03   28.30
   4  -4   5  652.13   34.80
  -5   4  -5  225.48   24.90
   5  -4   5  271.17   25.60
  -6   4  -5  284.67   30.30
   6  -4   5  325.67   30.90
   6   3  -5  124.79   24.80
  -6  -3   5  100.99   21.40
   5   3  -5  236.18   28.60
  -5  -3   5  259.67   26.20
   4   3  -5  518.25   33.40
  -4  -3   5  553.54   31.20
   3   3  -5  603.64   27.50
   3   3  -5  591.94   31.50
  -3  -3   5  614.74   29.70
   2   3  -5  860.91   37.10
  -2  -3   5  866.51   31.10
  -2  -3   5  838.62   34.10
   1   3  -5  492.25   24.90
  -1  -3   5  449.16   19.00
  -1  -3   5  411.76   20.10
   0   3  -5 1762.22   61.69
   0  -3   5 1790.42   55.49
   0  -3   5 1764.22   55.49
  -1   3  -5  551.44   20.60
  -1   3  -5  581.84   27.20
   1  -3   5  576.04   22.30
   1  -3   5  550.34   20.70
  -2   3  -5 2286.37   70.09
   2  -3   5 2179.88   74.39
   2  -3   5 2276.77   69.59
  -3   3  -5  342.17   20.40
   3  -3   5  410.46   23.20
   3  -3   5  385.66   19.00
  -4   3  -5 1105.79   45.00
   4  -3   5 1111.59   40.50
   4  -3   5 1041.10   45.80
  -5   3  -5  192.38   22.40
   5  -3   5  210.58   23.70
  -6   3  -5  390.36   33.30
   6  -3   5  373.76   32.20
   6   2  -5  127.59   25.40
  -6  -2   5  207.18   27.70
   5   2  -5  331.77   29.80
  -5  -2   5  316.87   27.40
   4   2  -5  608.24   34.80
  -4  -2   5  598.04   31.00
   3   2  -5  667.13   26.40
   3   2  -5  612.34   32.00
  -3  -2   5  635.64   29.50
   2   2  -5  486.25   25.70
  -2  -2   5  558.94   24.20
  -2  -2   5  517.65   20.40
   1   2  -5 1027.50   38.60
  -1  -2   5  958.20   34.10
  -1  -2   5  911.61   31.70
   0   2  -5 2089.09   71.69
   0  -2   5 2184.18   65.59
   0  -2   5 2281.87   66.19
  -1   2  -5 1473.65   52.19
  -1   2  -5 1483.25   46.10
   1  -2   5 1524.45   47.80
  -2   2  -5 1874.21   60.09
   2  -2   5 1871.21   59.79
   2  -2   5 1938.21   63.89
  -3   2  -5  440.86   22.60
   3  -2   5  469.05   21.50
   3  -2   5  415.86   23.60
  -4   2  -5  964.60   41.60
   4  -2   5  937.01   42.20
   4  -2   5 1080.09   39.60
  -5   2  -5  192.58   22.80
   5  -2   5  208.08   21.30
   5  -2   5  222.98   25.10
  -6   2  -5  454.75   34.20
   6  -2   5  467.45   34.70
   6   1  -5  244.28   31.90
  -6  -1   5  246.38   28.70
   5   1  -5  238.38   28.80
  -5  -1   5  254.77   24.60
   4   1  -5  614.54   34.10
  -4  -1   5  562.34   26.20
  -4  -1   5  577.54   31.50
   3   1  -5  532.55   27.10
   3   1  -5  587.84   30.00
  -3  -1   5  562.24   27.40
   2   1  -5  954.00   37.60
   2   1  -5  907.91   30.10
  -2  -1   5  914.71   35.30
  -2  -1   5  914.61   29.90
   1   1  -5 1913.21   62.59
  -1  -1   5 1785.92   55.79
  -1  -1   5 1931.91   59.29
   0   1  -5 1901.31   62.79
   0   1  -5 1881.51   56.99
   0  -1   5 1949.60   57.79
   0  -1   5 1874.51   57.59
  -1   1  -5 2410.76   74.79
  -1   1  -5 2310.07   69.79
   1  -1   5 2278.17   70.79
  -2   1  -5 1222.88   41.20
   2  -1   5 1202.58   43.30
   2  -1   5 1147.69   41.00
  -3   1  -5  483.15   23.70
   3  -1   5  425.46   22.30
   3  -1   5  506.05   24.90
  -4   1  -5  707.93   33.60
   4  -1   5  760.12   34.80
   4  -1   5  678.93   31.60
  -5   1  -5  338.17   26.60
   5  -1   5  350.26   26.40
   5  -1   5  308.67   23.60
   6  -1   5  421.76   32.80
   6   0  -5  289.47   33.90
  -6   0   5  284.87   30.50
   5   0  -5  196.18   25.00
  -5   0   5  151.28   18.20
  -5   0   5  221.98   24.70
   4   0  -5  959.30   44.70
  -4   0   5  979.40   42.20
   3   0  -5  451.25   25.30
   3   0  -5  427.06   19.80
  -3   0   5  409.76   23.80
   2   0  -5 2050.49   68.39
   2   0  -5 2032.90   62.69
  -2   0   5 2094.09   67.79
   1   0  -5 1561.84   51.89
   1   0  -5 1544.95   47.90
  -1   0   5 1463.15   50.19
  -1   0   5 1489.55   46.00
   0   0  -5 2080.39   67.39
   0   0  -5 2149.98   64.79
   0   0   5 2088.39   64.39
   0   0   5 2123.99   63.99
  -1   0  -5  696.03   28.80
  -1   0  -5  720.73   27.00
   1   0   5  739.93   27.70
  -2   0  -5 1169.18   40.60
   2   0   5 1112.09   40.90
   2   0   5 1150.08   40.90
  -3   0  -5  632.64   28.60
   3   0   5  640.04   28.90
   3   0   5  652.13   28.90
  -4   0  -5  849.12   37.50
   4   0   5  826.02   37.00
   4   0   5  819.82   36.70
  -5   0  -5  330.77   26.40
   5   0   5  299.17   25.30
   5   0   5  310.87   25.20
  -6   0  -5  370.96   32.40
   6   0   5  293.77   29.50
   6  -1  -5  260.07   31.90
  -6   1   5  356.16   30.30
  -6   1   5  348.37   32.00
   5  -1  -5  235.98   27.40
  -5   1   5  239.38   24.00
  -5   1   5  258.57   28.00
   4  -1  -5 1280.77   45.90
   4  -1  -5 1177.28   52.09
  -4   1   5 1276.17   51.29
   3  -1  -5  254.57   16.00
   3  -1  -5  257.27   19.60
  -3   1   5  248.78   20.60
   2  -1  -5 2279.47   75.89
   2  -1  -5 2379.96   72.69
  -2   1   5 2372.66   76.69
   1  -1  -5  549.65   24.10
   1  -1  -5  614.34   25.10
  -1   1   5  613.84   26.80
  -1   1   5  591.94   21.50
   0  -1  -5 1502.35   49.90
   0  -1  -5 1568.24   51.39
   0   1   5 1488.65   48.70
   0   1   5 1573.44   51.09
  -1  -1  -5  373.96   19.10
  -1  -1  -5  360.36   18.20
   1   1   5  368.66   17.50
   1   1   5  379.76   18.70
  -2  -1  -5 1655.93   55.79
   2   1   5 1637.64   54.69
   2   1   5 1685.63   56.49
  -3  -1  -5  699.93   32.00
   3   1   5  766.72   31.30
   3   1   5  745.43   33.10
  -4  -1  -5  648.64   33.20
   4   1   5  691.03   32.20
   4   1   5  656.83   33.50
  -5  -1  -5  235.08   25.50
   5   1   5  290.07   27.20
  -6  -1  -5  289.47   30.10
   6  -2  -5  423.96   36.60
  -6   2   5  342.07   34.50
  -6   2   5  357.06   31.60
   5  -2  -5  283.17   31.10
   5  -2  -5  295.47   23.60
  -5   2   5  219.18   26.10
   4  -2  -5 1097.59   43.20
   4  -2  -5 1048.50   48.00
  -4   2   5 1127.09   49.80
   3  -2  -5   87.59   12.40
   3  -2  -5  101.79   15.20
  -3   2   5   90.79   15.80
   2  -2  -5 1581.94   53.59
   2  -2  -5 1545.75   54.29
  -2   2   5 1540.15   57.39
  -2   2   5 1579.04   46.90
   1  -2  -5  302.07   18.40
   1  -2  -5  307.97   16.30
  -1   2   5  313.77   15.10
  -1   2   5  339.37   21.20
   0  -2  -5 2578.44   75.89
   0  -2  -5 2526.25   80.79
   0   2   5 2498.45   80.69
   0   2   5 2520.35   77.89
  -1  -2  -5  282.67   17.70
  -1  -2  -5  228.18   13.70
   1   2   5  269.67   17.50
   1   2   5  250.57   16.70
  -2  -2  -5 1815.42   58.29
  -2  -2  -5 1801.12   62.39
   2   2   5 1870.91   63.29
  -3  -2  -5  433.56   25.40
   3   2   5  438.06   26.20
  -4  -2  -5  521.35   31.00
   4   2   5  540.25   31.50
  -5  -2  -5  116.59   19.10
   5   2   5  112.19   19.80
   6  -3  -5  240.98   31.90
  -6   3   5  260.37   32.40
  -6   3   5  283.37   32.30
   5  -3  -5  194.98   22.00
   5  -3  -5  189.68   26.00
  -5   3   5  213.38   28.00
   4  -3  -5  606.84   32.10
   4  -3  -5  575.44   34.30
  -4   3   5  630.44   38.20
   3  -3  -5  102.79   14.80
   3  -3  -5   78.59   13.50
  -3   3   5   81.89   17.10
   2  -3  -5 1330.47   47.10
   2  -3  -5 1326.67   49.00
  -2   3   5 1257.57   52.69
   1  -3  -5  680.13   26.20
   1  -3  -5  613.04   30.50
  -1   3   5  683.53   27.10
  -1   3   5  710.63   33.70
   0  -3  -5 1956.10   66.89
   0   3   5 1886.81   67.99
   0   3   5 2032.10   64.59
  -1  -3  -5  179.18   18.30
   1   3   5  193.58   18.50
  -2  -3  -5 1045.50   44.10
  -2  -3  -5 1148.39   41.20
   2   3   5 1101.79   44.80
  -3  -3  -5  230.48   21.30
   3   3   5  292.57   27.00
  -4  -3  -5  415.66   29.60
   4   3   5  399.16   30.50
  -5  -3  -5  117.99   21.20
   5   3   5   53.79   18.30
   6  -4  -5  154.48   27.20
   5  -4  -5  135.99   23.50
   5  -4  -5  113.29   20.00
  -5   4   5  147.39   27.80
   4  -4  -5  558.44   33.30
   4  -4  -5  513.75   31.60
  -4   4   5  488.45   37.60
   3  -4  -5  354.26   25.50
   3  -4  -5  341.07   23.80
  -3   4   5  314.47   29.70
   2  -4  -5  786.52   36.80
  -2   4   5  811.42   42.20
   1  -4  -5  580.34   31.50
  -1   4   5  688.23   28.80
  -1   4   5  623.44   35.20
   0  -4  -5  949.40   40.80
   0   4   5  921.91   43.50
   0   4   5  922.01   38.40
  -1  -4  -5  172.18   18.10
  -1  -4  -5  188.98   20.70
   1   4   5  182.28   19.30
  -2  -4  -5  407.56   27.50
  -2  -4  -5  464.75   25.90
   2   4   5  440.76   28.90
  -3  -4  -5  272.97   25.00
   3   4   5  218.68   24.50
  -4  -4  -5  362.96   30.50
   4   4   5  334.07   33.00
   5  -5  -5  140.79   22.90
  -5   5   5  109.79   27.20
   4  -5  -5  475.75   33.60
  -4   5   5  456.05   40.80
   3  -5  -5  278.87   27.40
  -3   5   5  316.87   34.40
   2  -5  -5  415.76   28.70
  -2   5   5  487.65   35.70
   1  -5  -5  297.87   24.20
  -1   5   5  244.78   27.90
  -1   5   5  297.87   22.30
   0  -5  -5  484.15   30.50
   0   5   5  496.15   29.70
   0   5   5  558.44   36.90
  -1  -5  -5  146.89   19.60
  -1  -5  -5  137.49   18.90
   1   5   5  141.59   20.20
  -2  -5  -5  396.66   27.50
  -2  -5  -5  395.46   29.80
   2   5   5  294.77   29.00
  -3  -5  -5  221.48   26.50
   3   5   5  196.88   27.30
  -4  -5  -5  155.38   23.70
   4   5   5  234.08   30.50
   4  -6  -5  245.88   29.40
  -4   6   5  309.27   39.80
   3  -6  -5  169.58   24.40
  -3   6   5  154.98   29.00
   2  -6  -5  227.48   26.20
  -2   6   5  156.48   26.70
   1  -6  -5   91.79   18.50
  -1   6   5  149.59   27.90
   0  -6  -5  337.07   29.40
   0   6   5  356.26   29.40
   0   6   5  360.06   38.00
  -1  -6  -5  245.18   26.90
  -1  -6  -5  229.48   26.30
   1   6   5  188.68   25.20
  -2  -6  -5  238.48   27.20
  -2  -6  -5  220.98   26.60
   2   6   5  242.28   29.60
  -3  -6  -5  101.19   22.90
   3   6   5  127.19   25.90
  -4   7   5  118.99   35.50
   3  -7  -5  117.99   24.00
  -3   7   5  127.89   30.60
   2  -7  -5  191.38   26.60
  -2   7   5  226.08   35.30
   1  -7  -5  117.29   21.90
  -1   7   5  137.99   29.90
   0  -7  -5  250.27   29.00
   0   7   5  200.58   32.80
   0   7   5  231.98   27.90
  -1  -7  -5  186.08   25.60
   1   7   5  115.69   23.90
  -2  -7  -5  150.28   25.20
  -2  -7  -5  100.89   24.90
   2   7   5   94.09   25.10
  -2   8   5  131.49   33.80
   1  -8  -5   67.69   21.50
  -1   8   5   42.70   29.50
   0   8   5  109.09   32.30
   0   8   5   95.19   36.60
   1   9  -6  138.09   27.30
  -1  -9   6  132.69   24.20
   0   9  -6   49.70   22.30
   0  -9   6   73.29   19.10
  -1   9  -6  229.28   31.70
   1  -9   6  229.98   28.50
  -2   9  -6   57.69   23.00
   3   8  -6  115.29   26.50
  -3  -8   6   85.49   22.40
   2   8  -6   85.19   20.80
  -2  -8   6  121.19   23.10
   1   8  -6  175.78   25.60
  -1  -8   6  227.48   26.60
   0   8  -6   80.89   20.70
   0  -8   6   92.29   18.70
   1  -8   6  265.07   22.60
   1  -8   6  301.77   27.30
  -2   8  -6  147.59   23.90
   2  -8   6  186.78   19.60
  -3   8  -6  282.67   32.00
   3  -8   6  344.97   25.00
   4  -8   6   36.50   18.20
   4   7  -6   52.39   20.30
  -4  -7   6   78.09   22.50
   3   7  -6  206.18   28.10
  -3  -7   6  193.08   26.70
   2   7  -6   91.19   19.80
  -2  -7   6  168.38   22.80
   1   7  -6  259.47   24.80
   1   7  -6  286.37   28.00
  -1  -7   6  335.97   26.00
   0   7  -6  186.68   22.40
   0  -7   6  197.08   19.20
   0  -7   6  221.68   22.40
  -1   7  -6  409.96   30.30
   1  -7   6  404.26   24.50
   1  -7   6  426.26   26.80
  -2   7  -6  351.86   30.20
   2  -7   6  372.36   22.80
   3  -7   6  319.17   22.10
  -4   7  -6  109.69   19.30
   4  -7   6   77.69   19.00
  -5   7  -6  202.58   26.40
   5  -7   6  201.18   29.30
   4   6  -6   73.29   21.00
  -4  -6   6   95.79   20.60
   3   6  -6  209.28   24.50
   3   6  -6  319.97   30.40
  -3  -6   6  285.77   26.90
   2   6  -6  149.59   21.00
   2   6  -6  122.89   18.60
  -2  -6   6  147.79   20.20
   1   6  -6  829.92   40.00
  -1  -6   6  827.42   38.00
   0   6  -6  263.47   23.20
   0  -6   6  233.38   19.00
   0  -6   6  288.47   18.60
  -1   6  -6  634.04   35.20
   1  -6   6  645.84   28.10
   1  -6   6  585.44   29.20
  -2   6  -6  275.87   24.50
   2  -6   6  275.47   18.50
  -3   6  -6  610.54   30.90
   3  -6   6  610.44   28.50
   3  -6   6  621.44   35.90
  -4   6  -6  157.98   20.40
   4  -6   6   78.99   19.80
   4  -6   6  108.79   19.60
  -5   6  -6  250.37   27.80
   5  -6   6  285.17   30.80
   5   5  -6  162.98   26.60
  -5  -5   6  261.07   31.00
   4   5  -6   91.89   18.50
   4   5  -6  125.69   20.90
  -4  -5   6  119.49   21.10
   3   5  -6  558.84   32.00
   3   5  -6  501.25   32.10
  -3  -5   6  525.25   32.20
   2   5  -6  172.58   19.30
   2   5  -6  180.48   20.70
  -2  -5   6  188.58   19.50
   1   5  -6 1398.16   54.39
  -1  -5   6 1328.57   49.80
  -1  -5   6 1325.47   47.80
   0   5  -6  264.77   21.70
   0  -5   6  270.87   16.40
   0  -5   6  258.67   17.60
  -1   5  -6  800.32   38.30
   1  -5   6  768.62   31.30
   1  -5   6  784.92   31.30
  -2   5  -6  266.67   22.50
  -2   5  -6  230.08   15.40
   2  -5   6  255.37   16.60
  -3   5  -6  870.21   36.00
   3  -5   6  832.22   41.00
   3  -5   6  828.32   34.10
  -4   5  -6  238.28   22.70
   4  -5   6  253.77   24.70
   4  -5   6  219.98   17.40
  -5   5  -6  378.06   30.60
   5  -5   6  358.36   30.70
  -6   5  -6  128.59   24.40
   6  -5   6  163.78   28.50
   5   4  -6  323.07   34.60
  -5  -4   6  242.28   28.20
   4   4  -6  293.97   27.50
  -4  -4   6  256.97   26.30
   3   4  -6  650.83   35.50
   3   4  -6  652.43   31.60
  -3  -4   6  644.74   33.00
   2   4  -6  133.39   17.60
  -2  -4   6  145.79   13.90
  -2  -4   6  129.69   15.10
   1   4  -6 1478.15   58.49
  -1  -4   6 1604.14   52.09
  -1  -4   6 1605.04   54.09
   0   4  -6  285.97   20.90
   0  -4   6  293.37   15.80
   0  -4   6  262.97   15.80
  -1   4  -6 1131.39   46.70
   1  -4   6 1141.89   38.80
   1  -4   6 1118.49   39.80
  -2   4  -6  171.88   13.00
   2  -4   6  192.28   13.30
   2  -4   6  187.38   17.30
  -3   4  -6 1510.45   54.19
   3  -4   6 1507.55   59.09
   3  -4   6 1567.84   52.69
  -4   4  -6  322.77   24.00
   4  -4   6  329.57   20.10
   4  -4   6  344.57   26.10
  -5   4  -6  386.46   30.50
   5  -4   6  433.46   31.70
  -6   4  -6  113.99   22.40
   6  -4   6  107.29   22.50
   5   3  -6  336.97   32.30
  -5  -3   6  339.47   30.50
   4   3  -6  376.36   29.90
  -4  -3   6  405.16   27.80
   3   3  -6  577.84   27.10
   3   3  -6  600.44   33.00
  -3  -3   6  617.24   30.70
   2   3  -6  183.58   17.80
  -2  -3   6  176.18   13.00
  -2  -3   6  162.68   15.10
   1   3  -6 1507.15   56.09
  -1  -3   6 1495.55   48.40
  -1  -3   6 1466.55   50.49
   0   3  -6  767.42   35.40
   0  -3   6  832.62   29.40
   0  -3   6  765.12   29.10
  -1   3  -6 1568.94   47.90
  -1   3  -6 1569.24   57.29
   1  -3   6 1513.65   50.39
   1  -3   6 1513.95   47.80
  -2   3  -6  401.66   19.40
   2  -3   6  388.86   23.30
   2  -3   6  381.46   19.10
  -3   3  -6 1651.63   56.89
   3  -3   6 1615.14   55.29
   3  -3   6 1634.04   60.99
  -4   3  -6  303.27   22.70
   4  -3   6  314.27   24.20
   4  -3   6  337.57   20.40
  -5   3  -6  457.95   31.20
   5  -3   6  381.86   29.80
  -6   3  -6   96.39   21.30
   6  -3   6  107.29   21.30
   6   2  -6  106.49   24.30
  -6  -2   6  103.59   21.20
   5   2  -6  259.17   30.20
  -5  -2   6  310.07   28.10
   4   2  -6  444.16   31.70
  -4  -2   6  464.85   28.50
   3   2  -6  517.95   29.30
   3   2  -6  476.95   22.50
  -3  -2   6  493.85   26.40
   2   2  -6  440.66   25.40
  -2  -2   6  428.06   18.30
  -2  -2   6  417.66   22.30
   1   2  -6 1372.56   52.09
  -1  -2   6 1409.26   45.20
  -1  -2   6 1440.96   47.90
   0   2  -6 2601.54   81.89
   0  -2   6 2387.56   73.89
   0  -2   6 2406.36   74.19
  -1   2  -6 1260.67   48.60
  -1   2  -6 1319.77   41.50
   1  -2   6 1282.87   43.30
  -2   2  -6  532.15   22.90
   2  -2   6  533.35   26.60
   2  -2   6  485.05   22.60
  -3   2  -6  942.11   37.30
   3  -2   6  909.51   36.30
   3  -2   6  944.01   40.20
  -4   2  -6  543.85   29.30
   4  -2   6  498.45   26.90
   4  -2   6  548.85   30.50
  -5   2  -6  334.07   27.90
   5  -2   6  302.57   26.70
   5  -2   6  426.56   26.00
  -6   2  -6  159.58   24.00
   6  -2   6  191.38   26.80
   6   1  -6  116.49   24.60
  -6  -1   6  114.59   21.60
   5   1  -6  307.17   30.00
  -5  -1   6  306.67   27.90
   4   1  -6  385.36   28.50
  -4  -1   6  347.17   26.00
   3   1  -6  839.92   30.30
   3   1  -6  846.82   39.10
  -3  -1   6  813.12   36.50
   2   1  -6  887.01   37.80
   2   1  -6  883.71   29.60
  -2  -1   6  879.61   35.20
  -2  -1   6  875.41   29.70
   1   1  -6 1683.33   51.09
   1   1  -6 1676.23   58.79
  -1  -1   6 1686.53   51.79
  -1  -1   6 1648.73   54.99
   0   1  -6 1680.43   53.79
   0   1  -6 1803.02   60.49
   0  -1   6 1719.33   54.19
   0  -1   6 1730.23   54.29
  -1   1  -6  981.50   33.90
  -1   1  -6  957.10   38.80
   1  -1   6  965.10   34.80
  -2   1  -6  462.65   21.90
   2  -1   6  510.95   25.00
   2  -1   6  478.55   22.60
  -3   1  -6  780.02   33.20
   3  -1   6  771.62   33.00
   3  -1   6  818.52   35.50
  -4   1  -6  563.24   30.60
   4  -1   6  591.84   31.40
   4  -1   6  571.24   29.60
  -5   1  -6  371.36   29.10
   5  -1   6  395.96   28.80
   5  -1   6  420.76   28.10
  -6   1  -6  240.98   28.80
   6  -1   6  193.28   25.90
   6   0  -6  128.19   25.20
  -6   0   6  126.79   23.60
   5   0  -6  270.87   30.70
  -5   0   6  330.27   28.90
   4   0  -6  437.56   29.90
  -4   0   6  453.65   29.20
   3   0  -6 1257.77   42.70
   3   0  -6 1229.98   50.39
  -3   0   6 1208.88   48.30
   2   0  -6  984.90   33.70
   2   0  -6  904.51   38.90
  -2   0   6  936.01   30.90
  -2   0   6  999.20   39.00
   1   0  -6  826.82   30.80
   1   0  -6  794.72   34.10
  -1   0   6  858.21   29.10
  -1   0   6  900.61   33.90
   0   0  -6 1244.58   43.90
   0   0  -6 1149.69   40.90
   0   0   6 1155.68   40.40
   0   0   6 1177.58   39.90
  -1   0  -6 1000.00   38.50
  -1   0  -6  943.21   35.60
   1   0   6 1010.90   36.30
  -2   0  -6  743.63   30.50
   2   0   6  699.33   31.20
   2   0   6  810.72   32.10
  -3   0  -6  809.82   34.50
   3   0   6  784.32   34.70
   3   0   6  803.02   35.10
  -4   0  -6  674.83   34.40
   4   0   6  715.83   34.50
   4   0   6  672.53   34.50
  -5   0  -6  305.27   27.70
   5   0   6  294.47   27.40
   5   0   6  324.07   26.50
  -6   0  -6  217.38   28.60
   6  -1  -6  168.28   27.60
  -6   1   6  132.99   23.70
   5  -1  -6  320.47   30.00
  -5   1   6  314.67   29.70
  -5   1   6  301.87   27.00
   4  -1  -6  430.56   30.10
   4  -1  -6  432.36   24.00
  -4   1   6  375.86   28.60
   3  -1  -6  894.71   40.60
   3  -1  -6  914.11   35.30
  -3   1   6  890.31   41.00
   2  -1  -6  750.42   32.50
   2  -1  -6  739.33   29.50
  -2   1   6  691.13   24.30
  -2   1   6  728.13   33.70
   1  -1  -6  639.44   28.40
   1  -1  -6  669.33   28.10
  -1   1   6  696.13   25.20
  -1   1   6  660.83   30.20
   0  -1  -6 1000.20   38.10
   0  -1  -6 1049.49   37.50
   0   1   6  968.70   37.30
   0   1   6  967.10   35.60
  -1  -1  -6 1064.99   39.50
  -1  -1  -6 1029.70   39.00
   1   1   6 1004.60   37.20
   1   1   6 1064.09   38.60
  -2  -1  -6 1103.19   42.70
  -2  -1  -6 1184.88   43.10
   2   1   6 1098.19   42.90
  -3  -1  -6  599.84   30.80
   3   1   6  624.74   31.40
   3   1   6  698.03   31.00
  -4  -1  -6  447.46   28.50
   4   1   6  458.75   28.60
  -5  -1  -6  250.17   27.10
   5   1   6  222.98   25.50
   6  -2  -6  162.48   28.10
  -6   2   6  183.58   25.50
  -6   2   6  149.69   26.40
   5  -2  -6  271.27   24.80
   5  -2  -6  283.77   32.80
  -5   2   6  226.38   28.50
   4  -2  -6  346.07   23.50
   4  -2  -6  352.96   28.30
  -4   2   6  333.27   30.70
   3  -2  -6  771.92   32.80
   3  -2  -6  695.73   35.00
  -3   2   6  677.23   37.00
   2  -2  -6  744.23   32.40
   2  -2  -6  726.63   32.60
  -2   2   6  782.42   36.90
   1  -2  -6  593.64   25.70
   1  -2  -6  614.84   28.30
  -1   2   6  552.64   23.70
  -1   2   6  593.94   30.20
   0  -2  -6 1135.69   43.10
   0  -2  -6 1060.79   38.10
   0   2   6 1087.09   39.80
   0   2   6 1115.39   43.10
  -1  -2  -6  885.31   37.40
   1   2   6  934.11   36.40
   1   2   6  869.21   36.00
  -2  -2  -6  890.31   37.80
   2   2   6  834.42   36.90
  -3  -2  -6  290.87   22.90
   3   2   6  305.77   23.20
  -4  -2  -6  287.27   25.30
   4   2   6  312.67   27.20
  -5  -2  -6  184.18   24.90
   5   2   6  137.59   22.80
   6  -3  -6  122.59   24.40
  -6   3   6  114.69   26.60
  -6   3   6  173.98   29.20
   5  -3  -6  238.08   24.70
   5  -3  -6  138.29   24.40
  -5   3   6  200.68   30.30
   4  -3  -6  411.66   30.30
   4  -3  -6  390.36   27.30
  -4   3   6  397.46   34.40
   3  -3  -6  518.65   30.10
   3  -3  -6  540.65   30.00
  -3   3   6  544.45   34.90
   2  -3  -6  731.23   32.50
   2  -3  -6  761.62   34.80
  -2   3   6  725.33   38.90
   1  -3  -6  524.65   28.30
  -1   3   6  467.75   30.20
  -1   3   6  508.75   23.30
   0  -3  -6 1080.49   44.30
   0   3   6 1081.19   45.80
   0   3   6 1104.79   42.00
  -1  -3  -6  388.06   24.90
   1   3   6  358.36   23.20
   1   3   6  341.47   24.50
  -2  -3  -6  692.13   34.10
   2   3   6  625.84   33.10
  -3  -3  -6  170.68   21.40
   3   3   6  166.98   21.30
  -4  -3  -6  379.36   29.70
   4   3   6  262.47   27.60
  -5  -3  -6  102.69   22.10
   5   3   6  108.89   22.00
   5  -4  -6  161.08   24.10
   5  -4  -6  133.39   23.30
  -5   4   6  121.59   26.90
   4  -4  -6  406.26   30.70
   4  -4  -6  408.56   30.30
  -4   4   6  306.67   33.50
   3  -4  -6  350.76   27.40
  -3   4   6  341.67   33.90
   2  -4  -6  532.35   31.20
  -2   4   6  525.15   36.10
   1  -4  -6  387.86   26.80
  -1   4   6  418.56   23.20
  -1   4   6  357.76   29.90
   0  -4  -6  497.85   30.70
   0   4   6  567.44   29.60
   0   4   6  632.04   36.00
  -1  -4  -6  295.77   23.70
   1   4   6  242.28   23.60
   1   4   6  214.78   23.90
  -2  -4  -6  385.06   28.80
   2   4   6  455.75   30.40
  -3  -4  -6  171.38   22.70
   3   4   6  142.19   22.20
  -4  -4  -6  359.86   34.40
   4   4   6  293.97   33.00
   5  -5  -6  103.39   22.20
  -5   5   6   70.89   27.60
   4  -5  -6  311.47   31.20
  -4   5   6  283.07   36.60
   3  -5  -6  244.28   27.20
  -3   5   6  154.98   26.80
   2  -5  -6  305.97   28.90
  -2   5   6  278.17   32.90
   1  -5  -6  271.17   27.10
  -1   5   6  249.58   30.80
   0  -5  -6  469.55   31.70
   0   5   6  425.96   29.40
   0   5   6  439.66   36.40
  -1  -5  -6  261.67   26.50
   1   5   6  218.48   24.40
   1   5   6  210.58   27.80
  -2  -5  -6  275.47   28.70
   2   5   6  306.07   29.90
  -3  -5  -6  146.79   24.30
   3   5   6  153.68   25.30
   4  -6  -6  257.47   30.90
  -4   6   6  231.58   38.30
   3  -6  -6   93.29   21.30
  -3   6   6   97.79   28.10
   2  -6  -6  264.67   29.50
  -2   6   6  276.77   35.00
   1  -6  -6  146.39   23.00
  -1   6   6  110.49   26.50
   0  -6  -6  397.96   32.60
   0   6   6  319.07   29.70
   0   6   6  349.77   38.70
  -1  -6  -6  152.58   24.30
   1   6   6  134.49   28.00
   1   6   6  140.19   23.20
  -2  -6  -6  165.88   24.40
   2   6   6  150.48   25.50
   3  -7  -6   17.30   18.60
  -3   7   6    9.40   28.00
   2  -7  -6  157.48   25.70
  -2   7   6  158.18   35.90
   1  -7  -6   61.89   21.20
  -1   7   6  107.09   29.80
   0  -7  -6  222.08   28.20
   0   7   6  200.38   28.10
   0   7   6  210.78   35.40
  -1  -7  -6   80.39   21.60
   1   7   6   46.60   22.20
   1   7   6   81.49   29.30
   1   9  -7   38.70   19.40
  -1  -9   7   55.59   20.00
   0   9  -7   81.89   24.60
   0  -9   7  129.29   23.20
  -1   9  -7   91.59   24.60
   1  -9   7  115.39   21.30
   2  -9   7  118.19   17.80
   3  -9   7   62.19   15.60
   2   8  -7   84.89   21.60
  -2  -8   7   57.59   19.00
   1   8  -7  114.79   22.30
  -1  -8   7  142.89   23.40
   0   8  -7  140.99   24.50
   0  -8   7  141.49   21.40
  -1   8  -7  225.68   27.70
   1  -8   7  253.47   25.70
   1  -8   7  243.38   22.60
  -2   8  -7  134.99   24.40
   2  -8   7  120.69   16.80
  -3   8  -7  159.78   27.20
   3  -8   7  193.58   20.00
  -4   8  -7   77.99   24.90
   3   7  -7  138.49   24.20
  -3  -7   7  122.09   24.20
   2   7  -7  136.49   26.50
   2   7  -7  182.98   24.70
  -2  -7   7  164.78   24.10
   1   7  -7  260.27   29.00
   1   7  -7  233.88   26.70
  -1  -7   7  262.87   25.10
   0   7  -7  224.28   25.60
   0  -7   7  234.58   22.80
   0  -7   7  250.77   20.50
  -1   7  -7  315.67   29.80
   1  -7   7  387.66   23.30
   1  -7   7  370.96   26.00
  -2   7  -7  258.37   29.70
   2  -7   7  233.48   19.80
  -3   7  -7  258.77   30.70
   3  -7   7  294.27   21.90
   4  -7   7   57.59   18.50
  -5   7  -7  166.18   25.00
   5  -7   7  139.29   25.50
   4   6  -7  109.79   31.60
   4   6  -7   76.49   23.30
  -4  -6   7   99.09   22.20
   3   6  -7  120.99   21.20
   3   6  -7  143.89   21.80
  -3  -6   7  176.98   23.70
   2   6  -7  236.48   24.70
   2   6  -7  256.47   27.30
  -2  -6   7  230.88   23.90
   1   6  -7  469.05   31.20
  -1  -6   7  440.76   28.30
  -1  -6   7  496.65   25.90
   0   6  -7  345.27   27.60
   0  -6   7  373.96   21.40
   0  -6   7  354.86   23.30
  -1   6  -7  400.06   30.10
   1  -6   7  376.16   21.90
   1  -6   7  383.06   23.20
  -2   6  -7  250.17   27.20
   2  -6   7  270.87   18.80
   3  -6   7  388.56   23.50
   3  -6   7  416.06   30.30
  -4   6  -7  180.98   21.30
   4  -6   7  239.48   27.90
   4  -6   7  166.28   18.40
  -5   6  -7  276.37   29.00
   5  -6   7  256.87   31.50
   5   5  -7   66.59   21.30
  -5  -5   7  106.99   22.70
   4   5  -7  162.78   25.10
  -4  -5   7  244.08   27.80
   3   5  -7  298.47   24.20
   3   5  -7  242.48   27.30
  -3  -5   7  278.67   25.40
   2   5  -7  324.27   26.90
  -2  -5   7  339.87   24.60
   1   5  -7  678.63   37.30
  -1  -5   7  745.73   31.00
  -1  -5   7  731.13   33.00
   0   5  -7  328.77   25.30
   0  -5   7  345.77   20.90
   0  -5   7  332.27   19.10
  -1   5  -7  419.26   28.60
   1  -5   7  440.56   21.40
   1  -5   7  392.06   21.00
  -2   5  -7  357.76   20.00
  -2   5  -7  366.76   26.90
   2  -5   7  341.47   20.10
  -3   5  -7  713.83   32.90
   3  -5   7  704.13   31.90
   3  -5   7  772.92   40.00
  -4   5  -7  230.88   22.50
   4  -5   7  221.48   27.50
   4  -5   7  254.47   19.20
  -5   5  -7  265.17   27.90
   5  -5   7  326.57   34.50
   5   4  -7  112.29   24.10
  -5  -4   7  171.68   25.80
   4   4  -7  193.18   25.60
  -4  -4   7  291.87   28.00
   3   4  -7  364.96   28.50
   3   4  -7  354.16   23.30
  -3  -4   7  391.86   25.90
   2   4  -7  319.97   25.50
  -2  -4   7  331.17   19.10
  -2  -4   7  309.97   21.40
   1   4  -7  776.72   39.10
  -1  -4   7  844.92   34.10
  -1  -4   7  813.92   31.80
   0   4  -7  427.46   26.90
   0  -4   7  417.06   21.00
   0  -4   7  420.26   20.40
  -1   4  -7  719.63   36.70
   1  -4   7  712.33   29.60
   1  -4   7  753.62   28.30
  -2   4  -7  426.46   20.80
  -2   4  -7  413.76   27.50
   2  -4   7  395.16   21.30
  -3   4  -7 1107.79   42.80
   3  -4   7 1130.69   41.70
   3  -4   7  999.00   47.40
  -4   4  -7  258.57   22.90
   4  -4   7  291.57   26.10
   4  -4   7  294.07   20.70
  -5   4  -7  333.87   29.10
   5  -4   7  292.87   29.10
   5   3  -7  248.18   32.40
  -5  -3   7  241.38   29.00
   4   3  -7  257.97   29.30
  -4  -3   7  279.17   27.20
   3   3  -7  499.15   31.40
   3   3  -7  473.55   25.20
  -3  -3   7  487.55   28.00
   2   3  -7  236.18   21.20
  -2  -3   7  246.88   14.90
  -2  -3   7  239.68   18.10
   1   3  -7 1235.58   50.69
  -1  -3   7 1240.18   44.80
  -1  -3   7 1237.08   42.30
   0   3  -7  523.65   29.80
   0  -3   7  566.74   23.90
   0  -3   7  626.64   24.80
  -1   3  -7 1424.06   53.59
  -1   3  -7 1346.97   42.30
   1  -3   7 1278.17   42.10
   1  -3   7 1220.18   44.70
  -2   3  -7  298.17   16.90
  -2   3  -7  291.47   22.20
   2  -3   7  272.87   17.00
  -3   3  -7 1415.86   51.09
   3  -3   7 1327.17   49.90
   3  -3   7 1450.35   56.89
  -4   3  -7  178.08   19.60
   4  -3   7  161.88   21.20
   4  -3   7  193.38   18.70
  -5   3  -7  421.16   31.00
   5  -3   7  372.66   30.50
   5  -3   7  372.16   25.90
  -6   3  -7   95.09   20.90
   6  -3   7   95.09   21.00
   5   2  -7  223.18   30.90
  -5  -2   7  311.17   31.40
   4   2  -7  276.97   27.10
  -4  -2   7  257.17   24.50
   3   2  -7  736.23   38.40
  -3  -2   7  763.62   35.80
   2   2  -7  312.17   23.10
  -2  -2   7  344.37   21.20
  -2  -2   7  322.27   16.20
   1   2  -7 1111.29   46.00
  -1  -2   7 1106.49   41.10
  -1  -2   7 1136.49   38.40
   0   2  -7 1061.29   44.10
   0  -2   7 1064.89   37.00
   0  -2   7 1060.29   37.20
  -1   2  -7 1450.25   46.20
  -1   2  -7 1420.76   54.59
   1  -2   7 1374.76   47.90
  -2   2  -7  311.87   22.20
  -2   2  -7  275.27   16.40
   2  -2   7  227.48   15.90
  -3   2  -7 1043.90   40.10
   3  -2   7  994.40   44.00
   3  -2   7  925.71   39.10
  -4   2  -7  305.07   23.70
   4  -2   7  273.77   21.50
   4  -2   7  275.97   24.40
  -5   2  -7  523.15   33.70
   5  -2   7  512.55   33.90
   5  -2   7  457.85   30.10
  -6   2  -7  100.99   22.40
   6  -2   7   93.29   20.80
   6   1  -7  113.59   25.80
  -6  -1   7   58.79   20.00
   5   1  -7  331.57   31.70
  -5  -1   7  344.17   32.80
   4   1  -7  278.07   26.70
  -4  -1   7  274.77   25.30
   3   1  -7 1163.78   49.30
  -3  -1   7 1070.39   45.80
   2   1  -7  291.77   14.70
   2   1  -7  320.77   22.50
  -2  -1   7  284.07   19.90
  -2  -1   7  308.37   14.90
   1   1  -7 1026.10   42.90
  -1  -1   7 1078.29   36.10
  -1  -1   7 1046.30   39.30
   0   1  -7 1216.38   47.60
   0   1  -7 1164.78   41.00
   0  -1   7 1193.98   41.20
   0  -1   7 1262.97   41.70
  -1   1  -7 1144.49   41.10
  -1   1  -7 1281.67   48.10
   1  -1   7 1177.78   42.50
  -2   1  -7  331.07   18.60
  -2   1  -7  281.37   21.20
   2  -1   7  296.57   18.60
  -3   1  -7  841.82   35.30
   3  -1   7  769.72   35.00
   3  -1   7  801.52   37.60
  -4   1  -7  371.16   26.30
   4  -1   7  409.56   26.50
   4  -1   7  413.36   27.80
  -5   1  -7  473.45   32.90
   5  -1   7  415.76   30.80
   5  -1   7  474.35   32.30
   6   0  -7   31.50   18.20
  -6   0   7   62.39   20.70
   5   0  -7  319.57   31.50
  -5   0   7  332.57   32.70
   4   0  -7  182.98   24.50
  -4   0   7  214.88   23.80
   3   0  -7 1566.44   61.19
   3   0  -7 1557.44   51.69
  -3   0   7 1471.65   58.19
   2   0  -7  230.08   19.40
   2   0  -7  249.88   15.10
  -2   0   7  245.88   19.80
  -2   0   7  248.38   12.70
   1   0  -7 1002.20   40.80
   1   0  -7 1030.20   36.90
  -1   0   7  995.80   34.60
  -1   0   7  991.80   39.50
   0   0  -7  706.53   31.60
   0   0  -7  671.13   28.60
   0   0   7  702.63   28.70
   0   0   7  681.03   27.60
  -1   0  -7 1597.44   55.19
  -1   0  -7 1638.14   58.59
   1   0   7 1642.14   55.19
  -2   0  -7  311.17   21.00
  -2   0  -7  289.77   18.90
   2   0   7  309.87   20.00
  -3   0  -7  715.53   33.40
   3   0   7  734.93   34.10
   3   0   7  668.83   33.70
  -4   0  -7  398.46   28.00
   4   0   7  394.96   27.90
   4   0   7  439.86   28.30
  -5   0  -7  415.06   32.80
   5   0   7  433.86   31.90
   6  -1  -7   72.19   22.70
  -6   1   7   48.30   21.30
   5  -1  -7  388.76   34.40
  -5   1   7  352.56   33.20
   4  -1  -7  237.38   19.70
   4  -1  -7  212.28   25.00
  -4   1   7  214.38   25.00
   3  -1  -7 1374.46   57.29
   3  -1  -7 1545.05   52.09
  -3   1   7 1456.85   58.69
   2  -1  -7  123.49   16.40
   2  -1  -7  146.29   14.90
  -2   1   7  153.78   18.50
   1  -1  -7  961.20   39.20
   1  -1  -7  969.80   38.50
  -1   1   7 1037.10   40.90
  -1   1   7  979.40   35.10
   0  -1  -7  414.66   23.00
   0  -1  -7  466.35   24.10
   0   1   7  440.16   23.80
   0   1   7  443.26   21.60
  -1  -1  -7 1541.75   57.39
  -1  -1  -7 1713.93   58.39
   1   1   7 1677.83   57.39
   1   1   7 1724.03   55.99
  -2  -1  -7  298.17   21.10
  -2  -1  -7  284.07   20.50
   2   1   7  285.57   20.50
  -3  -1  -7  563.24   30.70
   3   1   7  575.34   31.00
  -4  -1  -7  317.97   26.90
   4   1   7  375.36   28.40
  -5  -1  -7  282.97   30.10
   5   1   7  265.37   28.60
   5  -2  -7  404.56   28.30
   5  -2  -7  353.66   33.60
  -5   2   7  395.96   36.60
   4  -2  -7  180.28   20.00
   4  -2  -7  199.48   25.50
  -4   2   7  135.79   24.20
   3  -2  -7  951.60   44.20
   3  -2  -7  996.00   41.30
  -3   2   7  962.50   47.10
   2  -2  -7  145.39   17.10
   2  -2  -7  173.88   18.50
  -2   2   7  175.38   21.30
   1  -2  -7 1070.79   42.90
   1  -2  -7 1008.50   39.90
  -1   2   7 1016.80   44.60
  -1   2   7 1082.69   38.30
   0  -2  -7  269.27   20.50
   0   2   7  249.38   17.60
   0   2   7  249.38   21.10
  -1  -2  -7 1805.32   62.39
   1   2   7 1657.93   59.79
   1   2   7 1688.03   59.89
  -2  -2  -7  204.08   20.40
   2   2   7  207.88   20.90
  -3  -2  -7  482.15   30.70
   3   2   7  510.15   30.90
  -4  -2  -7  131.89   20.40
   4   2   7  169.98   22.80
  -5  -2  -7  229.78   28.40
   5   2   7  287.27   30.80
   5  -3  -7  270.87   31.90
   5  -3  -7  282.87   28.20
  -5   3   7  239.88   33.50
   4  -3  -7  154.38   23.10
   4  -3  -7  124.89   19.80
  -4   3   7  149.39   26.50
   3  -3  -7  566.24   32.50
   3  -3  -7  517.95   31.30
  -3   3   7  462.15   35.80
   2  -3  -7  305.17   24.30
  -2   3   7  335.77   29.40
   1  -3  -7  869.71   39.70
  -1   3   7  811.22   42.40
  -1   3   7  827.02   33.80
   0  -3  -7  345.47   24.40
   0   3   7  316.67   26.40
   0   3   7  347.97   22.40
  -1  -3  -7  931.01   41.60
   1   3   7  780.12   39.40
   1   3   7  886.11   39.00
  -2  -3  -7  181.38   21.60
   2   3   7  164.68   20.30
  -3  -3  -7  419.96   30.50
   3   3   7  365.36   29.50
  -4  -3  -7  139.09   23.00
   4   3   7  117.29   22.00
   5  -4  -7  210.68   26.60
  -5   4   7  202.88   33.50
   4  -4  -7  128.89   22.20
  -4   4   7  103.69   24.60
   3  -4  -7  362.56   29.10
  -3   4   7  286.47   33.40
   2  -4  -7  484.45   32.10
  -2   4   7  494.45   38.10
   1  -4  -7  465.25   31.50
  -1   4   7  454.85   36.80
  -1   4   7  504.35   33.30
   0  -4  -7  271.47   26.10
   0   4   7  254.37   23.50
   0   4   7  241.28   28.00
  -1  -4  -7  364.16   28.00
   1   4   7  307.37   29.80
   1   4   7  352.96   27.50
  -2  -4  -7  200.68   25.10
   2   4   7  218.58   25.80
  -3  -4  -7  207.68   26.40
   3   4   7  252.37   28.80
  -4  -4  -7   94.49   21.60
   4   4   7   73.79   20.80
   4  -5  -7  144.69   24.60
  -4   5   7  101.89   28.50
   3  -5  -7  245.18   28.10
  -3   5   7  292.77   37.80
   2  -5  -7  247.78   28.30
  -2   5   7  246.38   32.80
   1  -5  -7  202.38   25.60
  -1   5   7  225.98   31.00
   0  -5  -7  242.98   27.30
   0   5   7  182.18   28.30
   0   5   7  185.28   23.10
  -1  -5  -7  186.98   24.70
   1   5   7  171.58   26.50
   1   5   7  184.38   24.40
  -2  -5  -7  191.58   25.80
   2   5   7  216.08   27.30
  -3  -5  -7  146.59   25.40
   3   5   7  145.29   26.70
   3  -6  -7  150.68   25.60
  -3   6   7  104.09   31.00
   2  -6  -7  132.19   24.20
  -2   6   7   92.99   27.70
   1  -6  -7  171.78   25.70
  -1   6   7  131.79   28.20
   0  -6  -7  166.78   25.80
   0   6   7  163.98   25.10
   0   6   7  162.38   32.40
  -1  -6  -7  108.59   23.80
   1   6   7   93.49   27.10
   1   6   7  127.49   24.20
  -2  -6  -7  170.98   28.00
   2   6   7  132.69   26.60
  -2   7   7  135.79   35.20
   1  -7  -7  145.89   27.00
  -1   7   7  116.99   33.10
   0  -7  -7   93.79   24.30
   0   7   7   85.39   29.20
   1   9  -8   72.69   22.60
  -1  -9   8   50.19   20.30
   0   9  -8  109.49   26.70
   0  -9   8  129.09   24.50
   1  -9   8   20.20   13.10
   2  -9   8  107.79   18.10
   2   8  -8  104.19   23.00
  -2  -8   8  145.29   24.20
   1   8  -8   61.79   18.70
  -1  -8   8   28.90   15.20
   0   8  -8  195.08   26.90
   0  -8   8  208.98   25.30
   0  -8   8  221.28   22.50
  -1   8  -8   93.79   21.20
   1  -8   8  131.09   18.20
  -2   8  -8  214.18   30.60
   2  -8   8  213.28   21.90
  -3   8  -8   67.69   22.00
   3  -8   8   68.99   14.10
  -4   8  -8  148.39   29.40
   3   7  -8   29.50   18.00
  -3  -7   8   54.79   19.10
   2   7  -8  224.28   26.90
   2   7  -8  270.07   30.50
  -2  -7   8  235.18   27.10
   1   7  -8  131.69   22.50
  -1  -7   8  113.19   17.20
  -1  -7   8  123.29   19.70
   0   7  -8  293.37   28.60
   0  -7   8  320.77   23.40
   0  -7   8  301.67   25.20
  -1   7  -8  222.48   28.00
   1  -7   8  239.38   20.20
  -2   7  -8  333.57   33.40
   2  -7   8  352.56   23.80
  -3   7  -8   77.69   21.40
   3  -7   8  114.19   16.30
  -4   7  -8  234.28   32.70
   4  -7   8  261.27   23.00
   4   6  -8  133.39   25.30
  -4  -6   8  202.18   27.80
   3   6  -8   87.59   20.60
   3   6  -8   93.69   19.10
  -3  -6   8  132.39   21.60
   2   6  -8  388.06   32.40
   2   6  -8  383.96   29.80
  -2  -6   8  488.25   31.00
   1   6  -8  147.29   21.90
  -1  -6   8  129.49   16.80
  -1  -6   8  150.58   19.10
   0   6  -8  489.35   34.80
   0  -6   8  532.25   27.00
   0  -6   8  547.85   29.00
  -1   6  -8  274.07   29.70
   1  -6   8  247.08   18.90
  -2   6  -8  448.16   34.50
   2  -6   8  454.95   25.30
  -3   6  -8  173.08   25.50
   3  -6   8  180.28   18.50
   4  -6   8  320.07   33.60
   4  -6   8  281.47   22.80
  -5   6  -8  134.09   22.80
   5  -6   8  185.38   28.20
   4   5  -8  180.18   27.60
  -4  -5   8  242.98   29.00
   3   5  -8  148.79   24.00
   3   5  -8  158.38   20.30
  -3  -5   8  165.48   22.40
   2   5  -8  544.75   36.80
  -2  -5   8  619.94   28.90
  -2  -5   8  612.54   33.20
   1   5  -8  182.98   23.90
  -1  -5   8  173.08   16.90
  -1  -5   8  159.98   17.60
   0   5  -8  600.84   35.80
   0  -5   8  598.64   28.80
   0  -5   8  634.14   28.30
  -1   5  -8  220.58   25.70
   1  -5   8  228.58   17.10
  -2   5  -8  662.53   39.00
   2  -5   8  643.44   30.20
  -3   5  -8  246.48   28.90
  -3   5  -8  230.58   19.90
   3  -5   8  268.37   19.70
  -4   5  -8  309.07   26.00
   4  -5   8  333.57   31.00
   4  -5   8  334.47   23.60
  -5   5  -8  155.08   23.10
   5  -5   8  169.98   26.50
   5   4  -8   79.89   22.70
  -5  -4   8   99.99   23.20
   4   4  -8  252.77   31.50
  -4  -4   8  348.37   32.20
   3   4  -8  219.38   22.40
   3   4  -8  280.57   31.00
  -3  -4   8  255.57   24.00
   2   4  -8  518.95   34.30
  -2  -4   8  580.14   30.30
  -2  -4   8  581.34   26.50
   1   4  -8  178.48   22.60
  -1  -4   8  153.68   16.30
  -1  -4   8  171.78   15.50
   0   4  -8  832.92   40.80
   0  -4   8  841.92   32.80
   0  -4   8  729.03   31.80
  -1   4  -8  284.67   24.90
   1  -4   8  289.57   18.00
  -2   4  -8 1039.40   48.50
  -2   4  -8 1035.90   38.40
   2  -4   8 1033.80   40.30
  -3   4  -8  282.37   20.40
   3  -4   8  260.27   24.70
   3  -4   8  228.18   18.50
  -4   4  -8  425.56   29.10
   4  -4   8  513.45   28.20
   4  -4   8  501.35   35.00
  -5   4  -8  160.78   22.30
   5  -4   8  179.58   20.50
   5  -4   8  130.19   22.80
   5   3  -8  155.48   28.10
  -5  -3   8  177.68   26.10
   4   3  -8  343.37   32.60
  -4  -3   8  321.67   29.00
   3   3  -8  272.87   26.40
  -3  -3   8  273.57   18.80
  -3  -3   8  273.37   23.00
   2   3  -8  372.26   27.90
  -2  -3   8  366.06   19.10
  -2  -3   8  307.47   22.10
   1   3  -8  427.76   28.20
  -1  -3   8  408.56   20.60
  -1  -3   8  431.56   23.00
   0   3  -8  970.60   43.60
   0  -3   8  889.11   35.00
   0  -3   8  954.20   35.50
  -1   3  -8  604.24   33.90
  -1   3  -8  624.14   24.10
   1  -3   8  557.94   26.00
  -2   3  -8  799.32   31.90
  -2   3  -8  756.52   39.50
   2  -3   8  824.72   33.70
  -3   3  -8  376.66   23.00
   3  -3   8  370.26   27.50
   3  -3   8  372.06   23.10
  -4   3  -8  443.46   28.80
   4  -3   8  437.26   32.50
   4  -3   8  444.46   27.10
  -5   3  -8  164.88   23.70
   5  -3   8  182.18   25.20
   5  -3   8  186.98   21.70
   5   2  -8  118.79   25.20
  -5  -2   8  184.08   26.60
   4   2  -8  270.87   31.70
  -4  -2   8  273.37   27.90
   3   2  -8  392.76   29.20
  -3  -2   8  389.86   26.90
   2   2  -8  331.17   25.60
  -2  -2   8  337.77   17.80
  -2  -2   8  334.37   23.30
   1   2  -8 1024.30   43.90
  -1  -2   8  958.60   34.90
  -1  -2   8  878.81   37.50
   0   2  -8  920.01   32.20
   0   2  -8  874.01   41.00
   0  -2   8  866.61   33.40
   0  -2   8  870.01   33.40
  -1   2  -8 1039.20   36.60
  -1   2  -8  959.30   44.80
   1  -2   8 1041.80   38.60
  -2   2  -8  351.86   25.90
  -2   2  -8  367.76   20.50
   2  -2   8  361.06   20.70
  -3   2  -8  526.25   27.90
   3  -2   8  533.85   28.00
   3  -2   8  519.55   31.60
  -4   2  -8  342.67   26.30
   4  -2   8  377.46   25.90
   4  -2   8  361.96   29.30
  -5   2  -8  261.07   27.40
   5  -2   8  244.78   28.50
   5  -2   8  254.27   26.00
   5   1  -8  128.29   25.10
  -5  -1   8  182.98   27.80
   4   1  -8  299.07   28.80
  -4  -1   8  324.77   28.90
   3   1  -8  547.85   33.50
  -3  -1   8  501.85   30.90
   2   1  -8  459.45   29.00
  -2  -1   8  478.75   26.90
  -2  -1   8  486.05   21.00
   1   1  -8 1058.29   44.30
  -1  -1   8  968.40   35.60
  -1  -1   8  991.20   39.30
   0   1  -8  791.22   36.20
   0   1  -8  708.73   29.70
   0  -1   8  754.92   29.80
   0  -1   8  723.03   30.00
  -1   1  -8  810.42   33.10
  -1   1  -8  870.51   39.60
   1  -1   8  828.22   33.80
  -2   1  -8  212.98   16.90
  -2   1  -8  209.88   20.70
   2  -1   8  184.88   16.30
  -3   1  -8  614.24   31.20
   3  -1   8  628.64   33.70
   3  -1   8  605.54   31.90
  -4   1  -8  403.26   28.30
   4  -1   8  368.56   27.40
   4  -1   8  402.26   29.90
  -5   1  -8  322.67   30.30
   5  -1   8  299.57   30.00
   5  -1   8  308.77   29.60
   5   0  -8  143.99   24.80
  -5   0   8  183.08   26.90
   4   0  -8  382.16   31.80
  -4   0   8  360.46   30.60
   3   0  -8  533.05   26.60
   3   0  -8  606.94   35.20
  -3   0   8  582.54   33.50
   2   0  -8  574.84   25.60
   2   0  -8  542.65   31.30
  -2   0   8  614.84   27.80
  -2   0   8  527.85   30.60
   1   0  -8  644.14   28.20
   1   0  -8  620.54   32.00
  -1   0   8  671.93   31.40
  -1   0   8  623.14   26.00
   0   0  -8  457.35   26.80
   0   0  -8  526.05   25.30
   0   0   8  475.05   23.30
   0   0   8  513.75   25.30
  -1   0  -8  934.21   40.20
  -1   0  -8  879.81   36.80
   1   0   8  906.01   36.70
  -2   0  -8  284.87   23.20
  -2   0  -8  296.97   20.90
   2   0   8  305.47   21.40
  -3   0  -8  691.93   34.30
  -3   0  -8  670.63   36.80
   3   0   8  680.93   34.90
  -4   0  -8  318.37   29.00
   4   0   8  328.37   27.40
  -5   0  -8  310.77   31.40
   5   0   8  321.67   31.20
   5  -1  -8  177.98   28.60
  -5   1   8  235.98   30.00
   4  -1  -8  304.17   22.60
   4  -1  -8  264.37   30.40
  -4   1   8  300.17   31.20
   3  -1  -8  438.16   30.10
   3  -1  -8  438.56   25.10
  -3   1   8  441.26   32.50
   2  -1  -8  478.25   25.60
   2  -1  -8  460.65   27.80
  -2   1   8  403.06   28.90
   1  -1  -8  334.27   22.70
   1  -1  -8  406.56   24.50
  -1   1   8  415.16   26.20
  -1   1   8  394.06   20.40
   0  -1  -8  624.94   30.20
   0  -1  -8  551.44   28.70
   0   1   8  648.84   28.10
   0   1   8  572.84   29.60
  -1  -1  -8  939.11   39.70
  -1  -1  -8  983.60   40.90
   1   1   8  918.31   39.20
  -2  -1  -8  397.96   25.80
   2   1   8  425.06   26.30
  -3  -1  -8  548.85   31.90
   3   1   8  489.55   31.10
  -4  -1  -8  225.48   25.30
   4   1   8  223.68   25.90
  -5  -1  -8  265.57   30.30
   5   1   8  194.68   26.30
   5  -2  -8  185.88   28.30
   5  -2  -8  158.58   23.80
  -5   2   8  150.68   28.30
   4  -2  -8  111.39   18.50
   4  -2  -8  112.09   20.40
  -4   2   8  113.09   23.50
   3  -2  -8  445.76   30.80
   3  -2  -8  430.86   28.50
  -3   2   8  452.35   35.20
   2  -2  -8  486.75   29.20
   2  -2  -8  505.85   28.70
  -2   2   8  507.65   33.50
   1  -2  -8  599.24   30.70
   1  -2  -8  523.75   30.50
  -1   2   8  584.74   26.40
  -1   2   8  497.95   32.80
   0  -2  -8  472.95   28.10
   0   2   8  464.15   25.70
   0   2   8  436.16   28.80
  -1  -2  -8  852.01   40.00
   1   2   8  848.02   37.80
  -2  -2  -8  296.67   24.70
   2   2   8  298.47   24.00
  -3  -2  -8  282.87   28.00
   3   2   8  303.97   28.00
  -4  -2  -8  144.09   23.20
   4   2   8   86.99   19.30
   5  -3  -8  194.28   25.60
   5  -3  -8  168.68   28.00
  -5   3   8  137.49   30.70
   4  -3  -8   97.59   19.90
   4  -3  -8   67.19   18.20
  -4   3   8  115.19   27.50
   3  -3  -8  569.24   34.60
  -3   3   8  556.74   40.60
   2  -3  -8  345.87   27.40
  -2   3   8  387.76   34.20
   1  -3  -8  562.54   33.30
  -1   3   8  522.95   36.10
  -1   3   8  516.45   28.30
   0  -3  -8  179.28   21.60
   0   3   8  178.28   22.80
   0   3   8  207.38   20.20
  -1  -3  -8  608.74   35.80
   1   3   8  633.14   33.80
  -2  -3  -8  150.18   21.00
   2   3   8  159.28   21.60
  -3  -3  -8  175.28   24.20
   3   3   8  278.27   28.50
  -4  -3  -8   94.29   22.30
   4   3   8   70.89   19.50
   4  -4  -8   70.39   19.90
  -4   4   8  124.49   28.70
   3  -4  -8  462.95   34.40
  -3   4   8  439.26   41.30
   2  -4  -8  235.98   26.20
  -2   4   8  236.88   31.00
   1  -4  -8  373.96   30.80
  -1   4   8  340.67   36.70
   0  -4  -8   85.59   18.20
   0   4   8   73.09   16.00
   0   4   8  109.89   23.00
  -1  -4  -8  362.76   30.60
   1   4   8  366.06   29.10
  -2  -4  -8  181.18   25.30
   2   4   8  193.28   24.80
  -3  -4  -8  221.78   28.00
   3   4   8  193.68   26.90
   4  -5  -8   50.39   21.40
  -4   5   8   27.10   24.00
   3  -5  -8  247.78   29.80
  -3   5   8  273.77   37.40
   2  -5  -8   58.09   19.00
  -2   5   8   74.39   26.50
   1  -5  -8  226.78   27.10
  -1   5   8  225.68   33.50
   0  -5  -8   70.99   20.20
   0   5   8   61.09   17.10
   0   5   8   55.09   22.80
  -1  -5  -8  323.67   32.40
   1   5   8  370.06   33.00
  -2  -5  -8  146.69   24.50
   2   5   8   95.19   22.80
   2  -6  -8   60.29   22.00
  -2   6   8   99.89   31.50
   1  -6  -8  199.88   28.10
  -1   6   8  214.78   37.10
   0  -6  -8   96.69   22.90
   0   6   8   65.09   27.00
  -1  -6  -8  175.88   27.30
   1   6   8  197.28   29.10
   0   9  -9   85.69   24.40
   0  -9   9   47.10   19.30
   1  -9   9   57.19   15.20
   2   8  -9   77.39   21.10
  -2  -8   9   95.59   22.10
   1   8  -9   44.30   18.00
   1   8  -9   40.60   18.90
  -1  -8   9   57.29   17.20
   0   8  -9  165.98   26.20
   0  -8   9  174.08   23.40
   0  -8   9  269.97   25.60
  -1   8  -9  108.39   24.40
   1  -8   9  141.89   18.60
  -2   8  -9  154.78   28.00
   2  -8   9  188.48   21.30
  -3   8  -9   22.20   21.40
   3  -8   9   51.89   14.60
   3   7  -9  110.89   23.40
   3   7  -9   52.69   19.40
  -3  -7   9  103.29   23.70
   2   7  -9  136.59   24.70
   2   7  -9  141.69   24.80
  -2  -7   9  100.69   21.20
   1   7  -9   80.39   21.30
  -1  -7   9  103.69   16.40
  -1  -7   9  118.19   19.70
   0   7  -9  333.07   32.20
   0  -7   9  351.46   24.40
   0  -7   9  368.76   27.70
  -1   7  -9  167.28   26.20
   1  -7   9  165.28   18.40
  -2   7  -9  240.88   31.70
   2  -7   9  245.38   22.60
  -3   7  -9   58.79   20.50
   3  -7   9   61.69   13.50
  -4   7  -9  239.58   34.40
   4  -7   9  230.88   22.70
   3   6  -9  130.39   24.30
   3   6  -9  132.79   21.60
  -3  -6   9  215.38   27.10
   2   6  -9  224.98   30.10
  -2  -6   9  259.27   23.10
  -2  -6   9  287.97   28.00
   1   6  -9  159.78   24.50
  -1  -6   9  138.89   17.60
  -1  -6   9  181.18   21.20
   0   6  -9  333.47   30.60
   0  -6   9  371.16   25.80
   0  -6   9  404.36   24.60
  -1   6  -9  182.08   25.90
   1  -6   9  220.98   19.20
  -2   6  -9  336.27   32.60
   2  -6   9  338.37   23.40
  -3   6  -9   79.49   21.30
   3  -6   9   61.19   13.50
  -4   6  -9  302.77   36.50
   4  -6   9  299.87   25.10
   4   5  -9  110.49   23.80
  -4  -5   9  170.48   27.10
   3   5  -9  176.58   22.20
   3   5  -9  180.68   26.70
  -3  -5   9  178.78   24.00
   2   5  -9  339.77   32.00
  -2  -5   9  346.37   23.20
  -2  -5   9  300.77   25.70
   1   5  -9  181.78   24.90
  -1  -5   9  187.78   19.50
  -1  -5   9  168.28   17.30
   0   5  -9  377.16   31.20
   0  -5   9  370.56   22.30
   0  -5   9  404.86   23.50
  -1   5  -9  303.27   29.20
   1  -5   9  272.87   19.90
  -2   5  -9  474.85   35.50
   2  -5   9  486.25   26.70
  -3   5  -9  156.38   24.90
   3  -5   9  205.18   19.60
  -4   5  -9  360.16   28.40
   4  -5   9  385.86   33.90
   4  -5   9  342.47   26.20
  -5   5  -9  116.99   21.50
   5  -5   9  130.09   21.60
   5  -5   9  133.69   25.90
   4   4  -9  216.18   31.40
  -4  -4   9  218.48   27.10
   3   4  -9  145.39   24.20
  -3  -4   9  181.48   23.10
   2   4  -9  501.05   35.70
  -2  -4   9  514.05   30.60
  -2  -4   9  476.15   25.00
   1   4  -9  200.38   25.10
  -1  -4   9  175.78   18.30
  -1  -4   9  196.68   16.40
   0   4  -9  479.35   32.90
   0  -4   9  501.65   25.20
   0  -4   9  510.15   25.20
  -1   4  -9  364.86   29.70
   1  -4   9  350.76   21.40
  -2   4  -9  720.93   42.10
   2  -4   9  758.72   33.60
  -3   4  -9  237.48   21.30
  -3   4  -9  227.08   28.20
   3  -4   9  247.08   20.20
  -4   4  -9  341.97   26.90
   4  -4   9  290.47   31.60
   4  -4   9  321.07   24.40
  -5   4  -9  149.19   23.40
   5  -4   9  130.29   19.20
   5  -4   9  147.19   25.30
   5   3  -9   71.89   22.70
  -5  -3   9  116.79   24.70
   4   3  -9  242.28   32.00
  -4  -3   9  279.47   29.20
   3   3  -9   84.49   19.00
  -3  -3   9  105.89   18.30
   2   3  -9  669.73   40.30
  -2  -3   9  732.73   35.20
  -2  -3   9  729.93   30.20
   1   3  -9  237.98   23.90
  -1  -3   9  250.57   17.10
  -1  -3   9  243.98   19.40
   0   3  -9  925.51   45.10
   0  -3   9  865.91   35.80
   0  -3   9  958.30   36.20
  -1   3  -9  267.17   25.50
   1  -3   9  283.37   18.50
  -2   3  -9  952.70   37.40
  -2   3  -9  943.01   47.50
   2  -3   9  961.80   39.30
  -3   3  -9  167.08   18.20
  -3   3  -9  135.59   21.60
   3  -3   9  167.88   18.60
  -4   3  -9  408.46   29.30
   4  -3   9  406.66   33.50
   4  -3   9  451.65   28.90
  -5   3  -9   85.39   19.40
   5  -3   9   80.29   17.30
   5  -3   9  102.69   22.00
   5   2  -9   90.39   23.70
  -5  -2   9   67.59   21.30
  -4  -2   9  316.87   30.80
   3   2  -9  132.19   22.70
  -3  -2   9  127.09   19.40
   2   2  -9  946.11   47.40
  -2  -2   9  971.40   43.30
  -2  -2   9 1016.90   36.50
   1   2  -9  333.07   27.10
  -1  -2   9  381.46   23.70
  -1  -2   9  377.86   20.20
   0   2  -9  856.71   41.30
   0  -2   9  843.92   33.60
   0  -2   9  782.02   33.10
  -1   2  -9  221.28   16.60
  -1   2  -9  278.57   24.50
   1  -2   9  228.08   17.40
  -2   2  -9  849.72   35.40
  -2   2  -9  839.62   43.20
   2  -2   9  824.32   36.10
  -3   2  -9  194.58   20.30
  -3   2  -9  230.48   26.40
   3  -2   9  232.08   22.30
  -4   2  -9  378.16   28.30
   4  -2   9  388.86   32.30
   4  -2   9  373.86   27.80
  -5   2  -9  145.29   23.00
   5  -2   9  137.09   24.20
   5  -2   9  142.89   21.40
   5   1  -9   89.79   23.70
  -5  -1   9  115.59   25.10
   4   1  -9  371.26   33.80
  -4  -1   9  405.16   33.00
   3   1  -9  186.48   25.10
  -3  -1   9  200.28   23.60
   2   1  -9  899.51   45.00
  -2  -1   9  965.10   35.30
  -2  -1   9  946.31   42.00
   1   1  -9  271.17   23.70
   1   1  -9  297.27   18.50
  -1  -1   9  264.57   17.00
  -1  -1   9  311.97   21.40
   0   1  -9  720.13   36.40
   0   1  -9  685.03   30.20
   0  -1   9  647.04   29.80
   0  -1   9  729.43   30.30
  -1   1  -9  241.98   18.10
  -1   1  -9  227.08   22.80
   1  -1   9  244.88   18.30
  -2   1  -9  765.12   41.00
  -2   1  -9  826.12   35.90
   2  -1   9  865.71   37.60
  -3   1  -9  288.97   27.00
  -3   1  -9  284.97   23.20
   3  -1   9  281.67   23.80
  -4   1  -9  392.96   30.60
   4  -1   9  490.65   32.00
   4  -1   9  470.35   33.70
  -5   1  -9  122.19   22.80
   5  -1   9  128.89   23.30
   5   0  -9   88.19   24.10
  -5   0   9   81.19   23.10
   4   0  -9  407.76   35.10
  -4   0   9  432.26   34.60
   3   0  -9  183.38   24.00
  -3   0   9  230.58   25.20
   2   0  -9  823.72   40.50
   2   0  -9  763.12   33.20
  -2   0   9  768.22   38.70
   1   0  -9  214.38   21.30
   1   0  -9  216.98   17.90
  -1   0   9  175.08   19.90
  -1   0   9  233.28   16.40
   0   0  -9  696.83   35.90
   0   0  -9  683.33   32.70
   0   0   9  721.33   33.20
   0   0   9  825.02   32.80
  -1   0  -9  355.46   25.30
  -1   0  -9  353.76   22.90
   1   0   9  316.17   22.50
  -2   0  -9  693.23   37.80
  -2   0  -9  733.33   35.60
   2   0   9  766.02   35.90
  -3   0  -9  304.97   25.20
   3   0   9  317.77   25.20
  -4   0  -9  311.47   28.80
   4   0   9  305.67   28.80
  -5   0  -9  131.59   23.50
   5   0   9  110.29   21.90
   5  -1  -9   70.49   21.80
  -5   1   9   91.69   24.60
   4  -1  -9  403.46   34.90
  -4   1   9  343.67   36.50
   3  -1  -9  196.38   25.40
   3  -1  -9  269.87   23.70
  -3   1   9  190.28   26.00
   2  -1  -9  658.53   35.90
   2  -1  -9  693.93   33.20
  -2   1   9  642.64   38.30
   1  -1  -9  156.08   18.30
   1  -1  -9  217.18   20.80
  -1   1   9  186.08   16.40
  -1   1   9  182.18   21.50
   0  -1  -9  877.81   38.50
   0  -1  -9  789.12   37.50
   0   1   9  840.42   35.90
   0   1   9  763.92   37.10
  -1  -1  -9  327.27   24.80
   1   1   9  354.76   24.50
  -2  -1  -9  526.95   31.90
   2   1   9  558.74   32.30
  -3  -1  -9  226.88   25.40
   3   1   9  203.68   23.60
  -4  -1  -9  261.07   29.20
   4   1   9  216.58   26.80
   5  -2  -9   83.49   23.70
  -5   2   9   71.09   27.00
   4  -2  -9  331.47   33.00
   4  -2  -9  310.87   28.20
  -4   2   9  298.17   35.00
   3  -2  -9  191.58   24.50
   3  -2  -9  241.18   25.00
  -3   2   9  189.78   28.30
   2  -2  -9  449.86   29.60
   2  -2  -9  426.96   30.30
  -2   2   9  492.25   36.00
   1  -2  -9  210.88   23.30
  -1   2   9  209.58   25.10
  -1   2   9  213.98   19.50
   0  -2  -9  733.63   37.10
   0   2   9  743.13   34.60
   0   2   9  637.94   36.70
  -1  -2  -9  234.88   24.60
   1   2   9  224.18   23.00
  -2  -2  -9  414.86   31.00
   2   2   9  425.36   30.30
  -3  -2  -9   82.69   19.40
   3   2   9  101.99   20.50
  -4  -2  -9  213.88   28.50
   4   2   9  237.88   29.20
   4  -3  -9  256.57   28.60
  -4   3   9  115.19   29.30
   3  -3  -9  230.28   27.50
  -3   3   9  267.47   33.60
   2  -3  -9  323.37   29.00
  -2   3   9  284.77   32.80
   1  -3  -9  242.38   26.80
  -1   3   9  242.48   29.00
   0  -3  -9  348.27   29.50
   0   3   9  320.87   31.20
   0   3   9  368.96   26.40
  -1  -3  -9  270.77   27.80
   1   3   9  215.18   23.90
  -2  -3  -9  283.87   29.50
   2   3   9  251.27   26.70
  -3  -3  -9   72.49   20.20
   3   3   9  117.99   22.70
   4  -4  -9  145.99   25.20
  -4   4   9   95.99   27.70
   3  -4  -9  159.58   25.60
  -3   4   9  181.98   31.40
   2  -4  -9  185.78   25.50
  -2   4   9  185.78   31.10
   1  -4  -9  248.18   28.00
  -1   4   9  241.78   33.10
   0  -4  -9  166.28   24.30
   0   4   9  144.59   26.10
   0   4   9  171.98   22.30
  -1  -4  -9  213.48   27.30
   1   4   9  234.08   26.80
  -2  -4  -9  146.59   25.10
   2   4   9  154.18   24.30
   3  -5  -9   80.09   23.00
  -3   5   9  125.39   32.00
   2  -5  -9  120.59   24.50
  -2   5   9  137.09   30.60
   1  -5  -9  169.08   26.80
  -1   5   9  190.28   33.50
   0  -5  -9  112.69   24.40
   0   5   9   76.49   27.30
  -1  -5  -9  151.88   25.50
   1   5   9  150.18   24.80
   1   8 -10  113.89   25.40
  -1  -8  10   81.49   17.30
  -1  -8  10  159.08   24.70
   0   8 -10   40.00   20.30
   0  -8  10   68.49   16.60
  -1   8 -10  156.38   28.00
   1  -8  10  165.98   20.60
  -2   8 -10   39.30   21.20
   2  -8  10   28.00   13.50
   2   7 -10   64.69   20.90
   2   7 -10   49.40   19.40
  -2  -7  10   33.80   17.80
   1   7 -10  210.28   29.90
  -1  -7  10  232.98   24.10
  -1  -7  10  168.08   23.90
   0   7 -10  128.99   24.50
   0  -7  10  130.19   18.20
  -1   7 -10  259.17   31.70
   1  -7  10  221.78   22.50
  -2   7 -10  107.99   25.90
   2  -7  10   71.49   14.90
  -3   7 -10  119.09   27.10
   3  -7  10  180.98   20.90
   3   6 -10  161.58   24.90
   3   6 -10  169.28   27.90
  -3  -6  10  195.38   27.10
   2   6 -10  140.69   26.50
  -2  -6  10  120.59   17.60
  -2  -6  10  175.18   23.50
   1   6 -10  210.88   28.50
  -1  -6  10  239.88   22.10
  -1  -6  10  230.58   23.90
   0   6 -10  135.49   24.00
   0  -6  10  131.29   17.10
  -1   6 -10  301.87   33.20
   1  -6  10  268.77   21.90
  -2   6 -10  184.88   28.10
   2  -6  10  160.18   18.70
  -3   6 -10  149.79   27.80
   3  -6  10  187.98   20.60
  -4   6 -10  161.28   29.80
   4  -6  10  127.29   19.00
   4   5 -10   37.90   19.40
  -4  -5  10   49.99   20.40
   3   5 -10  189.58   28.20
  -3  -5  10  250.57   28.10
   2   5 -10  216.18   29.80
  -2  -5  10  208.78   20.50
  -2  -5  10  208.58   24.40
   1   5 -10  266.27   31.50
  -1  -5  10  268.67   20.90
  -1  -5  10  236.28   23.20
   0   5 -10  126.99   22.10
   0  -5  10  144.99   16.90
  -1   5 -10  418.26   34.80
   1  -5  10  420.66   25.60
  -2   5 -10  268.97   32.30
   2  -5  10  278.87   22.10
  -3   5 -10  232.28   30.70
   3  -5  10  185.48   20.30
  -4   5 -10  186.48   30.50
   4  -5  10  169.28   20.90
   4   4 -10   96.39   23.20
  -4  -4  10   93.49   23.00
   3   4 -10  173.98   27.60
  -3  -4  10  245.48   27.40
   2   4 -10  249.48   30.70
  -2  -4  10  284.37   20.70
  -2  -4  10  294.17   25.80
   1   4 -10  284.17   28.50
  -1  -4  10  294.07   22.70
  -1  -4  10  300.67   20.50
   0   4 -10  207.58   26.20
   0  -4  10  141.39   16.00
  -1   4 -10  638.64   40.10
   1  -4  10  598.14   29.80
  -2   4 -10  316.27   33.70
   2  -4  10  343.17   23.70
  -3   4 -10  269.37   32.60
   3  -4  10  286.17   23.20
  -4   4 -10  150.28   20.80
  -4   4 -10  138.59   27.40
   4  -4  10  143.69   19.30
   4   3 -10   80.59   22.70
  -4  -3  10  112.59   22.70
   3   3 -10  189.18   26.90
  -3  -3  10  235.58   26.90
   2   3 -10  460.05   35.10
  -2  -3  10  432.26   28.60
  -2  -3  10  405.36   23.40
   1   3 -10  244.08   27.70
  -1  -3  10  233.08   18.10
  -1  -3  10  205.58   20.40
   0   3 -10  347.67   28.60
   0  -3  10  308.47   20.50
  -1   3 -10  419.66   32.50
   1  -3  10  443.96   24.90
  -2   3 -10  532.35   37.00
  -2   3 -10  435.06   30.60
   2  -3  10  562.24   29.20
  -3   3 -10  237.18   22.20
  -3   3 -10  170.48   26.30
   3  -3  10  208.88   22.20
  -4   3 -10  176.78   23.00
  -4   3 -10  172.18   29.20
   4  -3  10  244.88   25.40
  -5   3 -10  213.88   26.90
   5   2 -10   77.39   25.10
  -5  -2  10  169.78   29.10
   4   2 -10  132.49   25.70
  -4  -2  10  192.98   26.30
   3   2 -10  170.38   25.40
  -3  -2  10  152.48   22.50
   2   2 -10  588.24   37.70
  -2  -2  10  522.05   33.00
  -2  -2  10  553.94   26.10
   1   2 -10  260.37   26.10
  -1  -2  10  314.87   19.60
  -1  -2  10  268.57   23.10
   0   2 -10  488.05   32.90
   0  -2  10  520.25   26.50
  -1   2 -10  256.37   27.60
  -1   2 -10  203.78   18.20
   1  -2  10  233.18   19.30
  -2   2 -10  633.44   31.60
  -2   2 -10  646.84   39.70
   2  -2  10  639.04   32.70
  -3   2 -10  162.38   24.60
  -3   2 -10  154.68   19.20
   3  -2  10  186.68   21.00
  -4   2 -10  251.77   26.30
  -4   2 -10  216.48   30.00
   4  -2  10  293.67   28.60
   5   1 -10  132.59   27.90
  -5  -1  10  167.68   29.00
   4   1 -10  173.98   28.20
  -4  -1  10  200.38   27.30
   3   1 -10  209.38   28.60
  -3  -1  10  195.08   25.60
   2   1 -10  511.05   34.90
  -2  -1  10  530.75   32.40
   1   1 -10  295.97   26.20
  -1  -1  10  265.37   23.20
  -1  -1  10  341.57   20.50
   0   1 -10  544.05   28.30
   0   1 -10  576.44   34.50
   0  -1  10  583.54   28.90
  -1   1 -10  178.48   18.20
  -1   1 -10  145.89   21.10
   1  -1  10  199.28   19.80
  -2   1 -10  724.93   35.60
  -2   1 -10  716.83   41.40
   2  -1  10  726.63   36.30
  -3   1 -10  194.58   26.40
  -3   1 -10  161.88   20.30
   3  -1  10  203.28   22.90
  -4   1 -10  349.37   30.40
  -4   1 -10  365.16   42.50
   4  -1  10  353.56   33.20
   5   0 -10   98.59   26.00
  -5   0  10  210.08   31.50
   4   0 -10  185.28   28.10
  -4   0  10  218.58   29.10
   3   0 -10  156.28   24.10
  -3   0  10  175.18   24.00
   2   0 -10  375.76   29.80
  -2   0  10  372.76   29.90
   1   0 -10  398.26   25.20
   1   0 -10  318.37   27.60
  -1   0  10  357.26   22.30
  -1   0  10  355.86   27.00
   0   0 -10  548.85   29.60
   0   0 -10  504.75   31.90
   0   0  10  551.54   28.50
  -1   0 -10  193.18   20.20
  -1   0 -10  165.08   21.50
   1   0  10  193.48   20.60
  -2   0 -10  654.73   35.30
   2   0  10  628.64   35.10
  -3   0 -10  243.78   25.90
   3   0  10  183.98   22.90
  -4   0 -10  325.47   32.00
   4   0  10  319.07   31.40
   4  -1 -10  222.18   31.60
  -4   1  10  229.68   30.90
   3  -1 -10  126.19   22.60
  -3   1  10  115.49   23.30
   2  -1 -10  307.67   25.20
   2  -1 -10  246.38   26.70
  -2   1  10  313.27   30.80
   1  -1 -10  355.36   27.80
   1  -1 -10  399.16   28.10
  -1   1  10  330.47   29.60
  -1   1  10  460.45   25.00
   0  -1 -10  476.55   30.00
   0   1  10  487.45   28.80
  -1  -1 -10  289.27   25.90
   1   1  10  242.48   23.60
  -2  -1 -10  369.36   29.30
   2   1  10  402.26   29.80
  -3  -1 -10  177.88   24.60
   3   1  10  189.58   24.90
  -4  -1 -10  255.07   30.40
   4   1  10  157.28   25.10
   4  -2 -10  215.48   30.40
  -4   2  10  199.58   32.30
   3  -2 -10   86.29   26.20
   3  -2 -10   84.09   18.80
  -3   2  10   59.49   22.10
   2  -2 -10  327.37   28.60
  -2   2  10  339.87   34.40
   1  -2 -10  295.57   28.80
  -1   2  10  275.87   29.30
   0  -2 -10  477.05   32.90
   0   2  10  470.95   30.00
  -1  -2 -10  176.88   22.70
   1   2  10  124.69   19.50
  -2  -2 -10  279.67   29.10
   2   2  10  258.77   27.80
  -3  -2 -10  103.19   21.40
   3   2  10  158.98   25.10
   4  -3 -10  263.17   31.20
  -4   3  10  176.78   33.20
   3  -3 -10   41.80   18.00
  -3   3  10   76.69   25.40
   2  -3 -10  387.66   33.00
  -2   3  10  340.17   36.90
   1  -3 -10  169.48   24.60
  -1   3  10  153.28   27.30
   0  -3 -10  360.76   32.40
   0   3  10  346.37   29.10
  -1  -3 -10   82.79   19.50
   1   3  10   83.69   19.30
  -2  -3 -10  218.18   28.30
   2   3  10  196.28   25.40
  -3  -3 -10   50.49   20.10
   3   3  10   92.29   22.50
   3  -4 -10   46.30   21.00
  -3   4  10   31.10   25.50
   2  -4 -10  320.37   33.40
  -2   4  10  353.76   42.20
   1  -4 -10   50.09   19.20
  -1   4  10   71.09   24.80
   0  -4 -10  206.78   27.00
  -1  -4 -10   54.29   18.80
   1   4  10   49.10   18.30
  -2  -4 -10  162.18   27.40
   2   4  10  166.68   26.40
   1  -5 -10   29.30   20.10
  -1   5  10   11.30   25.30
   0  -5 -10  189.68   28.40
   0   8 -11   31.50   19.30
   0  -8  11   29.10   13.70
  -1   8 -11  146.19   30.30
   1  -8  11  179.48   23.00
   2   7 -11   36.20   20.10
  -2  -7  11   60.59   19.70
   1   7 -11  106.69   25.30
  -1  -7  11  143.19   20.10
  -1  -7  11  192.18   25.10
   0   7 -11   79.59   23.30
   0  -7  11   55.29   14.50
  -1   7 -11  198.88   30.40
   1  -7  11  204.28   22.10
  -2   7 -11   39.00   21.20
   2  -7  11   60.59   14.60
  -3   7 -11  162.28   30.80
   3  -7  11  189.68   22.30
   3   6 -11   95.29   24.60
  -3  -6  11  130.69   25.00
   2   6 -11   72.79   23.40
  -2  -6  11   89.49   20.20
  -2  -6  11  101.89   17.70
   1   6 -11  163.28   28.00
  -1  -6  11  210.58   21.80
  -1  -6  11  161.68   21.40
   0   6 -11   93.19   23.30
   0  -6  11  102.29   16.30
  -1   6 -11  218.68   30.20
   1  -6  11  246.78   23.10
  -2   6 -11   65.29   22.50
   2  -6  11   77.59   16.30
  -3   6 -11  261.57   36.80
   3  -6  11  199.68   23.20
   3   5 -11  171.58   29.30
  -3  -5  11  168.18   24.70
   2   5 -11   78.89   22.90
  -2  -5  11  107.09   19.90
  -2  -5  11  109.99   17.10
   1   5 -11  176.08   27.30
  -1  -5  11  202.68   23.10
  -1  -5  11  206.68   20.80
   0   5 -11  138.39   23.90
   0  -5  11  143.69   17.90
  -1   5 -11  340.77   33.30
   1  -5  11  330.37   24.80
  -2   5 -11  149.79   27.60
   2  -5  11  151.38   19.30
  -3   5 -11  219.98   32.10
   3  -5  11  251.67   24.30
  -4   5 -11  110.09   27.10
   4  -5  11   83.99   17.70
   4   4 -11   17.00   18.80
  -4  -4  11   69.49   22.20
   3   4 -11  177.68   29.30
  -3  -4  11  236.38   27.60
   2   4 -11   77.49   21.70
  -2  -4  11   79.09   17.20
  -2  -4  11   76.69   14.30
   1   4 -11  307.97   31.40
  -1  -4  11  339.57   23.20
  -1  -4  11  338.57   26.30
   0   4 -11  132.89   23.60
   0  -4  11  153.48   18.10
  -1   4 -11  470.65   36.70
   1  -4  11  467.15   27.80
  -2   4 -11  208.38   29.60
   2  -4  11  185.08   20.50
  -3   4 -11  247.98   33.50
   3  -4  11  267.77   25.50
  -4   4 -11  115.19   26.60
   4  -4  11   98.69   17.80
   4   3 -11   55.79   21.80
  -4  -3  11   45.60   19.80
   3   3 -11  245.78   32.60
  -3  -3  11  246.48   27.90
   2   3 -11  110.39   22.60
  -2  -3  11  114.39   15.10
  -2  -3  11  108.69   18.40
   1   3 -11  568.14   39.00
  -1  -3  11  531.05   31.90
  -1  -3  11  578.74   29.10
   0   3 -11  142.99   23.30
   0  -3  11  133.49   16.50
  -1   3 -11  599.74   39.00
   1  -3  11  534.25   30.10
  -2   3 -11  171.78   27.90
   2  -3  11  166.98   20.00
  -3   3 -11  295.17   33.90
  -3   3 -11  247.58   31.80
   3  -3  11  327.67   27.10
  -4   3 -11   63.59   17.90
  -4   3 -11   66.29   22.30
   4  -3  11   56.49   16.80
   4   2 -11   32.30   19.80
  -4  -2  11   20.40   18.50
   3   2 -11  282.87   34.00
  -3  -2  11  335.37   31.60
   2   2 -11  175.48   26.50
  -2  -2  11  139.59   20.30
   1   2 -11  707.23   42.00
  -1  -2  11  657.83   31.70
  -1  -2  11  709.83   37.00
   0   2 -11  140.39   22.80
   0  -2  11  132.89   16.80
  -1   2 -11  460.25   34.20
   1  -2  11  425.86   27.90
  -2   2 -11  170.28   19.90
  -2   2 -11  166.48   25.60
   2  -2  11  156.88   19.90
  -3   2 -11  297.57   27.20
  -3   2 -11  350.06   35.30
   3  -2  11  411.26   29.40
  -4   2 -11  115.49   20.60
  -4   2 -11   65.69   23.00
   4  -2  11   95.79   20.00
   4   1 -11   41.40   20.40
  -4  -1  11   88.79   23.70
   3   1 -11  251.67   31.70
  -3  -1  11  277.97   29.60
   2   1 -11  211.28   27.80
  -2  -1  11  180.68   23.50
   1   1 -11  596.04   37.30
  -1  -1  11  536.25   32.90
  -1  -1  11  577.24   29.20
   0   1 -11  111.79   21.00
   0  -1  11  112.89   16.60
  -1   1 -11  350.26   25.50
  -1   1 -11  311.67   29.80
   1  -1  11  378.36   26.50
  -2   1 -11  225.38   28.10
  -2   1 -11  236.48   24.30
   2  -1  11  269.37   25.70
  -3   1 -11  437.66   32.10
  -3   1 -11  361.26   36.90
   3  -1  11  387.46   30.20
  -4   1 -11   82.69   20.60
   4  -1  11   75.79   20.80
   4   0 -11   87.49   23.40
  -4   0  11   86.09   22.90
   3   0 -11  171.48   26.30
  -3   0  11  187.78   26.70
   2   0 -11  162.38   24.70
  -2   0  11  188.68   24.30
   1   0 -11  393.76   32.00
  -1   0  11  395.46   30.40
  -1   0  11  412.36   26.00
   0   0 -11  169.08   23.20
   0   0 -11  132.79   18.80
   0   0  11  188.68   20.30
  -1   0 -11  339.37   27.50
   1   0  11  298.37   27.30
  -2   0 -11  317.97   28.20
   2   0  11  262.57   26.80
  -3   0 -11  293.37   30.60
   3   0  11  297.67   30.80
  -4   1  11   99.79   25.80
   3  -1 -11  119.69   23.30
  -3   1  11  118.69   24.30
   2  -1 -11  153.48   22.80
  -2   1  11  140.79   24.00
   1  -1 -11  431.56   31.60
  -1   1  11  365.16   33.40
   0  -1 -11  209.88   24.20
   0   1  11  261.87   25.20
  -1  -1 -11  262.87   27.50
   1   1  11  234.58   26.10
  -2  -1 -11  196.08   25.80
   2   1  11  207.68   25.20
  -3  -1 -11  183.08   27.70
   3   1  11  248.98   29.40
  -3   2  11  151.98   28.90
   2  -2 -11  157.88   23.50
  -2   2  11  166.48   28.40
   1  -2 -11  363.56   31.90
  -1   2  11  284.67   31.80
   0  -2 -11  236.08   27.00
   0   2  11  236.48   26.50
  -1  -2 -11  148.99   23.40
   1   2  11  203.98   24.80
  -2  -2 -11  106.09   22.90
   2   2  11  130.69   22.60
   3  -3 -11  191.68   27.70
  -3   3  11   98.79   30.00
   2  -3 -11  143.29   24.70
  -2   3  11  102.39   27.50
   1  -3 -11  157.48   24.80
  -1   3  11  150.28   28.00
   0  -3 -11  168.88   25.40
   0   3  11  165.78   30.50
  -1  -3 -11   79.99   20.90
   1   3  11   74.99   20.20
  -2  -3 -11  103.19   24.90
   2   3  11   89.59   22.60
  -2   4  11  113.19   30.50
   1  -4 -11   52.59   20.70
  -1   4  11   32.40   26.50
   0  -4 -11  143.19   26.70
   1   7 -12   91.49   25.40
  -1  -7  12   74.19   17.20
   0   7 -12  108.69   25.80
   0  -7  12  110.09   18.50
  -1   7 -12   51.09   22.10
   1  -7  12   73.49   16.90
  -2   7 -12   80.99   24.80
   2  -7  12   63.59   16.60
   2   6 -12   42.10   21.90
  -2  -6  12   94.69   18.40
  -2  -6  12   49.00   18.40
   1   6 -12  111.79   26.70
  -1  -6  12  146.39   19.60
   0   6 -12  100.69   23.90
   0  -6  12  124.19   18.30
  -1   6 -12  110.09   25.60
   1  -6  12   92.29   17.40
  -2   6 -12   81.49   25.50
   2  -6  12   97.39   18.20
  -3   6 -12  175.38   32.00
   3  -6  12  171.18   23.00
   3   5 -12   57.79   22.80
  -3  -5  12   66.79   19.30
   2   5 -12  108.99   26.20
  -2  -5  12  118.19   20.70
  -2  -5  12   71.69   15.20
   1   5 -12  156.68   28.50
  -1  -5  12  172.78   20.80
   0   5 -12  125.19   25.40
   0  -5  12  124.39   17.80
  -1   5 -12  158.98   27.90
   1  -5  12  183.68   21.10
  -2   5 -12  133.59   26.30
   2  -5  12  147.69   20.30
  -3   5 -12  154.88   29.80
   3  -5  12  195.08   23.40
   3   4 -12  102.39   25.30
  -3  -4  12   95.29   22.50
   2   4 -12  117.19   26.00
  -2  -4  12  111.79   21.20
  -2  -4  12  124.99   19.70
   1   4 -12  196.58   28.90
  -1  -4  12  213.08   21.20
   0   4 -12  148.79   25.80
   0  -4  12  207.58   21.90
  -1   4 -12  242.78   31.40
   1  -4  12  252.07   23.50
  -2   4 -12  194.98   31.00
   2  -4  12  121.29   18.80
  -3   4 -12  158.28   29.50
   3  -4  12  173.08   21.50
   3   3 -12  110.69   25.20
  -3  -3  12  115.69   22.70
   2   3 -12  149.88   26.80
  -2  -3  12  153.38   22.30
   1   3 -12  275.17   32.10
  -1  -3  12  286.27   22.90
   0   3 -12  166.38   26.30
   0  -3  12  165.18   18.90
  -1   3 -12  325.97   34.90
   1  -3  12  315.17   25.60
  -2   3 -12  123.19   25.40
   2  -3  12  159.38   21.00
  -3   3 -12  185.58   30.50
   3  -3  12  189.08   24.30
   3   2 -12  244.68   33.20
  -3  -2  12  231.18   28.90
   2   2 -12  149.39   26.40
  -2  -2  12  143.39   22.80
   1   2 -12  319.97   32.10
  -1  -2  12  320.37   24.40
   0   2 -12   85.49   20.00
   0  -2  12   97.09   16.50
  -1   2 -12  364.76   34.00
   1  -2  12  362.36   28.20
  -2   2 -12   89.49   21.80
   2  -2  12  125.79   19.80
  -3   2 -12  259.17   27.80
  -3   2 -12  299.57   36.30
   3  -2  12  250.77   27.10
   3   1 -12  174.18   29.10
  -3  -1  12  224.78   29.20
   2   1 -12  104.89   22.20
  -2  -1  12  118.69   21.50
   1   1 -12  281.27   31.60
  -1  -1  12  336.47   25.10
   0   1 -12   93.39   20.30
   0  -1  12   92.09   16.70
  -1   1 -12  344.57   32.40
   1  -1  12  458.95   30.90
  -2   1 -12   84.49   21.50
  -2   1 -12  111.99   19.60
   2  -1  12  112.29   19.70
  -3   1 -12  277.57   30.30
   3  -1  12  272.07   29.20
   3   0 -12  138.79   25.60
  -3   0  12  162.68   26.50
   2   0 -12   94.49   21.70
  -2   0  12  138.49   23.10
   1   0 -12  246.48   29.10
   0   0  12  127.09   20.20
  -1   0 -12  378.26   31.80
   1   0  12  373.06   30.60
  -2   0 -12  137.59   23.20
   2   0  12   99.29   20.60
  -3   0 -12  254.77   30.00
   3   0  12  248.78   29.60
   3  -1 -12  144.39   29.00
  -3   1  12  144.09   27.50
  -2   1  12   52.29   20.90
   0  -1 -12  176.18   24.40
   0   1  12  184.78   23.60
  -1  -1 -12  169.68   24.40
   1   1  12  248.08   27.90
  -2  -1 -12  123.69   24.70
   2   1  12   83.29   20.90
  -2   2  12   28.60   22.20
   1  -2 -12  247.08   29.40
   0  -2 -12   97.69   22.40
   0   2  12   57.49   24.10
  -1  -2 -12  192.18   27.50
   1   2  12  184.58   26.60
   1  -3 -12  188.48   29.00
   0  -3 -12   16.10   18.80
   1   6 -13   32.90   21.20
  -1  -6  13    9.90   13.30
   0   6 -13  132.29   28.60
   0  -6  13  121.19   19.40
  -1   6 -13   36.70   20.50
   1  -6  13   44.20   15.70
   2   5 -13   89.99   25.40
  -2  -5  13   84.49   20.20
   1   5 -13   43.50   20.80
  -1  -5  13   48.50   15.30
   0   5 -13  206.88   31.60
   0  -5  13  182.18   22.50
  -1   5 -13   54.79   23.30
   1  -5  13   74.89   16.80
  -2   5 -13  173.08   32.40
   2  -5  13  142.99   20.80
   2   4 -13  107.59   24.40
  -2  -4  13  117.69   22.10
   1   4 -13   17.50   18.30
  -1  -4  13   72.09   16.00
   0   4 -13  250.87   33.60
   0  -4  13  316.47   27.20
  -1   4 -13   77.39   23.40
   1  -4  13  106.69   18.50
  -2   4 -13  137.99   28.00
   2  -4  13  144.69   22.00
   2   3 -13  173.18   30.10
  -2  -3  13  149.69   23.70
   1   3 -13   45.10   19.80
  -1  -3  13   44.00   14.50
   0   3 -13  344.87   37.40
   0  -3  13  368.66   27.90
  -1   3 -13   73.99   21.00
   1  -3  13   77.69   16.70
  -2   3 -13  128.09   27.00
   2  -3  13  142.99   22.00
  -3   3 -13   57.99   23.10
   3   2 -13   21.00   19.40
  -3  -2  13   75.89   21.90
   2   2 -13  161.08   28.80
  -2  -2  13  182.08   26.10
   1   2 -13   68.39   20.90
  -1  -2  13   64.49   15.90
   0   2 -13  276.37   32.50
   0  -2  13  339.47   28.30
  -1   2 -13   83.39   21.10
   1  -2  13   85.49   19.00
  -2   2 -13  128.59   26.80
   2  -2  13  173.38   23.40
   3   1 -13  125.19   26.30
  -3  -1  13   98.89   24.30
   2   1 -13  123.89   24.80
  -2  -1  13   80.79   21.60
   1   1 -13  101.39   22.80
   0   1 -13  150.88   25.60
   0  -1  13  186.28   22.60
  -1   1 -13   98.99   26.10
   1  -1  13  117.39   20.60
   2  -1  13  183.58   24.80
   2   0 -13   94.19   23.20
  -2   0  13  104.49   23.20
   0   0  13  126.69   21.50
   1   0  13  175.98   24.20
  -2   0 -13  130.99   25.40
   2   0  13   82.29   21.00
  -2   1  13   81.89   24.60
   0   1  13  136.29   29.60
  -1  -1 -13  140.19   24.70
   1   1  13  136.19   24.60
   1   4 -14   58.69   22.20
  -1  -4  14   82.09   17.80
   0   4 -14  146.09   29.40
   0  -4  14  145.29   21.80
  -1   4 -14   56.09   22.90
   1  -4  14   55.99   17.10
   1   3 -14   82.19   22.90
   0   3 -14  154.88   28.40
   0  -3  14  203.88   24.20
  -1   3 -14   23.30   20.40
   1  -3  14   43.30   16.70
   1   2 -14   56.59   22.20
   0   2 -14  143.29   27.90
   0  -2  14  172.28   22.80
  -1   2 -14   41.60   20.70
   1  -2  14   59.59   18.20
   1   1 -14   24.70   19.40
   0  -1  14  217.68   26.10
   1  -1  14   77.39   21.40
   0   0   0    0.00    0.00

_computing_structure_solution     'SHELXT 2014/5 (Sheldrick, 2014)'
;
_shelx_hkl_checksum              64325
loop_
_space_group_symop_operation_xyz
'x, y, z'
'-x, -y, -z'
loop_
_atom_site_label
_atom_site_type_symbol
_atom_site_fract_x
_atom_site_fract_y
_atom_site_fract_z
_atom_site_U_iso_or_equiv
_atom_site_adp_type
_atom_site_occupancy
_atom_site_site_symmetry_order
_atom_site_calc_flag
_atom_site_refinement_flags_posn
_atom_site_refinement_flags_adp
_atom_site_refinement_flags_occupancy
_atom_site_disorder_assembly
_atom_site_disorder_group
U1 U 1.000000 0.500000 0.500000 0.02812(8) Uani 1 2 d S . P . .
P1 P 0.49100(19) 0.46452(15) 0.71276(10) 0.0322(2) Uani 1 1 d . . . . .
O1 O 0.8517(6) 0.2741(4) 0.4362(3) 0.0454(7) Uani 1 1 d . . . . .
O2 O 0.7253(5) 0.5339(5) 0.6578(3) 0.0473(8) Uani 1 1 d . . . . .
O3 O 0.2640(5) 0.4011(4) 0.6238(3) 0.0410(7) Uani 1 1 d . . . . .
O4 O 0.4480(6) 0.6223(4) 0.8279(3) 0.0472(8) Uani 1 1 d . . . . .
O5 O 0.5337(7) 0.3064(5) 0.7716(3) 0.0536(9) Uani 1 1 d . . . . .
C1 C 0.2295(10) 0.6081(8) 0.9020(5) 0.0568(13) Uani 1 1 d . . . . .
H1A H 0.277141 0.582207 0.979947 0.068 Uiso 1 1 calc R U . . .
H1B H 0.101354 0.507892 0.856031 0.068 Uiso 1 1 calc R U . . .
C2 C 0.1273(12) 0.7823(9) 0.9295(7) 0.081(2) Uani 1 1 d . . . . .
H2A H -0.019154 0.773991 0.979039 0.121 Uiso 1 1 calc R U . . .
H2B H 0.254593 0.880770 0.975490 0.121 Uiso 1 1 calc R U . . .
H2C H 0.079329 0.806677 0.851943 0.121 Uiso 1 1 calc R U . . .
C3 C 0.5052(13) 0.1166(8) 0.6987(7) 0.084(2) Uani 1 1 d . . . . .
H3A H 0.372783 0.045222 0.733294 0.100 Uiso 1 1 calc R U . . .
H3B H 0.450070 0.108944 0.613008 0.100 Uiso 1 1 calc R U . . .
C4 C 0.7245(14) 0.0385(9) 0.6958(9) 0.107(3) Uani 1 1 d . . . . .
H4A H 0.691961 -0.087542 0.645717 0.160 Uiso 1 1 calc R U . . .
H4B H 0.855711 0.106216 0.659561 0.160 Uiso 1 1 calc R U . . .
H4C H 0.778337 0.042423 0.779981 0.160 Uiso 1 1 calc R U . . .
loop_
_atom_site_aniso_label
_atom_site_aniso_U_11
_atom_site_aniso_U_22
_atom_site_aniso_U_33
_atom_site_aniso_U_23
_atom_site_aniso_U_13
_atom_site_aniso_U_12
U1 0.02002(11) 0.03355(13) 0.02989(13) 0.00614(9) -0.00113(8) 0.00573(8)
P1 0.0282(5) 0.0400(6) 0.0301(5) 0.0084(5) 0.0009(4) 0.0126(4)
O1 0.0415(17) 0.0437(18) 0.0474(19) 0.0097(15) -0.0023(14) -0.0001(14)
O2 0.0309(16) 0.065(2) 0.0434(18) 0.0086(16) 0.0084(14) 0.0105(15)
O3 0.0320(16) 0.0506(19) 0.0430(18) 0.0140(15) -0.0047(13) 0.0129(14)
O4 0.0430(18) 0.0494(19) 0.0417(18) -0.0012(15) 0.0130(14) 0.0070(15)
O5 0.070(2) 0.049(2) 0.0463(19) 0.0148(16) -0.0136(17) 0.0193(17)
C1 0.050(3) 0.072(4) 0.047(3) 0.009(3) 0.019(2) 0.019(3)
C2 0.070(4) 0.078(4) 0.086(5) -0.005(4) 0.024(4) 0.035(3)
C3 0.084(5) 0.043(3) 0.120(6) 0.013(3) -0.035(4) 0.017(3)
C4 0.095(6) 0.069(5) 0.153(8) 0.008(5) -0.002(5) 0.044(4)
loop_
_atom_type_symbol
_atom_type_description
_atom_type_scat_dispersion_real
_atom_type_scat_dispersion_imag
_atom_type_scat_source
C C 0.0033 0.0016 'International Tables Vol C Tables 4.2.6.8 and 6.1.1.4'
H H 0.0000 0.0000 'International Tables Vol C Tables 4.2.6.8 and 6.1.1.4'
O O 0.0106 0.0060 'International Tables Vol C Tables 4.2.6.8 and 6.1.1.4'
P P 0.1023 0.0942 'International Tables Vol C Tables 4.2.6.8 and 6.1.1.4'
U U -9.6767 9.6646 'International Tables Vol C Tables 4.2.6.8 and 6.1.1.4'
loop_
_geom_angle_atom_site_label_1
_geom_angle_atom_site_label_2
_geom_angle_atom_site_label_3
_geom_angle
_geom_angle_site_symmetry_1
_geom_angle_site_symmetry_3
O1 U1 O1 180.0 2_766 .
O1 U1 O2 90.04(14) 2_766 2_766
O1 U1 O2 89.96(13) . 2_766
O1 U1 O2 89.96(13) 2_766 .
O1 U1 O2 90.04(14) . .
O2 U1 O2 180.0 2_766 .
O1 U1 O3 90.25(13) 2_766 2_666
O1 U1 O3 89.75(13) . 2_666
O2 U1 O3 88.19(12) 2_766 2_666
O2 U1 O3 91.81(12) . 2_666
O1 U1 O3 89.75(13) 2_766 1_655
O1 U1 O3 90.25(13) . 1_655
O2 U1 O3 91.81(12) 2_766 1_655
O2 U1 O3 88.19(12) . 1_655
O3 U1 O3 180.0 2_666 1_655
O2 P1 O3 114.78(18) . .
O2 P1 O4 105.77(19) . .
O3 P1 O4 112.25(18) . .
O2 P1 O5 111.3(2) . .
O3 P1 O5 108.81(19) . .
O4 P1 O5 103.32(19) . .
P1 O2 U1 149.9(2) . .
P1 O3 U1 142.61(19) . 1_455
C1 O4 P1 121.7(3) . .
C3 O5 P1 122.3(4) . .
O4 C1 C2 108.9(5) . .
O4 C1 H1A 109.9 . .
C2 C1 H1A 109.9 . .
O4 C1 H1B 109.9 . .
C2 C1 H1B 109.9 . .
H1A C1 H1B 108.3 . .
C1 C2 H2A 109.5 . .
C1 C2 H2B 109.5 . .
H2A C2 H2B 109.5 . .
C1 C2 H2C 109.5 . .
H2A C2 H2C 109.5 . .
H2B C2 H2C 109.5 . .
C4 C3 O5 113.9(6) . .
C4 C3 H3A 108.8 . .
O5 C3 H3A 108.8 . .
C4 C3 H3B 108.8 . .
O5 C3 H3B 108.8 . .
H3A C3 H3B 107.7 . .
C3 C4 H4A 109.5 . .
C3 C4 H4B 109.5 . .
H4A C4 H4B 109.5 . .
C3 C4 H4C 109.5 . .
H4A C4 H4C 109.5 . .
H4B C4 H4C 109.5 . .
loop_
_geom_bond_atom_site_label_1
_geom_bond_atom_site_label_2
_geom_bond_distance
_geom_bond_site_symmetry_2
U1 O1 1.757(3) 2_766
U1 O1 1.757(3) .
U1 O2 2.292(3) 2_766
U1 O2 2.292(3) .
U1 O3 2.305(3) 2_666
U1 O3 2.305(3) 1_655
P1 O2 1.496(3) .
P1 O3 1.502(3) .
P1 O4 1.558(3) .
P1 O5 1.566(3) .
O4 C1 1.449(6) .
O5 C3 1.454(6) .
C1 C2 1.477(8) .
C1 H1A 0.9800 .
C1 H1B 0.9800 .
C2 H2A 0.9700 .
C2 H2B 0.9700 .
C2 H2C 0.9700 .
C3 C4 1.394(9) .
C3 H3A 0.9800 .
C3 H3B 0.9800 .
C4 H4A 0.9700 .
C4 H4B 0.9700 .
C4 H4C 0.9700 .
loop_
_geom_torsion_atom_site_label_1
_geom_torsion_atom_site_label_2
_geom_torsion_atom_site_label_3
_geom_torsion_atom_site_label_4
_geom_torsion
_geom_torsion_site_symmetry_1
_geom_torsion_site_symmetry_2
_geom_torsion_site_symmetry_3
_geom_torsion_site_symmetry_4
O3 P1 O2 U1 -47.0(5) . . . .
O4 P1 O2 U1 -171.3(4) . . . .
O5 P1 O2 U1 77.1(4) . . . .
O2 P1 O3 U1 -61.5(3) . . . 1_455
O4 P1 O3 U1 59.3(3) . . . 1_455
O5 P1 O3 U1 173.0(3) . . . 1_455
O2 P1 O4 C1 177.0(4) . . . .
O3 P1 O4 C1 51.1(4) . . . .
O5 P1 O4 C1 -66.0(4) . . . .
O2 P1 O5 C3 -86.2(5) . . . .
O3 P1 O5 C3 41.3(5) . . . .
O4 P1 O5 C3 160.7(4) . . . .
P1 O4 C1 C2 -136.4(5) . . . .
P1 O5 C3 C4 118.9(7) . . . .
