#------------------------------------------------------------------------------
#$Date: 2021-04-12 11:38:50 +0300 (Mon, 12 Apr 2021) $
#$Revision: 264050 $
#$URL: file:///home/coder/svn-repositories/cod/cif/1/56/16/1561655.cif $
#------------------------------------------------------------------------------
#
# This file is available in the Crystallography Open Database (COD),
# http://www.crystallography.net/
#
# All data on this site have been placed in the public domain by the
# contributors.
#
data_1561655
loop_
_publ_author_name
'Poupon, Morgane'
'Barrier, Nicolas'
'Pautrat, Alain'
'Perez, Olivier'
_publ_section_title
;
 Evidence of magnetoelectric effect in Co4(H2O)3(SeO3)4
;
_journal_name_full               'Journal of Solid State Chemistry'
_journal_page_first              120962
_journal_paper_doi               10.1016/j.jssc.2019.120962
_journal_volume                  280
_journal_year                    2019
_chemical_formula_structural     'Co4 H6 O15 Se4'
_chemical_formula_sum            'Co4 H6 O15 Se4'
_chemical_formula_weight         797.6
_space_group_IT_number           4
_space_group_name_Hall           'P 2yb'
_space_group_name_H-M_alt        'P 1 21 1'
_symmetry_cell_setting           monoclinic
_symmetry_Int_Tables_number      4
_symmetry_space_group_name_Hall  'P 2yb'
_symmetry_space_group_name_H-M   'P 1 21 1'
_cell_angle_alpha                90
_cell_angle_beta                 116.8239(13)
_cell_angle_gamma                90
_cell_formula_units_Z            2
_cell_length_a                   8.9369(4)
_cell_length_b                   8.4225(4)
_cell_length_c                   9.6197(4)
_cell_measurement_reflns_used    16492
_cell_measurement_temperature    293
_cell_measurement_theta_max      35.27
_cell_measurement_theta_min      2.37
_cell_volume                     646.17(5)
_diffrn_ambient_temperature      293
_diffrn_detector                 'Bruker APEX2 area detector'
_diffrn_detector_area_resol_mean 7.9
_diffrn_detector_type            'CCD area detector'
_diffrn_measured_fraction_theta_full 0.99
_diffrn_measured_fraction_theta_max 0.99
_diffrn_measurement_device_type  'Bruker Nonius four-circles  diffractometer'
_diffrn_measurement_method       '\w and \f scans'
_diffrn_radiation_collimation    .
_diffrn_radiation_monochromator  'mirror optics'
_diffrn_radiation_probe          x-ray
_diffrn_radiation_source         'microfocus sealed X-ray tube'
_diffrn_radiation_type           'Mo K\a'
_diffrn_radiation_wavelength     0.71069
_diffrn_reflns_av_R_equivalents  0.0312
_diffrn_reflns_av_unetI/netI     0.0476
_diffrn_reflns_limit_h_max       14
_diffrn_reflns_limit_h_min       -14
_diffrn_reflns_limit_k_max       13
_diffrn_reflns_limit_k_min       -13
_diffrn_reflns_limit_l_max       15
_diffrn_reflns_limit_l_min       -15
_diffrn_reflns_number            16492
_diffrn_reflns_theta_full        35.27
_diffrn_reflns_theta_max         35.27
_diffrn_reflns_theta_min         2.37
_diffrn_source_current           600\mA
_diffrn_source_power             30W
_diffrn_source_type              'Incoatec I\ms'
_diffrn_source_voltage           50kV
_exptl_absorpt_coefficient_mu    16.395
_exptl_absorpt_correction_T_max  0.437016
_exptl_absorpt_correction_T_min  0.246251
_exptl_absorpt_correction_type   numerical
_exptl_absorpt_process_details   'SADABS V2012/1 (Bruker AXS Inc.)'
_exptl_crystal_colour            purple
_exptl_crystal_density_diffrn    4.0994
_exptl_crystal_description       plate
_exptl_crystal_F_000             740
_exptl_crystal_size_max          120
_exptl_crystal_size_min          10
_refine_diff_density_max         2.24
_refine_diff_density_min         -1.56
_refine_ls_abs_structure_details
'  1966 of Friedel pairs used in the refinement'
_refine_ls_extinction_method     none
_refine_ls_goodness_of_fit_gt    1.31
_refine_ls_goodness_of_fit_ref   1.38
_refine_ls_hydrogen_treatment    constr
_refine_ls_number_constraints    25
_refine_ls_number_parameters     208
_refine_ls_number_reflns         8660
_refine_ls_number_restraints     0
_refine_ls_R_factor_all          0.0466
_refine_ls_R_factor_gt           0.0376
_refine_ls_shift/su_max          0.0469
_refine_ls_shift/su_mean         0.0030
_refine_ls_structure_factor_coef F
_refine_ls_weighting_details     w=1/(\s^2^(F)+0.0009F^2^)
_refine_ls_weighting_scheme      sigma
_refine_ls_wR_factor_gt          0.0559
_refine_ls_wR_factor_ref         0.0622
_reflns_number_gt                7760
_reflns_number_total             8660
_reflns_threshold_expression     I>3\s(I)
_cod_data_source_file            JSSC-2019-120962.cif
_cod_data_source_block           I
_cod_depositor_comments
;
The following automatic conversions were performed:

data item '_diffrn_radiation_probe' value 'X-ray' was changed to
'x-ray' in accordance with the built-in table derived from the CIF
Core dictionary named 'cif_core.dic' version 2.4.5 last updated on
2014-11-21.

Automatic conversion script
Id: cif_fix_values 8369 2020-08-20 11:38:08Z andrius 
;
_cod_database_code               1561655
loop_
_space_group_symop_id
_space_group_symop_operation_xyz
1 x,y,z
2 -x,y+1/2,-z
loop_
_atom_site_label
_atom_site_type_symbol
_atom_site_fract_x
_atom_site_fract_y
_atom_site_fract_z
_atom_site_adp_type
_atom_site_U_iso_or_equiv
_atom_site_site_symmetry_multiplicity
_atom_site_occupancy
_atom_site_calc_flag
_atom_site_refinement_flags
_atom_site_disorder_assembly
_atom_site_disorder_group
Se1 Se 0.16471(6) 0.104554 0.23406(6) Uani 0.00657(16) 2 1 d . . .
Se2 Se 0.25537(6) -0.39705(10) 0.32775(6) Uani 0.00687(16) 2 1 d . . .
Se3 Se 0.86453(7) 0.10914(11) 0.33860(6) Uani 0.00867(16) 2 1 d . . .
Se4 Se 0.46793(7) -0.02596(10) -0.00313(7) Uani 0.00897(18) 2 1 d . . .
Co1 Co 0.17965(11) -0.20499(12) -0.00649(10) Uani 0.0086(3) 2 1 d . . .
Co2 Co 0.17236(11) 0.41220(12) 0.00438(10) Uani 0.0085(3) 2 1 d . . .
Co3 Co 0.53799(11) 0.30471(12) 0.34368(10) Uani 0.0087(3) 2 1 d . . .
Co4 Co 0.51773(11) -0.08351(12) 0.35208(10) Uani 0.0087(3) 2 1 d . . .
O1 O 0.4207(5) 0.4728(6) 0.4109(5) Uani 0.0120(15) 2 1 d . . .
O2 O 0.3668(5) 0.1140(6) 0.2691(5) Uani 0.0108(13) 2 1 d . . .
O3 O 0.6797(5) 0.0998(6) 0.3459(5) Uani 0.0105(13) 2 1 d . . .
O4 O 0.2294(5) 0.6055(6) 0.1414(4) Uani 0.0104(13) 2 1 d . . .
O5 O 0.1919(5) 0.5921(6) -0.1452(5) Uani 0.0126(15) 2 1 d . . .
O6 O 0.4399(6) 0.3650(5) 0.0964(6) Uani 0.0126(16) 2 1 d . . .
O7 O 0.0855(6) 0.2751(5) 0.1381(6) Uani 0.0116(15) 2 1 d . . .
O8 O 0.0902(5) -0.0323(6) 0.0860(5) Uani 0.0119(15) 2 1 d . . .
O9 O 0.7112(4) -0.2426(5) 0.4485(3) Uani 0.0164(18) 2 1 d . . .
O10 O 0.3512(6) -0.2242(5) 0.4000(5) Uani 0.0117(16) 2 1 d . . .
O11 O 0.9397(6) -0.0782(5) 0.4019(6) Uani 0.0140(16) 2 1 d . . .
O12 O 0.2566(5) -0.0492(5) -0.1301(5) Uani 0.0119(15) 2 1 d . . .
Ow13 O 0.7474(3) 0.4494(5) 0.3978(4) Uani 0.0146(18) 2 1 d . . .
Ow14 O 0.4574(6) -0.1597(5) 0.1264(5) Uani 0.0114(15) 2 1 d . . .
Ow15 O 0.1023(3) 0.2372(6) -0.1657(4) Uani 0.0179(18) 2 1 d . . .
H1ow14 H 0.5115 -0.186852 0.080567 Uiso 0.0137 2 1 d . . .
H2ow14 H 0.388057 -0.220374 0.131108 Uiso 0.0137 2 1 d . . .
H1ow13 H 0.84769 0.461589 0.42449 Uiso 0.0175 2 1 d . . .
H2ow13 H 0.685695 0.526917 0.378709 Uiso 0.0175 2 1 d . . .
H1ow15 H 0.171279 0.171628 -0.16329 Uiso 0.0215 2 1 d . . .
H2ow15 H 0.005779 0.23382 -0.235342 Uiso 0.0215 2 1 d . . .
loop_
_atom_site_aniso_label
_atom_site_aniso_type_symbol
_atom_site_aniso_U_11
_atom_site_aniso_U_22
_atom_site_aniso_U_33
_atom_site_aniso_U_12
_atom_site_aniso_U_13
_atom_site_aniso_U_23
Se1 Se 0.0053(2) 0.00815(19) 0.0057(2) -0.0001(2) 0.00204(17) 0.0004(2)
Se2 Se 0.0060(2) 0.00845(19) 0.0053(2) -0.0002(2) 0.00175(17) 0.0002(2)
Se3 Se 0.0061(2) 0.0117(2) 0.0081(2) -0.0010(2) 0.00315(18) -0.0013(2)
Se4 Se 0.0082(3) 0.0106(2) 0.0088(2) -0.0014(2) 0.0044(2) -0.0012(2)
Co1 Co 0.0084(4) 0.0094(3) 0.0082(4) -0.0003(3) 0.0039(3) 0.0000(3)
Co2 Co 0.0082(4) 0.0092(3) 0.0079(4) -0.0003(3) 0.0035(3) -0.0005(3)
Co3 Co 0.0073(4) 0.0096(3) 0.0084(4) 0.0000(3) 0.0029(3) -0.0006(3)
Co4 Co 0.0088(4) 0.0099(3) 0.0068(4) 0.0001(3) 0.0031(3) 0.0005(3)
O1 O 0.012(2) 0.0140(18) 0.010(2) 0.0064(17) 0.0052(17) 0.0031(17)
O2 O 0.0071(17) 0.0102(16) 0.0142(19) -0.0021(17) 0.0040(15) -0.0011(18)
O3 O 0.0111(18) 0.0122(16) 0.0119(18) 0.0030(19) 0.0085(15) 0.0011(19)
O4 O 0.0156(19) 0.0096(15) 0.0037(16) 0.0015(19) 0.0023(14) 0.0002(18)
O5 O 0.016(2) 0.015(2) 0.0103(19) -0.0007(19) 0.0095(16) -0.0020(18)
O6 O 0.007(2) 0.019(2) 0.011(2) -0.0013(16) 0.0039(17) 0.0051(16)
O7 O 0.008(2) 0.0096(18) 0.015(2) 0.0005(14) 0.0044(17) 0.0022(15)
O8 O 0.007(2) 0.0133(19) 0.017(2) -0.0010(16) 0.0073(17) -0.0048(17)
O9 O 0.013(3) 0.012(2) 0.021(2) 0.0037(17) 0.005(2) 0.0009(17)
O10 O 0.017(2) 0.0107(18) 0.009(2) -0.0035(15) 0.0073(18) -0.0014(15)
O11 O 0.010(2) 0.0174(19) 0.014(2) 0.0012(16) 0.0047(18) 0.0024(17)
O12 O 0.010(2) 0.018(2) 0.0075(19) 0.0004(16) 0.0032(16) 0.0008(15)
Ow13 O 0.020(2) 0.014(2) 0.014(3) -0.0050(16) 0.012(2) -0.0011(18)
Ow14 O 0.016(2) 0.0162(19) 0.0023(19) -0.0017(17) 0.0044(17) -0.0004(15)
Ow15 O 0.028(3) 0.014(2) 0.010(2) 0.0030(19) 0.007(2) -0.0039(18)
loop_
_atom_type_symbol
_atom_type_scat_dispersion_real
_atom_type_scat_dispersion_imag
_atom_type_scat_source
Co 0.3494 0.9721 'International Tables Vol C tables 4.2.6.8 and 6.1.1.1'
H 0.0000 0.0000 'International Tables Vol C tables 4.2.6.8 and 6.1.1.1'
O 0.0106 0.0060 'International Tables Vol C tables 4.2.6.8 and 6.1.1.1'
Se -0.0929 2.2259 'International Tables Vol C tables 4.2.6.8 and 6.1.1.1'
loop_
_geom_angle_atom_site_label_1
_geom_angle_atom_site_label_2
_geom_angle_atom_site_label_3
_geom_angle_site_symmetry_1
_geom_angle_site_symmetry_2
_geom_angle_site_symmetry_3
_geom_angle
O2 Se1 O7 . . . 102.6(2)
O2 Se1 O8 . . . 100.2(2)
O7 Se1 O8 . . . 102.0(2)
O1 Se2 O4 1_545 . 1_545 100.3(2)
O1 Se2 O10 1_545 . . 101.0(2)
O4 Se2 O10 1_545 . . 103.1(3)
O3 Se3 O5 . . 2_645 103.2(2)
O3 Se3 O11 . . . 100.1(3)
O5 Se3 O11 2_645 . . 100.7(2)
O6 Se4 O12 2_645 . . 101.3(2)
O6 Se4 Ow14 2_645 . . 102.9(3)
O6 Se4 H1ow14 2_645 . . 74.67
O12 Se4 Ow14 . . . 92.2(2)
O12 Se4 H1ow14 . . . 101.96
Ow14 Se4 H1ow14 . . . 28.57
O4 Co1 O8 1_545 . . 104.9(2)
O4 Co1 O12 1_545 . . 149.55(19)
O4 Co1 H2ow14 1_545 . . 65.81
O8 Co1 O12 . . . 95.4(2)
O8 Co1 H2ow14 . . . 102.52
O12 Co1 H2ow14 . . . 88.01
O4 Co2 O7 . . . 95.60(19)
O4 Co2 Ow15 . . . 171.07(17)
O7 Co2 Ow15 . . . 91.66(17)
O1 Co3 O2 . . . 103.9(2)
O1 Co3 Ow13 . . . 92.68(18)
O2 Co3 Ow13 . . . 163.45(19)
O2 Co4 O9 . . . 166.87(17)
O2 Co4 O10 . . . 97.73(19)
O2 Co4 Ow14 . . . 91.65(18)
O9 Co4 O10 . . . 93.91(17)
O9 Co4 Ow14 . . . 92.23(16)
O10 Co4 Ow14 . . . 100.2(2)
Co3 Ow13 H1ow13 . . . 151.56
Co3 Ow13 H2ow13 . . . 88.43
H1ow13 Ow13 H2ow13 . . . 120
Co4 Ow14 H1ow14 . . . 134.92
Co4 Ow14 H2ow14 . . . 88.9
H1ow14 Ow14 H2ow14 . . . 120
Co2 Ow15 H1ow15 . . . 120
Co2 Ow15 H2ow15 . . . 120
H1ow15 Ow15 H2ow15 . . . 120
loop_
_geom_bond_atom_site_label_1
_geom_bond_atom_site_label_2
_geom_bond_site_symmetry_1
_geom_bond_site_symmetry_2
_geom_bond_distance
Se1 O2 . . 1.682(4)
Se1 O7 . . 1.681(4)
Se1 O8 . . 1.716(5)
Se2 O1 . 1_545 1.720(4)
Se2 O4 . 1_545 1.701(4)
Se2 O10 . . 1.673(4)
Se3 O3 . . 1.686(5)
Se3 O5 . 2_645 1.700(5)
Se3 O11 . . 1.716(5)
Se4 O6 . 2_645 1.730(6)
Se4 O12 . . 1.737(4)
Se4 Ow14 . . 1.713(5)
Se4 H1ow14 . . 1.534
Co1 O4 . 1_545 2.049(5)
Co1 O8 . . 2.047(6)
Co1 O12 . . 2.084(5)
Co1 H2ow14 . . 1.7358
Co2 O4 . . 2.010(5)
Co2 O7 . . 2.120(6)
Co2 Ow15 . . 2.078(4)
Co3 O1 . . 2.033(6)
Co3 O2 . . 2.109(4)
Co3 Ow13 . . 2.093(4)
Co4 O2 . . 2.062(4)
Co4 O9 . . 2.049(4)
Co4 O10 . . 2.109(6)
Co4 Ow14 . . 2.088(5)
Ow13 H1ow13 . . 0.82
Ow13 H2ow13 . . 0.82
Ow14 H1ow14 . . 0.82
Ow14 H2ow14 . . 0.82
Ow15 H1ow15 . . 0.82
Ow15 H2ow15 . . 0.82
loop_
_geom_hbond_atom_site_label_D
_geom_hbond_atom_site_label_H
_geom_hbond_atom_site_label_A
_geom_hbond_site_symmetry_D
_geom_hbond_site_symmetry_H
_geom_hbond_site_symmetry_A
_geom_hbond_distance_DH
_geom_hbond_distance_HA
_geom_hbond_distance_DA
_geom_hbond_angle_DHA
Ow14 H1ow14 O6 . . 2_645 0.82 1.99 2.693(9) 144.04
Ow14 H2ow14 O4 . . 1_545 0.82 2.07 2.889(7) 173.49
Ow13 H1ow13 O11 . . 2_756 0.82 1.91 2.593(5) 140.17
Ow13 H2ow13 O9 . . 1_565 0.82 2.03 2.686(6) 136.27
Ow15 H1ow15 O12 . . . 0.82 1.98 2.723(6) 150.11
loop_
_twin_individual_id
_twin_individual_mass_fraction_refined
_twin_individual_twin_matrix_11
_twin_individual_twin_matrix_12
_twin_individual_twin_matrix_13
_twin_individual_twin_matrix_21
_twin_individual_twin_matrix_22
_twin_individual_twin_matrix_23
_twin_individual_twin_matrix_31
_twin_individual_twin_matrix_32
_twin_individual_twin_matrix_33
1 0.6218(8) 1 0 0 0 1 0 0 0 1
2 0.3782(8) 0.1336 0 -1.1336 0 -1 0 -0.8664 0 -0.1336
loop_
_twin_refln_datum_id
_twin_refln_individual_id
_twin_refln_index_h
_twin_refln_index_k
_twin_refln_index_l
_twin_refln_F_squared_calc
_twin_refln_F_squared_meas
_twin_refln_F_squared_sigma
_twin_refln_include_status
1 1 0 0 1 1872.37 -0.25 0.80 <
2 1 0 0 2 82.36 82.64 6.39 o
3 1 0 0 3 46666.70 47830.20 956.79 o
4 1 0 0 4 425.86 690.89 17.56 o
5 1 0 0 5 4300.81 4532.29 128.32 o
6 1 0 0 6 20918.80 21730.90 594.80 o
7 1 0 0 10 170.22 243.31 32.36 o
8 1 0 0 11 51.94 116.35 43.90 <
9 1 0 0 12 6568.75 6893.50 356.59 o
10 1 0 1 1 5270.01 4543.58 107.57 o
11 1 0 -1 1 5332.97 -0.61 0.61 <
12 1 0 1 2 478.30 551.46 14.61 o
13 1 0 -1 2 497.55 526.47 12.16 o
14 1 0 -1 3 2095.02 2254.26 41.81 o
15 1 0 1 4 843.03 1588.00 69.25 o
16 1 0 -1 4 1042.35 894.47 21.12 o
17 1 0 1 5 82.88 84.73 14.55 o
18 1 0 -1 5 69.28 83.50 8.90 o
19 1 0 1 6 1501.17 1674.20 75.39 o
20 1 0 -1 6 1528.56 1591.19 52.19 o
21 1 0 -1 9 1445.45 1440.10 69.01 o
22 1 0 -1 10 451.12 534.27 43.90 o
23 1 0 -1 11 751.31 859.91 59.37 o
24 1 0 1 12 86.76 119.72 54.15 <
25 1 0 -1 12 113.93 131.32 53.17 <
26 1 0 -1 13 308.60 327.30 67.90 o
27 1 0 2 1 6135.99 7035.63 137.96 o
28 1 0 -2 1 6337.25 6046.67 76.50 o
29 1 0 -2 2 26188.20 25633.20 333.13 o
30 1 0 -2 3 3948.76 3527.73 48.01 o
31 1 0 -2 4 326.21 390.85 10.50 o
32 1 0 -2 5 4851.42 4871.99 89.33 o
33 1 0 2 6 352.76 652.57 38.68 o
34 1 0 -2 6 508.75 371.57 16.21 o
35 1 0 -2 9 807.45 653.31 40.58 o
36 1 0 -2 10 2331.61 2430.22 73.37 o
37 1 0 -2 11 3691.53 4095.95 150.11 o
38 1 0 -2 12 379.01 422.16 72.26 o
39 1 0 -2 13 116.82 120.03 54.58 <
40 1 0 3 1 673.79 892.32 24.37 o
41 1 0 -3 1 699.29 762.04 15.78 o
42 1 0 -3 2 1411.99 1168.30 17.44 o
43 1 0 -3 3 1110.06 1060.79 17.56 o
44 1 0 -3 4 3608.90 3518.40 53.41 o
45 1 0 -3 5 4304.48 4189.45 63.73 o
46 1 0 -3 6 82.82 71.46 7.24 o
47 1 0 -3 9 117.70 154.53 22.29 o
48 1 0 -3 10 58.37 52.25 18.17 <
49 1 0 -3 11 32.50 31.68 25.79 <
50 1 0 -3 12 237.16 330.86 42.55 o
51 1 0 -3 13 33.87 25.30 46.72 <
52 1 0 4 1 2772.10 3374.06 116.96 o
53 1 0 -4 1 2716.36 2788.04 52.55 o
54 1 0 -4 2 15712.80 15457.30 208.99 o
55 1 0 -4 3 1943.82 1915.91 30.21 o
56 1 0 -4 4 1103.27 1003.82 19.03 o
57 1 0 -4 5 3641.98 3436.74 53.97 o
58 1 0 -4 6 593.01 558.70 16.27 o
59 1 0 -4 9 2335.35 2129.63 102.10 o
60 1 0 -4 10 2792.88 2864.41 116.22 o
61 1 0 -4 11 1953.30 2063.69 96.33 o
62 1 0 -4 12 398.08 443.89 49.12 o
63 1 0 -4 13 167.44 166.32 60.04 <
64 1 0 -5 1 7930.28 7660.76 136.79 o
65 1 0 -5 2 2956.21 2858.34 47.40 o
66 1 0 -5 3 213.49 206.90 8.72 o
67 1 0 -5 4 222.24 211.94 9.52 o
68 1 0 -5 5 349.45 334.42 12.52 o
69 1 0 -5 6 2300.15 2222.28 39.78 o
70 1 0 -5 9 2436.48 2216.94 72.39 o
71 1 0 -5 10 339.08 318.83 40.71 o
72 1 0 -5 11 1062.48 1117.16 72.88 o
73 1 0 -5 12 323.42 310.91 44.63 o
74 1 0 -6 1 900.80 958.26 24.56 o
75 1 0 -6 2 1983.22 1911.25 35.49 o
76 1 0 -6 3 10421.10 10272.00 188.98 o
77 1 0 -6 4 326.88 363.95 13.38 o
78 1 0 -6 5 782.43 670.87 19.46 o
79 1 0 -6 6 4707.34 4435.47 80.06 o
80 1 0 -6 10 734.48 671.42 43.59 o
81 1 0 -6 11 211.26 209.05 43.90 o
82 1 0 -6 12 2240.16 2020.59 108.92 o
83 1 0 -7 1 33.38 34.26 10.13 o
84 1 0 -7 2 1233.13 1246.39 31.13 o
85 1 0 -7 3 1199.63 1228.77 34.26 o
86 1 0 -7 4 340.94 302.93 17.68 o
87 1 0 -7 5 1310.39 1346.16 29.29 o
88 1 0 -7 6 174.08 143.11 22.04 o
89 1 0 -7 10 117.06 70.85 25.54 <
90 1 0 -7 11 13.49 -25.54 23.94 <
91 1 0 -8 2 2744.44 2711.60 66.86 o
92 1 0 -8 3 244.48 218.32 17.01 o
93 1 0 -8 4 43.81 74.96 13.32 o
94 1 0 -8 5 676.84 606.96 26.95 o
95 1 0 -8 6 138.53 105.23 22.35 o
96 1 0 -8 10 184.11 -28.61 60.78 <
97 1 0 -8 11 1250.28 1007.87 79.02 o
98 1 0 -9 2 359.71 352.96 22.59 o
99 1 0 -9 3 375.65 394.04 22.47 o
100 1 0 -9 4 141.69 147.72 17.38 o
101 1 0 -9 5 342.93 353.02 23.70 o
102 1 0 -9 6 302.55 291.81 32.97 o
103 1 0 -9 10 25.13 -41.63 35.55 <
104 1 0 -10 2 1770.61 1806.69 58.76 o
105 1 0 -10 3 4613.44 4856.33 102.59 o
106 1 0 -10 4 412.17 458.32 26.65 o
107 1 0 -10 5 226.60 255.10 27.81 o
108 1 0 -11 2 309.68 296.73 23.82 o
109 1 0 -11 3 20.90 25.54 17.74 <
110 1 0 -11 4 152.83 137.90 22.10 o
111 1 0 -11 5 5.02 3.13 21.98 <
112 1 0 -12 2 1864.52 1932.18 63.54 o
113 1 0 -12 3 59.56 89.09 22.29 o
114 1 0 -12 4 299.88 333.99 30.21 o
115 1 0 -12 5 435.01 391.64 44.88 o
116 1 0 -13 3 371.85 389.37 32.79 o
117 1 0 -13 4 179.84 229.56 29.22 o
118 1 1 0 -14 7.90 23.08 48.01 <
119 1 1 0 -13 1048.72 1104.20 108.43 o
120 1 1 0 -12 1063.41 992.83 89.76 o
121 1 1 0 -11 1011.86 1148.84 61.09 o
122 1 1 0 -7 298.14 265.41 13.08 o
123 1 1 0 -6 1446.58 1379.07 31.43 o
124 1 1 0 -5 2003.62 1894.55 39.17 o
125 1 1 0 -4 1995.22 1883.43 33.40 o
126 1 1 0 -3 18321.30 18703.60 358.61 o
127 1 1 0 -2 12.96 12.46 2.70 o
128 1 1 0 0 1900.23 -0.86 0.68 <
129 1 1 0 1 24.60 -0.98 1.41 <
130 1 1 0 2 2755.88 2762.80 106.15 o
131 1 1 0 3 177.81 180.50 11.54 o
132 1 1 0 4 1031.43 942.79 43.90 o
133 1 1 0 5 1601.40 1821.30 56.79 o
134 1 1 0 8 5.61 25.11 11.42 <
135 1 1 0 9 1.72 5.89 12.59 <
136 1 1 0 10 428.06 582.46 75.52 o
137 1 1 0 11 542.83 603.03 82.21 o
138 1 1 1 -14 1.67 -22.66 46.05 <
139 1 1 -1 -14 11.00 39.72 46.91 <
140 1 1 1 -13 231.50 116.28 47.89 <
141 1 1 -1 -13 158.13 171.60 52.19 o
142 1 1 -1 -12 278.56 340.19 39.17 o
143 1 1 1 -11 61.07 102.84 32.66 o
144 1 1 -1 -11 66.71 95.16 27.08 o
145 1 1 1 -7 29.73 55.19 9.88 o
146 1 1 -1 -7 31.45 22.23 7.37 o
147 1 1 1 -6 12468.10 14666.30 315.14 o
148 1 1 -1 -6 12784.30 13180.40 204.32 o
149 1 1 1 -5 275.16 134.89 17.50 o
150 1 1 -1 -5 201.76 265.11 10.19 o
151 1 1 1 -4 5831.35 6021.25 159.26 o
152 1 1 -1 -4 5555.52 6180.52 96.82 o
153 1 1 -1 -3 13564.80 13738.40 209.42 o
154 1 1 1 -2 193.84 258.97 6.14 o
155 1 1 -1 -2 222.88 211.57 8.78 o
156 1 1 1 0 4720.42 4857.56 88.41 o
157 1 1 -1 0 4701.92 -0.12 0.68 <
158 1 1 1 1 3812.20 4570.78 81.72 o
159 1 1 -1 1 4106.06 4006.99 71.89 o
160 1 1 -1 2 95.63 95.10 5.34 o
161 1 1 1 3 10664.50 10398.30 387.28 o
162 1 1 -1 3 10071.80 10701.20 184.80 o
163 1 1 1 4 3746.39 3761.59 145.02 o
164 1 1 -1 4 3592.81 3653.53 70.24 o
165 1 1 1 5 2012.36 2334.26 95.41 o
166 1 1 -1 5 2116.37 1983.39 48.56 o
167 1 1 1 8 341.80 418.96 35.79 o
168 1 1 -1 8 364.52 407.48 26.46 o
169 1 1 -1 9 950.21 988.41 42.73 o
170 1 1 -1 10 687.05 769.53 57.40 o
171 1 1 -1 11 81.27 14.12 51.88 <
172 1 1 -1 12 1344.41 1466.86 130.04 o
173 1 1 2 -14 243.61 339.52 69.75 o
174 1 1 -2 -14 288.78 306.55 66.86 o
175 1 1 -2 -13 28.75 68.70 45.37 <
176 1 1 -2 -12 108.58 172.77 33.89 o
177 1 1 -2 -11 793.47 680.94 37.57 o
178 1 1 2 -7 4624.25 4523.63 171.42 o
179 1 1 -2 -7 4265.30 4630.40 80.80 o
180 1 1 2 -6 2126.83 2012.24 85.28 o
181 1 1 -2 -6 2068.39 2352.62 42.36 o
182 1 1 2 -5 766.58 -3.68 3.32 <
183 1 1 -2 -5 696.06 687.39 16.64 o
184 1 1 2 -4 4299.33 4014.78 144.10 o
185 1 1 -2 -4 3857.14 4364.74 70.11 o
186 1 1 2 -3 1553.27 1435.74 34.20 o
187 1 1 -2 -3 1408.71 1473.74 25.30 o
188 1 1 2 -2 6198.85 6380.05 167.18 o
189 1 1 -2 -2 5723.61 6546.06 134.09 o
190 1 1 2 0 11001.70 11658.90 235.33 o
191 1 1 -2 0 11201.50 10951.90 147.84 o
192 1 1 2 1 12087.70 13408.90 322.70 o
193 1 1 -2 1 11831.50 12237.00 181.55 o
194 1 1 2 2 3806.02 3944.73 97.01 o
195 1 1 -2 2 3666.47 3531.17 63.36 o
196 1 1 -2 3 6755.59 6535.87 102.84 o
197 1 1 2 4 4360.85 4506.26 171.29 o
198 1 1 -2 4 3951.40 4141.26 67.78 o
199 1 1 2 5 4478.91 4973.60 190.33 o
200 1 1 -2 5 4383.76 4547.08 77.30 o
201 1 1 -2 8 759.49 802.01 24.37 o
202 1 1 -2 9 1132.24 1139.13 47.95 o
203 1 1 -2 10 3974.28 4339.08 156.31 o
204 1 1 -2 11 231.43 281.13 67.35 o
205 1 1 -2 12 1264.62 1858.20 158.22 o
206 1 1 -3 -14 690.93 744.36 95.72 o
207 1 1 -3 -13 772.99 793.72 59.98 o
208 1 1 -3 -12 172.55 149.38 32.54 o
209 1 1 -3 -11 3826.27 3652.80 102.59 o
210 1 1 -3 -7 33.58 22.96 6.63 o
211 1 1 3 -6 7495.96 8264.47 290.95 o
212 1 1 -3 -6 7546.46 7495.73 109.28 o
213 1 1 3 -5 20272.60 22718.80 756.64 o
214 1 1 -3 -5 20271.70 20057.70 280.64 o
215 1 1 3 -4 6366.98 7550.44 260.13 o
216 1 1 -3 -4 6437.30 6567.19 101.06 o
217 1 1 3 -3 856.02 977.48 31.07 o
218 1 1 -3 -3 806.03 858.00 16.76 o
219 1 1 -3 -2 10418.00 11089.50 263.88 o
220 1 1 3 0 528.64 715.81 28.18 o
221 1 1 -3 0 567.88 645.45 13.45 o
222 1 1 3 1 16848.50 18669.40 631.33 o
223 1 1 -3 1 17395.30 15920.40 203.40 o
224 1 1 3 2 1077.50 915.96 38.07 o
225 1 1 -3 2 929.16 953.41 17.74 o
226 1 1 -3 3 881.59 1016.22 20.69 o
227 1 1 -3 4 20441.20 20242.30 311.03 o
228 1 1 3 5 950.20 990.62 44.14 o
229 1 1 -3 5 882.44 924.13 21.49 o
230 1 1 -3 8 316.19 312.81 26.09 o
231 1 1 -3 9 633.68 738.10 40.15 o
232 1 1 -3 10 1627.11 1887.55 89.94 o
233 1 1 -3 11 271.46 283.65 41.87 o
234 1 1 -3 12 39.35 61.52 54.58 <
235 1 1 -4 -13 749.30 807.78 63.97 o
236 1 1 -4 -12 320.25 359.78 42.92 o
237 1 1 -4 -11 35.37 11.30 17.74 <
238 1 1 -4 -7 227.00 202.48 12.71 o
239 1 1 -4 -6 496.05 488.95 14.43 o
240 1 1 -4 -5 5802.28 5971.59 81.04 o
241 1 1 -4 -4 1754.81 1966.44 30.70 o
242 1 1 4 -3 240.84 267.75 22.72 o
243 1 1 -4 -3 250.97 229.80 8.53 o
244 1 1 -4 -2 1111.48 1178.55 24.87 o
245 1 1 4 0 2483.71 2522.38 88.53 o
246 1 1 -4 0 2399.45 2487.87 49.30 o
247 1 1 4 1 1441.70 1808.22 66.80 o
248 1 1 -4 1 1452.66 1528.08 21.86 o
249 1 1 4 2 142.76 144.03 13.20 o
250 1 1 -4 2 140.90 125.31 5.77 o
251 1 1 -4 3 6279.68 6350.40 86.94 o
252 1 1 -4 4 3043.25 2860.48 43.16 o
253 1 1 -4 5 714.34 790.41 18.66 o
254 1 1 -4 8 1132.58 1068.47 30.51 o
255 1 1 -4 9 890.29 825.28 44.27 o
256 1 1 -4 10 270.71 208.13 36.53 o
257 1 1 -4 11 193.75 123.16 35.55 o
258 1 1 -4 12 1823.14 1938.26 156.93 o
259 1 1 -5 -13 14.35 0.74 31.13 <
260 1 1 -5 -12 214.10 191.86 37.27 o
261 1 1 -5 -11 366.10 361.50 42.67 o
262 1 1 -5 -7 73.53 72.39 10.81 o
263 1 1 -5 -6 10475.00 10062.30 150.05 o
264 1 1 -5 -5 738.42 733.86 17.19 o
265 1 1 -5 -4 3172.09 2953.99 43.84 o
266 1 1 5 -3 9071.31 9483.05 329.27 o
267 1 1 -5 -3 9118.81 9082.32 121.44 o
268 1 1 -5 -2 6360.57 6551.16 137.77 o
269 1 1 -5 0 11148.20 10998.80 227.35 o
270 1 1 -5 1 345.32 432.53 12.28 o
271 1 1 -5 2 255.42 218.88 8.04 o
272 1 1 -5 3 16324.60 15579.30 212.55 o
273 1 1 -5 4 62.74 39.66 6.69 o
274 1 1 -5 5 619.53 639.56 17.31 o
275 1 1 -5 8 329.66 359.35 19.28 o
276 1 1 -5 9 2630.15 2576.78 68.70 o
277 1 1 -5 10 135.11 213.72 38.43 o
278 1 1 -5 11 90.75 78.34 35.55 <
279 1 1 -5 12 3260.51 3534.30 145.51 o
280 1 1 -6 -12 800.20 847.08 70.36 o
281 1 1 -6 -11 540.27 472.87 55.69 o
282 1 1 -6 -7 1472.26 1491.30 47.21 o
283 1 1 -6 -6 1245.48 1200.96 27.20 o
284 1 1 -6 -5 1370.34 1298.64 27.32 o
285 1 1 -6 -4 1675.14 1575.96 29.78 o
286 1 1 -6 -3 3743.76 3559.41 80.98 o
287 1 1 -6 -2 301.45 371.26 24.37 o
288 1 1 -6 0 2360.15 2318.12 46.35 o
289 1 1 -6 1 364.29 447.33 14.18 o
290 1 1 -6 2 1046.24 1075.65 23.70 o
291 1 1 -6 3 1407.71 1314.60 24.37 o
292 1 1 -6 4 189.64 211.08 10.50 o
293 1 1 -6 5 1374.13 1293.54 27.08 o
294 1 1 -6 8 515.80 495.59 37.08 o
295 1 1 -6 9 356.42 424.06 27.93 o
296 1 1 -6 10 277.62 255.77 38.19 o
297 1 1 -6 11 99.29 41.63 31.19 <
298 1 1 -7 -12 211.75 161.84 45.68 o
299 1 1 -7 -11 1405.64 1470.98 66.74 o
300 1 1 -7 -7 82.91 79.94 35.86 <
301 1 1 -7 -6 3705.88 3511.46 59.74 o
302 1 1 -7 -5 4476.26 4244.46 68.27 o
303 1 1 -7 -4 1630.74 1636.62 41.93 o
304 1 1 -7 -3 979.68 952.06 31.68 o
305 1 1 -7 0 113.59 100.81 11.85 o
306 1 1 -7 1 8493.74 8733.47 144.10 o
307 1 1 -7 2 142.57 163.19 11.79 o
308 1 1 -7 3 781.98 710.29 23.15 o
309 1 1 -7 4 6485.11 5931.31 86.44 o
310 1 1 -7 5 899.30 829.27 28.30 o
311 1 1 -7 9 263.77 223.91 30.08 o
312 1 1 -7 10 1121.91 866.91 50.59 o
313 1 1 -7 11 18.93 -1.04 36.47 <
314 1 1 -8 -11 473.38 425.17 56.36 o
315 1 1 -8 -6 523.39 484.41 30.88 o
316 1 1 -8 -5 229.82 214.82 17.93 o
317 1 1 -8 -4 1885.89 2039.44 50.53 o
318 1 1 -8 -3 1000.17 927.44 33.09 o
319 1 1 -8 1 7865.51 7956.88 146.37 o
320 1 1 -8 2 3703.19 3546.03 72.08 o
321 1 1 -8 3 618.58 618.81 26.09 o
322 1 1 -8 4 2789.85 2588.62 59.80 o
323 1 1 -8 5 1978.10 1934.82 69.81 o
324 1 1 -8 9 43.34 36.84 25.72 <
325 1 1 -8 10 4006.31 4041.55 203.90 o
326 1 1 -9 -6 2816.69 2791.78 82.09 o
327 1 1 -9 -5 1176.61 1205.01 40.52 o
328 1 1 -9 -4 1533.51 1591.74 45.43 o
329 1 1 -9 -3 483.65 480.85 26.09 o
330 1 1 -9 1 2015.58 2006.66 50.90 o
331 1 1 -9 2 142.59 155.15 17.68 o
332 1 1 -9 3 1249.00 1340.39 39.91 o
333 1 1 -9 4 2767.55 2859.44 67.35 o
334 1 1 -9 9 74.00 32.05 36.90 <
335 1 1 -10 -6 72.21 82.15 22.84 o
336 1 1 -10 -5 1820.60 1882.88 54.15 o
337 1 1 -10 -4 864.65 922.84 36.35 o
338 1 1 -10 -3 377.38 422.65 26.03 o
339 1 1 -10 1 482.24 501.23 24.99 o
340 1 1 -10 2 213.60 207.15 20.44 o
341 1 1 -10 3 599.20 641.34 32.36 o
342 1 1 -10 4 1603.60 1631.04 54.34 o
343 1 1 -11 -6 2775.81 2903.40 90.99 o
344 1 1 -11 -5 46.24 50.16 18.60 <
345 1 1 -11 -4 528.84 595.66 32.23 o
346 1 1 -11 -3 1271.44 1317.92 50.90 o
347 1 1 -11 1 37.87 27.75 15.10 <
348 1 1 -11 2 205.66 225.08 23.82 o
349 1 1 -11 3 3564.34 3692.40 95.59 o
350 1 1 -11 4 53.11 55.26 19.34 <
351 1 1 -12 -6 296.34 276.10 37.76 o
352 1 1 -12 -5 260.55 281.38 29.10 o
353 1 1 -12 -4 410.36 417.92 31.80 o
354 1 1 -12 -3 25.51 15.84 26.71 <
355 1 1 -12 2 126.37 134.27 27.69 o
356 1 1 -12 3 1226.29 1309.38 52.49 o
357 1 1 -12 4 18.16 26.71 20.08 <
358 1 1 -13 -4 495.25 525.61 36.78 o
359 1 1 -13 -3 40.80 54.21 31.43 <
360 1 1 -13 2 46.44 83.01 29.96 <
361 1 1 -13 3 109.51 123.65 31.07 o
362 1 2 0 -14 2271.48 2504.02 159.94 o
363 1 2 0 -13 1296.93 1398.41 112.29 o
364 1 2 0 -12 362.12 333.32 34.87 o
365 1 2 0 -8 29.69 35.30 12.77 <
366 1 2 0 -7 2507.50 2417.70 59.86 o
367 1 2 0 -6 478.83 532.73 22.29 o
368 1 2 0 -5 2849.15 2647.32 71.28 o
369 1 2 0 -4 3115.29 3042.52 64.10 o
370 1 2 0 -3 326.50 420.56 16.82 o
371 1 2 0 0 765.50 751.05 30.51 o
372 1 2 0 1 6.75 9.21 3.81 <
373 1 2 0 2 45.89 35.92 5.28 o
374 1 2 0 3 2814.76 2937.47 78.16 o
375 1 2 0 4 340.17 319.99 15.66 o
376 1 2 0 7 58.83 74.29 13.32 o
377 1 2 0 8 963.45 922.96 38.43 o
378 1 2 0 9 794.17 854.57 59.06 o
379 1 2 0 10 68.63 105.36 52.37 <
380 1 2 1 -14 109.91 142.81 51.39 <
381 1 2 -1 -14 116.77 149.74 51.33 <
382 1 2 1 -13 42.39 34.01 36.28 <
383 1 2 -1 -13 49.36 51.51 27.01 <
384 1 2 1 -12 260.20 374.39 51.08 o
385 1 2 -1 -12 275.17 289.97 34.63 o
386 1 2 1 -8 1048.47 921.79 56.91 o
387 1 2 -1 -8 846.86 1083.94 44.08 o
388 1 2 1 -7 4387.08 4384.32 98.60 o
389 1 2 -1 -7 4404.69 4378.25 91.30 o
390 1 2 1 -6 4056.07 4784.81 122.85 o
391 1 2 -1 -6 4500.71 4458.31 79.88 o
392 1 2 1 -5 4339.11 4339.63 93.87 o
393 1 2 -1 -5 4313.91 4273.38 75.39 o
394 1 2 1 -4 1626.12 1449.98 34.63 o
395 1 2 -1 -4 1470.78 1667.32 32.17 o
396 1 2 1 -3 12374.20 12442.70 422.34 o
397 1 2 -1 -3 12341.50 12344.30 223.73 o
398 1 2 1 -1 3395.06 3520.36 56.36 o
399 1 2 -1 -1 3352.17 3503.05 65.08 o
400 1 2 1 0 1345.64 1705.33 43.90 o
401 1 2 -1 0 1479.17 1548.46 28.24 o
402 1 2 1 1 587.75 869.12 16.64 o
403 1 2 -1 1 693.50 722.75 17.93 o
404 1 2 1 2 8655.31 8765.15 172.09 o
405 1 2 -1 2 8213.36 8526.57 170.13 o
406 1 2 1 3 1151.44 975.82 22.35 o
407 1 2 -1 3 1020.59 1142.14 28.86 o
408 1 2 1 4 1859.10 2145.47 58.51 o
409 1 2 -1 4 2055.63 1857.22 34.26 o
410 1 2 1 7 519.26 352.17 27.32 o
411 1 2 -1 7 358.52 551.70 23.27 o
412 1 2 1 8 202.79 187.44 25.17 o
413 1 2 -1 8 177.29 227.96 22.29 o
414 1 2 -1 9 386.14 573.93 35.30 o
415 1 2 -1 10 12.30 13.02 49.73 <
416 1 2 2 -14 1755.26 2454.66 165.71 o
417 1 2 -2 -14 1982.18 1939.86 137.46 o
418 1 2 -2 -13 543.44 634.22 52.86 o
419 1 2 -2 -12 2425.94 2573.83 104.31 o
420 1 2 2 -8 1601.09 1611.14 79.57 o
421 1 2 -2 -8 1604.08 1583.82 45.86 o
422 1 2 -2 -7 698.73 752.53 22.41 o
423 1 2 -2 -6 1765.99 1644.67 34.81 o
424 1 2 2 -5 17037.00 18055.50 373.04 o
425 1 2 -2 -5 16963.10 17437.90 288.80 o
426 1 2 2 -4 4072.06 3561.99 77.30 o
427 1 2 -2 -4 3324.20 4075.63 71.22 o
428 1 2 2 -3 7452.10 6857.53 180.81 o
429 1 2 -2 -3 6879.52 6927.02 177.93 o
430 1 2 2 -1 2663.30 2563.33 54.09 o
431 1 2 -2 -1 2440.57 2577.27 49.06 o
432 1 2 2 0 17597.00 19760.90 333.99 o
433 1 2 -2 0 18146.90 17906.00 278.61 o
434 1 2 2 1 5147.92 4678.04 93.01 o
435 1 2 -2 1 4638.40 4846.14 76.07 o
436 1 2 2 2 2670.11 2568.06 52.80 o
437 1 2 -2 2 2338.38 2707.73 50.34 o
438 1 2 -2 3 2311.07 2037.78 40.09 o
439 1 2 -2 4 12890.20 12899.70 208.32 o
440 1 2 -2 7 8089.04 8120.50 171.29 o
441 1 2 -2 8 185.25 170.93 21.98 o
442 1 2 -2 9 1245.89 1292.13 52.86 o
443 1 2 -2 10 1383.03 1800.37 150.91 o
444 1 2 -3 -14 59.10 57.16 31.86 <
445 1 2 -3 -13 707.66 792.99 58.94 o
446 1 2 -3 -12 277.48 261.05 25.66 o
447 1 2 -3 -8 625.40 496.20 25.54 o
448 1 2 3 -7 84.69 62.81 18.54 o
449 1 2 -3 -7 97.94 87.86 10.13 o
450 1 2 3 -6 296.26 403.31 37.21 o
451 1 2 -3 -6 278.87 320.55 14.67 o
452 1 2 3 -5 4134.37 4409.62 160.67 o
453 1 2 -3 -5 4186.25 4202.65 67.54 o
454 1 2 3 -4 12409.50 12680.40 305.14 o
455 1 2 -3 -4 12346.60 12126.70 188.67 o
456 1 2 3 -3 1214.41 1177.38 33.95 o
457 1 2 -3 -3 1097.30 1210.84 31.07 o
458 1 2 3 -1 16080.80 17181.30 409.82 o
459 1 2 -3 -1 16051.30 17099.70 357.14 o
460 1 2 3 0 36.36 155.82 8.29 o
461 1 2 -3 0 102.55 48.93 4.48 o
462 1 2 3 1 1088.66 768.55 22.53 o
463 1 2 -3 1 860.94 875.75 15.29 o
464 1 2 3 2 5137.19 7178.93 248.71 o
465 1 2 -3 2 5498.58 5372.49 79.63 o
466 1 2 -3 3 50.85 48.38 6.51 o
467 1 2 -3 4 14805.10 14508.40 234.35 o
468 1 2 -3 7 3392.55 3211.24 66.55 o
469 1 2 -3 8 3632.85 3607.98 106.64 o
470 1 2 -3 9 73.93 56.91 20.20 <
471 1 2 -3 10 1575.34 1718.71 89.51 o
472 1 2 -4 -14 507.98 602.72 77.73 o
473 1 2 -4 -13 656.86 639.37 54.40 o
474 1 2 -4 -12 3442.84 3423.67 99.34 o
475 1 2 -4 -8 410.61 299.36 32.17 o
476 1 2 -4 -7 1974.96 2114.59 40.21 o
477 1 2 4 -6 991.96 1246.39 63.48 o
478 1 2 -4 -6 1061.23 997.43 23.94 o
479 1 2 4 -5 1314.87 1068.41 40.09 o
480 1 2 -4 -5 1059.35 1253.58 25.17 o
481 1 2 4 -4 7409.36 7819.41 275.97 o
482 1 2 -4 -4 7542.53 7218.10 106.58 o
483 1 2 -4 -3 9732.51 9601.85 169.27 o
484 1 2 4 -1 1199.10 995.59 38.80 o
485 1 2 -4 -1 1101.58 1116.05 53.48 o
486 1 2 4 0 7804.77 8860.68 212.67 o
487 1 2 -4 0 7895.16 7605.02 104.68 o
488 1 2 4 1 603.66 551.15 28.12 o
489 1 2 -4 1 554.64 538.07 12.22 o
490 1 2 4 2 48.60 102.90 13.26 o
491 1 2 -4 2 60.81 54.95 5.71 o
492 1 2 -4 3 766.93 724.41 17.50 o
493 1 2 -4 4 137.70 113.64 8.47 o
494 1 2 -4 7 331.48 271.00 15.53 o
495 1 2 -4 8 270.09 281.74 22.59 o
496 1 2 -4 9 1677.09 1812.22 69.68 o
497 1 2 -4 10 43.11 89.27 34.32 <
498 1 2 -5 -13 53.90 54.52 49.18 <
499 1 2 -5 -12 960.03 1036.91 67.47 o
500 1 2 -5 -8 752.59 722.01 32.23 o
501 1 2 -5 -7 6270.17 6040.41 91.85 o
502 1 2 -5 -6 3732.17 3717.63 55.69 o
503 1 2 -5 -5 3571.38 3591.77 52.98 o
504 1 2 5 -4 2624.51 2655.48 104.93 o
505 1 2 -5 -4 2671.40 2551.17 40.52 o
506 1 2 -5 -3 5922.50 6108.50 164.17 o
507 1 2 -5 -1 5996.87 6014.93 159.51 o
508 1 2 -5 0 868.94 823.99 20.44 o
509 1 2 -5 1 517.51 556.18 12.65 o
510 1 2 -5 2 12808.20 12654.90 174.12 o
511 1 2 -5 3 336.18 275.79 10.38 o
512 1 2 -5 4 1929.94 1927.95 34.93 o
513 1 2 -5 7 250.85 213.53 16.95 o
514 1 2 -5 8 428.22 397.41 27.38 o
515 1 2 -5 9 5.04 28.73 23.15 <
516 1 2 -5 10 93.42 101.30 39.78 <
517 1 2 -5 11 1350.85 1208.14 96.64 o
518 1 2 -6 -13 604.57 722.69 66.49 o
519 1 2 -6 -12 979.30 1016.96 74.72 o
520 1 2 -6 -8 54.98 93.44 14.06 o
521 1 2 -6 -7 1991.00 1880.49 38.07 o
522 1 2 -6 -6 581.32 607.26 16.95 o
523 1 2 -6 -5 1926.00 1807.55 30.58 o
524 1 2 6 -4 1696.76 1834.07 80.06 o
525 1 2 -6 -4 1818.42 1697.41 28.86 o
526 1 2 -6 -1 764.36 793.97 32.66 o
527 1 2 -6 0 4398.90 4649.43 82.88 o
528 1 2 -6 1 583.11 620.53 21.61 o
529 1 2 -6 2 581.09 576.57 14.06 o
530 1 2 -6 3 713.64 612.30 16.21 o
531 1 2 -6 4 611.58 604.99 19.52 o
532 1 2 -6 7 523.25 616.90 29.16 o
533 1 2 -6 8 271.84 222.87 22.41 o
534 1 2 -6 9 1704.03 1456.43 50.47 o
535 1 2 -6 10 257.47 287.88 42.98 o
536 1 2 -7 -12 237.83 190.94 48.01 o
537 1 2 -7 -7 44.84 24.37 9.76 <
538 1 2 -7 -6 70.12 73.98 9.88 o
539 1 2 -7 -5 1484.68 1528.20 34.93 o
540 1 2 -7 -4 1064.92 985.77 27.08 o
541 1 2 -7 0 6.49 12.22 7.00 <
542 1 2 -7 1 557.78 588.72 19.77 o
543 1 2 -7 2 260.49 210.04 12.46 o
544 1 2 -7 3 427.23 454.39 14.43 o
545 1 2 -7 4 2559.72 2343.59 54.27 o
546 1 2 -7 8 454.75 460.04 30.02 o
547 1 2 -7 9 464.74 412.03 29.65 o
548 1 2 -7 10 300.11 240.98 32.79 o
549 1 2 -8 -12 374.91 316.68 53.54 o
550 1 2 -8 -7 1008.27 968.58 29.35 o
551 1 2 -8 -6 217.23 202.61 18.66 o
552 1 2 -8 -5 8716.19 8553.89 164.11 o
553 1 2 -8 -4 1401.62 1396.81 43.41 o
554 1 2 -8 0 1007.16 956.79 29.41 o
555 1 2 -8 1 6223.85 6179.90 116.41 o
556 1 2 -8 2 2577.01 2587.89 52.12 o
557 1 2 -8 3 331.99 282.79 17.56 o
558 1 2 -8 4 6328.92 6124.77 137.16 o
559 1 2 -8 8 345.02 329.94 32.91 o
560 1 2 -8 9 149.65 187.01 44.08 o
561 1 2 -8 10 1728.42 1757.94 102.35 o
562 1 2 -9 -7 967.69 1020.33 48.38 o
563 1 2 -9 -6 293.62 261.98 26.77 o
564 1 2 -9 -5 1016.83 998.11 36.16 o
565 1 2 -9 -4 164.69 200.21 19.95 o
566 1 2 -9 0 82.67 87.06 15.29 o
567 1 2 -9 1 162.01 194.81 16.15 o
568 1 2 -9 2 493.67 510.32 27.87 o
569 1 2 -9 3 390.33 395.88 25.42 o
570 1 2 -9 4 2144.18 1919.35 86.38 o
571 1 2 -9 8 120.48 127.33 28.43 o
572 1 2 -9 9 70.29 35.12 60.11 <
573 1 2 -10 -7 1742.21 1797.11 67.04 o
574 1 2 -10 -6 33.74 50.53 22.47 <
575 1 2 -10 -5 169.93 163.13 19.83 o
576 1 2 -10 -4 2535.42 2764.95 73.67 o
577 1 2 -10 0 967.48 987.24 40.40 o
578 1 2 -10 1 1467.72 1576.03 50.77 o
579 1 2 -10 2 385.01 359.59 24.80 o
580 1 2 -10 3 49.94 47.70 16.52 <
581 1 2 -10 8 100.53 100.20 60.60 <
582 1 2 -11 -7 932.50 996.57 60.54 o
583 1 2 -11 -6 493.63 463.48 36.59 o
584 1 2 -11 -5 1150.62 1285.99 47.09 o
585 1 2 -11 -4 105.50 123.65 19.89 o
586 1 2 -11 0 68.36 59.00 27.75 <
587 1 2 -11 1 185.08 221.15 28.43 o
588 1 2 -11 2 1541.82 1587.81 69.32 o
589 1 2 -11 3 50.88 69.62 25.60 <
590 1 2 -12 -7 114.30 94.67 30.51 o
591 1 2 -12 -6 401.61 451.75 39.11 o
592 1 2 -12 -5 391.06 415.22 29.47 o
593 1 2 -12 -4 400.81 421.79 39.97 o
594 1 2 -12 0 1809.77 1876.19 103.14 o
595 1 2 -12 1 143.57 133.04 27.81 o
596 1 2 -12 2 40.77 39.17 24.25 <
597 1 2 -12 3 139.15 194.32 31.56 o
598 1 2 -13 1 391.67 464.27 78.34 o
599 1 2 -13 2 344.11 348.30 38.13 o
600 1 3 0 -13 2160.97 2333.59 98.54 o
601 1 3 0 -8 1562.15 1582.10 46.05 o
602 1 3 0 -7 5977.93 5614.32 123.10 o
603 1 3 0 -6 21962.60 21590.30 514.92 o
604 1 3 0 -5 0.37 -1.47 5.03 <
605 1 3 0 1 1342.68 1770.47 47.27 o
606 1 3 0 2 11428.10 11217.50 382.80 o
607 1 3 0 3 18996.60 18491.40 626.85 o
608 1 3 0 6 4703.11 4878.44 131.32 o
609 1 3 0 7 2956.44 2934.28 135.93 o
610 1 3 0 8 9779.48 10438.00 431.49 o
611 1 3 0 9 5518.31 5885.82 205.43 o
612 1 3 1 -14 15.00 34.14 38.68 <
613 1 3 -1 -14 34.04 21.00 39.29 <
614 1 3 1 -13 1314.01 1143.68 64.34 o
615 1 3 -1 -13 1138.93 1345.98 70.42 o
616 1 3 1 -8 3270.74 3548.05 84.42 o
617 1 3 -1 -8 3599.93 3273.06 72.39 o
618 1 3 1 -7 1049.25 952.61 37.27 o
619 1 3 -1 -7 944.79 1129.00 37.21 o
620 1 3 1 -6 4467.95 4567.41 99.89 o
621 1 3 -1 -6 4374.50 4718.50 83.99 o
622 1 3 1 -5 1583.91 1759.54 42.12 o
623 1 3 -1 -5 1697.28 1660.81 33.46 o
624 1 3 1 -2 2769.84 2838.75 103.14 o
625 1 3 -1 -2 2639.78 2807.32 59.49 o
626 1 3 1 -1 18168.90 18076.20 362.54 o
627 1 3 -1 -1 17851.70 17311.10 296.73 o
628 1 3 1 0 1567.27 1332.78 36.84 o
629 1 3 -1 0 1263.64 1640.00 33.52 o
630 1 3 1 1 1284.56 1187.21 26.52 o
631 1 3 -1 1 1202.34 1130.54 25.17 o
632 1 3 1 2 903.57 816.13 20.08 o
633 1 3 -1 2 781.62 875.26 28.98 o
634 1 3 1 3 2110.14 2487.81 63.30 o
635 1 3 -1 3 2572.68 1941.58 59.86 o
636 1 3 -1 6 500.99 502.40 26.22 o
637 1 3 1 7 431.20 348.11 37.76 o
638 1 3 -1 7 370.58 445.24 29.78 o
639 1 3 1 8 1699.41 1609.79 85.95 o
640 1 3 -1 8 1653.05 1701.21 80.00 o
641 1 3 -1 9 272.32 284.02 39.11 o
642 1 3 2 -14 1454.67 1549.63 119.17 o
643 1 3 -2 -14 1475.11 1398.72 108.43 o
644 1 3 -2 -13 876.47 963.17 61.40 o
645 1 3 2 -8 2590.01 2796.82 118.80 o
646 1 3 -2 -8 2739.06 2641.55 61.21 o
647 1 3 2 -7 662.64 783.72 48.56 o
648 1 3 -2 -7 704.59 740.12 21.98 o
649 1 3 2 -6 8527.88 9283.02 231.95 o
650 1 3 -2 -6 9169.15 8651.63 147.90 o
651 1 3 2 -5 5162.61 5059.19 108.85 o
652 1 3 -2 -5 5015.19 5273.33 92.03 o
653 1 3 2 -4 1519.67 1922.17 81.90 o
654 1 3 2 -2 8562.53 8370.31 211.08 o
655 1 3 -2 -2 8265.61 8061.80 144.83 o
656 1 3 2 -1 63.83 14.61 3.50 o
657 1 3 -2 -1 17.90 53.54 3.93 o
658 1 3 2 0 2384.10 3226.22 81.53 o
659 1 3 -2 0 2976.71 2348.38 35.98 o
660 1 3 2 1 7001.40 7969.03 157.48 o
661 1 3 -2 1 7064.30 7538.28 131.39 o
662 1 3 2 2 5226.34 6234.85 153.61 o
663 1 3 -2 2 5455.13 5361.07 108.24 o
664 1 3 2 3 6750.74 8339.00 287.70 o
665 1 3 -2 3 7181.10 6788.39 177.62 o
666 1 3 -2 6 1322.56 1271.26 45.43 o
667 1 3 -2 7 2822.52 2520.17 78.46 o
668 1 3 -2 8 316.55 232.69 25.91 o
669 1 3 -2 9 96.73 80.00 30.45 <
670 1 3 -3 -14 27.39 50.34 46.11 <
671 1 3 -3 -13 303.96 198.55 26.40 o
672 1 3 -3 -8 1160.17 1348.80 37.94 o
673 1 3 3 -7 911.45 1087.38 38.80 o
674 1 3 -3 -7 950.76 969.07 26.03 o
675 1 3 3 -6 12.28 38.19 16.82 <
676 1 3 -3 -6 41.09 20.32 8.04 <
677 1 3 3 -5 161.12 110.08 20.01 o
678 1 3 -3 -5 89.00 141.76 10.31 o
679 1 3 -3 -2 604.05 848.73 20.14 o
680 1 3 3 -1 2991.41 3875.54 96.94 o
681 1 3 -3 -1 3358.75 3145.73 49.24 o
682 1 3 3 0 2593.67 2605.63 66.92 o
683 1 3 -3 0 2395.14 2677.16 51.70 o
684 1 3 3 1 7708.60 8869.64 214.95 o
685 1 3 -3 1 7624.56 7718.48 122.91 o
686 1 3 3 2 4830.65 5943.53 146.92 o
687 1 3 -3 2 4913.18 5054.89 102.96 o
688 1 3 3 3 2933.72 3617.92 93.63 o
689 1 3 -3 3 2889.64 3003.78 60.47 o
690 1 3 -3 6 17.86 15.84 10.01 <
691 1 3 -3 7 49.93 64.47 14.06 o
692 1 3 -3 8 54.58 41.07 19.22 <
693 1 3 -3 9 49.09 82.88 22.78 o
694 1 3 -4 -14 936.03 830.62 91.85 o
695 1 3 -4 -13 204.08 204.20 27.38 o
696 1 3 -4 -8 1343.67 1272.73 41.38 o
697 1 3 -4 -7 209.74 218.63 12.83 o
698 1 3 4 -6 666.09 611.32 31.13 o
699 1 3 -4 -6 637.50 598.91 17.87 o
700 1 3 -4 -5 3795.13 3733.29 63.97 o
701 1 3 -4 -2 15397.20 15277.00 389.74 o
702 1 3 4 -1 691.02 819.82 35.73 o
703 1 3 -4 -1 711.42 684.81 15.04 o
704 1 3 4 0 2670.91 3086.97 78.77 o
705 1 3 -4 0 2661.38 2623.50 47.46 o
706 1 3 4 1 6219.59 7100.41 247.73 o
707 1 3 -4 1 6036.09 6162.77 104.50 o
708 1 3 4 2 8.30 67.54 14.80 o
709 1 3 -4 2 28.63 15.53 5.59 <
710 1 3 4 3 822.30 817.85 42.49 o
711 1 3 -4 3 745.59 731.47 20.63 o
712 1 3 -4 6 191.54 224.59 18.05 o
713 1 3 -4 7 3882.77 3649.11 91.11 o
714 1 3 -4 8 697.12 569.51 38.25 o
715 1 3 -4 9 543.31 526.41 40.95 o
716 1 3 -5 -14 165.43 182.96 43.90 o
717 1 3 -5 -13 633.04 647.17 58.51 o
718 1 3 -5 -9 1288.56 1256.09 60.66 o
719 1 3 -5 -8 4739.37 4968.69 97.68 o
720 1 3 -5 -7 1262.49 1079.77 26.22 o
721 1 3 5 -6 1443.39 1564.05 77.11 o
722 1 3 -5 -6 1512.10 1455.63 29.84 o
723 1 3 -5 -5 2177.70 2231.55 41.93 o
724 1 3 -5 -2 4237.47 4201.67 115.67 o
725 1 3 -5 -1 8899.41 8695.71 145.75 o
726 1 3 -5 0 74.38 88.35 6.26 o
727 1 3 -5 1 5644.47 5234.22 90.44 o
728 1 3 -5 2 1941.84 1863.48 37.02 o
729 1 3 -5 3 193.85 239.32 15.59 o
730 1 3 -5 6 1016.59 1090.02 46.66 o
731 1 3 -5 7 49.36 28.00 13.63 <
732 1 3 -5 8 1180.44 897.48 49.55 o
733 1 3 -5 9 852.04 907.86 52.62 o
734 1 3 -6 -13 1004.18 966.55 72.26 o
735 1 3 -6 -8 15.04 9.95 8.60 <
736 1 3 -6 -7 1029.81 1017.14 25.17 o
737 1 3 -6 -6 2563.83 2326.16 38.19 o
738 1 3 6 -5 194.97 293.96 31.50 o
739 1 3 -6 -5 195.54 190.70 9.39 o
740 1 3 -6 -1 3848.06 3668.57 66.86 o
741 1 3 -6 0 7795.14 7618.28 148.70 o
742 1 3 -6 1 787.83 662.34 16.45 o
743 1 3 -6 2 1387.17 1292.44 25.85 o
744 1 3 -6 3 2913.48 2837.15 63.54 o
745 1 3 -6 6 1145.01 1015.67 46.84 o
746 1 3 -6 7 1751.07 1703.24 51.14 o
747 1 3 -6 8 3159.10 3057.99 77.30 o
748 1 3 -6 9 1866.22 1767.70 82.58 o
749 1 3 -7 -13 356.97 495.22 80.80 o
750 1 3 -7 -8 1144.11 977.54 26.77 o
751 1 3 -7 -7 487.74 493.19 17.99 o
752 1 3 -7 -6 1321.30 1280.34 25.48 o
753 1 3 -7 -5 365.15 419.89 18.91 o
754 1 3 -7 -1 1759.73 1748.43 44.02 o
755 1 3 -7 0 1682.47 1652.03 41.99 o
756 1 3 -7 1 588.91 461.27 24.74 o
757 1 3 -7 2 305.62 259.21 13.88 o
758 1 3 -7 3 2025.35 1877.42 45.92 o
759 1 3 -7 7 119.92 131.63 21.30 o
760 1 3 -7 8 196.70 215.01 27.32 o
761 1 3 -7 9 173.10 102.22 25.60 o
762 1 3 -8 -8 62.15 56.67 12.83 o
763 1 3 -8 -7 571.03 565.64 26.77 o
764 1 3 -8 -6 1768.72 1721.35 40.09 o
765 1 3 -8 -5 550.94 534.76 28.36 o
766 1 3 -8 -1 204.72 200.33 17.93 o
767 1 3 -8 0 206.80 170.74 15.35 o
768 1 3 -8 1 282.54 255.16 16.82 o
769 1 3 -8 2 515.15 505.29 24.25 o
770 1 3 -8 3 552.82 617.03 32.05 o
771 1 3 -8 7 1108.46 1012.78 47.77 o
772 1 3 -8 8 141.68 119.97 35.67 o
773 1 3 -8 9 20.79 -30.94 30.64 <
774 1 3 -9 -8 1242.13 1261.07 54.58 o
775 1 3 -9 -7 128.95 140.04 24.19 o
776 1 3 -9 -6 511.84 527.14 27.81 o
777 1 3 -9 -5 172.51 210.71 21.24 o
778 1 3 -9 -1 897.12 860.40 29.90 o
779 1 3 -9 0 504.30 534.45 28.73 o
780 1 3 -9 1 1094.73 1115.87 40.58 o
781 1 3 -9 2 31.90 30.58 12.71 <
782 1 3 -9 7 86.92 64.28 21.49 <
783 1 3 -9 8 266.52 257.19 72.51 o
784 1 3 -10 -8 103.27 86.51 27.93 o
785 1 3 -10 -7 492.89 494.85 36.53 o
786 1 3 -10 -6 461.77 478.64 35.24 o
787 1 3 -10 -5 481.66 541.69 31.68 o
788 1 3 -10 -1 1610.21 1638.16 51.27 o
789 1 3 -10 0 3746.24 3922.57 95.78 o
790 1 3 -10 1 2047.66 2072.53 61.09 o
791 1 3 -10 2 552.25 636.98 42.79 o
792 1 3 -10 7 981.97 937.70 100.26 o
793 1 3 -11 -8 978.41 1104.38 63.91 o
794 1 3 -11 -7 233.41 236.37 31.31 o
795 1 3 -11 -6 339.01 325.34 33.40 o
796 1 3 -11 -5 481.88 495.89 30.88 o
797 1 3 -11 -1 1049.45 1132.44 45.56 o
798 1 3 -11 0 193.33 198.68 21.49 o
799 1 3 -11 1 1527.40 1688.01 56.55 o
800 1 3 -11 2 57.61 71.10 25.30 <
801 1 3 -12 -7 152.98 138.45 30.39 o
802 1 3 -12 -6 495.55 538.62 40.09 o
803 1 3 -12 0 2.23 20.69 14.37 <
804 1 3 -12 1 455.17 432.96 37.64 o
805 1 3 -12 2 246.17 266.46 34.87 o
806 1 3 -13 0 120.18 124.63 53.60 <
807 1 3 -13 1 509.83 551.39 43.16 o
808 1 4 0 -14 159.36 195.98 50.59 o
809 1 4 0 -9 1082.47 969.07 46.54 o
810 1 4 0 -8 100.86 108.12 15.04 o
811 1 4 0 -7 3148.06 2916.91 83.25 o
812 1 4 0 -6 4363.81 4258.09 80.98 o
813 1 4 0 1 189.26 185.48 17.01 o
814 1 4 0 2 2457.35 2451.96 65.69 o
815 1 4 0 5 1391.48 797.84 42.18 o
816 1 4 0 6 1580.83 1553.80 85.22 o
817 1 4 0 7 896.52 1001.79 67.23 o
818 1 4 0 8 3.77 14.18 25.48 <
819 1 4 -1 -15 364.74 455.62 69.32 o
820 1 4 -1 -14 76.81 50.90 44.57 <
821 1 4 1 -9 1130.90 1221.16 76.81 o
822 1 4 -1 -9 1274.31 1084.00 50.10 o
823 1 4 1 -8 3263.46 3064.75 88.41 o
824 1 4 -1 -8 3215.85 3216.03 71.34 o
825 1 4 1 -7 3153.21 3109.44 72.08 o
826 1 4 -1 -7 2968.46 3565.74 67.84 o
827 1 4 1 -6 2694.18 2419.36 70.18 o
828 1 4 -1 -6 2436.66 2727.93 46.91 o
829 1 4 1 -2 94.95 57.65 6.32 o
830 1 4 -1 -2 87.98 98.54 5.77 o
831 1 4 1 -1 8880.54 10171.20 200.27 o
832 1 4 -1 -1 9399.66 8652.61 164.79 o
833 1 4 1 0 1175.31 1615.26 45.56 o
834 1 4 -1 0 1583.19 1157.55 26.28 o
835 1 4 1 1 6769.27 7321.55 179.89 o
836 1 4 -1 1 6756.44 7034.71 133.47 o
837 1 4 1 2 3939.04 4417.91 112.42 o
838 1 4 -1 2 3954.54 4054.75 148.27 o
839 1 4 -1 5 268.42 253.75 26.46 o
840 1 4 -1 6 1299.94 1222.33 64.53 o
841 1 4 1 7 196.04 290.83 35.79 o
842 1 4 -1 7 288.62 193.83 31.19 o
843 1 4 1 8 656.93 708.08 57.47 o
844 1 4 -1 8 620.30 703.47 58.45 o
845 1 4 -1 9 222.89 257.68 39.35 o
846 1 4 -2 -15 14.91 -2.82 44.39 <
847 1 4 -2 -14 759.98 864.76 90.99 o
848 1 4 -2 -9 2099.57 1963.43 75.76 o
849 1 4 2 -8 385.14 339.27 38.68 o
850 1 4 -2 -8 301.65 392.50 19.77 o
851 1 4 -2 -7 4369.77 4110.44 75.95 o
852 1 4 2 -6 1276.84 1367.90 45.19 o
853 1 4 -2 -6 1435.15 1284.52 32.91 o
854 1 4 -2 -3 488.13 434.19 19.71 o
855 1 4 2 -2 5067.93 4906.25 87.92 o
856 1 4 -2 -2 4733.81 5245.83 87.12 o
857 1 4 2 -1 62.29 47.34 5.22 o
858 1 4 -2 -1 39.22 55.62 4.91 o
859 1 4 2 0 4180.09 4581.77 115.24 o
860 1 4 -2 0 4140.89 4474.70 72.14 o
861 1 4 2 1 4650.25 5210.96 105.48 o
862 1 4 -2 1 4568.93 4993.43 89.70 o
863 1 4 2 2 405.70 274.75 16.88 o
864 1 4 -2 2 275.19 381.76 17.56 o
865 1 4 -2 5 274.82 244.35 24.31 o
866 1 4 -2 6 1565.88 1493.94 74.29 o
867 1 4 -2 7 714.52 833.63 59.68 o
868 1 4 2 8 1779.60 1514.26 88.10 o
869 1 4 -2 8 1617.49 1722.52 86.69 o
870 1 4 -2 9 106.11 124.63 32.29 o
871 1 4 -3 -14 1002.45 951.69 62.01 o
872 1 4 -3 -9 709.87 722.57 43.16 o
873 1 4 -3 -8 9949.64 10106.60 215.93 o
874 1 4 3 -7 3985.36 3834.77 106.46 o
875 1 4 -3 -7 4085.89 3887.88 77.79 o
876 1 4 3 -6 155.45 120.09 23.45 o
877 1 4 -3 -6 114.85 120.95 11.54 o
878 1 4 3 -2 8339.17 8139.47 282.24 o
879 1 4 -3 -2 7963.27 8221.12 113.28 o
880 1 4 3 -1 8920.40 9924.73 241.35 o
881 1 4 -3 -1 9009.72 9231.45 138.20 o
882 1 4 3 0 8100.93 8493.72 207.82 o
883 1 4 -3 0 7767.00 8036.08 128.19 o
884 1 4 3 1 14699.80 16851.10 405.33 o
885 1 4 -3 1 14775.00 14779.30 231.71 o
886 1 4 3 2 9233.08 10301.60 251.72 o
887 1 4 -3 2 8965.92 9094.78 222.68 o
888 1 4 -3 5 1169.18 899.45 49.98 o
889 1 4 -3 6 844.13 785.86 42.18 o
890 1 4 -3 7 395.95 360.39 41.44 o
891 1 4 -3 8 851.52 761.80 60.29 o
892 1 4 -3 9 2181.77 2158.12 116.10 o
893 1 4 -4 -14 1293.01 1166.21 67.72 o
894 1 4 -4 -9 1512.18 1392.27 46.60 o
895 1 4 -4 -8 820.98 889.81 29.59 o
896 1 4 4 -7 1072.00 1037.22 61.70 o
897 1 4 -4 -7 1035.82 1086.21 25.97 o
898 1 4 -4 -6 213.57 248.10 15.16 o
899 1 4 4 -2 1973.72 2048.04 80.12 o
900 1 4 -4 -2 1973.53 1963.19 30.82 o
901 1 4 4 -1 1561.50 1371.03 56.98 o
902 1 4 -4 -1 1303.59 1476.38 30.15 o
903 1 4 4 0 1025.11 1310.18 39.11 o
904 1 4 -4 0 1169.93 1024.51 22.90 o
905 1 4 4 1 63.56 159.38 19.22 o
906 1 4 -4 1 100.79 79.20 7.18 o
907 1 4 4 2 459.58 663.26 40.28 o
908 1 4 -4 2 484.84 471.27 20.69 o
909 1 4 -4 5 28.41 31.99 16.52 <
910 1 4 -4 6 179.26 160.30 22.16 o
911 1 4 -4 7 512.36 389.00 45.80 o
912 1 4 -4 8 1513.34 1192.55 75.82 o
913 1 4 -4 9 19.64 49.12 27.57 <
914 1 4 -5 -14 602.84 641.77 61.15 o
915 1 4 -5 -9 1147.68 1219.93 49.12 o
916 1 4 -5 -8 105.19 135.62 13.69 o
917 1 4 -5 -7 4582.80 4437.62 72.39 o
918 1 4 -5 -6 6358.94 6180.02 103.02 o
919 1 4 -5 -2 2828.38 2833.16 53.05 o
920 1 4 -5 -1 9958.79 9770.13 163.62 o
921 1 4 -5 0 3220.03 3183.06 58.26 o
922 1 4 -5 1 637.52 844.74 21.55 o
923 1 4 -5 2 5763.93 5535.31 121.01 o
924 1 4 -5 5 846.73 847.08 50.47 o
925 1 4 -5 6 6049.53 5897.05 135.26 o
926 1 4 -5 7 260.50 283.28 26.09 o
927 1 4 -5 8 1593.22 1513.65 76.07 o
928 1 4 -5 9 757.87 645.02 52.68 o
929 1 4 -6 -9 461.09 388.51 19.22 o
930 1 4 -6 -8 374.08 391.34 17.44 o
931 1 4 -6 -7 2118.59 2163.34 40.28 o
932 1 4 -6 -6 1055.68 1061.41 23.39 o
933 1 4 -6 -2 330.36 260.01 13.26 o
934 1 4 -6 -1 1937.40 1866.24 44.82 o
935 1 4 -6 0 184.18 190.88 9.64 o
936 1 4 -6 1 243.32 291.26 11.73 o
937 1 4 -6 2 729.99 778.50 44.39 o
938 1 4 -6 5 631.68 585.59 42.92 o
939 1 4 -6 6 831.90 820.80 40.34 o
940 1 4 -6 7 175.57 217.65 25.48 o
941 1 4 -6 8 358.51 335.59 39.97 o
942 1 4 -6 9 9.91 -7.55 29.65 <
943 1 4 -7 -9 908.00 868.32 27.57 o
944 1 4 -7 -8 7559.37 7623.62 118.12 o
945 1 4 -7 -7 737.57 767.88 21.98 o
946 1 4 -7 -6 262.05 263.27 12.22 o
947 1 4 -7 -2 3245.11 3106.87 59.80 o
948 1 4 -7 -1 2242.24 2149.71 51.76 o
949 1 4 -7 0 3221.93 3104.47 68.52 o
950 1 4 -7 1 9518.52 9414.04 213.53 o
951 1 4 -7 2 1634.72 1644.97 76.13 o
952 1 4 -7 6 713.25 640.17 35.00 o
953 1 4 -7 7 526.92 505.35 34.07 o
954 1 4 -7 8 78.03 76.99 22.04 o
955 1 4 -8 -9 329.69 328.71 17.74 o
956 1 4 -8 -8 404.98 360.76 16.76 o
957 1 4 -8 -7 4404.71 4203.08 89.21 o
958 1 4 -8 -6 258.71 258.11 17.87 o
959 1 4 -8 -2 1983.93 2023.05 51.20 o
960 1 4 -8 -1 38.26 35.43 11.17 o
961 1 4 -8 0 625.18 631.02 26.46 o
962 1 4 -8 1 3955.29 3849.08 98.79 o
963 1 4 -8 2 1028.06 1069.70 62.38 o
964 1 4 -8 6 742.25 752.83 41.32 o
965 1 4 -8 7 760.91 711.33 41.01 o
966 1 4 -8 8 274.37 368.62 45.99 o
967 1 4 -9 -9 115.40 105.97 24.56 o
968 1 4 -9 -8 2233.50 2172.06 71.22 o
969 1 4 -9 -7 565.59 593.88 29.35 o
970 1 4 -9 -6 136.57 138.69 25.42 o
971 1 4 -9 -2 776.03 798.70 29.72 o
972 1 4 -9 -1 1264.68 1271.20 44.51 o
973 1 4 -9 0 403.33 386.30 21.61 o
974 1 4 -9 1 3357.62 3437.73 77.48 o
975 1 4 -9 6 217.60 217.34 25.30 o
976 1 4 -9 7 270.07 230.54 38.92 o
977 1 4 -10 -9 198.68 232.57 36.78 o
978 1 4 -10 -8 800.97 796.98 46.23 o
979 1 4 -10 -7 320.88 374.88 32.54 o
980 1 4 -10 -6 235.30 252.40 36.16 o
981 1 4 -10 -2 1039.76 1069.27 30.33 o
982 1 4 -10 -1 374.74 408.34 22.72 o
983 1 4 -10 0 75.84 79.08 16.70 o
984 1 4 -10 1 507.17 520.14 30.88 o
985 1 4 -10 6 343.96 253.32 57.90 o
986 1 4 -11 -9 216.46 222.25 37.51 o
987 1 4 -11 -8 36.49 -6.39 24.19 <
988 1 4 -11 -7 1687.98 1639.20 65.57 o
989 1 4 -11 -2 485.23 526.59 27.32 o
990 1 4 -11 -1 2455.87 2514.83 59.00 o
991 1 4 -11 0 255.46 235.76 23.02 o
992 1 4 -11 1 16.44 41.75 17.56 <
993 1 4 -12 -7 445.18 514.68 41.56 o
994 1 4 -12 -2 69.31 75.64 28.30 <
995 1 4 -12 -1 515.30 494.11 24.68 o
996 1 4 -12 0 204.02 216.48 24.31 o
997 1 4 -12 1 160.49 147.90 28.36 o
998 1 4 -13 -2 679.45 676.52 84.66 o
999 1 4 -13 -1 825.93 933.89 62.19 o
1000 1 5 0 -15 327.61 251.05 59.06 o
1001 1 5 0 -10 2472.93 2657.20 95.84 o
1002 1 5 0 -9 1871.99 1892.15 57.65 o
1003 1 5 0 -8 173.87 173.20 14.98 o
1004 1 5 0 -7 11694.60 11798.30 228.76 o
1005 1 5 0 -3 199.75 182.53 9.58 o
1006 1 5 0 -2 600.98 720.11 18.36 o
1007 1 5 0 -1 2019.47 2263.78 56.12 o
1008 1 5 0 4 260.58 -6.39 3.19 <
1009 1 5 0 5 4508.20 4181.47 190.20 o
1010 1 5 0 6 2.70 -6.94 23.82 <
1011 1 5 0 7 132.65 156.99 33.09 o
1012 1 5 0 8 494.72 439.10 50.10 o
1013 1 5 1 -15 1435.63 1724.67 124.76 o
1014 1 5 -1 -15 1550.40 1499.65 119.66 o
1015 1 5 1 -10 592.15 347.87 43.78 o
1016 1 5 -1 -10 474.66 526.16 29.41 o
1017 1 5 1 -9 1398.91 1323.69 75.27 o
1018 1 5 -1 -9 1328.98 1366.11 46.72 o
1019 1 5 1 -8 334.64 396.74 23.02 o
1020 1 5 -1 -8 401.04 316.80 17.38 o
1021 1 5 1 -7 2911.15 2906.72 84.30 o
1022 1 5 -1 -7 3015.48 2990.89 86.26 o
1023 1 5 1 -3 6241.38 6695.56 167.12 o
1024 1 5 -1 -3 6407.67 6351.75 113.83 o
1025 1 5 1 -2 2809.33 2508.87 68.52 o
1026 1 5 -1 -2 2514.22 2782.70 56.55 o
1027 1 5 1 -1 3722.87 3946.21 101.98 o
1028 1 5 -1 -1 3808.64 3846.93 67.35 o
1029 1 5 1 0 1017.66 1164.00 37.21 o
1030 1 5 -1 0 990.47 1169.40 27.57 o
1031 1 5 1 1 1132.98 1248.42 39.85 o
1032 1 5 -1 1 1106.91 1169.77 28.86 o
1033 1 5 -1 4 503.55 436.77 35.30 o
1034 1 5 -1 5 2112.62 2493.28 102.22 o
1035 1 5 -1 6 1001.81 1035.93 63.97 o
1036 1 5 1 7 374.46 349.22 45.62 o
1037 1 5 -1 7 354.77 398.64 45.31 o
1038 1 5 1 8 570.43 676.95 68.89 o
1039 1 5 -1 8 561.94 683.52 61.89 o
1040 1 5 -2 -15 169.92 115.36 56.61 <
1041 1 5 -2 -10 385.77 476.31 28.55 o
1042 1 5 -2 -9 1372.42 1337.81 46.66 o
1043 1 5 2 -8 2422.96 2480.45 77.05 o
1044 1 5 -2 -8 2545.60 2271.64 61.83 o
1045 1 5 -2 -7 3655.47 3406.84 95.59 o
1046 1 5 2 -3 2479.95 2316.70 64.83 o
1047 1 5 -2 -3 2353.97 2560.32 46.35 o
1048 1 5 2 -2 23097.80 24154.20 415.22 o
1049 1 5 -2 -2 23053.50 22627.90 362.17 o
1050 1 5 2 -1 1569.94 1584.31 39.11 o
1051 1 5 -2 -1 1487.44 1533.05 28.92 o
1052 1 5 2 0 341.18 534.39 23.39 o
1053 1 5 -2 0 424.02 394.71 13.14 o
1054 1 5 2 1 4337.63 4814.16 99.09 o
1055 1 5 -2 1 4241.86 4436.51 112.72 o
1056 1 5 -2 4 5257.75 4954.94 183.76 o
1057 1 5 -2 5 5321.41 5794.09 200.15 o
1058 1 5 -2 6 604.63 699.23 54.09 o
1059 1 5 -2 7 4430.37 4308.26 162.09 o
1060 1 5 2 8 835.11 743.50 61.95 o
1061 1 5 -2 8 863.53 878.27 70.24 o
1062 1 5 -3 -15 218.56 134.09 34.44 o
1063 1 5 -3 -10 2702.44 2617.66 93.75 o
1064 1 5 -3 -9 2184.11 1977.00 74.04 o
1065 1 5 3 -8 944.06 1033.60 64.22 o
1066 1 5 -3 -8 1022.71 978.46 37.14 o
1067 1 5 3 -7 2023.29 2000.02 91.36 o
1068 1 5 -3 -7 2160.06 2051.11 56.61 o
1069 1 5 3 -3 25.67 44.94 13.26 o
1070 1 5 -3 -3 27.05 25.60 4.73 o
1071 1 5 3 -2 734.77 915.78 32.11 o
1072 1 5 -3 -2 834.47 788.87 17.50 o
1073 1 5 3 -1 11718.80 12310.40 299.73 o
1074 1 5 -3 -1 11843.80 11136.90 166.75 o
1075 1 5 3 0 4233.07 4481.64 115.30 o
1076 1 5 -3 0 4266.31 4122.90 62.93 o
1077 1 5 3 1 1979.39 2374.17 66.92 o
1078 1 5 -3 1 2050.66 2011.75 41.99 o
1079 1 5 -3 4 5442.39 5052.49 188.42 o
1080 1 5 -3 5 1394.48 1312.88 51.94 o
1081 1 5 -3 6 87.56 100.14 30.76 o
1082 1 5 -3 7 2958.60 2723.51 120.58 o
1083 1 5 -3 8 1486.20 1408.85 91.79 o
1084 1 5 -4 -10 1307.68 1053.92 44.88 o
1085 1 5 -4 -9 225.42 213.72 19.77 o
1086 1 5 -4 -8 1104.91 1068.47 30.58 o
1087 1 5 -4 -7 6935.26 7350.78 203.10 o
1088 1 5 4 -3 1122.49 1339.71 61.33 o
1089 1 5 -4 -3 1250.55 1136.99 19.65 o
1090 1 5 4 -2 1006.72 990.50 48.63 o
1091 1 5 -4 -2 851.77 993.20 20.69 o
1092 1 5 4 -1 5046.62 5549.98 198.62 o
1093 1 5 -4 -1 5151.73 4887.28 85.34 o
1094 1 5 4 0 865.98 929.16 33.28 o
1095 1 5 -4 0 800.39 922.22 22.66 o
1096 1 5 4 1 272.57 270.82 25.42 o
1097 1 5 -4 1 241.16 256.39 12.34 o
1098 1 5 -4 4 181.62 216.24 26.28 o
1099 1 5 -4 5 5239.51 5125.43 137.71 o
1100 1 5 -4 6 59.15 52.25 28.73 <
1101 1 5 -4 7 479.82 389.00 47.64 o
1102 1 5 -4 8 795.68 906.51 75.95 o
1103 1 5 -4 10 76.52 130.04 84.30 <
1104 1 5 -5 -10 696.77 604.26 31.86 o
1105 1 5 -5 -9 460.04 426.88 25.36 o
1106 1 5 -5 -8 379.68 437.57 20.87 o
1107 1 5 -5 -7 3478.68 3495.19 86.94 o
1108 1 5 5 -3 1079.51 1212.56 59.37 o
1109 1 5 -5 -3 1125.83 1032.67 21.67 o
1110 1 5 -5 -2 655.87 584.61 18.11 o
1111 1 5 -5 -1 2686.33 2599.92 49.85 o
1112 1 5 -5 0 2431.54 2407.14 46.72 o
1113 1 5 -5 1 290.86 280.76 16.64 o
1114 1 5 -5 4 488.59 366.10 33.89 o
1115 1 5 -5 5 2345.93 2077.38 60.17 o
1116 1 5 -5 6 99.97 99.65 20.32 o
1117 1 5 -5 7 134.14 96.70 29.35 o
1118 1 5 -5 8 256.81 235.15 36.96 o
1119 1 5 -6 -14 346.16 399.32 76.50 o
1120 1 5 -6 -10 1156.65 1198.38 64.28 o
1121 1 5 -6 -9 530.94 571.66 25.60 o
1122 1 5 -6 -8 33.39 32.29 11.42 <
1123 1 5 -6 -7 7695.89 7613.24 168.29 o
1124 1 5 -6 -3 164.27 125.80 11.85 o
1125 1 5 -6 -2 497.64 473.73 21.00 o
1126 1 5 -6 -1 1866.94 1800.24 37.88 o
1127 1 5 -6 0 118.15 110.70 9.82 o
1128 1 5 -6 1 891.08 948.26 32.05 o
1129 1 5 -6 5 3330.91 3217.75 83.56 o
1130 1 5 -6 6 46.65 36.47 19.71 <
1131 1 5 -6 7 624.03 573.80 38.68 o
1132 1 5 -6 8 584.52 457.09 46.11 o
1133 1 5 -7 -10 67.48 68.76 15.16 o
1134 1 5 -7 -9 101.88 104.07 12.71 o
1135 1 5 -7 -8 165.63 201.19 13.69 o
1136 1 5 -7 -7 2.21 9.88 10.99 <
1137 1 5 -7 -3 1351.59 1339.41 36.04 o
1138 1 5 -7 -2 1163.40 1251.73 36.10 o
1139 1 5 -7 -1 394.50 399.44 20.51 o
1140 1 5 -7 0 230.37 207.70 15.53 o
1141 1 5 -7 5 89.97 74.53 17.44 o
1142 1 5 -7 6 890.95 886.74 44.45 o
1143 1 5 -7 7 65.48 65.26 20.63 o
1144 1 5 -7 8 10.45 -8.84 26.89 <
1145 1 5 -8 -10 386.05 371.63 19.40 o
1146 1 5 -8 -9 731.78 741.66 25.66 o
1147 1 5 -8 -8 1459.71 1400.62 31.99 o
1148 1 5 -8 -7 105.40 97.99 17.38 o
1149 1 5 -8 -3 231.64 189.71 14.12 o
1150 1 5 -8 -2 9270.48 9161.64 181.91 o
1151 1 5 -8 -1 197.74 216.36 17.13 o
1152 1 5 -8 0 209.29 222.25 21.24 o
1153 1 5 -8 5 1783.73 1731.91 59.86 o
1154 1 5 -8 6 510.35 485.52 33.40 o
1155 1 5 -8 7 2746.88 2681.15 111.25 o
1156 1 5 -9 -10 26.54 39.78 24.80 <
1157 1 5 -9 -9 569.15 556.12 31.13 o
1158 1 5 -9 -8 380.62 366.84 32.29 o
1159 1 5 -9 -7 325.43 317.17 52.62 o
1160 1 5 -9 -3 362.80 345.60 20.63 o
1161 1 5 -9 -2 814.83 796.06 32.11 o
1162 1 5 -9 -1 209.62 214.39 18.54 o
1163 1 5 -9 0 758.33 782.55 39.54 o
1164 1 5 -9 5 167.40 146.92 31.93 o
1165 1 5 -9 6 230.12 211.94 36.22 o
1166 1 5 -10 -10 920.46 893.43 63.54 o
1167 1 5 -10 -9 73.09 55.75 29.65 <
1168 1 5 -10 -8 562.44 626.54 42.06 o
1169 1 5 -10 -7 3554.50 3481.56 118.12 o
1170 1 5 -10 -3 13.73 23.76 13.26 <
1171 1 5 -10 -2 145.37 140.60 16.39 o
1172 1 5 -10 -1 1092.61 1125.14 43.90 o
1173 1 5 -10 0 97.20 99.46 16.45 o
1174 1 5 -10 5 1528.58 1422.91 78.95 o
1175 1 5 -11 -9 56.76 71.53 32.23 <
1176 1 5 -11 -8 178.16 209.54 36.47 o
1177 1 5 -11 -7 412.92 371.14 39.60 o
1178 1 5 -11 -3 92.66 88.10 15.47 o
1179 1 5 -11 -2 108.67 103.08 15.59 o
1180 1 5 -11 -1 76.04 83.87 15.41 o
1181 1 5 -11 0 558.78 533.10 31.43 o
1182 1 5 -12 -7 1113.56 1126.55 102.53 o
1183 1 5 -12 -3 59.43 41.01 27.51 <
1184 1 5 -12 -2 629.57 673.45 37.21 o
1185 1 5 -12 -1 514.25 526.90 27.14 o
1186 1 5 -12 0 26.87 46.78 18.97 <
1187 1 6 0 -11 17.11 46.84 34.01 <
1188 1 6 0 -10 77.98 84.97 22.59 o
1189 1 6 0 -9 7607.93 7108.82 263.39 o
1190 1 6 0 -8 1491.13 1431.07 72.32 o
1191 1 6 0 -4 18213.90 18314.80 440.21 o
1192 1 6 0 -3 5404.61 5662.27 129.12 o
1193 1 6 0 -2 2446.84 2406.71 50.47 o
1194 1 6 0 -1 9280.57 9674.23 216.73 o
1195 1 6 0 0 4055.72 4360.44 86.63 o
1196 1 6 0 3 1340.03 655.95 41.75 o
1197 1 6 0 4 1224.74 1439.97 115.30 o
1198 1 6 0 5 8501.44 8542.84 280.52 o
1199 1 6 0 6 4.81 13.69 24.31 <
1200 1 6 0 7 528.28 469.19 56.48 o
1201 1 6 1 -11 706.61 780.03 73.00 o
1202 1 6 -1 -11 782.97 664.05 47.40 o
1203 1 6 -1 -10 7790.70 7205.45 203.90 o
1204 1 6 1 -9 635.07 525.36 35.36 o
1205 1 6 -1 -9 578.07 661.54 45.19 o
1206 1 6 1 -8 317.60 382.00 37.76 o
1207 1 6 -1 -8 293.46 274.87 30.70 o
1208 1 6 1 -4 5446.37 4930.13 127.95 o
1209 1 6 -1 -4 5085.79 5352.29 119.11 o
1210 1 6 1 -3 5886.08 6383.92 161.59 o
1211 1 6 -1 -3 5700.36 6254.31 113.09 o
1212 1 6 1 -2 242.56 182.35 11.48 o
1213 1 6 -1 -2 195.70 253.26 11.73 o
1214 1 6 1 -1 21152.90 22173.40 533.53 o
1215 1 6 -1 -1 21546.40 21378.00 353.70 o
1216 1 6 1 0 677.74 595.23 26.52 o
1217 1 6 -1 0 639.61 647.60 20.75 o
1218 1 6 -1 3 239.03 155.88 23.02 o
1219 1 6 -1 4 275.24 250.31 32.79 o
1220 1 6 -1 5 2505.27 2796.57 114.50 o
1221 1 6 1 6 795.22 567.42 62.32 o
1222 1 6 -1 6 731.78 729.93 58.26 o
1223 1 6 1 7 759.85 788.14 68.76 o
1224 1 6 -1 7 782.58 797.71 73.61 o
1225 1 6 -2 -11 1399.74 1379.81 65.08 o
1226 1 6 -2 -10 494.88 378.50 36.47 o
1227 1 6 2 -9 1242.42 1244.18 73.31 o
1228 1 6 -2 -9 1279.04 1145.46 54.40 o
1229 1 6 -2 -8 542.94 495.09 42.61 o
1230 1 6 2 -4 491.27 760.45 31.99 o
1231 1 6 -2 -4 725.87 557.72 22.66 o
1232 1 6 2 -3 5376.56 6120.47 127.76 o
1233 1 6 -2 -3 5762.88 5415.96 92.22 o
1234 1 6 2 -2 1724.19 1786.00 37.51 o
1235 1 6 -2 -2 1727.77 1601.38 32.11 o
1236 1 6 2 -1 51.92 76.93 11.67 o
1237 1 6 -2 -1 69.89 49.36 6.45 o
1238 1 6 2 0 356.01 499.70 25.05 o
1239 1 6 -2 0 443.80 375.93 14.92 o
1240 1 6 -2 3 3649.31 3449.02 137.28 o
1241 1 6 -2 4 50.12 61.27 23.45 <
1242 1 6 -2 5 24.66 17.62 24.74 <
1243 1 6 -2 6 2246.73 2490.70 110.21 o
1244 1 6 -2 7 332.76 388.94 51.20 o
1245 1 6 -3 -15 1069.49 924.74 78.65 o
1246 1 6 -3 -11 1910.92 1856.05 78.28 o
1247 1 6 -3 -10 1084.67 560.17 65.63 o
1248 1 6 -3 -9 858.91 909.33 50.90 o
1249 1 6 -3 -8 2562.41 2958.29 124.45 o
1250 1 6 3 -4 673.31 870.90 49.67 o
1251 1 6 -3 -4 809.13 727.23 16.15 o
1252 1 6 3 -3 6988.89 6966.44 176.70 o
1253 1 6 -3 -3 6974.12 6749.35 96.08 o
1254 1 6 3 -2 1938.93 2180.16 63.61 o
1255 1 6 -3 -2 2000.93 1971.17 35.55 o
1256 1 6 3 -1 1709.54 1908.24 57.53 o
1257 1 6 -3 -1 1757.84 1666.58 29.90 o
1258 1 6 3 0 2122.96 2575.12 73.00 o
1259 1 6 -3 0 2225.40 2154.93 39.60 o
1260 1 6 -3 3 247.89 267.93 31.62 o
1261 1 6 -3 4 2073.91 2118.27 69.44 o
1262 1 6 -3 5 469.64 442.48 44.14 o
1263 1 6 -3 6 535.45 537.83 53.91 o
1264 1 6 -3 7 736.97 727.29 69.99 o
1265 1 6 -4 -11 1442.70 1145.58 63.67 o
1266 1 6 -4 -10 461.47 483.00 31.93 o
1267 1 6 -4 -9 407.56 444.26 29.96 o
1268 1 6 -4 -8 135.07 140.41 25.30 o
1269 1 6 4 -4 1515.76 1507.63 71.83 o
1270 1 6 -4 -4 1395.55 1518.74 27.14 o
1271 1 6 4 -3 1470.66 1522.55 70.18 o
1272 1 6 -4 -3 1379.31 1507.88 27.14 o
1273 1 6 4 -2 3452.70 3675.63 140.04 o
1274 1 6 -4 -2 3571.49 3467.81 57.10 o
1275 1 6 4 -1 395.73 426.45 24.25 o
1276 1 6 -4 -1 403.08 347.62 12.71 o
1277 1 6 4 0 552.43 734.84 31.00 o
1278 1 6 -4 0 659.48 592.59 18.91 o
1279 1 6 -4 3 749.00 573.37 44.88 o
1280 1 6 -4 4 42.76 45.31 15.04 o
1281 1 6 -4 5 1241.03 1147.48 55.99 o
1282 1 6 -4 6 1446.35 1272.79 61.21 o
1283 1 6 -4 7 413.59 394.59 38.74 o
1284 1 6 -5 -11 2154.31 2123.31 70.85 o
1285 1 6 -5 -10 5486.89 5391.15 114.56 o
1286 1 6 -5 -9 452.60 416.45 25.23 o
1287 1 6 5 -4 5121.67 5696.96 211.45 o
1288 1 6 -5 -4 5462.14 5398.27 83.68 o
1289 1 6 5 -3 8024.30 8699.39 308.88 o
1290 1 6 -5 -3 8214.16 7863.92 110.94 o
1291 1 6 -5 -2 196.77 195.42 11.73 o
1292 1 6 -5 -1 11266.10 10644.70 179.71 o
1293 1 6 -5 0 2911.27 2863.06 69.13 o
1294 1 6 -5 3 1026.29 1092.47 62.69 o
1295 1 6 -5 4 414.95 391.64 25.97 o
1296 1 6 -5 5 1201.13 1153.07 46.11 o
1297 1 6 -5 6 2148.28 2035.70 79.02 o
1298 1 6 -5 7 365.13 254.12 36.16 o
1299 1 6 -6 -14 188.51 140.66 60.97 <
1300 1 6 -6 -11 17.74 31.86 21.37 <
1301 1 6 -6 -10 241.61 214.39 22.35 o
1302 1 6 -6 -9 1645.60 1544.96 40.77 o
1303 1 6 -6 -4 5022.42 5028.55 88.04 o
1304 1 6 -6 -3 794.92 730.48 23.21 o
1305 1 6 -6 -2 665.97 646.68 20.69 o
1306 1 6 -6 -1 2935.19 2835.68 55.44 o
1307 1 6 -6 0 1177.99 1181.50 48.13 o
1308 1 6 -6 4 351.63 302.86 24.31 o
1309 1 6 -6 5 2737.20 2589.42 73.98 o
1310 1 6 -6 6 80.06 39.85 21.37 <
1311 1 6 -6 7 220.12 141.64 41.01 o
1312 1 6 -7 -11 492.21 494.85 30.21 o
1313 1 6 -7 -10 1974.32 2017.15 55.99 o
1314 1 6 -7 -9 139.23 117.14 16.15 o
1315 1 6 -7 -8 634.42 573.50 29.53 o
1316 1 6 -7 -4 347.86 391.15 20.26 o
1317 1 6 -7 -3 853.71 891.40 26.71 o
1318 1 6 -7 -2 569.23 607.39 25.79 o
1319 1 6 -7 -1 4790.75 4663.12 98.42 o
1320 1 6 -7 0 231.05 224.16 23.82 o
1321 1 6 -7 4 116.11 127.21 20.87 o
1322 1 6 -7 5 305.33 284.51 27.08 o
1323 1 6 -7 6 63.98 56.18 20.57 <
1324 1 6 -7 7 68.65 73.55 38.68 <
1325 1 6 -8 -11 258.83 297.83 33.09 o
1326 1 6 -8 -10 222.08 197.08 18.30 o
1327 1 6 -8 -9 223.32 213.41 16.82 o
1328 1 6 -8 -8 298.46 375.99 36.65 o
1329 1 6 -8 -4 380.06 331.17 17.99 o
1330 1 6 -8 -3 2450.69 2258.68 49.06 o
1331 1 6 -8 -2 776.85 719.80 29.41 o
1332 1 6 -8 -1 118.39 98.79 17.93 o
1333 1 6 -8 4 172.39 165.34 18.23 o
1334 1 6 -8 5 58.49 2.58 25.17 <
1335 1 6 -8 6 1100.31 951.08 64.65 o
1336 1 6 -9 -11 667.99 659.94 42.12 o
1337 1 6 -9 -10 2201.21 2180.34 72.88 o
1338 1 6 -9 -9 129.88 126.23 24.19 o
1339 1 6 -9 -8 1101.80 1143.56 59.68 o
1340 1 6 -9 -4 1034.05 1079.03 42.73 o
1341 1 6 -9 -3 1469.12 1556.50 40.40 o
1342 1 6 -9 -2 393.95 441.56 25.17 o
1343 1 6 -9 -1 4040.93 3971.87 105.54 o
1344 1 6 -9 4 272.97 264.61 37.21 o
1345 1 6 -9 5 219.36 201.99 35.86 o
1346 1 6 -10 -10 96.25 83.50 35.73 <
1347 1 6 -10 -9 943.96 1018.62 48.93 o
1348 1 6 -10 -4 1864.43 1909.16 52.55 o
1349 1 6 -10 -3 138.37 134.33 17.13 o
1350 1 6 -10 -2 474.76 444.75 25.30 o
1351 1 6 -10 -1 1386.19 1486.82 56.79 o
1352 1 6 -10 4 229.99 218.14 38.13 o
1353 1 6 -11 -4 614.99 618.50 35.61 o
1354 1 6 -11 -3 2093.89 2062.77 64.16 o
1355 1 6 -11 -2 211.40 197.45 18.60 o
1356 1 6 -11 -1 1749.95 1925.00 52.19 o
1357 1 6 -12 -4 165.27 192.17 15.72 o
1358 1 6 -12 -3 310.45 334.48 22.59 o
1359 1 6 -12 -2 347.09 383.23 24.25 o
1360 1 6 -12 -1 47.69 70.11 16.58 o
1361 1 7 0 -12 53.60 29.47 37.45 <
1362 1 7 0 -11 6.79 29.41 32.42 <
1363 1 7 0 -5 3179.09 3135.48 89.21 o
1364 1 7 0 -4 2289.12 2281.46 56.18 o
1365 1 7 0 -3 123.52 151.10 12.59 o
1366 1 7 0 -2 1260.76 1299.81 31.37 o
1367 1 7 0 -1 1461.83 1513.40 43.28 o
1368 1 7 0 3 1399.77 1472.94 106.89 o
1369 1 7 0 4 2351.86 2319.10 97.74 o
1370 1 7 0 5 2208.69 2144.49 98.17 o
1371 1 7 0 6 27.03 -10.81 36.35 <
1372 1 7 1 -12 1557.30 1628.70 104.56 o
1373 1 7 -1 -12 1658.44 1689.42 116.41 o
1374 1 7 -1 -11 198.49 175.41 46.97 o
1375 1 7 -1 -10 650.96 507.68 41.01 o
1376 1 7 1 -5 35.83 31.50 17.38 <
1377 1 7 -1 -5 22.10 47.03 13.81 o
1378 1 7 1 -4 1650.23 1636.93 38.56 o
1379 1 7 -1 -4 1596.20 1644.42 39.11 o
1380 1 7 1 -3 3272.34 3907.46 79.57 o
1381 1 7 -1 -3 3613.56 3563.22 64.59 o
1382 1 7 1 -2 450.53 651.35 18.79 o
1383 1 7 -1 -2 586.05 473.18 17.38 o
1384 1 7 -1 -1 2099.59 2391.91 46.17 o
1385 1 7 -1 2 1902.73 2039.62 93.26 o
1386 1 7 -1 3 94.87 67.72 25.97 <
1387 1 7 -1 4 599.85 790.22 58.69 o
1388 1 7 -1 5 440.90 414.11 46.66 o
1389 1 7 1 6 374.18 394.22 53.78 o
1390 1 7 -1 6 401.17 387.53 48.07 o
1391 1 7 -2 -12 1085.53 1047.10 96.33 o
1392 1 7 -2 -11 989.76 937.45 57.34 o
1393 1 7 -2 -10 1036.60 1103.40 57.59 o
1394 1 7 -2 -5 502.77 513.15 23.70 o
1395 1 7 2 -4 720.08 705.56 35.06 o
1396 1 7 -2 -4 694.35 732.82 20.57 o
1397 1 7 2 -3 671.69 703.35 26.95 o
1398 1 7 -2 -3 668.76 675.04 18.36 o
1399 1 7 2 -2 1958.04 2042.45 43.90 o
1400 1 7 -2 -2 1968.62 1913.21 36.41 o
1401 1 7 2 -1 265.91 282.67 28.86 o
1402 1 7 -2 -1 284.73 230.36 15.53 o
1403 1 7 -2 2 431.08 377.28 35.18 o
1404 1 7 -2 3 1895.49 1934.82 86.45 o
1405 1 7 -2 4 4.44 0.25 24.31 <
1406 1 7 -2 5 129.03 184.43 36.28 o
1407 1 7 -3 -12 1116.54 1174.99 66.43 o
1408 1 7 -3 -11 224.76 237.66 35.12 o
1409 1 7 -3 -10 2390.74 2374.29 90.37 o
1410 1 7 3 -5 1078.24 861.93 52.12 o
1411 1 7 -3 -5 901.53 1016.71 33.22 o
1412 1 7 3 -4 979.49 1057.97 42.24 o
1413 1 7 -3 -4 992.79 988.59 21.98 o
1414 1 7 3 -3 3088.87 3090.41 87.98 o
1415 1 7 -3 -3 3052.58 2954.48 47.15 o
1416 1 7 3 -2 776.34 546.97 28.00 o
1417 1 7 -3 -2 609.63 751.73 20.32 o
1418 1 7 3 -1 3235.50 3553.27 98.79 o
1419 1 7 -3 -1 3258.93 3304.44 64.47 o
1420 1 7 -3 2 2421.72 2301.35 76.38 o
1421 1 7 -3 3 2489.11 2587.76 68.39 o
1422 1 7 -3 4 400.25 380.04 40.28 o
1423 1 7 -3 5 257.35 303.72 40.71 o
1424 1 7 -4 -12 710.34 733.00 44.88 o
1425 1 7 -4 -11 14.57 25.54 20.51 <
1426 1 7 -4 -10 1128.60 924.19 57.47 o
1427 1 7 -4 -5 1920.98 1926.53 36.65 o
1428 1 7 4 -4 1133.20 1327.19 70.36 o
1429 1 7 -4 -4 1191.24 1147.98 23.76 o
1430 1 7 4 -3 364.46 445.98 38.68 o
1431 1 7 -4 -3 381.84 375.62 13.38 o
1432 1 7 -4 -2 76.24 75.64 8.35 o
1433 1 7 -4 -1 626.08 616.10 24.37 o
1434 1 7 -4 2 1729.19 1649.70 62.13 o
1435 1 7 -4 3 1415.79 1365.38 45.80 o
1436 1 7 -4 4 288.38 270.02 29.16 o
1437 1 7 -4 5 1246.59 1272.24 61.52 o
1438 1 7 -4 6 4.84 -0.12 24.68 <
1439 1 7 -5 -12 200.78 152.57 28.06 o
1440 1 7 -5 -11 2496.93 2209.51 91.66 o
1441 1 7 -5 -10 2102.79 2063.75 85.40 o
1442 1 7 -5 -5 3308.97 3359.94 57.10 o
1443 1 7 -5 -4 894.17 810.42 19.46 o
1444 1 7 -5 -3 1675.46 1682.18 30.39 o
1445 1 7 -5 -2 4175.50 4242.50 78.34 o
1446 1 7 -5 -1 3746.68 3593.79 72.63 o
1447 1 7 -5 2 4555.09 4194.67 123.90 o
1448 1 7 -5 3 2084.33 2137.73 61.70 o
1449 1 7 -5 4 491.04 476.92 30.45 o
1450 1 7 -5 5 1101.99 1130.29 59.12 o
1451 1 7 -5 6 652.33 693.22 55.32 o
1452 1 7 -6 -12 210.71 171.42 37.33 o
1453 1 7 -6 -11 84.17 73.55 25.85 <
1454 1 7 -6 -10 853.21 702.12 43.28 o
1455 1 7 -6 -9 1240.25 1333.94 77.67 o
1456 1 7 -6 -5 1571.61 1643.93 33.83 o
1457 1 7 -6 -4 1244.53 1274.08 32.79 o
1458 1 7 -6 -3 20.96 20.14 7.98 <
1459 1 7 -6 -2 144.08 129.85 11.79 o
1460 1 7 -6 3 1049.35 1016.22 44.94 o
1461 1 7 -6 4 1137.46 1024.32 46.29 o
1462 1 7 -6 5 959.01 800.11 41.20 o
1463 1 7 -6 6 80.11 54.40 28.49 <
1464 1 7 -7 -12 1797.80 1746.95 86.81 o
1465 1 7 -7 -11 352.30 310.66 26.65 o
1466 1 7 -7 -10 176.54 180.93 22.53 o
1467 1 7 -7 -9 2841.00 2871.41 125.80 o
1468 1 7 -7 -5 1901.35 1833.27 47.70 o
1469 1 7 -7 -4 483.71 446.10 20.75 o
1470 1 7 -7 -3 5870.26 5702.61 103.82 o
1471 1 7 -7 -2 827.85 761.12 30.21 o
1472 1 7 -7 3 2156.84 1986.89 65.69 o
1473 1 7 -7 4 789.69 765.85 42.92 o
1474 1 7 -7 5 77.20 73.06 21.55 o
1475 1 7 -7 6 2093.02 1940.10 90.62 o
1476 1 7 -8 -12 456.08 382.31 38.31 o
1477 1 7 -8 -11 623.25 627.89 35.55 o
1478 1 7 -8 -10 363.23 382.31 27.93 o
1479 1 7 -8 -9 2133.84 2258.62 105.66 o
1480 1 7 -8 -5 58.68 58.57 14.37 o
1481 1 7 -8 -4 946.39 950.59 30.21 o
1482 1 7 -8 -3 192.70 174.98 15.23 o
1483 1 7 -8 -2 650.03 583.32 33.52 o
1484 1 7 -8 3 539.23 475.63 27.38 o
1485 1 7 -8 4 82.02 47.46 29.29 <
1486 1 7 -8 5 40.65 0.92 27.26 <
1487 1 7 -9 -11 137.75 96.45 27.93 o
1488 1 7 -9 -10 371.29 454.57 38.37 o
1489 1 7 -9 -9 215.11 273.89 37.76 o
1490 1 7 -9 -5 661.17 687.51 35.49 o
1491 1 7 -9 -4 421.53 397.29 21.37 o
1492 1 7 -9 -3 1025.67 1001.49 33.28 o
1493 1 7 -9 -2 449.09 462.37 25.85 o
1494 1 7 -9 3 307.11 325.83 42.36 o
1495 1 7 -9 4 326.01 280.33 40.58 o
1496 1 7 -10 -10 218.73 239.87 44.94 o
1497 1 7 -10 -5 1559.70 1580.02 80.92 o
1498 1 7 -10 -4 302.80 315.27 22.72 o
1499 1 7 -10 -3 10.77 11.24 14.92 <
1500 1 7 -10 -2 260.52 277.02 22.90 o
1501 1 7 -10 3 683.45 658.84 55.81 o
1502 1 7 -11 -8 284.43 323.12 30.70 o
1503 1 7 -11 -5 1278.88 1421.74 73.61 o
1504 1 7 -11 -4 255.45 245.21 25.54 o
1505 1 7 -11 -3 636.87 616.41 35.55 o
1506 1 7 -11 -2 1686.36 1789.31 61.27 o
1507 1 8 0 -13 710.07 701.38 81.47 o
1508 1 8 0 -12 54.12 64.10 40.89 <
1509 1 8 0 -11 2132.31 2438.08 140.54 o
1510 1 8 0 -6 4552.30 4806.79 131.32 o
1511 1 8 0 -5 3435.51 3411.63 80.00 o
1512 1 8 0 -4 2836.00 2923.91 70.24 o
1513 1 8 0 -3 5.38 8.23 6.63 <
1514 1 8 0 -2 6066.27 6131.03 131.02 o
1515 1 8 0 2 434.72 436.71 54.15 o
1516 1 8 0 3 1595.89 1574.86 76.93 o
1517 1 8 0 4 2342.37 2464.05 107.50 o
1518 1 8 0 5 1413.73 1492.59 110.51 o
1519 1 8 1 -13 547.68 467.04 67.04 o
1520 1 8 -1 -13 462.61 597.87 80.18 o
1521 1 8 1 -12 4170.80 4371.12 206.78 o
1522 1 8 -1 -12 4323.63 4006.50 200.21 o
1523 1 8 -1 -11 732.62 858.80 84.85 o
1524 1 8 1 -6 4149.14 4454.50 175.65 o
1525 1 8 -1 -6 4234.82 4238.08 117.57 o
1526 1 8 1 -5 230.27 114.56 21.98 o
1527 1 8 -1 -5 138.36 173.75 13.32 o
1528 1 8 1 -4 1630.08 1538.33 43.65 o
1529 1 8 -1 -4 1442.13 1785.94 43.22 o
1530 1 8 1 -3 3733.79 4278.66 103.76 o
1531 1 8 -1 -3 4042.50 3805.85 65.02 o
1532 1 8 1 -2 1389.09 1549.63 43.41 o
1533 1 8 -1 -2 1485.32 1332.16 34.32 o
1534 1 8 -1 2 2394.28 2400.26 99.65 o
1535 1 8 1 3 933.43 1179.66 102.78 o
1536 1 8 -1 3 934.76 909.33 60.11 o
1537 1 8 1 4 18.19 54.52 41.01 <
1538 1 8 -1 4 11.37 16.02 26.89 <
1539 1 8 1 5 311.50 427.68 65.82 o
1540 1 8 -1 5 379.77 309.62 57.22 o
1541 1 8 2 -13 8.42 19.71 45.37 <
1542 1 8 -2 -13 21.79 37.70 45.99 <
1543 1 8 -2 -12 45.21 133.78 49.48 <
1544 1 8 -2 -11 477.17 493.56 66.61 o
1545 1 8 2 -6 3775.88 3804.87 152.88 o
1546 1 8 -2 -6 4062.74 3895.49 116.10 o
1547 1 8 2 -5 1168.93 1061.10 62.68 o
1548 1 8 -2 -5 1151.52 1156.33 32.48 o
1549 1 8 -2 -4 1515.34 1326.21 31.07 o
1550 1 8 2 -3 2099.17 2204.47 97.80 o
1551 1 8 -2 -3 2171.74 2286.99 41.56 o
1552 1 8 -2 -2 1804.98 1794.72 51.14 o
1553 1 8 -2 1 38.94 31.80 15.04 <
1554 1 8 -2 2 392.01 419.52 31.68 o
1555 1 8 -2 3 4876.76 4921.23 178.66 o
1556 1 8 -2 4 222.07 233.79 39.42 o
1557 1 8 -2 5 1705.21 1703.36 115.18 o
1558 1 8 -3 -13 3222.49 3324.88 190.51 o
1559 1 8 -3 -12 1.97 28.73 42.98 <
1560 1 8 -3 -11 219.92 297.03 38.86 o
1561 1 8 -3 -6 364.25 444.50 30.27 o
1562 1 8 -3 -5 3338.33 3374.12 62.56 o
1563 1 8 -3 -4 7087.54 7190.35 111.13 o
1564 1 8 -3 -3 1087.77 1114.58 24.93 o
1565 1 8 -3 -2 1243.78 1210.97 45.00 o
1566 1 8 -3 1 2763.09 2720.69 86.75 o
1567 1 8 -3 2 715.39 669.89 40.15 o
1568 1 8 -3 3 99.58 80.18 22.04 o
1569 1 8 -3 4 2929.72 3301.06 106.15 o
1570 1 8 -3 5 1178.70 986.57 63.67 o
1571 1 8 -4 -13 347.89 407.11 48.01 o
1572 1 8 -4 -12 61.22 72.75 24.56 <
1573 1 8 -4 -11 596.89 532.42 38.25 o
1574 1 8 -4 -6 3012.13 2934.65 124.20 o
1575 1 8 -4 -5 48.80 42.18 9.33 o
1576 1 8 -4 -4 887.91 1030.40 23.51 o
1577 1 8 -4 -3 1169.75 1265.18 26.22 o
1578 1 8 -4 -2 126.32 166.81 13.20 o
1579 1 8 -4 2 176.54 164.97 19.83 o
1580 1 8 -4 3 2581.57 2614.23 88.78 o
1581 1 8 -4 4 101.46 97.80 26.15 o
1582 1 8 -4 5 947.23 910.62 63.30 o
1583 1 8 -5 -13 532.89 500.68 41.44 o
1584 1 8 -5 -12 881.75 775.00 47.21 o
1585 1 8 -5 -11 121.28 53.23 24.13 <
1586 1 8 -5 -6 443.28 392.62 26.09 o
1587 1 8 -5 -5 610.84 581.54 18.66 o
1588 1 8 -5 -4 966.74 770.52 20.14 o
1589 1 8 -5 -3 364.11 402.57 16.27 o
1590 1 8 -5 -2 754.59 717.35 54.95 o
1591 1 8 -5 2 996.37 908.84 39.66 o
1592 1 8 -5 3 338.24 283.77 25.36 o
1593 1 8 -5 4 204.17 118.19 27.38 o
1594 1 8 -5 5 300.69 258.29 39.60 o
1595 1 8 -6 -13 601.32 529.48 43.41 o
1596 1 8 -6 -12 40.42 0.25 24.99 <
1597 1 8 -6 -11 545.17 574.23 52.80 o
1598 1 8 -6 -10 142.02 153.55 35.00 o
1599 1 8 -6 -6 2127.00 2077.69 63.79 o
1600 1 8 -6 -5 828.14 811.71 21.37 o
1601 1 8 -6 -4 1925.97 1890.68 38.80 o
1602 1 8 -6 -3 280.24 215.81 13.26 o
1603 1 8 -6 -2 855.58 898.59 65.75 o
1604 1 8 -6 2 390.71 322.82 28.67 o
1605 1 8 -6 3 1581.80 1496.95 58.39 o
1606 1 8 -6 4 979.28 921.36 47.83 o
1607 1 8 -6 5 1078.92 1055.51 66.86 o
1608 1 8 -7 -13 594.63 441.56 88.35 o
1609 1 8 -7 -12 1530.77 1430.58 82.21 o
1610 1 8 -7 -11 408.42 328.47 45.56 o
1611 1 8 -7 -10 126.42 168.90 35.98 o
1612 1 8 -7 -6 2292.35 2298.10 83.07 o
1613 1 8 -7 -5 108.25 100.14 13.63 o
1614 1 8 -7 -4 665.97 673.08 26.15 o
1615 1 8 -7 -3 2102.09 1962.02 45.99 o
1616 1 8 -7 2 252.41 251.17 26.89 o
1617 1 8 -7 3 836.11 777.27 45.06 o
1618 1 8 -7 4 373.77 426.21 45.56 o
1619 1 8 -7 5 71.52 78.46 31.50 <
1620 1 8 -8 -12 23.62 -5.40 32.85 <
1621 1 8 -8 -11 243.74 160.00 31.50 o
1622 1 8 -8 -10 580.37 489.08 35.98 o
1623 1 8 -8 -6 2548.03 2652.78 92.46 o
1624 1 8 -8 -5 1193.67 1185.67 36.04 o
1625 1 8 -8 -4 364.15 352.96 20.32 o
1626 1 8 -8 -3 672.10 695.86 32.29 o
1627 1 8 -8 2 274.73 268.36 29.47 o
1628 1 8 -8 3 2780.16 2849.37 116.84 o
1629 1 8 -8 4 361.85 351.31 44.88 o
1630 1 8 -9 -11 636.35 672.22 102.59 o
1631 1 8 -9 -6 432.40 508.72 39.29 o
1632 1 8 -9 -5 437.87 492.95 24.68 o
1633 1 8 -9 -4 275.90 268.05 22.35 o
1634 1 8 -9 -3 1052.40 1075.77 40.89 o
1635 1 8 -9 2 131.96 112.60 34.50 o
1636 1 8 -9 3 102.84 104.68 35.24 <
1637 1 8 -10 -6 543.50 559.31 52.43 o
1638 1 8 -10 -5 913.83 908.29 41.44 o
1639 1 8 -10 -4 591.94 624.52 32.11 o
1640 1 8 -10 -3 107.95 118.99 19.40 o
1641 1 8 -11 -5 428.44 464.89 36.71 o
1642 1 8 -11 -4 71.88 69.68 21.00 o
1643 1 8 -11 -3 222.95 227.23 25.66 o
1644 1 8 -11 -1 142.87 170.99 31.50 o
1645 1 9 0 -14 87.34 139.80 53.29 <
1646 1 9 0 -13 654.50 609.97 75.03 o
1647 1 9 0 -12 2045.07 1822.78 113.89 o
1648 1 9 0 -7 124.72 153.37 18.97 o
1649 1 9 0 -6 551.60 502.09 48.26 o
1650 1 9 0 -5 38.08 21.92 20.38 <
1651 1 9 0 -4 5093.23 4971.57 192.90 o
1652 1 9 0 -3 1722.41 1707.90 83.62 o
1653 1 9 0 0 1433.54 1454.16 74.41 o
1654 1 9 0 1 2.92 2.39 28.49 <
1655 1 9 0 2 261.24 307.22 38.13 o
1656 1 9 0 3 6.73 23.27 29.72 <
1657 1 9 0 4 569.72 541.82 52.06 o
1658 1 9 1 -14 1932.48 1853.41 132.74 o
1659 1 9 1 -13 789.29 624.46 72.57 o
1660 1 9 -1 -13 731.57 813.74 88.53 o
1661 1 9 -1 -12 1398.47 1459.68 107.69 o
1662 1 9 1 -7 976.99 1001.06 64.90 o
1663 1 9 1 -6 624.60 684.93 54.34 o
1664 1 9 -1 -6 653.99 603.27 33.83 o
1665 1 9 1 -5 6039.87 6096.71 232.32 o
1666 1 9 -1 -5 5984.22 6175.30 177.49 o
1667 1 9 -1 -4 889.67 980.86 43.96 o
1668 1 9 -1 -3 3090.24 3044.06 128.32 o
1669 1 9 -1 0 1041.77 1230.92 69.50 o
1670 1 9 1 1 707.20 529.60 60.84 o
1671 1 9 -1 1 594.32 753.26 40.64 o
1672 1 9 1 2 872.65 947.21 85.89 o
1673 1 9 -1 2 988.40 867.64 59.43 o
1674 1 9 1 3 46.32 83.44 41.93 <
1675 1 9 -1 3 81.38 38.56 29.16 <
1676 1 9 1 4 2786.71 2094.70 131.14 o
1677 1 9 -1 4 2482.09 2754.95 164.97 o
1678 1 9 2 -14 378.48 501.05 86.02 o
1679 1 9 -2 -13 7.30 31.80 44.57 <
1680 1 9 -2 -12 117.31 122.06 49.85 <
1681 1 9 -2 -7 1869.20 1800.49 93.14 o
1682 1 9 -2 -6 1527.75 1582.29 48.07 o
1683 1 9 -2 -5 55.56 62.62 14.00 o
1684 1 9 -2 -4 451.83 530.46 23.02 o
1685 1 9 -2 -3 907.78 917.68 57.53 o
1686 1 9 -2 0 163.46 163.01 17.25 o
1687 1 9 -2 1 315.07 308.64 27.38 o
1688 1 9 -2 2 2270.39 2129.08 74.29 o
1689 1 9 -2 3 429.58 371.69 33.83 o
1690 1 9 -2 4 265.64 335.16 41.32 o
1691 1 9 3 -14 809.12 734.54 81.53 o
1692 1 9 -3 -13 674.40 496.38 76.13 o
1693 1 9 -3 -12 3426.12 3437.42 189.47 o
1694 1 9 -3 -7 3062.36 3038.35 133.29 o
1695 1 9 -3 -6 2723.30 2729.77 51.82 o
1696 1 9 -3 -5 1454.06 1356.78 33.09 o
1697 1 9 -3 -4 1932.88 1902.77 36.41 o
1698 1 9 -3 -3 6429.74 6348.98 171.54 o
1699 1 9 -3 0 1514.16 1625.33 87.43 o
1700 1 9 -3 1 952.32 976.50 55.50 o
1701 1 9 -3 2 1127.96 922.22 49.48 o
1702 1 9 -3 3 565.37 583.99 41.87 o
1703 1 9 -3 4 239.45 168.96 42.85 o
1704 1 9 -4 -14 267.87 254.30 49.48 o
1705 1 9 -4 -13 299.03 302.80 43.78 o
1706 1 9 -4 -12 980.69 1086.15 70.24 o
1707 1 9 -4 -7 60.28 82.15 27.51 <
1708 1 9 -4 -6 481.96 453.59 19.89 o
1709 1 9 -4 -5 192.60 196.65 13.63 o
1710 1 9 -4 -4 1326.50 1257.38 27.63 o
1711 1 9 -4 -3 691.21 801.03 40.46 o
1712 1 9 -4 0 736.57 823.19 63.36 o
1713 1 9 -4 1 386.28 382.31 25.60 o
1714 1 9 -4 2 40.64 -1.41 19.65 <
1715 1 9 -4 3 69.12 51.33 24.13 <
1716 1 9 -4 4 796.05 615.55 63.91 o
1717 1 9 -5 -14 534.67 531.01 88.53 o
1718 1 9 -5 -13 568.07 513.82 54.64 o
1719 1 9 -5 -12 1987.37 2062.10 76.01 o
1720 1 9 -5 -7 797.68 808.52 63.11 o
1721 1 9 -5 -6 1890.49 1947.90 40.89 o
1722 1 9 -5 -5 2643.13 2847.16 48.81 o
1723 1 9 -5 -4 726.33 644.10 20.81 o
1724 1 9 -5 -3 5090.07 5230.11 148.15 o
1725 1 9 -5 1 449.06 339.52 29.29 o
1726 1 9 -5 2 405.06 348.79 31.13 o
1727 1 9 -5 3 888.09 826.63 51.51 o
1728 1 9 -5 4 2085.55 1683.22 111.56 o
1729 1 9 -6 -13 168.09 181.55 32.54 o
1730 1 9 -6 -12 972.73 833.39 51.27 o
1731 1 9 -6 -7 95.28 104.99 31.62 o
1732 1 9 -6 -6 249.73 272.84 18.30 o
1733 1 9 -6 -5 190.31 195.73 12.71 o
1734 1 9 -6 -4 1037.54 1006.83 27.63 o
1735 1 9 -6 -3 585.30 669.89 42.30 o
1736 1 9 -6 1 84.73 50.22 20.20 <
1737 1 9 -6 2 3.68 -26.52 18.66 <
1738 1 9 -6 3 338.10 330.74 31.62 o
1739 1 9 -6 4 308.08 280.15 54.09 o
1740 1 9 -7 -12 631.97 355.23 52.62 o
1741 1 9 -7 -7 56.00 32.36 27.08 <
1742 1 9 -7 -6 113.97 108.85 17.44 o
1743 1 9 -7 -5 2524.38 2649.71 58.94 o
1744 1 9 -7 -4 187.58 230.17 17.87 o
1745 1 9 -7 -3 1212.74 1343.15 83.50 o
1746 1 9 -7 1 197.04 200.15 26.65 o
1747 1 9 -7 2 14.25 -6.51 28.24 <
1748 1 9 -7 3 177.57 183.45 39.78 o
1749 1 9 -8 -7 1307.67 1378.09 82.21 o
1750 1 9 -8 -6 798.39 813.74 35.92 o
1751 1 9 -8 -5 24.72 25.36 13.38 <
1752 1 9 -8 -4 85.05 87.30 17.01 o
1753 1 9 -8 1 6.07 -19.95 20.44 <
1754 1 9 -8 2 1791.92 1774.58 94.79 o
1755 1 9 -9 -10 461.34 400.18 40.89 o
1756 1 9 -9 -7 260.48 284.94 40.52 o
1757 1 9 -9 -6 735.93 753.69 34.87 o
1758 1 9 -9 -5 2913.20 2928.82 73.61 o
1759 1 9 -9 -4 39.44 38.07 16.58 <
1760 1 9 -9 1 431.79 345.78 46.60 o
1761 1 9 -10 -7 141.66 153.55 33.34 o
1762 1 9 -10 -6 142.07 147.04 26.77 o
1763 1 9 -10 -5 47.89 54.46 19.65 <
1764 1 9 -10 -4 995.81 1048.21 43.65 o
1765 1 10 0 -14 185.12 230.23 63.18 o
1766 1 10 0 -13 125.53 135.26 50.16 <
1767 1 10 0 -7 385.08 348.54 38.74 o
1768 1 10 0 0 3064.31 3439.14 130.22 o
1769 1 10 0 1 753.56 865.00 60.29 o
1770 1 10 0 2 533.73 555.39 52.00 o
1771 1 10 0 3 2912.46 3231.01 195.24 o
1772 1 10 1 -14 7.63 47.03 47.58 <
1773 1 10 -1 -14 9.81 29.53 48.44 <
1774 1 10 1 -13 235.99 299.18 61.58 o
1775 1 10 -1 -13 271.07 249.82 59.74 o
1776 1 10 -1 -7 644.10 571.72 35.86 o
1777 1 10 -1 -6 800.86 759.89 41.75 o
1778 1 10 -1 -5 170.01 155.45 20.69 o
1779 1 10 1 0 931.44 1041.33 84.17 o
1780 1 10 -1 0 930.31 1028.50 59.68 o
1781 1 10 1 1 39.66 21.92 33.52 <
1782 1 10 -1 1 37.70 61.21 28.98 <
1783 1 10 1 2 448.59 514.68 66.86 o
1784 1 10 -1 2 527.51 465.81 48.20 o
1785 1 10 1 3 124.50 190.63 54.21 o
1786 1 10 -1 3 164.76 152.26 51.02 <
1787 1 10 2 -14 497.02 421.05 71.46 o
1788 1 10 -2 -14 449.27 514.68 77.97 o
1789 1 10 -2 -13 886.13 778.01 88.59 o
1790 1 10 -2 -7 1191.96 1212.69 50.41 o
1791 1 10 -2 -6 1888.63 1900.26 69.50 o
1792 1 10 -2 -5 1229.06 1313.01 43.59 o
1793 1 10 -2 -4 1759.05 1906.70 92.28 o
1794 1 10 2 0 1066.75 1303.61 97.68 o
1795 1 10 -2 0 1127.92 1189.66 68.58 o
1796 1 10 2 1 3530.25 3978.93 218.69 o
1797 1 10 -2 1 3410.03 3807.02 147.60 o
1798 1 10 2 2 183.39 106.83 44.88 <
1799 1 10 -2 2 128.33 174.73 37.94 o
1800 1 10 2 3 819.17 754.55 94.24 o
1801 1 10 -2 3 769.35 848.12 98.72 o
1802 1 10 -3 -14 141.19 279.23 68.76 o
1803 1 10 -3 -13 119.12 102.41 55.69 <
1804 1 10 -3 -7 86.89 159.75 17.74 o
1805 1 10 -3 -6 47.28 79.81 15.10 o
1806 1 10 -3 -5 473.04 569.26 28.79 o
1807 1 10 -3 0 2304.81 2412.54 105.48 o
1808 1 10 -3 1 86.70 101.30 31.50 o
1809 1 10 -3 2 46.96 64.16 32.29 <
1810 1 10 -3 3 498.47 526.16 75.52 o
1811 1 10 -4 -14 414.52 442.17 50.16 o
1812 1 10 -4 -13 746.09 883.61 66.00 o
1813 1 10 -4 -7 1820.56 1619.74 48.38 o
1814 1 10 -4 -6 583.69 546.48 28.61 o
1815 1 10 -4 -5 854.50 820.00 29.29 o
1816 1 10 -4 0 1375.73 1034.09 104.13 o
1817 1 10 -4 1 2353.00 1855.38 94.00 o
1818 1 10 -4 2 197.09 83.74 34.93 <
1819 1 10 -4 3 717.80 799.43 101.12 o
1820 1 10 -5 -13 69.40 135.01 40.21 o
1821 1 10 -5 -8 127.01 162.15 36.35 o
1822 1 10 -5 -7 563.85 570.79 22.72 o
1823 1 10 -5 -6 3731.11 3893.28 73.49 o
1824 1 10 -5 -5 1980.09 2045.95 47.15 o
1825 1 10 -5 0 476.93 339.70 37.57 o
1826 1 10 -5 1 298.28 167.61 59.98 <
1827 1 10 -5 2 1344.88 1276.78 123.53 o
1828 1 10 -6 -8 749.61 764.31 66.43 o
1829 1 10 -6 -7 354.18 375.99 22.47 o
1830 1 10 -6 -6 405.54 469.55 20.26 o
1831 1 10 -6 -5 2.75 21.18 10.68 <
1832 1 10 -6 1 1145.06 1184.94 76.01 o
1833 1 10 -6 2 229.15 209.60 65.88 o
1834 1 10 -6 3 1246.99 1249.95 127.76 o
1835 1 10 -7 -12 743.44 548.69 101.36 o
1836 1 10 -7 -8 1685.59 1732.28 98.42 o
1837 1 10 -7 -7 268.94 279.29 24.87 o
1838 1 10 -7 -6 372.98 329.57 25.30 o
1839 1 10 -7 -5 365.95 441.80 31.37 o
1840 1 10 -7 0 3184.71 925.54 104.50 o
1841 1 10 -7 1 186.77 78.10 56.30 <
1842 1 10 -7 2 109.91 45.43 55.26 <
1843 1 10 -8 -8 1084.39 968.52 72.69 o
1844 1 10 -8 -7 12.90 1.23 16.76 <
1845 1 10 -8 -6 1290.79 1315.03 46.11 o
1846 1 10 -8 -5 389.42 434.01 30.82 o
1847 1 10 -8 0 998.89 421.24 78.89 o
1848 1 10 -9 -8 980.31 993.38 73.00 o
1849 1 10 -9 -7 67.72 70.97 23.27 o
1850 1 10 -9 -6 86.30 66.92 20.38 o
1851 1 10 -9 -5 525.68 543.90 35.00 o
1852 1 11 0 -14 117.78 195.79 57.59 o
1853 1 11 0 -8 6220.66 5673.57 243.86 o
1854 1 11 0 -7 585.86 602.05 55.81 o
1855 1 11 0 -6 2.25 -0.98 22.16 <
1856 1 11 0 -1 40.52 122.67 42.30 <
1857 1 11 0 0 1490.99 1760.77 84.60 o
1858 1 11 0 1 6186.20 6607.83 230.97 o
1859 1 11 0 2 0.50 -1.78 41.81 <
1860 1 11 1 -14 557.38 542.68 85.34 o
1861 1 11 -1 -14 571.16 568.52 82.39 o
1862 1 11 -1 -8 1341.85 1217.72 73.49 o
1863 1 11 -1 -7 4073.40 4066.79 185.54 o
1864 1 11 -1 -6 2203.51 2587.76 133.96 o
1865 1 11 -1 -1 1127.78 1218.95 69.81 o
1866 1 11 1 0 125.88 97.86 38.56 <
1867 1 11 -1 0 123.67 145.45 34.26 o
1868 1 11 1 1 86.17 81.59 31.25 <
1869 1 11 -1 1 73.71 90.50 33.71 <
1870 1 11 1 2 2022.88 2335.43 154.35 o
1871 1 11 -1 2 2070.84 2313.02 158.15 o
1872 1 11 2 -14 537.23 899.20 104.07 o
1873 1 11 -2 -14 571.88 590.57 85.03 o
1874 1 11 -2 -8 167.04 142.25 20.75 o
1875 1 11 -2 -7 46.26 72.63 16.88 o
1876 1 11 -2 -6 1951.72 1777.65 55.56 o
1877 1 11 -2 -1 1074.72 1343.40 73.92 o
1878 1 11 2 0 728.49 912.59 84.60 o
1879 1 11 -2 0 833.10 912.03 65.02 o
1880 1 11 2 1 302.30 435.60 63.85 o
1881 1 11 -2 1 423.89 335.71 44.76 o
1882 1 11 2 2 250.51 213.96 53.54 o
1883 1 11 -2 2 260.51 225.75 55.56 o
1884 1 11 -3 -8 4121.21 4130.82 92.03 o
1885 1 11 -3 -7 14.40 38.19 14.86 <
1886 1 11 -3 -6 763.87 777.82 33.34 o
1887 1 11 -3 -1 291.99 308.94 57.59 o
1888 1 11 -3 0 57.72 82.27 31.68 <
1889 1 11 3 1 1634.15 1797.36 130.10 o
1890 1 11 -3 1 1648.59 1751.07 94.06 o
1891 1 11 -3 2 59.24 119.60 46.91 <
1892 1 11 -4 -13 232.60 192.97 40.09 o
1893 1 11 -4 -8 668.74 729.14 40.95 o
1894 1 11 -4 -7 32.41 11.91 14.92 <
1895 1 11 -4 -6 1297.70 1391.90 45.56 o
1896 1 11 -4 -1 1289.52 1165.11 107.50 o
1897 1 11 -4 0 381.42 407.91 69.62 o
1898 1 11 -4 1 679.19 540.28 83.50 o
1899 1 11 -4 2 303.60 275.91 61.70 o
1900 1 11 -5 -8 1750.90 1684.33 61.03 o
1901 1 11 -5 -7 1507.41 1299.01 44.70 o
1902 1 11 -5 -6 292.45 269.83 18.60 o
1903 1 11 -5 -1 234.44 265.72 36.84 o
1904 1 11 -5 0 134.62 154.16 58.51 <
1905 1 11 -5 1 125.55 61.46 53.17 <
1906 1 11 -5 2 829.89 652.51 94.49 o
1907 1 11 -6 -8 1779.74 1658.79 65.32 o
1908 1 11 -6 -7 122.15 83.93 14.80 o
1909 1 11 -6 -6 372.42 417.00 21.61 o
1910 1 11 -6 -1 297.44 240.06 35.61 o
1911 1 11 -6 0 402.64 244.23 65.39 o
1912 1 11 -6 1 1944.52 1144.78 120.58 o
1913 1 11 -7 -8 1171.83 997.19 70.05 o
1914 1 11 -7 -7 1137.79 1086.40 53.05 o
1915 1 11 -7 -6 1700.74 1703.42 73.74 o
1916 1 11 -7 -1 112.92 76.13 50.59 <
1917 1 11 -7 0 149.21 72.75 53.48 <
1918 1 11 -8 -8 47.17 32.17 24.31 <
1919 1 11 -8 -7 105.31 111.13 28.36 o
1920 1 11 -8 -6 719.76 647.85 47.09 o
1921 1 12 0 -8 449.28 490.31 56.42 o
1922 1 12 0 -7 265.58 228.82 35.79 o
1923 1 12 0 -2 2004.28 2261.45 142.38 o
1924 1 12 0 -1 1233.56 1328.85 111.37 o
1925 1 12 0 0 332.42 393.30 66.80 o
1926 1 12 1 -8 854.58 588.29 55.50 o
1927 1 12 -1 -8 614.00 842.59 63.05 o
1928 1 12 -1 -7 340.93 469.98 53.23 o
1929 1 12 -1 -2 1827.70 2556.45 156.07 o
1930 1 12 1 -1 278.37 334.55 60.54 o
1931 1 12 -1 -1 286.76 396.74 67.29 o
1932 1 12 1 0 15.33 43.10 46.29 <
1933 1 12 -1 0 7.46 73.18 50.41 <
1934 1 12 -2 -9 157.54 162.76 31.99 o
1935 1 12 -2 -8 360.00 419.33 30.33 o
1936 1 12 -2 -7 169.80 211.32 30.64 o
1937 1 12 -2 -2 1843.69 2317.26 147.72 o
1938 1 12 -2 -1 168.57 206.84 54.95 o
1939 1 12 -2 0 246.28 187.13 57.34 o
1940 1 12 -3 -13 431.71 532.24 79.08 o
1941 1 12 -3 -9 116.32 131.14 23.08 o
1942 1 12 -3 -8 442.36 476.49 33.03 o
1943 1 12 -3 -7 3358.92 3317.08 78.34 o
1944 1 12 -3 -2 306.25 339.70 63.36 o
1945 1 12 -3 -1 491.53 714.71 87.43 o
1946 1 12 -3 0 155.24 265.23 61.83 o
1947 1 12 -3 1 299.99 324.66 70.67 o
1948 1 12 -4 -9 999.40 1158.47 51.57 o
1949 1 12 -4 -8 59.84 80.86 22.10 o
1950 1 12 -4 -7 377.69 344.61 24.80 o
1951 1 12 -4 -2 472.90 572.45 76.87 o
1952 1 12 -4 -1 521.72 712.99 90.56 o
1953 1 12 -4 0 418.55 620.65 87.12 o
1954 1 12 -5 -9 20.36 47.83 31.37 <
1955 1 12 -5 -8 262.91 184.25 36.78 o
1956 1 12 -5 -7 418.76 360.52 25.85 o
1957 1 12 -5 -2 1563.59 1604.39 80.98 o
1958 1 12 -5 -1 79.36 173.38 58.02 <
1959 1 12 -6 -9 1195.61 1248.91 77.42 o
1960 1 12 -6 -8 122.47 137.53 35.86 o
1961 1 12 -6 -7 196.10 217.52 30.21 o
1962 1 12 -6 -2 1240.82 1285.38 116.96 o
1963 1 12 -7 -9 210.62 203.40 67.72 o
1964 1 12 -7 -8 414.17 451.81 50.16 o
1965 1 12 -7 -7 319.36 270.69 48.75 o
1966 1 13 0 -8 34.44 27.87 31.80 <
1967 1 13 0 -3 25.09 36.22 38.50 <
1968 1 13 0 -2 287.31 344.31 62.01 o
1969 1 13 0 -1 936.38 1197.40 114.01 o
1970 1 13 -1 -10 667.85 822.15 87.67 o
1971 1 13 1 -8 1011.64 859.42 71.28 o
1972 1 13 1 -3 35.63 -4.91 36.22 <
1973 1 13 -1 -3 15.07 54.46 41.20 <
1974 1 13 1 -2 1.71 4.30 40.89 <
1975 1 13 -1 -2 4.95 -8.66 42.12 <
1976 1 13 1 -1 469.22 537.21 76.68 o
1977 1 13 -1 -1 438.57 644.84 85.09 o
1978 1 13 -2 -10 1732.63 1776.42 79.51 o
1979 1 13 -2 -9 74.51 114.87 30.27 o
1980 1 13 -2 -8 1210.86 1347.27 70.73 o
1981 1 13 -2 -3 332.84 316.37 59.74 o
1982 1 13 -2 -2 1038.56 1424.01 120.70 o
1983 1 13 -2 -1 1970.80 2258.44 153.55 o
1984 1 13 -3 -10 739.56 853.28 62.13 o
1985 1 13 -3 -9 566.22 578.16 36.53 o
1986 1 13 -3 -3 864.45 1085.35 103.27 o
1987 1 13 -3 -2 105.25 262.90 60.84 o
1988 1 13 -4 -10 639.59 682.84 53.54 o
1989 1 13 -4 -9 61.93 62.38 30.94 <
1990 1 13 -4 -3 717.40 859.78 92.58 o
1991 1 13 -4 -2 1630.21 1952.69 142.13 o
1992 1 13 -5 -9 457.18 532.18 52.80 o
1993 1 13 -5 -8 186.40 208.68 38.74 o
1994 1 14 0 -4 528.50 510.93 73.37 o
1995 1 14 -1 -10 1688.52 1696.55 122.79 o
1996 1 14 -1 -9 632.31 842.10 61.70 o
1997 1 14 1 -4 859.21 870.47 95.16 o
1998 1 14 -1 -4 932.17 1033.10 100.32 o
1999 1 14 -2 -9 447.30 382.13 39.91 o
2000 1 14 -3 -8 822.86 935.61 91.79 o
2001 2 0 0 1 1139.01 -0.31 0.61 <
2002 2 0 0 2 50.10 48.50 4.60 o
2003 2 0 0 3 28388.60 28735.90 690.15 o
2004 2 0 0 4 259.06 435.23 14.61 o
2005 2 0 0 5 2616.30 2799.52 70.61 o
2006 2 0 0 6 12725.40 13754.10 329.88 o
2007 2 0 0 10 103.55 122.06 35.61 o
2008 2 0 0 11 31.59 61.46 25.66 <
2009 2 0 0 12 3995.95 4404.77 165.40 o
2010 2 0 0 13 128.31 192.29 52.19 o
2011 2 0 -1 1 3244.19 2789.33 51.45 o
2012 2 0 1 2 290.96 317.35 8.10 o
2013 2 0 -1 2 302.67 331.72 7.80 o
2014 2 0 1 3 1298.86 1412.04 26.95 o
2015 2 0 -1 3 1274.46 1488.54 39.91 o
2016 2 0 1 4 512.84 544.09 14.80 o
2017 2 0 -1 4 634.09 754.74 24.74 o
2018 2 0 1 5 50.42 44.94 6.20 o
2019 2 0 -1 5 42.14 47.46 5.77 o
2020 2 0 1 6 913.20 954.52 24.93 o
2021 2 0 -1 6 929.86 1039.92 35.49 o
2022 2 0 1 10 311.52 300.23 26.89 o
2023 2 0 -1 10 274.43 254.61 44.94 o
2024 2 0 1 11 443.92 499.95 46.48 o
2025 2 0 -1 11 457.04 496.08 59.68 o
2026 2 0 1 12 52.78 78.46 32.54 <
2027 2 0 -1 12 69.31 75.58 42.73 <
2028 2 0 1 13 177.92 187.56 53.54 o
2029 2 0 -1 13 187.73 206.84 53.78 o
2030 2 0 2 1 3732.69 3675.63 47.70 o
2031 2 0 -2 1 3855.12 4101.60 84.54 o
2032 2 0 2 2 15794.90 15351.90 217.71 o
2033 2 0 -2 2 15931.00 17765.60 347.50 o
2034 2 0 2 3 2072.70 2202.08 37.27 o
2035 2 0 -2 3 2402.14 2757.03 56.55 o
2036 2 0 2 4 248.58 243.00 7.92 o
2037 2 0 -2 4 198.44 207.27 9.58 o
2038 2 0 2 5 2808.68 2975.72 55.13 o
2039 2 0 -2 5 2951.25 3476.41 72.45 o
2040 2 0 2 6 214.59 238.95 11.24 o
2041 2 0 -2 6 309.48 378.50 15.10 o
2042 2 0 2 9 389.11 381.51 26.83 o
2043 2 0 2 10 1423.84 1348.92 54.83 o
2044 2 0 2 11 2154.96 2283.80 78.53 o
2045 2 0 2 12 194.37 252.27 41.63 o
2046 2 0 -2 12 230.56 218.57 50.04 o
2047 2 0 2 13 74.90 85.22 45.13 <
2048 2 0 -2 13 71.06 105.48 48.50 <
2049 2 0 3 1 409.88 476.55 11.11 o
2050 2 0 -3 1 425.40 540.28 22.29 o
2051 2 0 3 2 754.05 710.66 13.88 o
2052 2 0 -3 2 858.95 969.19 26.09 o
2053 2 0 3 3 686.00 666.20 17.50 o
2054 2 0 -3 3 675.28 734.17 22.41 o
2055 2 0 3 4 2270.86 2176.66 38.43 o
2056 2 0 -3 4 2195.39 2365.33 62.44 o
2057 2 0 3 5 2605.37 2553.75 45.00 o
2058 2 0 -3 5 2618.53 2951.10 78.34 o
2059 2 0 3 6 44.55 42.42 6.81 o
2060 2 0 -3 6 50.38 44.20 9.82 o
2061 2 0 3 9 78.75 91.36 18.42 o
2062 2 0 3 10 44.23 36.84 18.60 <
2063 2 0 3 11 17.75 17.56 19.89 <
2064 2 0 3 12 160.95 198.00 38.13 o
2065 2 0 3 13 21.58 20.94 42.85 <
2066 2 0 4 1 1686.35 1727.37 35.92 o
2067 2 0 -4 1 1652.43 1918.12 68.52 o
2068 2 0 4 2 9543.41 9732.56 133.04 o
2069 2 0 -4 2 9558.51 11331.50 384.52 o
2070 2 0 4 3 1226.44 1181.62 24.44 o
2071 2 0 -4 3 1182.48 1404.92 56.36 o
2072 2 0 4 4 693.56 607.76 17.50 o
2073 2 0 -4 4 671.15 720.60 37.88 o
2074 2 0 4 5 2194.15 2134.11 39.48 o
2075 2 0 -4 5 2215.51 2568.00 100.44 o
2076 2 0 4 6 321.42 359.29 15.29 o
2077 2 0 -4 6 360.74 435.85 34.93 o
2078 2 0 4 10 1625.10 1539.80 51.02 o
2079 2 0 4 11 1133.91 1057.54 53.54 o
2080 2 0 4 12 241.27 225.94 42.61 o
2081 2 0 5 1 4767.18 4678.29 104.74 o
2082 2 0 5 2 1747.23 1761.81 39.91 o
2083 2 0 5 3 130.68 147.84 7.00 o
2084 2 0 5 4 122.97 131.57 8.60 o
2085 2 0 5 5 156.98 177.99 10.31 o
2086 2 0 5 6 1460.36 1421.37 40.09 o
2087 2 0 5 10 155.78 162.09 22.96 o
2088 2 0 5 11 651.95 543.41 38.13 o
2089 2 0 5 12 224.91 133.29 57.77 <
2090 2 0 6 1 583.09 536.04 16.82 o
2091 2 0 6 2 1157.61 1227.18 28.18 o
2092 2 0 6 3 6332.54 6229.69 108.18 o
2093 2 0 6 4 268.94 223.11 9.88 o
2094 2 0 6 5 378.39 403.74 15.41 o
2095 2 0 6 6 2662.07 2685.75 65.69 o
2096 2 0 6 10 445.02 433.15 33.52 o
2097 2 0 6 11 152.87 115.12 25.05 o
2098 2 0 6 12 1338.33 1027.64 115.30 o
2099 2 0 7 1 25.87 21.43 9.39 <
2100 2 0 7 2 836.26 743.26 21.18 o
2101 2 0 7 3 773.77 732.94 25.72 o
2102 2 0 7 4 165.20 172.03 13.88 o
2103 2 0 7 5 790.84 789.92 27.51 o
2104 2 0 7 10 84.85 46.23 21.30 <
2105 2 0 7 11 3.84 -38.99 29.10 <
2106 2 0 8 2 1631.13 1694.64 40.89 o
2107 2 0 8 3 58.13 108.24 13.02 o
2108 2 0 8 4 62.74 40.09 13.63 <
2109 2 0 8 5 379.94 407.18 26.46 o
2110 2 0 8 10 105.11 120.21 25.36 o
2111 2 0 8 11 695.49 710.90 62.99 o
2112 2 0 9 2 180.36 193.09 17.07 o
2113 2 0 9 3 222.91 205.00 18.17 o
2114 2 0 9 4 94.59 74.78 13.32 o
2115 2 0 9 5 227.23 205.12 18.05 o
2116 2 0 9 10 7.65 6.08 30.33 <
2117 2 0 10 2 1128.70 1192.24 44.76 o
2118 2 0 10 3 2913.47 2959.27 77.36 o
2119 2 0 10 4 293.56 287.02 23.58 o
2120 2 0 10 5 176.48 133.54 19.59 o
2121 2 0 11 2 177.79 173.07 34.32 o
2122 2 0 11 3 15.86 15.47 15.96 <
2123 2 0 11 4 90.72 98.85 18.79 o
2124 2 0 11 5 0.36 22.04 17.07 <
2125 2 0 12 3 53.55 32.66 23.58 <
2126 2 0 12 4 191.76 184.19 29.35 o
2127 2 0 12 5 284.46 291.94 34.20 o
2128 2 0 13 3 236.41 241.47 62.50 o
2129 2 0 13 4 105.84 114.87 20.94 o
2130 2 1 0 -13 637.97 739.88 62.01 o
2131 2 1 0 -12 646.90 673.63 52.92 o
2132 2 1 0 -11 615.54 623.78 64.47 o
2133 2 1 0 -7 181.37 158.03 10.44 o
2134 2 1 0 -6 879.99 850.33 29.72 o
2135 2 1 0 -2 7.88 7.61 2.52 o
2136 2 1 0 0 1155.96 0.06 0.92 <
2137 2 1 0 1 14.96 1.11 2.09 <
2138 2 1 0 2 1676.47 1748.06 63.61 o
2139 2 1 0 3 108.17 89.51 6.63 o
2140 2 1 0 4 627.45 605.79 21.12 o
2141 2 1 0 5 974.17 505.23 29.59 o
2142 2 1 0 9 1.05 10.07 28.24 <
2143 2 1 0 10 260.40 284.45 36.22 o
2144 2 1 0 11 330.22 375.86 44.45 o
2145 2 1 0 12 476.20 490.86 70.54 o
2146 2 1 1 -13 140.83 137.90 34.87 o
2147 2 1 -1 -13 96.20 70.97 45.25 <
2148 2 1 1 -12 169.68 223.73 37.57 o
2149 2 1 -1 -12 169.46 215.68 46.72 o
2150 2 1 1 -11 37.15 68.70 23.82 <
2151 2 1 -1 -11 40.58 39.91 30.82 <
2152 2 1 1 -10 300.10 349.22 35.73 o
2153 2 1 1 -7 18.09 22.10 6.63 o
2154 2 1 -1 -7 19.13 24.99 9.58 <
2155 2 1 1 -6 7584.69 7940.54 150.48 o
2156 2 1 -1 -6 7777.02 8249.30 203.83 o
2157 2 1 1 -5 167.39 166.01 7.55 o
2158 2 1 -1 -5 122.73 85.52 8.78 o
2159 2 1 1 -4 3547.37 3678.27 63.42 o
2160 2 1 -1 -4 3379.57 3704.43 93.63 o
2161 2 1 1 -3 8222.04 8010.60 137.59 o
2162 2 1 -1 -3 8251.82 8644.51 169.21 o
2163 2 1 1 -2 117.92 120.83 5.89 o
2164 2 1 -1 -2 135.59 176.51 6.45 o
2165 2 1 1 0 2871.56 -0.06 0.80 <
2166 2 1 1 1 2319.07 2478.97 52.86 o
2167 2 1 -1 1 2497.83 2860.18 51.76 o
2168 2 1 1 2 47.25 50.77 3.68 o
2169 2 1 -1 2 58.17 81.04 4.73 o
2170 2 1 1 3 6487.50 6407.86 126.29 o
2171 2 1 -1 3 6126.95 6599.42 130.47 o
2172 2 1 1 4 2279.03 2271.70 49.61 o
2173 2 1 -1 4 2185.61 2298.71 61.09 o
2174 2 1 1 5 1224.17 1327.44 58.82 o
2175 2 1 -1 5 1287.45 1438.19 42.92 o
2176 2 1 1 8 207.92 230.66 30.76 o
2177 2 1 1 9 503.42 500.80 44.08 o
2178 2 1 1 10 431.92 393.48 41.26 o
2179 2 1 -1 10 417.95 415.28 60.35 o
2180 2 1 1 11 24.56 5.53 20.69 <
2181 2 1 -1 11 49.44 20.75 35.43 <
2182 2 1 1 12 786.14 829.09 91.66 o
2183 2 1 -1 12 817.84 861.75 100.26 o
2184 2 1 2 -13 41.52 56.98 31.25 <
2185 2 1 2 -12 102.36 147.23 32.05 o
2186 2 1 -2 -12 66.05 32.85 33.95 <
2187 2 1 2 -11 469.78 517.32 46.72 o
2188 2 1 -2 -11 482.69 528.49 67.84 o
2189 2 1 2 -10 194.32 176.21 17.99 o
2190 2 1 2 -7 2813.06 2982.23 58.08 o
2191 2 1 -2 -7 2594.70 2860.67 80.06 o
2192 2 1 2 -6 1293.81 1361.33 27.01 o
2193 2 1 -2 -6 1258.26 1405.71 43.47 o
2194 2 1 2 -5 466.33 407.73 11.85 o
2195 2 1 -2 -5 423.43 400.18 18.73 o
2196 2 1 2 -4 2615.40 2600.29 39.85 o
2197 2 1 -2 -4 2346.40 2462.64 52.62 o
2198 2 1 2 -3 944.90 884.96 15.90 o
2199 2 1 -2 -3 856.96 824.91 17.80 o
2200 2 1 2 -2 3770.93 3967.39 66.49 o
2201 2 1 -2 -2 3481.83 3615.90 74.72 o
2202 2 1 2 0 6692.62 6660.94 78.59 o
2203 2 1 -2 0 6814.19 7029.43 238.89 o
2204 2 1 2 1 7353.30 7333.96 105.05 o
2205 2 1 -2 1 7197.40 8259.43 198.37 o
2206 2 1 2 2 2315.30 2191.82 36.53 o
2207 2 1 -2 2 2230.42 2457.24 61.95 o
2208 2 1 2 3 3861.29 4073.23 82.88 o
2209 2 1 -2 3 4109.61 4826.13 96.45 o
2210 2 1 2 4 2652.82 2633.81 56.79 o
2211 2 1 -2 4 2403.74 2815.36 58.94 o
2212 2 1 2 5 2724.64 2779.75 72.75 o
2213 2 1 -2 5 2666.76 3192.94 84.42 o
2214 2 1 2 8 474.76 483.37 43.04 o
2215 2 1 2 9 637.44 619.36 49.79 o
2216 2 1 2 10 2579.28 2501.32 83.19 o
2217 2 1 2 11 153.08 132.37 26.77 o
2218 2 1 -2 11 140.79 141.09 56.61 <
2219 2 1 2 12 866.47 956.48 102.22 o
2220 2 1 -2 12 769.30 773.59 92.34 o
2221 2 1 3 -13 437.64 556.92 53.78 o
2222 2 1 3 -12 109.64 132.37 32.91 o
2223 2 1 3 -11 2296.19 2149.40 75.58 o
2224 2 1 3 -10 154.09 132.25 28.43 o
2225 2 1 3 -7 11.57 9.95 5.53 <
2226 2 1 -3 -7 20.43 16.02 10.74 <
2227 2 1 3 -6 4559.99 4446.64 67.60 o
2228 2 1 -3 -6 4590.72 4893.97 125.37 o
2229 2 1 3 -5 12332.40 12378.30 177.43 o
2230 2 1 -3 -5 12331.80 13350.90 322.76 o
2231 2 1 3 -4 3873.21 4024.98 62.38 o
2232 2 1 -3 -4 3915.98 4251.34 106.64 o
2233 2 1 3 -3 520.74 532.30 13.32 o
2234 2 1 -3 -3 490.33 602.05 20.01 o
2235 2 1 3 -2 6423.90 6970.37 148.82 o
2236 2 1 -3 -2 6337.58 7058.23 169.76 o
2237 2 1 3 0 321.58 385.63 8.78 o
2238 2 1 -3 0 345.46 462.86 14.80 o
2239 2 1 3 1 10249.40 9877.76 134.70 o
2240 2 1 -3 1 10582.00 11950.80 403.68 o
2241 2 1 3 2 655.47 568.71 12.46 o
2242 2 1 -3 2 565.23 587.31 28.18 o
2243 2 1 3 3 664.72 646.62 14.18 o
2244 2 1 -3 3 536.30 618.01 20.69 o
2245 2 1 3 4 12615.00 12980.90 225.14 o
2246 2 1 -3 4 12434.90 14992.60 360.45 o
2247 2 1 3 5 578.03 601.13 21.92 o
2248 2 1 -3 5 536.81 661.78 26.46 o
2249 2 1 3 8 158.33 139.00 19.40 o
2250 2 1 3 9 401.95 409.33 25.97 o
2251 2 1 3 10 964.66 1017.88 52.19 o
2252 2 1 3 11 183.28 179.52 28.30 o
2253 2 1 3 12 51.13 50.16 47.09 <
2254 2 1 -3 12 23.94 56.85 54.34 <
2255 2 1 4 -13 490.24 573.62 84.42 o
2256 2 1 4 -12 202.06 200.76 58.63 o
2257 2 1 4 -11 17.69 19.46 17.44 <
2258 2 1 4 -10 778.53 784.02 63.18 o
2259 2 1 4 -7 148.19 134.09 10.13 o
2260 2 1 -4 -7 138.09 153.86 16.15 o
2261 2 1 4 -6 273.14 271.06 12.40 o
2262 2 1 -4 -6 301.76 378.07 21.73 o
2263 2 1 4 -5 3713.64 3599.69 64.47 o
2264 2 1 -4 -5 3529.68 3883.95 100.81 o
2265 2 1 4 -4 1144.55 1137.54 24.37 o
2266 2 1 -4 -4 1067.50 1214.59 49.48 o
2267 2 1 4 -3 146.51 125.12 7.80 o
2268 2 1 -4 -3 152.67 166.87 14.55 o
2269 2 1 4 -2 713.94 687.14 25.42 o
2270 2 1 -4 -2 676.14 677.32 27.87 o
2271 2 1 4 0 1510.91 1508.12 30.94 o
2272 2 1 -4 0 1459.65 1908.61 68.46 o
2273 2 1 4 1 877.02 888.09 14.24 o
2274 2 1 -4 1 883.70 1117.95 43.84 o
2275 2 1 4 2 86.84 78.95 5.34 o
2276 2 1 -4 2 85.71 108.18 12.46 o
2277 2 1 4 3 4061.77 3947.19 62.87 o
2278 2 1 -4 3 3820.10 4612.53 164.72 o
2279 2 1 4 4 1793.16 1782.07 38.19 o
2280 2 1 -4 4 1851.29 2325.91 91.42 o
2281 2 1 4 5 467.64 498.65 21.18 o
2282 2 1 -4 5 434.55 556.37 36.84 o
2283 2 1 4 8 672.43 708.32 39.97 o
2284 2 1 4 9 505.42 488.34 28.61 o
2285 2 1 4 10 145.85 100.69 24.19 o
2286 2 1 4 11 81.66 83.13 25.42 o
2287 2 1 4 12 1028.94 1105.37 110.51 o
2288 2 1 5 -13 5.11 80.37 53.41 <
2289 2 1 5 -12 111.03 117.39 56.24 <
2290 2 1 5 -11 230.56 147.29 23.27 o
2291 2 1 5 -7 48.14 37.57 9.39 o
2292 2 1 5 -6 6506.33 6290.04 109.28 o
2293 2 1 5 -5 461.72 430.75 15.59 o
2294 2 1 5 -4 1869.81 1765.86 35.18 o
2295 2 1 5 -3 5518.32 5438.24 93.44 o
2296 2 1 5 -2 3947.02 3912.13 107.01 o
2297 2 1 5 0 6683.69 6770.65 121.62 o
2298 2 1 5 1 289.16 261.36 9.88 o
2299 2 1 5 2 120.39 120.40 6.75 o
2300 2 1 5 3 9736.72 9824.84 145.94 o
2301 2 1 5 4 8.05 29.04 7.92 o
2302 2 1 5 5 386.11 406.07 19.77 o
2303 2 1 5 8 220.35 191.68 36.04 o
2304 2 1 5 9 1676.24 1530.35 50.71 o
2305 2 1 5 10 95.09 90.01 19.46 o
2306 2 1 5 11 56.72 72.69 31.31 <
2307 2 1 6 -12 500.05 320.18 39.17 o
2308 2 1 6 -11 313.69 289.42 30.39 o
2309 2 1 6 -7 1013.19 949.91 42.42 o
2310 2 1 6 -6 742.86 749.83 22.10 o
2311 2 1 6 -5 810.30 807.78 19.28 o
2312 2 1 6 -4 1017.43 1004.13 29.22 o
2313 2 1 6 -3 2068.14 2216.69 50.53 o
2314 2 1 6 -2 257.36 209.05 17.87 o
2315 2 1 6 0 1418.11 1480.13 33.15 o
2316 2 1 6 1 378.26 253.56 11.42 o
2317 2 1 6 2 676.53 660.13 18.91 o
2318 2 1 6 3 802.07 812.26 18.60 o
2319 2 1 6 4 140.44 126.41 9.82 o
2320 2 1 6 5 824.03 828.04 46.23 o
2321 2 1 6 9 256.46 240.43 25.85 o
2322 2 1 6 10 158.16 151.46 24.44 o
2323 2 1 6 11 27.79 -5.83 21.00 <
2324 2 1 7 -12 156.54 4.11 49.30 <
2325 2 1 7 -11 881.17 445.06 79.57 o
2326 2 1 7 -7 51.62 51.20 17.50 <
2327 2 1 7 -6 2255.71 2168.74 52.62 o
2328 2 1 7 -5 2667.06 2586.48 59.43 o
2329 2 1 7 -4 1007.57 936.84 29.35 o
2330 2 1 7 -3 663.41 587.68 23.64 o
2331 2 1 7 0 70.41 60.84 10.81 o
2332 2 1 7 1 5277.49 5166.44 89.15 o
2333 2 1 7 2 88.76 87.86 9.39 o
2334 2 1 7 3 417.35 421.48 17.01 o
2335 2 1 7 4 3985.38 3850.12 96.27 o
2336 2 1 7 5 496.77 567.91 40.28 o
2337 2 1 7 9 158.95 143.48 23.51 o
2338 2 1 7 10 611.12 616.60 39.72 o
2339 2 1 7 11 8.15 -19.83 29.41 <
2340 2 1 8 -11 281.10 186.03 38.13 o
2341 2 1 8 -6 272.96 344.43 25.11 o
2342 2 1 8 -5 171.70 128.75 14.43 o
2343 2 1 8 -4 1178.95 1147.24 35.49 o
2344 2 1 8 -3 549.87 580.56 28.67 o
2345 2 1 8 1 4963.88 4881.69 94.37 o
2346 2 1 8 2 2297.07 2201.59 49.55 o
2347 2 1 8 3 352.43 349.16 17.13 o
2348 2 1 8 4 1772.05 1683.59 44.45 o
2349 2 1 8 5 1134.23 1209.31 67.17 o
2350 2 1 8 9 26.95 39.29 20.94 <
2351 2 1 8 10 2589.74 2517.04 111.25 o
2352 2 1 9 -6 1652.18 1805.89 60.60 o
2353 2 1 9 -5 737.01 781.57 31.93 o
2354 2 1 9 -4 966.11 927.26 31.07 o
2355 2 1 9 -3 267.22 277.26 17.31 o
2356 2 1 9 1 1121.06 1177.32 35.55 o
2357 2 1 9 2 104.22 90.01 13.02 o
2358 2 1 9 3 833.06 826.82 35.30 o
2359 2 1 9 4 1700.46 1702.87 47.03 o
2360 2 1 9 9 34.01 23.45 29.47 <
2361 2 1 10 -6 87.52 60.97 15.29 o
2362 2 1 10 -5 1121.34 1153.32 44.02 o
2363 2 1 10 -4 554.37 499.21 28.49 o
2364 2 1 10 -3 285.79 254.55 20.69 o
2365 2 1 10 1 242.23 284.88 21.49 o
2366 2 1 10 2 106.00 133.66 15.66 o
2367 2 1 10 3 425.35 387.16 26.22 o
2368 2 1 10 4 873.62 1006.95 41.32 o
2369 2 1 11 -6 1737.32 1656.64 56.73 o
2370 2 1 11 -5 24.52 0.31 15.53 <
2371 2 1 11 -4 290.57 330.06 25.66 o
2372 2 1 11 -3 751.88 819.02 38.37 o
2373 2 1 11 1 3.99 29.96 14.43 <
2374 2 1 11 2 123.30 163.13 27.14 o
2375 2 1 11 3 2175.97 2199.31 83.01 o
2376 2 1 11 4 24.02 13.08 22.41 <
2377 2 1 12 -6 179.09 195.54 19.65 o
2378 2 1 12 -5 139.75 174.55 18.54 o
2379 2 1 12 -4 211.39 245.34 19.22 o
2380 2 1 12 1 253.24 262.90 25.11 o
2381 2 1 12 2 57.35 111.62 26.22 o
2382 2 1 12 3 743.29 741.23 47.89 o
2383 2 1 12 4 7.58 28.18 23.39 <
2384 2 1 13 -4 298.96 323.80 41.20 o
2385 2 1 13 2 48.86 55.99 53.11 <
2386 2 1 13 3 26.40 42.42 26.58 <
2387 2 2 0 -14 1381.80 1710.91 125.12 o
2388 2 2 0 -13 788.96 977.17 100.14 o
2389 2 2 0 -12 220.29 265.35 33.89 o
2390 2 2 0 -8 18.06 29.16 8.17 o
2391 2 2 0 -7 1525.38 1461.34 34.07 o
2392 2 2 0 -6 291.29 288.31 13.45 o
2393 2 2 0 -5 1733.22 1576.09 33.52 o
2394 2 2 0 -4 1895.11 1810.01 43.59 o
2395 2 2 0 -1 24.30 62.26 5.89 o
2396 2 2 0 0 465.67 497.73 14.00 o
2397 2 2 0 1 4.11 6.20 4.91 <
2398 2 2 0 2 27.91 21.18 4.67 o
2399 2 2 0 3 1712.30 1797.66 49.91 o
2400 2 2 0 4 206.93 230.54 19.77 o
2401 2 2 0 7 35.79 3.87 8.17 <
2402 2 2 0 8 586.09 555.82 66.98 o
2403 2 2 0 9 483.11 444.32 42.61 o
2404 2 2 0 10 41.75 34.81 28.30 <
2405 2 2 0 11 676.61 622.74 55.50 o
2406 2 2 1 -14 66.86 151.89 55.81 <
2407 2 2 -1 -14 71.03 67.23 46.78 <
2408 2 2 1 -13 25.79 29.90 45.74 <
2409 2 2 1 -12 158.29 209.30 32.42 o
2410 2 2 -1 -12 167.39 205.12 40.15 o
2411 2 2 1 -8 637.81 699.48 19.28 o
2412 2 2 1 -7 2668.78 2611.28 48.56 o
2413 2 2 -1 -7 2679.49 2638.91 60.97 o
2414 2 2 1 -6 2467.42 2610.73 54.34 o
2415 2 2 -1 -6 2737.91 2979.65 65.51 o
2416 2 2 1 -5 2639.60 2469.21 50.53 o
2417 2 2 -1 -5 2624.27 2584.88 48.87 o
2418 2 2 1 -4 989.21 962.38 21.98 o
2419 2 2 -1 -4 894.72 866.35 22.72 o
2420 2 2 1 -3 7527.54 7191.76 145.82 o
2421 2 2 -1 -3 7507.69 7216.44 248.35 o
2422 2 2 1 -1 2065.30 2135.40 39.54 o
2423 2 2 -1 -1 2039.21 2120.36 32.42 o
2424 2 2 1 0 818.59 884.83 16.27 o
2425 2 2 -1 0 899.82 1004.62 23.82 o
2426 2 2 1 1 357.55 385.20 12.65 o
2427 2 2 -1 1 421.87 533.96 23.70 o
2428 2 2 1 2 5265.26 5461.70 96.76 o
2429 2 2 -1 2 4996.41 4929.21 124.94 o
2430 2 2 1 3 700.45 687.88 20.87 o
2431 2 2 -1 3 620.85 635.57 19.65 o
2432 2 2 1 4 1130.94 1047.47 36.22 o
2433 2 2 -1 4 1250.49 1316.02 35.98 o
2434 2 2 1 7 315.88 368.19 34.20 o
2435 2 2 1 8 123.36 112.35 25.60 o
2436 2 2 1 9 301.19 327.18 40.03 o
2437 2 2 1 10 5.09 -3.38 25.91 <
2438 2 2 -1 10 7.48 12.46 40.15 <
2439 2 2 1 11 689.39 773.59 86.81 o
2440 2 2 -1 11 567.61 613.34 73.67 o
2441 2 2 2 -14 1067.77 1529.61 131.26 o
2442 2 2 2 -13 407.77 443.95 70.18 o
2443 2 2 2 -12 1552.71 1838.12 87.00 o
2444 2 2 -2 -12 1475.77 1486.76 99.77 o
2445 2 2 2 -8 973.99 931.19 32.23 o
2446 2 2 -2 -8 975.81 1004.37 56.85 o
2447 2 2 2 -7 481.44 441.19 14.55 o
2448 2 2 -2 -7 425.06 406.99 23.39 o
2449 2 2 2 -6 1035.94 931.62 20.32 o
2450 2 2 -2 -6 1074.30 1092.72 25.48 o
2451 2 2 2 -5 10364.10 10551.80 171.35 o
2452 2 2 -2 -5 10319.10 10832.60 189.10 o
2453 2 2 2 -4 2477.15 2495.18 40.21 o
2454 2 2 -2 -4 2022.20 2000.15 38.56 o
2455 2 2 2 -3 4533.32 4195.53 91.11 o
2456 2 2 -2 -3 4185.00 3963.70 102.35 o
2457 2 2 2 -1 1620.16 1586.40 36.04 o
2458 2 2 -2 -1 1484.66 1594.32 45.43 o
2459 2 2 2 0 10704.70 10952.70 141.82 o
2460 2 2 -2 0 11039.30 11356.20 377.34 o
2461 2 2 2 1 3131.62 2935.39 47.89 o
2462 2 2 2 2 1624.30 1585.79 31.68 o
2463 2 2 2 3 1348.39 1240.93 26.95 o
2464 2 2 -2 3 1405.89 1402.77 54.15 o
2465 2 2 2 4 8103.87 7955.34 276.77 o
2466 2 2 -2 4 7841.47 8538.17 208.87 o
2467 2 2 2 7 5118.62 4872.79 183.39 o
2468 2 2 2 8 102.95 104.07 28.00 o
2469 2 2 2 9 772.48 768.18 57.83 o
2470 2 2 2 10 838.78 887.29 65.32 o
2471 2 2 2 11 173.89 131.02 33.28 o
2472 2 2 3 -14 32.48 74.29 53.17 <
2473 2 2 3 -13 471.14 639.80 82.88 o
2474 2 2 3 -12 177.98 214.82 35.12 o
2475 2 2 3 -8 319.89 313.92 13.81 o
2476 2 2 -3 -8 380.45 414.36 38.07 o
2477 2 2 3 -7 51.52 42.67 7.12 o
2478 2 2 -3 -7 59.58 80.43 12.89 o
2479 2 2 3 -6 180.22 173.81 8.90 o
2480 2 2 -3 -6 169.64 188.42 14.80 o
2481 2 2 3 -5 2515.05 2545.40 42.06 o
2482 2 2 -3 -5 2546.61 2711.72 72.82 o
2483 2 2 3 -4 7549.03 7474.24 103.08 o
2484 2 2 -3 -4 7510.75 7528.27 260.69 o
2485 2 2 3 -3 738.76 752.90 20.38 o
2486 2 2 3 -1 9782.39 10119.10 197.33 o
2487 2 2 -3 -1 9764.42 11434.90 382.43 o
2488 2 2 3 0 22.12 31.25 3.19 o
2489 2 2 3 1 662.26 525.36 11.11 o
2490 2 2 3 2 3125.09 3153.03 58.57 o
2491 2 2 3 3 38.19 30.15 6.26 o
2492 2 2 -3 3 30.93 28.79 5.83 o
2493 2 2 3 4 8838.34 8881.00 238.89 o
2494 2 2 -3 4 9006.33 10601.40 257.68 o
2495 2 2 3 7 2038.34 1968.65 88.47 o
2496 2 2 3 8 2218.10 2225.53 71.10 o
2497 2 2 3 9 31.32 25.30 20.01 <
2498 2 2 3 10 974.45 1107.09 56.30 o
2499 2 2 3 11 273.11 257.74 49.12 o
2500 2 2 4 -14 396.22 475.08 80.06 o
2501 2 2 4 -13 360.76 528.62 79.57 o
2502 2 2 4 -12 2051.00 2287.11 152.08 o
2503 2 2 4 -8 221.58 199.54 11.73 o
2504 2 2 4 -7 1245.72 1247.62 25.85 o
2505 2 2 -4 -7 1201.42 1309.63 62.38 o
2506 2 2 4 -6 603.44 616.35 15.84 o
2507 2 2 -4 -6 645.57 706.54 39.97 o
2508 2 2 4 -5 799.87 742.03 16.76 o
2509 2 2 -4 -5 644.43 657.98 35.67 o
2510 2 2 4 -4 4507.32 4208.98 65.94 o
2511 2 2 -4 -4 4588.32 4646.48 165.09 o
2512 2 2 4 -3 5745.15 5995.84 158.40 o
2513 2 2 4 -1 729.45 667.92 16.70 o
2514 2 2 4 0 4747.85 4736.18 66.92 o
2515 2 2 4 1 367.22 318.46 9.39 o
2516 2 2 4 2 29.57 23.58 4.48 o
2517 2 2 -4 2 36.99 66.86 10.93 o
2518 2 2 4 3 437.89 433.82 14.98 o
2519 2 2 -4 3 466.55 593.94 33.58 o
2520 2 2 4 4 78.39 68.33 8.78 o
2521 2 2 -4 4 83.77 105.79 17.31 o
2522 2 2 4 7 171.77 194.26 26.65 o
2523 2 2 4 8 183.25 183.57 19.46 o
2524 2 2 4 9 1047.91 1094.50 54.03 o
2525 2 2 4 10 26.83 41.01 23.94 <
2526 2 2 4 11 14.51 1.96 32.79 <
2527 2 2 5 -13 29.98 59.68 48.87 <
2528 2 2 5 -12 576.92 540.71 46.42 o
2529 2 2 5 -11 4.79 7.55 25.30 <
2530 2 2 5 -8 446.23 430.08 18.17 o
2531 2 2 5 -7 3753.65 3623.39 67.60 o
2532 2 2 5 -6 2338.82 2197.35 43.84 o
2533 2 2 5 -5 2237.57 2180.40 42.67 o
2534 2 2 5 -4 1596.56 1526.30 35.24 o
2535 2 2 5 -3 3624.99 3679.50 102.65 o
2536 2 2 5 -1 3636.44 3518.58 77.85 o
2537 2 2 5 0 478.89 502.40 16.70 o
2538 2 2 5 1 360.38 325.89 10.38 o
2539 2 2 5 2 7555.40 7536.56 105.72 o
2540 2 2 5 3 174.61 182.22 9.76 o
2541 2 2 5 4 1279.68 1204.40 37.57 o
2542 2 2 5 7 82.78 135.50 24.31 o
2543 2 2 5 8 244.60 246.87 21.67 o
2544 2 2 5 9 5.11 8.84 16.52 <
2545 2 2 5 10 36.47 44.02 23.88 <
2546 2 2 5 11 798.11 680.76 69.93 o
2547 2 2 6 -13 408.45 455.62 79.88 o
2548 2 2 6 -12 574.91 494.36 45.19 o
2549 2 2 6 -7 1264.26 1143.92 29.04 o
2550 2 2 6 -6 396.17 363.34 15.35 o
2551 2 2 6 -5 1042.73 1076.82 30.94 o
2552 2 2 6 -4 1032.19 1015.05 25.42 o
2553 2 2 6 -1 551.21 493.50 26.77 o
2554 2 2 6 0 2807.24 2722.53 52.25 o
2555 2 2 6 1 459.85 335.96 14.61 o
2556 2 2 6 2 464.74 340.93 11.48 o
2557 2 2 6 3 410.99 370.71 13.32 o
2558 2 2 6 4 403.81 365.06 17.25 o
2559 2 2 6 8 151.34 142.13 20.57 o
2560 2 2 6 9 1027.10 941.44 46.17 o
2561 2 2 6 10 191.82 169.57 26.40 o
2562 2 2 6 11 274.72 214.70 48.32 o
2563 2 2 7 -12 128.42 37.08 48.81 <
2564 2 2 7 -7 24.41 25.66 11.30 <
2565 2 2 7 -6 28.30 29.35 10.81 <
2566 2 2 7 -5 963.42 915.59 30.33 o
2567 2 2 7 -4 597.48 632.68 21.00 o
2568 2 2 7 0 14.45 1.78 8.72 <
2569 2 2 7 1 338.65 335.59 17.44 o
2570 2 2 7 2 82.55 118.43 11.42 o
2571 2 2 7 3 333.90 266.15 11.73 o
2572 2 2 7 4 1394.23 1491.24 38.74 o
2573 2 2 7 8 284.17 237.29 24.62 o
2574 2 2 7 9 286.03 243.56 27.01 o
2575 2 2 7 10 216.29 206.90 37.57 o
2576 2 2 8 -12 262.27 45.99 50.16 <
2577 2 2 8 -7 667.59 615.92 34.07 o
2578 2 2 8 -6 117.79 121.62 15.04 o
2579 2 2 8 -5 5310.56 5237.79 109.71 o
2580 2 2 8 -4 864.02 837.01 30.15 o
2581 2 2 8 0 599.49 620.28 26.89 o
2582 2 2 8 1 3902.39 3690.25 77.42 o
2583 2 2 8 2 1587.67 1582.29 42.24 o
2584 2 2 8 3 166.95 171.97 15.41 o
2585 2 2 8 4 3854.47 3619.27 143.79 o
2586 2 2 8 8 222.51 192.35 19.28 o
2587 2 2 8 9 130.40 80.98 31.68 <
2588 2 2 8 10 1029.69 1075.47 72.26 o
2589 2 2 9 -7 610.88 623.17 35.98 o
2590 2 2 9 -6 158.00 192.72 18.17 o
2591 2 2 9 -5 593.09 620.71 28.06 o
2592 2 2 9 -4 114.43 112.42 16.82 o
2593 2 2 9 0 49.08 45.62 13.26 o
2594 2 2 9 1 135.29 113.34 14.98 o
2595 2 2 9 2 336.08 272.66 20.38 o
2596 2 2 9 3 256.23 213.17 20.08 o
2597 2 2 9 8 87.13 74.35 30.94 <
2598 2 2 9 9 38.68 54.70 32.42 <
2599 2 2 10 -7 1032.65 1127.90 50.10 o
2600 2 2 10 -6 6.27 32.85 21.86 <
2601 2 2 10 -5 97.03 102.65 13.02 o
2602 2 2 10 -4 1545.89 1546.19 37.33 o
2603 2 2 10 0 542.93 630.16 32.79 o
2604 2 2 10 1 802.85 844.25 38.19 o
2605 2 2 10 2 209.51 217.34 21.73 o
2606 2 2 10 3 34.61 25.36 15.29 <
2607 2 2 10 8 56.98 25.54 30.45 <
2608 2 2 11 -7 578.41 575.58 35.24 o
2609 2 2 11 -6 272.90 272.54 20.01 o
2610 2 2 11 -5 756.21 753.88 31.31 o
2611 2 2 11 -4 72.93 57.53 16.88 o
2612 2 2 11 0 45.29 37.14 15.10 <
2613 2 2 11 1 142.40 147.41 21.18 o
2614 2 2 11 2 946.73 1033.41 45.62 o
2615 2 2 11 3 24.36 39.91 23.64 <
2616 2 2 12 -7 66.60 65.02 16.64 o
2617 2 2 12 -6 263.04 242.82 20.01 o
2618 2 2 12 -5 182.29 241.22 24.99 o
2619 2 2 12 -4 222.76 221.88 34.32 o
2620 2 2 12 0 1151.17 1153.75 46.54 o
2621 2 2 12 1 66.46 62.07 20.57 o
2622 2 2 12 2 33.34 51.45 25.85 <
2623 2 2 12 3 100.63 104.43 27.26 o
2624 2 2 13 -4 480.84 445.55 71.77 o
2625 2 2 13 1 240.57 271.37 37.33 o
2626 2 2 13 2 195.23 258.29 35.00 o
2627 2 3 0 -15 307.74 330.98 71.83 o
2628 2 3 0 -14 315.54 331.84 58.14 o
2629 2 3 0 -13 1314.58 1447.59 102.65 o
2630 2 3 0 -9 9232.93 9465.37 197.20 o
2631 2 3 0 -8 950.30 976.31 25.91 o
2632 2 3 0 -7 3636.54 3592.87 72.39 o
2633 2 3 0 -6 13360.40 13421.40 296.17 o
2634 2 3 0 -5 0.23 3.13 4.05 <
2635 2 3 0 -2 2928.48 3167.65 80.24 o
2636 2 3 0 -1 12963.60 13652.40 263.51 o
2637 2 3 0 0 30519.70 31361.50 564.66 o
2638 2 3 0 1 816.79 1013.09 31.68 o
2639 2 3 0 2 6952.04 6993.46 265.35 o
2640 2 3 0 3 11556.20 11425.70 232.20 o
2641 2 3 0 7 1798.48 1727.98 100.38 o
2642 2 3 0 8 5949.12 6686.17 229.07 o
2643 2 3 0 9 3356.93 3435.70 134.76 o
2644 2 3 0 10 479.15 485.45 64.47 o
2645 2 3 1 -14 9.12 -14.37 43.22 <
2646 2 3 -1 -14 20.71 40.40 43.71 <
2647 2 3 1 -13 799.35 1086.58 101.79 o
2648 2 3 1 -9 1317.83 1370.60 36.16 o
2649 2 3 -1 -9 1486.21 1527.03 56.67 o
2650 2 3 1 -8 1989.68 1985.17 39.91 o
2651 2 3 -1 -8 2189.94 2090.09 47.21 o
2652 2 3 1 -7 638.29 638.82 17.62 o
2653 2 3 -1 -7 574.74 571.66 28.18 o
2654 2 3 1 -6 2717.98 2804.80 50.96 o
2655 2 3 -1 -6 2661.13 2710.00 74.90 o
2656 2 3 1 -5 963.53 966.55 22.47 o
2657 2 3 -1 -5 1032.50 1032.24 34.81 o
2658 2 3 1 -2 1684.97 1917.88 38.13 o
2659 2 3 -1 -2 1605.85 1757.82 67.11 o
2660 2 3 1 -1 11052.60 10894.80 180.50 o
2661 2 3 -1 -1 10859.60 11236.10 245.28 o
2662 2 3 1 0 953.41 967.29 20.81 o
2663 2 3 1 1 781.43 678.11 19.95 o
2664 2 3 -1 1 731.42 719.00 33.52 o
2665 2 3 1 2 549.67 509.83 14.80 o
2666 2 3 -1 2 475.48 510.51 25.23 o
2667 2 3 1 3 1283.65 1188.99 26.34 o
2668 2 3 -1 3 1565.03 1426.41 31.99 o
2669 2 3 1 6 330.52 271.98 26.46 o
2670 2 3 1 7 262.31 280.09 34.26 o
2671 2 3 1 8 1033.80 1264.63 71.46 o
2672 2 3 1 9 153.22 199.84 35.55 o
2673 2 3 1 10 235.25 300.53 57.65 o
2674 2 3 -1 10 266.82 206.66 51.02 o
2675 2 3 2 -14 884.92 1120.96 104.07 o
2676 2 3 2 -13 597.67 803.36 92.34 o
2677 2 3 2 -9 609.63 604.07 23.15 o
2678 2 3 2 -8 1575.57 1579.53 31.93 o
2679 2 3 -2 -8 1666.24 1723.44 56.05 o
2680 2 3 2 -7 403.10 427.44 13.94 o
2681 2 3 -2 -7 428.62 457.46 21.00 o
2682 2 3 2 -6 5187.74 4978.51 76.68 o
2683 2 3 -2 -6 5577.84 5438.92 113.21 o
2684 2 3 2 -5 3140.55 3077.70 53.91 o
2685 2 3 -2 -5 3050.87 2894.62 77.48 o
2686 2 3 2 -4 924.46 838.85 28.79 o
2687 2 3 2 -2 5208.82 4979.80 130.40 o
2688 2 3 -2 -2 5028.19 5246.13 139.43 o
2689 2 3 2 -1 38.83 34.01 4.54 o
2690 2 3 -2 -1 10.89 8.60 4.48 <
2691 2 3 2 0 1450.31 1417.38 23.33 o
2692 2 3 -2 0 1810.81 1933.66 74.96 o
2693 2 3 2 1 4259.14 4235.87 68.33 o
2694 2 3 2 2 3179.33 3175.81 54.76 o
2695 2 3 -2 2 3318.50 3634.81 137.22 o
2696 2 3 2 3 4106.66 4320.04 83.31 o
2697 2 3 -2 3 4368.46 4565.32 160.43 o
2698 2 3 2 6 753.67 773.22 46.78 o
2699 2 3 2 7 1690.12 1779.25 80.55 o
2700 2 3 2 8 121.82 152.94 31.50 o
2701 2 3 2 9 23.31 34.26 29.78 <
2702 2 3 2 10 1254.58 1253.88 103.14 o
2703 2 3 3 -14 35.93 70.79 47.34 <
2704 2 3 3 -13 135.21 205.00 54.15 o
2705 2 3 3 -9 42.16 46.72 12.71 o
2706 2 3 3 -8 763.85 800.48 21.67 o
2707 2 3 -3 -8 705.77 834.61 36.71 o
2708 2 3 3 -7 554.46 573.74 16.70 o
2709 2 3 -3 -7 578.37 661.91 22.72 o
2710 2 3 3 -6 7.47 10.81 5.59 <
2711 2 3 -3 -6 25.00 44.08 7.80 o
2712 2 3 3 -5 98.01 87.30 5.65 o
2713 2 3 -3 -5 54.14 63.73 8.29 o
2714 2 3 3 -2 584.77 524.87 17.99 o
2715 2 3 -3 -2 367.46 321.84 14.86 o
2716 2 3 3 -1 1819.76 1950.17 32.05 o
2717 2 3 -3 -1 2043.22 2276.24 61.33 o
2718 2 3 3 0 1577.80 1565.34 23.76 o
2719 2 3 3 1 4689.35 4482.80 66.43 o
2720 2 3 3 2 2938.61 2927.84 50.34 o
2721 2 3 3 3 1784.66 1822.71 35.18 o
2722 2 3 3 6 4.56 7.49 14.73 <
2723 2 3 3 7 24.15 22.96 16.45 <
2724 2 3 3 8 23.27 18.85 24.68 <
2725 2 3 3 9 46.70 54.76 22.96 <
2726 2 3 3 10 905.35 872.31 63.11 o
2727 2 3 4 -14 538.46 689.04 87.43 o
2728 2 3 4 -13 114.35 222.99 57.47 o
2729 2 3 4 -9 217.50 192.17 14.31 o
2730 2 3 4 -8 725.52 752.28 19.89 o
2731 2 3 4 -7 150.77 140.90 9.09 o
2732 2 3 -4 -7 127.59 121.69 20.32 o
2733 2 3 4 -6 405.20 366.29 12.89 o
2734 2 3 -4 -6 387.81 381.57 31.80 o
2735 2 3 4 -5 2189.30 2228.54 32.60 o
2736 2 3 -4 -5 2308.68 2348.26 93.08 o
2737 2 3 4 -2 9232.02 9306.04 164.42 o
2738 2 3 4 -1 420.36 413.62 10.50 o
2739 2 3 -4 -1 432.78 471.95 29.35 o
2740 2 3 4 0 1624.79 1667.94 25.11 o
2741 2 3 4 1 3783.54 3758.03 53.91 o
2742 2 3 4 2 5.05 9.03 5.16 <
2743 2 3 4 3 500.23 452.06 15.23 o
2744 2 3 4 6 114.37 115.92 20.69 o
2745 2 3 4 7 2429.31 2429.30 66.31 o
2746 2 3 4 8 394.51 391.70 33.52 o
2747 2 3 4 9 315.45 329.82 33.71 o
2748 2 3 4 10 1589.89 1543.24 80.06 o
2749 2 3 5 -14 98.16 133.17 56.48 <
2750 2 3 5 -13 395.17 364.14 41.32 o
2751 2 3 5 -9 816.35 795.99 58.94 o
2752 2 3 5 -8 3210.89 2908.13 57.59 o
2753 2 3 5 -7 650.45 646.50 17.62 o
2754 2 3 5 -6 878.05 878.20 23.02 o
2755 2 3 -5 -6 919.85 923.33 50.10 o
2756 2 3 5 -5 1489.56 1391.23 29.96 o
2757 2 3 -5 -5 1324.75 1210.91 57.71 o
2758 2 3 5 -2 2514.82 2623.68 59.92 o
2759 2 3 5 -1 5291.94 5319.32 73.31 o
2760 2 3 -5 -1 5413.75 6094.75 217.89 o
2761 2 3 5 0 63.65 54.34 6.32 o
2762 2 3 5 1 3356.10 3279.76 49.67 o
2763 2 3 5 2 1139.37 1128.21 22.29 o
2764 2 3 5 3 177.77 135.01 8.90 o
2765 2 3 5 6 701.25 657.55 45.86 o
2766 2 3 5 7 10.57 22.04 15.41 <
2767 2 3 5 8 666.14 631.52 33.77 o
2768 2 3 5 9 494.81 536.29 41.75 o
2769 2 3 5 10 304.66 299.67 39.35 o
2770 2 3 6 -13 543.71 631.45 86.51 o
2771 2 3 6 -9 2080.70 1983.20 103.21 o
2772 2 3 6 -8 7.53 4.42 8.53 <
2773 2 3 6 -7 611.83 604.26 20.69 o
2774 2 3 6 -6 1373.25 1441.63 38.19 o
2775 2 3 6 -5 118.61 98.60 10.62 o
2776 2 3 6 -1 2123.81 2291.53 56.55 o
2777 2 3 -6 -1 2340.88 2904.69 116.96 o
2778 2 3 6 0 4703.79 4540.58 70.24 o
2779 2 3 6 1 374.47 376.60 12.46 o
2780 2 3 6 2 842.99 814.41 19.16 o
2781 2 3 6 3 1795.14 1758.13 37.08 o
2782 2 3 6 7 1151.23 1066.32 43.71 o
2783 2 3 6 8 1960.35 1853.90 60.11 o
2784 2 3 6 9 1112.31 1091.92 50.28 o
2785 2 3 6 10 586.01 555.14 49.55 o
2786 2 3 7 -13 263.06 278.92 70.05 o
2787 2 3 7 -8 549.61 599.71 28.00 o
2788 2 3 7 -7 328.47 272.96 17.99 o
2789 2 3 7 -6 819.79 770.33 28.30 o
2790 2 3 7 -5 247.85 237.42 15.10 o
2791 2 3 7 -1 1094.41 1019.66 33.58 o
2792 2 3 7 0 1051.67 1045.32 31.74 o
2793 2 3 7 1 275.91 315.45 17.93 o
2794 2 3 7 2 239.61 157.42 9.64 o
2795 2 3 7 3 1162.89 1155.47 33.71 o
2796 2 3 7 7 82.53 65.69 18.36 o
2797 2 3 7 8 129.29 107.32 21.30 o
2798 2 3 7 9 99.64 110.64 23.39 o
2799 2 3 7 10 239.57 222.68 38.50 o
2800 2 3 8 -9 4.96 31.43 27.81 <
2801 2 3 8 -8 29.56 34.44 13.75 <
2802 2 3 8 -7 332.18 347.87 18.66 o
2803 2 3 8 -6 1039.60 1012.97 29.84 o
2804 2 3 8 -5 330.87 323.62 16.95 o
2805 2 3 8 -1 134.03 120.40 14.86 o
2806 2 3 8 0 55.17 84.36 12.95 o
2807 2 3 8 1 154.94 150.54 14.98 o
2808 2 3 8 2 283.49 296.79 19.22 o
2809 2 3 8 3 323.09 388.82 24.25 o
2810 2 3 8 7 647.52 614.20 29.47 o
2811 2 3 8 8 31.78 28.61 27.08 <
2812 2 3 8 9 6.26 9.03 28.30 <
2813 2 3 9 -8 852.80 778.43 34.38 o
2814 2 3 9 -7 97.18 92.22 13.88 o
2815 2 3 9 -6 319.89 293.65 17.74 o
2816 2 3 9 -5 124.71 116.71 14.55 o
2817 2 3 9 -1 458.61 507.31 26.95 o
2818 2 3 9 0 346.81 290.83 20.20 o
2819 2 3 9 1 671.63 608.43 27.32 o
2820 2 3 9 2 15.36 24.68 13.08 <
2821 2 3 9 3 738.84 747.25 48.87 o
2822 2 3 9 7 55.40 53.35 28.12 <
2823 2 3 9 8 198.88 160.12 34.69 o
2824 2 3 10 -8 76.92 69.56 17.38 o
2825 2 3 10 -7 295.11 312.63 22.72 o
2826 2 3 10 -6 310.28 286.78 21.12 o
2827 2 3 10 -5 320.54 288.56 20.20 o
2828 2 3 10 -1 1077.68 1043.79 40.40 o
2829 2 3 10 0 2354.00 2361.77 60.17 o
2830 2 3 10 1 1316.39 1320.25 43.16 o
2831 2 3 10 2 378.24 371.75 26.52 o
2832 2 3 10 7 676.12 623.66 54.21 o
2833 2 3 11 -8 656.60 649.87 38.00 o
2834 2 3 11 -7 111.98 156.31 22.72 o
2835 2 3 11 -6 216.80 210.40 18.54 o
2836 2 3 11 -5 288.64 288.01 20.20 o
2837 2 3 11 -1 601.29 661.97 34.81 o
2838 2 3 11 0 134.29 117.82 20.44 o
2839 2 3 11 1 949.13 957.28 45.13 o
2840 2 3 11 2 34.77 29.72 18.17 <
2841 2 3 12 -7 79.25 98.72 17.19 o
2842 2 3 12 -6 336.79 354.38 23.21 o
2843 2 3 12 -5 245.87 278.00 59.86 o
2844 2 3 12 -1 3.10 19.28 28.06 <
2845 2 3 12 0 10.90 23.64 19.89 <
2846 2 3 12 1 231.49 278.55 27.69 o
2847 2 3 12 2 136.43 128.75 31.80 o
2848 2 3 13 -1 34.65 20.87 29.29 <
2849 2 3 13 0 81.43 117.27 24.93 o
2850 2 3 13 1 264.79 379.67 42.49 o
2851 2 4 0 -15 646.71 775.30 87.37 o
2852 2 4 0 -14 96.94 84.30 45.00 <
2853 2 4 0 -10 14.69 7.98 19.52 <
2854 2 4 0 -9 658.50 632.13 25.60 o
2855 2 4 0 -8 61.36 70.97 8.53 o
2856 2 4 0 -7 1915.05 1815.84 46.42 o
2857 2 4 0 -6 2654.62 2463.01 70.18 o
2858 2 4 0 -2 156.30 111.07 7.31 o
2859 2 4 0 -1 199.68 211.88 10.01 o
2860 2 4 0 0 644.46 573.74 18.05 o
2861 2 4 0 1 115.13 118.56 10.62 o
2862 2 4 0 2 1494.87 1474.97 47.03 o
2863 2 4 0 5 846.47 780.40 42.55 o
2864 2 4 0 6 961.66 993.32 68.46 o
2865 2 4 0 7 545.38 761.24 64.04 o
2866 2 4 0 8 2.29 6.69 25.60 <
2867 2 4 0 9 47.48 -9.95 38.37 <
2868 2 4 1 -15 233.92 285.49 59.62 o
2869 2 4 -1 -15 221.88 243.31 61.46 o
2870 2 4 1 -14 29.35 46.91 43.59 <
2871 2 4 -1 -14 46.72 17.93 37.14 <
2872 2 4 1 -10 1343.63 1292.69 72.02 o
2873 2 4 1 -9 687.96 685.73 23.39 o
2874 2 4 -1 -9 775.20 740.31 34.38 o
2875 2 4 1 -8 1985.25 2032.32 54.27 o
2876 2 4 -1 -8 1956.29 1937.40 44.88 o
2877 2 4 1 -7 1918.19 2102.06 62.99 o
2878 2 4 -1 -7 1805.79 1815.96 41.32 o
2879 2 4 1 -6 1638.94 1587.69 42.61 o
2880 2 4 -1 -6 1482.29 1278.32 42.30 o
2881 2 4 1 -2 57.76 58.76 6.26 o
2882 2 4 -1 -2 53.52 43.84 5.53 o
2883 2 4 1 -1 5402.27 5548.45 95.35 o
2884 2 4 -1 -1 5718.07 6089.34 113.89 o
2885 2 4 1 0 714.97 711.08 18.54 o
2886 2 4 1 1 4117.93 4054.57 91.66 o
2887 2 4 -1 1 4110.13 4428.90 172.15 o
2888 2 4 1 2 2396.22 2468.90 50.71 o
2889 2 4 -1 2 2405.65 2651.31 105.97 o
2890 2 4 1 5 169.39 86.08 15.72 o
2891 2 4 1 6 772.97 836.82 55.19 o
2892 2 4 1 7 119.25 115.24 31.00 o
2893 2 4 1 8 399.63 540.16 52.80 o
2894 2 4 -1 8 377.34 390.66 51.88 o
2895 2 4 1 9 148.25 150.54 38.07 o
2896 2 4 -1 9 135.59 85.95 33.83 <
2897 2 4 2 -15 2.77 21.49 43.28 <
2898 2 4 2 -14 520.14 597.93 73.67 o
2899 2 4 2 -10 485.70 443.83 43.78 o
2900 2 4 2 -9 1145.84 1173.09 26.09 o
2901 2 4 2 -8 234.29 237.23 11.30 o
2902 2 4 -2 -8 183.50 217.16 20.26 o
2903 2 4 2 -7 2483.94 2462.03 46.91 o
2904 2 4 -2 -7 2658.25 2662.91 62.99 o
2905 2 4 2 -6 776.74 723.73 21.30 o
2906 2 4 -2 -6 873.04 843.88 33.77 o
2907 2 4 2 -2 3082.96 3147.88 56.55 o
2908 2 4 -2 -2 2879.70 3196.26 70.24 o
2909 2 4 2 -1 37.89 33.52 5.40 o
2910 2 4 -2 -1 23.86 27.26 7.06 o
2911 2 4 2 0 2542.86 2649.47 45.43 o
2912 2 4 -2 0 2519.02 836.64 41.07 o
2913 2 4 2 1 2828.88 2759.55 47.40 o
2914 2 4 -2 1 2779.40 3101.22 122.48 o
2915 2 4 2 2 246.80 239.69 10.31 o
2916 2 4 -2 2 167.40 192.97 16.09 o
2917 2 4 2 5 153.15 102.71 16.45 o
2918 2 4 2 6 946.45 1026.96 60.35 o
2919 2 4 2 7 497.25 472.99 43.65 o
2920 2 4 2 8 1082.58 1219.62 73.55 o
2921 2 4 3 -14 642.28 759.96 86.26 o
2922 2 4 3 -10 1793.29 1793.74 60.84 o
2923 2 4 3 -9 469.29 422.34 16.09 o
2924 2 4 3 -8 6172.49 6030.83 88.96 o
2925 2 4 -3 -8 6052.64 6235.71 163.50 o
2926 2 4 3 -7 2424.40 2320.26 38.43 o
2927 2 4 -3 -7 2485.56 2566.71 75.70 o
2928 2 4 3 -6 94.56 89.02 6.88 o
2929 2 4 -3 -6 69.87 52.31 15.41 o
2930 2 4 3 -2 5072.94 4966.85 80.98 o
2931 2 4 -3 -2 4844.27 4969.85 126.23 o
2932 2 4 3 -1 5426.52 5665.47 88.29 o
2933 2 4 -3 -1 5480.85 5977.54 209.67 o
2934 2 4 3 0 4928.01 4902.32 67.04 o
2935 2 4 3 1 8942.31 8695.28 125.49 o
2936 2 4 3 2 5616.73 5451.75 92.22 o
2937 2 4 -3 2 5454.21 6443.72 242.76 o
2938 2 4 3 5 659.45 624.27 40.89 o
2939 2 4 3 6 589.47 562.02 35.43 o
2940 2 4 3 7 267.64 275.79 38.25 o
2941 2 4 3 8 524.61 580.43 55.32 o
2942 2 4 4 -14 766.81 1006.70 101.24 o
2943 2 4 4 -10 276.82 234.59 23.21 o
2944 2 4 4 -9 1002.96 927.93 22.59 o
2945 2 4 4 -8 525.62 493.80 15.96 o
2946 2 4 4 -7 652.12 632.44 16.70 o
2947 2 4 -4 -7 630.12 661.48 45.86 o
2948 2 4 4 -6 171.94 142.62 8.23 o
2949 2 4 -4 -6 129.92 125.37 20.63 o
2950 2 4 4 -2 1200.67 1251.24 24.07 o
2951 2 4 -4 -2 1200.55 1312.02 60.47 o
2952 2 4 4 -1 949.90 908.59 17.87 o
2953 2 4 4 0 623.60 641.77 13.69 o
2954 2 4 4 1 38.67 52.49 6.26 o
2955 2 4 4 2 279.58 280.27 11.30 o
2956 2 4 4 5 21.85 29.22 16.45 <
2957 2 4 4 6 119.70 102.78 20.32 o
2958 2 4 4 7 328.00 253.44 36.71 o
2959 2 4 4 8 842.66 896.32 53.72 o
2960 2 4 4 9 13.09 1.72 24.99 <
2961 2 4 5 -14 391.87 462.68 72.63 o
2962 2 4 5 -10 1854.08 1931.63 69.81 o
2963 2 4 5 -9 742.81 667.68 20.44 o
2964 2 4 5 -8 116.78 80.24 8.29 o
2965 2 4 5 -7 2654.95 2613.49 42.30 o
2966 2 4 5 -6 3825.14 3659.67 58.88 o
2967 2 4 -5 -6 3868.31 4074.46 157.17 o
2968 2 4 5 -2 1889.61 1732.52 29.84 o
2969 2 4 -5 -2 1720.58 1700.97 74.53 o
2970 2 4 5 -1 6276.88 6219.87 86.14 o
2971 2 4 5 0 2038.21 1980.87 35.49 o
2972 2 4 5 1 573.40 529.84 15.29 o
2973 2 4 5 2 3292.06 3304.13 54.52 o
2974 2 4 5 5 530.80 535.92 41.56 o
2975 2 4 5 6 3752.58 3646.23 91.11 o
2976 2 4 5 7 215.78 161.53 21.06 o
2977 2 4 5 8 940.99 926.52 55.19 o
2978 2 4 5 9 497.10 456.60 44.14 o
2979 2 4 6 -10 427.08 421.48 32.85 o
2980 2 4 6 -9 235.66 237.97 13.88 o
2981 2 4 6 -8 242.79 223.11 12.77 o
2982 2 4 6 -7 1488.70 1337.32 33.46 o
2983 2 4 6 -6 676.12 625.25 20.94 o
2984 2 4 6 -2 144.10 168.41 8.60 o
2985 2 4 -6 -2 200.96 236.99 26.95 o
2986 2 4 6 -1 1135.96 1151.66 21.92 o
2987 2 4 6 0 104.48 105.23 8.90 o
2988 2 4 6 1 201.73 180.93 9.95 o
2989 2 4 6 2 519.34 476.80 15.96 o
2990 2 4 6 5 367.35 361.56 33.34 o
2991 2 4 6 6 514.65 478.83 30.39 o
2992 2 4 6 7 113.44 129.12 22.66 o
2993 2 4 6 8 194.21 192.78 24.93 o
2994 2 4 6 9 5.53 10.44 26.15 <
2995 2 4 7 -10 575.91 554.65 53.11 o
2996 2 4 7 -9 507.22 507.01 23.39 o
2997 2 4 7 -8 4700.09 4315.75 82.27 o
2998 2 4 7 -7 483.73 458.26 20.69 o
2999 2 4 7 -6 169.12 125.06 13.38 o
3000 2 4 7 -2 1882.43 1939.18 43.10 o
3001 2 4 7 -1 1382.50 1262.85 35.61 o
3002 2 4 7 0 1848.58 1847.58 34.69 o
3003 2 4 7 1 5828.01 5548.26 86.75 o
3004 2 4 7 2 1016.66 982.27 31.07 o
3005 2 4 7 6 432.50 408.16 28.12 o
3006 2 4 7 7 377.67 298.69 26.46 o
3007 2 4 7 8 44.78 31.86 19.77 <
3008 2 4 7 9 1255.48 1247.87 75.15 o
3009 2 4 8 -9 171.52 189.53 19.28 o
3010 2 4 8 -8 245.09 246.50 17.50 o
3011 2 4 8 -7 2519.62 2468.17 53.48 o
3012 2 4 8 -6 145.88 170.37 14.49 o
3013 2 4 8 -2 1229.79 1221.77 40.03 o
3014 2 4 8 -1 19.07 38.37 12.52 o
3015 2 4 8 0 366.84 398.70 22.47 o
3016 2 4 8 1 2399.90 2265.62 55.75 o
3017 2 4 8 2 648.10 613.47 37.94 o
3018 2 4 8 6 441.73 432.96 31.07 o
3019 2 4 8 7 462.21 432.72 43.47 o
3020 2 4 8 8 217.95 219.30 35.98 o
3021 2 4 9 -9 80.65 62.62 16.39 o
3022 2 4 9 -8 1339.62 1307.85 38.62 o
3023 2 4 9 -7 348.62 331.84 19.95 o
3024 2 4 9 -6 92.34 68.27 16.58 o
3025 2 4 9 -2 516.84 483.12 27.57 o
3026 2 4 9 -1 720.23 757.81 31.56 o
3027 2 4 9 0 282.45 273.27 20.69 o
3028 2 4 9 1 2019.56 2016.54 53.54 o
3029 2 4 9 6 152.27 147.47 22.90 o
3030 2 4 9 7 140.47 128.07 32.36 o
3031 2 4 10 -9 142.44 108.79 19.65 o
3032 2 4 10 -8 490.79 463.72 27.69 o
3033 2 4 10 -7 158.52 192.60 19.34 o
3034 2 4 10 -6 164.69 138.02 17.13 o
3035 2 4 10 -2 641.26 675.11 34.69 o
3036 2 4 10 -1 266.23 245.09 21.98 o
3037 2 4 10 0 38.77 60.29 16.70 o
3038 2 4 10 1 274.21 311.09 23.76 o
3039 2 4 10 6 217.57 175.90 34.81 o
3040 2 4 11 -9 114.95 118.62 22.90 o
3041 2 4 11 -8 4.31 5.53 17.93 <
3042 2 4 11 -7 887.06 1015.12 45.80 o
3043 2 4 11 -6 987.37 1030.34 45.49 o
3044 2 4 11 -2 279.09 275.91 23.39 o
3045 2 4 11 -1 1491.08 1660.38 51.94 o
3046 2 4 11 0 151.04 163.19 21.00 o
3047 2 4 11 1 26.97 21.67 26.77 <
3048 2 4 12 -7 284.76 272.96 21.37 o
3049 2 4 12 -6 47.45 38.50 16.45 <
3050 2 4 12 -2 25.51 67.35 26.34 <
3051 2 4 12 -1 273.80 363.46 31.07 o
3052 2 4 12 0 142.53 117.88 24.19 o
3053 2 4 12 1 80.37 129.24 31.62 o
3054 2 4 13 -1 559.53 551.64 38.62 o
3055 2 5 0 -15 199.29 176.27 53.97 o
3056 2 5 0 -10 1504.35 1517.45 80.67 o
3057 2 5 0 -8 105.77 100.44 13.38 o
3058 2 5 0 -7 7114.12 6650.68 170.07 o
3059 2 5 0 -3 121.51 100.07 8.72 o
3060 2 5 0 -2 365.59 404.72 20.51 o
3061 2 5 0 -1 1228.50 1257.01 34.01 o
3062 2 5 0 0 497.99 619.91 20.69 o
3063 2 5 0 1 1678.03 1795.09 56.12 o
3064 2 5 0 4 158.52 190.94 15.10 o
3065 2 5 0 5 2742.46 2504.94 117.51 o
3066 2 5 0 6 1.64 -13.14 21.67 <
3067 2 5 0 7 80.69 114.93 34.32 o
3068 2 5 0 8 300.95 315.27 49.79 o
3069 2 5 1 -15 873.34 985.52 95.96 o
3070 2 5 -1 -15 943.15 1035.19 100.81 o
3071 2 5 1 -10 360.22 332.95 27.32 o
3072 2 5 1 -9 850.99 832.34 27.69 o
3073 2 5 -1 -9 808.45 752.53 53.17 o
3074 2 5 1 -8 203.57 232.38 15.16 o
3075 2 5 -1 -8 243.96 244.05 17.99 o
3076 2 5 1 -7 1770.93 1622.32 52.92 o
3077 2 5 1 -3 3796.80 3860.62 69.13 o
3078 2 5 -1 -3 3897.96 3881.00 85.59 o
3079 2 5 1 -2 1708.99 1740.38 35.00 o
3080 2 5 -1 -2 1529.47 1555.34 38.00 o
3081 2 5 1 -1 2264.72 2331.99 45.06 o
3082 2 5 -1 -1 2316.90 2255.80 63.11 o
3083 2 5 1 0 619.07 694.88 17.87 o
3084 2 5 -1 0 602.53 657.55 28.30 o
3085 2 5 1 1 689.22 740.06 29.90 o
3086 2 5 -1 1 673.36 754.06 41.81 o
3087 2 5 1 4 287.17 230.85 17.44 o
3088 2 5 1 5 1421.38 1455.63 71.83 o
3089 2 5 1 6 556.27 612.97 49.98 o
3090 2 5 1 7 227.79 197.76 35.55 o
3091 2 5 -1 7 215.82 211.69 41.20 o
3092 2 5 1 8 347.01 468.57 58.33 o
3093 2 5 -1 8 341.85 399.13 53.48 o
3094 2 5 2 -15 77.75 79.08 42.79 <
3095 2 5 2 -11 2346.33 2244.50 104.80 o
3096 2 5 2 -10 298.28 284.08 20.01 o
3097 2 5 2 -9 796.45 786.35 27.01 o
3098 2 5 2 -8 1473.95 1540.29 38.56 o
3099 2 5 2 -7 1954.75 1872.81 50.10 o
3100 2 5 2 -3 1508.62 1582.66 32.91 o
3101 2 5 -2 -3 1431.98 1438.56 44.63 o
3102 2 5 2 -2 14051.00 14085.60 234.90 o
3103 2 5 -2 -2 14024.00 15495.80 404.78 o
3104 2 5 2 -1 955.04 953.66 23.39 o
3105 2 5 2 0 207.55 268.91 11.54 o
3106 2 5 -2 0 257.94 82.02 14.73 o
3107 2 5 2 1 2638.70 2683.36 65.88 o
3108 2 5 -2 1 2580.44 2820.09 115.30 o
3109 2 5 2 4 3202.58 3188.28 93.01 o
3110 2 5 2 5 3246.06 3361.10 129.36 o
3111 2 5 2 6 396.89 379.67 43.22 o
3112 2 5 2 7 2834.05 3164.33 130.28 o
3113 2 5 2 8 508.02 561.28 65.20 o
3114 2 5 3 -15 140.82 229.50 54.52 o
3115 2 5 3 -10 1612.61 1627.23 40.52 o
3116 2 5 3 -9 1197.41 1169.16 26.52 o
3117 2 5 3 -8 574.30 537.21 18.66 o
3118 2 5 -3 -8 622.14 618.44 46.48 o
3119 2 5 3 -7 1230.82 1162.47 36.04 o
3120 2 5 -3 -7 1314.03 1364.58 69.93 o
3121 2 5 3 -3 15.62 11.60 7.37 <
3122 2 5 -3 -3 16.45 18.42 14.61 <
3123 2 5 3 -2 446.98 468.57 15.84 o
3124 2 5 -3 -2 507.63 550.97 26.95 o
3125 2 5 3 -1 7128.88 6796.99 105.97 o
3126 2 5 -3 -1 7204.89 7518.76 263.88 o
3127 2 5 3 0 2575.09 2508.87 41.07 o
3128 2 5 3 1 1204.12 1231.47 24.50 o
3129 2 5 3 4 3322.32 3231.13 80.31 o
3130 2 5 3 5 783.99 689.72 36.41 o
3131 2 5 3 6 69.03 66.18 28.98 <
3132 2 5 3 7 1667.00 1789.01 92.22 o
3133 2 5 3 8 856.33 881.64 78.03 o
3134 2 5 4 -10 756.14 689.84 23.15 o
3135 2 5 4 -9 148.13 143.18 10.62 o
3136 2 5 4 -8 634.52 642.81 18.66 o
3137 2 5 4 -7 4448.20 4316.36 64.04 o
3138 2 5 -4 -7 4218.91 3633.58 142.81 o
3139 2 5 4 -3 682.84 703.96 19.52 o
3140 2 5 4 -2 612.41 601.37 17.13 o
3141 2 5 -4 -2 518.15 524.81 27.26 o
3142 2 5 4 -1 3069.99 3035.77 53.66 o
3143 2 5 -4 -1 3133.94 3417.77 132.18 o
3144 2 5 4 0 526.80 562.88 14.18 o
3145 2 5 4 1 165.81 139.00 8.78 o
3146 2 5 4 4 113.39 138.75 15.59 o
3147 2 5 4 5 3140.07 2640.57 82.02 o
3148 2 5 4 6 42.52 32.72 25.97 <
3149 2 5 4 7 274.18 284.75 44.94 o
3150 2 5 4 8 523.13 438.61 42.12 o
3151 2 5 4 10 46.56 64.90 72.88 <
3152 2 5 5 -10 360.36 385.50 16.64 o
3153 2 5 5 -9 230.68 238.65 12.65 o
3154 2 5 5 -8 249.02 222.62 11.91 o
3155 2 5 5 -7 2023.53 2086.35 39.11 o
3156 2 5 5 -3 656.70 625.07 18.91 o
3157 2 5 5 -2 358.58 378.81 12.89 o
3158 2 5 -5 -2 398.98 480.11 40.46 o
3159 2 5 5 -1 1550.14 1598.93 28.55 o
3160 2 5 5 0 1551.30 1507.51 30.70 o
3161 2 5 5 1 169.83 179.71 10.13 o
3162 2 5 5 4 238.45 256.94 25.54 o
3163 2 5 5 5 1267.89 1205.63 45.43 o
3164 2 5 5 6 67.53 77.17 19.89 o
3165 2 5 5 7 53.69 45.99 25.54 <
3166 2 5 5 8 123.95 125.74 29.47 o
3167 2 5 6 -10 725.49 681.92 24.25 o
3168 2 5 6 -9 340.57 343.39 16.95 o
3169 2 5 6 -8 30.71 18.42 7.37 <
3170 2 5 6 -7 4822.14 4737.53 76.07 o
3171 2 5 6 -3 67.52 85.40 7.80 o
3172 2 5 -6 -3 99.93 125.49 22.66 o
3173 2 5 6 -2 313.60 284.02 11.30 o
3174 2 5 6 -1 1030.68 1071.97 22.29 o
3175 2 5 6 0 56.04 76.25 9.39 o
3176 2 5 6 1 595.51 540.34 19.28 o
3177 2 5 6 4 27.46 33.28 17.38 <
3178 2 5 6 5 2065.34 1911.00 60.17 o
3179 2 5 6 6 32.18 11.97 19.22 <
3180 2 5 6 7 364.70 311.89 29.90 o
3181 2 5 6 8 331.29 424.55 58.63 o
3182 2 5 7 -10 42.21 51.76 13.45 o
3183 2 5 7 -9 81.61 69.81 13.02 o
3184 2 5 7 -8 121.03 106.95 13.26 o
3185 2 5 7 -7 8.44 -8.35 10.62 <
3186 2 5 7 -3 801.33 801.77 26.03 o
3187 2 5 7 -2 820.36 731.47 17.99 o
3188 2 5 7 -1 258.69 248.04 13.02 o
3189 2 5 7 0 106.39 135.19 11.48 o
3190 2 5 7 1 51.16 43.10 17.19 <
3191 2 5 7 5 85.10 73.06 19.22 o
3192 2 5 7 6 582.99 509.21 33.34 o
3193 2 5 7 7 46.89 46.29 20.32 <
3194 2 5 7 8 8.74 -7.00 34.93 <
3195 2 5 8 -10 225.46 284.20 22.84 o
3196 2 5 8 -9 432.30 426.45 22.29 o
3197 2 5 8 -8 889.50 870.96 30.15 o
3198 2 5 8 -7 49.21 49.06 13.57 o
3199 2 5 8 -3 102.23 127.21 17.74 o
3200 2 5 8 -2 5652.56 5455.86 110.82 o
3201 2 5 8 -1 122.67 107.32 15.41 o
3202 2 5 8 0 134.03 119.17 16.27 o
3203 2 5 8 1 2444.07 2517.90 106.09 o
3204 2 5 8 5 1115.01 1053.79 64.47 o
3205 2 5 8 6 321.07 294.82 28.12 o
3206 2 5 8 7 1740.45 1721.47 86.20 o
3207 2 5 9 -10 14.18 15.84 15.90 <
3208 2 5 9 -9 287.84 326.44 24.25 o
3209 2 5 9 -8 169.74 193.89 17.25 o
3210 2 5 9 -7 159.63 170.19 20.20 o
3211 2 5 9 -3 227.48 202.36 20.63 o
3212 2 5 9 -2 454.42 466.85 25.54 o
3213 2 5 9 -1 112.74 107.07 16.88 o
3214 2 5 9 0 465.56 494.54 33.22 o
3215 2 5 9 1 267.43 247.79 31.19 o
3216 2 5 9 5 104.58 91.48 22.04 o
3217 2 5 9 6 134.41 115.49 32.60 o
3218 2 5 10 -10 537.03 520.02 31.13 o
3219 2 5 10 -9 46.94 54.70 17.44 o
3220 2 5 10 -8 312.89 334.73 23.94 o
3221 2 5 10 -7 2096.98 2041.16 92.83 o
3222 2 5 10 -3 3.00 -0.74 15.53 <
3223 2 5 10 -2 48.27 76.68 17.80 o
3224 2 5 10 -1 616.71 645.45 32.42 o
3225 2 5 10 0 51.38 62.19 22.35 <
3226 2 5 10 5 869.23 781.57 91.36 o
3227 2 5 11 -9 83.69 39.29 21.55 <
3228 2 5 11 -8 115.51 104.13 23.51 o
3229 2 5 11 -7 279.42 288.38 34.01 o
3230 2 5 11 -3 59.47 50.96 18.60 <
3231 2 5 11 -2 77.89 66.98 19.65 o
3232 2 5 11 -1 65.24 43.78 23.39 <
3233 2 5 11 0 386.65 354.44 33.83 o
3234 2 5 12 -2 379.11 401.59 29.29 o
3235 2 5 12 -1 267.42 296.60 34.26 o
3236 2 5 12 0 23.36 40.95 28.00 <
3237 2 6 0 -10 47.44 74.90 23.33 o
3238 2 6 0 -9 4628.11 4267.18 168.71 o
3239 2 6 0 -8 907.09 884.90 40.64 o
3240 2 6 0 -4 11080.00 10997.80 187.01 o
3241 2 6 0 -3 3287.77 3346.19 90.99 o
3242 2 6 0 -2 1488.48 1464.90 40.46 o
3243 2 6 0 -1 5645.62 5940.03 128.38 o
3244 2 6 0 0 2467.20 2554.12 62.19 o
3245 2 6 0 3 815.17 779.48 33.09 o
3246 2 6 0 4 745.04 730.98 34.32 o
3247 2 6 0 5 5171.66 5483.06 237.66 o
3248 2 6 0 6 2.92 8.23 26.65 <
3249 2 6 0 7 321.37 267.26 41.99 o
3250 2 6 1 -11 429.85 406.26 31.50 o
3251 2 6 1 -10 4755.99 4418.58 132.00 o
3252 2 6 1 -9 386.33 382.13 22.96 o
3253 2 6 -1 -9 351.65 290.22 34.44 o
3254 2 6 1 -8 193.20 171.23 18.42 o
3255 2 6 -1 -8 178.52 172.58 28.79 o
3256 2 6 1 -4 3313.17 3234.32 54.76 o
3257 2 6 -1 -4 3093.82 3101.71 86.38 o
3258 2 6 1 -3 3580.66 3791.73 69.50 o
3259 2 6 -1 -3 3467.68 3726.35 83.50 o
3260 2 6 1 -2 147.56 120.76 9.27 o
3261 2 6 -1 -2 119.05 133.35 15.59 o
3262 2 6 1 -1 12867.90 12531.30 241.65 o
3263 2 6 -1 -1 13107.30 13210.90 271.98 o
3264 2 6 1 0 412.29 386.67 16.33 o
3265 2 6 -1 0 389.09 381.51 20.44 o
3266 2 6 1 3 90.51 126.17 12.59 o
3267 2 6 -1 3 145.41 190.26 21.43 o
3268 2 6 1 4 174.49 185.23 21.73 o
3269 2 6 -1 4 167.43 153.55 25.36 o
3270 2 6 1 5 1532.26 1529.73 75.33 o
3271 2 6 -1 5 1524.02 1665.42 91.17 o
3272 2 6 1 6 483.76 521.80 52.00 o
3273 2 6 -1 6 445.16 449.54 48.69 o
3274 2 6 1 7 462.24 477.04 52.86 o
3275 2 6 -1 7 476.06 526.04 60.90 o
3276 2 6 2 -11 938.99 968.39 38.13 o
3277 2 6 2 -10 233.02 248.10 24.31 o
3278 2 6 2 -9 755.80 784.02 27.75 o
3279 2 6 2 -8 331.46 346.03 25.85 o
3280 2 6 -2 -8 330.28 288.62 32.36 o
3281 2 6 2 -4 298.85 321.35 17.19 o
3282 2 6 2 -3 3270.71 3367.61 63.18 o
3283 2 6 2 -2 1048.87 1014.75 25.54 o
3284 2 6 2 -1 31.59 36.71 7.80 o
3285 2 6 -2 -1 42.51 57.04 10.25 o
3286 2 6 2 0 216.57 242.45 12.40 o
3287 2 6 2 3 2240.66 2164.26 53.11 o
3288 2 6 2 4 13.07 29.78 15.66 <
3289 2 6 2 5 1.63 32.66 25.11 <
3290 2 6 2 6 1513.88 1452.93 79.32 o
3291 2 6 2 7 192.73 210.10 39.97 o
3292 2 6 -2 7 202.43 238.65 41.93 o
3293 2 6 3 -15 610.57 799.19 84.36 o
3294 2 6 3 -11 1213.01 1158.47 38.56 o
3295 2 6 3 -10 492.99 545.07 24.13 o
3296 2 6 3 -9 535.54 578.72 21.18 o
3297 2 6 3 -8 1686.07 1606.11 58.82 o
3298 2 6 3 -4 409.60 459.48 20.32 o
3299 2 6 -3 -4 492.21 468.39 38.62 o
3300 2 6 3 -3 4251.53 4219.85 82.21 o
3301 2 6 3 -2 1179.51 1225.40 29.47 o
3302 2 6 -3 -2 1217.22 1364.76 68.21 o
3303 2 6 3 -1 1039.96 1040.96 23.82 o
3304 2 6 -3 -1 1069.34 1108.13 59.92 o
3305 2 6 3 0 1291.46 1369.98 27.63 o
3306 2 6 3 3 153.45 168.16 12.16 o
3307 2 6 3 4 1263.23 1236.32 52.06 o
3308 2 6 3 5 252.20 221.82 34.57 o
3309 2 6 3 6 319.53 304.15 41.75 o
3310 2 6 3 7 413.48 456.29 52.62 o
3311 2 6 4 -11 801.80 737.91 26.89 o
3312 2 6 4 -10 323.36 259.46 15.16 o
3313 2 6 4 -9 260.62 216.54 13.63 o
3314 2 6 4 -8 84.31 97.13 24.87 o
3315 2 6 4 -4 922.08 930.57 28.43 o
3316 2 6 4 -3 894.64 927.93 23.08 o
3317 2 6 -4 -3 839.07 837.25 36.41 o
3318 2 6 4 -2 2100.37 2135.52 41.87 o
3319 2 6 -4 -2 2172.64 2372.14 100.87 o
3320 2 6 4 -1 240.73 215.50 11.73 o
3321 2 6 -4 -1 245.20 308.58 36.53 o
3322 2 6 4 0 336.06 346.46 13.45 o
3323 2 6 4 3 379.49 366.78 17.80 o
3324 2 6 4 4 15.58 15.41 11.97 <
3325 2 6 4 5 729.40 743.81 59.31 o
3326 2 6 4 6 792.20 804.16 65.94 o
3327 2 6 4 7 270.77 250.74 42.61 o
3328 2 6 5 -11 1304.49 1217.17 34.93 o
3329 2 6 5 -10 3511.89 3332.00 60.47 o
3330 2 6 5 -9 239.29 265.29 14.98 o
3331 2 6 5 -8 1768.57 1759.72 58.33 o
3332 2 6 5 -4 3115.65 3153.28 57.90 o
3333 2 6 5 -3 4881.40 4868.61 77.36 o
3334 2 6 -5 -3 4996.90 5321.41 202.48 o
3335 2 6 5 -2 121.16 107.32 8.84 o
3336 2 6 5 -1 6925.06 6571.18 98.54 o
3337 2 6 5 0 1900.93 1777.04 41.01 o
3338 2 6 5 3 659.86 599.77 26.83 o
3339 2 6 5 4 257.80 211.14 19.65 o
3340 2 6 5 5 663.87 637.16 35.43 o
3341 2 6 5 6 1358.32 1192.00 62.69 o
3342 2 6 5 7 181.32 160.12 32.36 o
3343 2 6 6 -11 29.11 20.57 11.30 <
3344 2 6 6 -10 138.68 146.00 13.26 o
3345 2 6 6 -9 927.65 945.37 25.79 o
3346 2 6 6 -8 242.75 262.83 21.37 o
3347 2 6 6 -4 3140.83 3048.97 50.65 o
3348 2 6 6 -3 425.08 463.60 15.23 o
3349 2 6 6 -2 464.92 409.69 14.49 o
3350 2 6 6 -1 1759.38 1703.85 36.41 o
3351 2 6 6 0 637.30 660.68 28.24 o
3352 2 6 6 3 2.29 5.10 11.73 <
3353 2 6 6 4 219.37 180.93 19.46 o
3354 2 6 6 5 1683.25 1602.12 59.19 o
3355 2 6 6 6 40.51 1.96 25.05 <
3356 2 6 6 7 124.43 113.28 30.88 o
3357 2 6 7 -11 312.38 338.84 28.06 o
3358 2 6 7 -10 1259.51 1201.70 41.75 o
3359 2 6 7 -9 69.00 84.23 15.53 o
3360 2 6 7 -8 308.56 358.30 32.36 o
3361 2 6 7 -4 330.47 250.31 12.40 o
3362 2 6 7 -3 545.76 554.03 17.31 o
3363 2 6 7 -2 362.34 364.02 14.37 o
3364 2 6 7 -1 2778.18 2733.64 58.26 o
3365 2 6 7 0 109.46 159.32 39.85 o
3366 2 6 7 4 94.00 69.62 17.56 o
3367 2 6 7 5 144.80 188.05 24.44 o
3368 2 6 7 6 22.83 27.38 19.89 <
3369 2 6 7 7 43.33 17.38 27.38 <
3370 2 6 8 -11 153.73 133.90 22.04 o
3371 2 6 8 -10 124.15 107.14 17.87 o
3372 2 6 8 -9 138.08 134.89 17.74 o
3373 2 6 8 -8 222.29 226.18 28.18 o
3374 2 6 8 -4 166.85 209.48 16.64 o
3375 2 6 8 -3 1445.53 1434.63 36.28 o
3376 2 6 8 -2 435.68 430.32 30.45 o
3377 2 6 8 -1 55.79 55.50 11.48 o
3378 2 6 8 4 121.90 102.22 21.98 o
3379 2 6 8 5 13.81 6.69 19.89 <
3380 2 6 8 6 686.63 587.19 52.43 o
3381 2 6 9 -11 400.27 428.79 32.23 o
3382 2 6 9 -10 1202.00 1339.78 51.76 o
3383 2 6 9 -9 71.86 50.59 16.27 o
3384 2 6 9 -8 753.74 677.81 45.06 o
3385 2 6 9 -4 630.18 569.38 63.91 o
3386 2 6 9 -3 917.48 905.22 44.33 o
3387 2 6 9 -2 248.19 244.97 26.22 o
3388 2 6 9 -1 2421.65 2466.69 76.56 o
3389 2 6 9 4 169.31 199.84 31.50 o
3390 2 6 9 5 156.21 107.57 32.72 o
3391 2 6 10 -10 74.41 49.55 19.71 <
3392 2 6 10 -9 620.03 624.70 42.24 o
3393 2 6 10 -8 159.56 218.26 35.36 o
3394 2 6 10 -3 75.13 84.48 22.96 o
3395 2 6 10 -2 289.35 270.82 29.35 o
3396 2 6 10 -1 894.76 877.53 47.27 o
3397 2 6 10 4 94.44 92.95 53.11 <
3398 2 6 11 -3 1232.33 1305.89 59.25 o
3399 2 6 11 -2 102.63 126.17 26.58 o
3400 2 6 11 -1 1150.07 1090.02 61.70 o
3401 2 6 12 -3 205.24 177.43 30.27 o
3402 2 6 12 -2 212.10 235.02 33.58 o
3403 2 6 12 -1 40.73 38.92 27.51 <
3404 2 6 12 0 27.43 -10.99 53.78 <
3405 2 7 0 -12 32.61 15.10 23.51 <
3406 2 7 0 -11 4.13 20.44 20.75 <
3407 2 7 0 -10 313.07 313.61 38.07 o
3408 2 7 0 -9 891.64 873.54 59.43 o
3409 2 7 0 -5 1933.93 2044.72 45.43 o
3410 2 7 0 -4 1392.54 1467.97 42.98 o
3411 2 7 0 -3 75.14 94.86 14.73 o
3412 2 7 0 -2 766.95 797.90 29.65 o
3413 2 7 0 -1 889.27 837.25 36.71 o
3414 2 7 0 2 2618.00 2822.48 88.10 o
3415 2 7 0 3 851.52 830.19 36.16 o
3416 2 7 0 4 1430.70 1486.39 80.67 o
3417 2 7 0 5 1343.61 1324.06 73.61 o
3418 2 7 0 6 16.44 27.75 25.72 <
3419 2 7 1 -12 947.35 1081.30 75.82 o
3420 2 7 1 -11 100.14 111.86 20.20 o
3421 2 7 1 -10 336.66 346.76 28.00 o
3422 2 7 1 -9 911.28 897.91 63.79 o
3423 2 7 -1 -9 909.18 905.46 60.47 o
3424 2 7 1 -5 21.80 33.34 13.38 <
3425 2 7 -1 -5 13.45 21.00 12.83 <
3426 2 7 1 -4 1003.88 1008.79 31.43 o
3427 2 7 -1 -4 971.01 923.70 32.05 o
3428 2 7 1 -3 1990.65 2124.53 50.59 o
3429 2 7 -1 -3 2198.23 2397.07 72.02 o
3430 2 7 1 -2 274.07 246.20 15.35 o
3431 2 7 -1 -2 356.51 388.63 21.49 o
3432 2 7 1 -1 1400.54 1469.57 42.79 o
3433 2 7 1 2 1211.68 1250.02 47.58 o
3434 2 7 -1 2 1157.48 1260.15 65.14 o
3435 2 7 1 3 49.40 52.49 16.70 o
3436 2 7 -1 3 57.71 23.39 16.15 <
3437 2 7 1 4 395.89 479.56 43.35 o
3438 2 7 -1 4 364.90 389.80 39.91 o
3439 2 7 1 5 241.38 283.40 40.83 o
3440 2 7 -1 5 268.21 322.45 39.78 o
3441 2 7 1 6 227.62 256.70 39.35 o
3442 2 7 -1 6 244.05 236.43 38.07 o
3443 2 7 2 -12 637.14 694.45 35.06 o
3444 2 7 2 -11 597.27 599.53 38.00 o
3445 2 7 2 -10 757.37 706.66 37.88 o
3446 2 7 2 -9 2459.70 2523.73 115.61 o
3447 2 7 2 -5 285.20 322.33 24.93 o
3448 2 7 -2 -5 305.85 1.47 5.03 <
3449 2 7 2 -4 438.04 454.88 18.79 o
3450 2 7 -2 -4 422.39 430.14 40.95 o
3451 2 7 2 -3 408.61 392.87 17.25 o
3452 2 7 -2 -3 406.83 310.36 32.23 o
3453 2 7 2 -2 1191.13 1185.80 30.02 o
3454 2 7 -2 -2 1197.56 1158.84 65.08 o
3455 2 7 2 -1 161.76 134.76 14.61 o
3456 2 7 2 2 266.86 271.00 14.86 o
3457 2 7 2 3 1168.67 1155.83 48.26 o
3458 2 7 2 4 0.11 20.38 18.11 <
3459 2 7 -2 4 2.70 -5.96 17.87 <
3460 2 7 2 5 101.67 89.39 28.86 o
3461 2 7 -2 5 78.49 74.17 26.77 <
3462 2 7 2 6 85.78 142.01 33.95 o
3463 2 7 3 -12 708.75 682.72 32.54 o
3464 2 7 3 -11 173.55 158.09 17.99 o
3465 2 7 3 -10 1536.78 1544.71 44.76 o
3466 2 7 3 -9 914.81 931.43 64.04 o
3467 2 7 3 -5 655.92 668.60 30.76 o
3468 2 7 3 -4 595.85 588.29 24.19 o
3469 2 7 -3 -4 603.94 570.86 32.48 o
3470 2 7 3 -3 1879.05 1873.24 41.20 o
3471 2 7 -3 -3 1856.97 1812.22 84.91 o
3472 2 7 3 -2 472.27 427.25 20.81 o
3473 2 7 3 -1 1968.24 1924.88 52.31 o
3474 2 7 -3 -1 1982.49 -2.95 5.16 <
3475 2 7 3 2 1491.49 1479.21 57.22 o
3476 2 7 3 3 1600.26 1577.50 60.04 o
3477 2 7 3 4 209.25 234.04 27.81 o
3478 2 7 3 5 182.66 184.80 36.35 o
3479 2 7 3 6 1029.94 1064.72 76.13 o
3480 2 7 4 -12 436.09 479.32 28.18 o
3481 2 7 4 -11 22.55 13.75 14.12 <
3482 2 7 4 -10 575.02 552.19 24.87 o
3483 2 7 4 -9 1817.67 1772.37 91.48 o
3484 2 7 4 -5 1152.28 1231.96 84.42 o
3485 2 7 4 -4 689.36 722.69 23.88 o
3486 2 7 -4 -4 724.66 17.80 10.74 <
3487 2 7 4 -3 221.71 212.92 15.29 o
3488 2 7 4 -2 39.42 39.35 10.74 o
3489 2 7 4 -1 363.55 368.93 36.35 o
3490 2 7 4 2 1052.44 1039.49 30.27 o
3491 2 7 4 3 797.88 812.45 35.30 o
3492 2 7 4 4 167.10 189.28 26.71 o
3493 2 7 4 5 735.57 697.33 58.94 o
3494 2 7 4 6 3.16 10.13 26.71 <
3495 2 7 5 -12 152.81 109.22 18.42 o
3496 2 7 5 -11 1527.41 1489.09 41.20 o
3497 2 7 5 -10 1314.63 1276.66 33.22 o
3498 2 7 5 -9 274.45 224.83 36.90 o
3499 2 7 5 -5 2089.51 2111.95 77.48 o
3500 2 7 5 -4 490.14 526.53 21.98 o
3501 2 7 5 -3 1160.83 1152.76 31.19 o
3502 2 7 5 -2 2734.02 2653.21 50.53 o
3503 2 7 5 -1 2178.73 2197.72 65.94 o
3504 2 7 5 2 2703.31 2566.09 58.08 o
3505 2 7 5 3 1372.91 1285.62 45.99 o
3506 2 7 5 4 301.88 232.81 29.22 o
3507 2 7 5 5 671.51 696.41 51.94 o
3508 2 7 5 6 453.70 372.55 42.92 o
3509 2 7 6 -12 90.64 109.59 17.62 o
3510 2 7 6 -11 84.52 56.18 13.20 o
3511 2 7 6 -10 517.80 505.41 24.44 o
3512 2 7 6 -9 728.03 693.34 58.20 o
3513 2 7 6 -5 1020.81 1074.73 39.85 o
3514 2 7 6 -4 889.85 819.76 23.15 o
3515 2 7 6 -3 12.75 9.70 8.90 <
3516 2 7 6 -2 100.88 83.13 10.44 o
3517 2 7 6 -1 608.67 601.86 28.55 o
3518 2 7 6 2 871.68 820.31 48.07 o
3519 2 7 6 3 648.79 576.32 30.39 o
3520 2 7 6 4 695.03 627.28 34.26 o
3521 2 7 6 5 540.06 458.93 46.78 o
3522 2 7 6 6 46.33 53.35 32.60 <
3523 2 7 7 -12 1061.99 1164.74 61.83 o
3524 2 7 7 -11 185.95 192.78 21.98 o
3525 2 7 7 -10 121.59 107.50 18.48 o
3526 2 7 7 -9 1660.85 1726.75 92.65 o
3527 2 7 7 -5 1137.29 1132.50 34.20 o
3528 2 7 7 -4 264.38 276.71 14.18 o
3529 2 7 7 -3 3470.58 3543.94 60.41 o
3530 2 7 7 -2 478.04 472.26 19.03 o
3531 2 7 7 3 1283.97 1244.49 48.13 o
3532 2 7 7 4 432.30 462.19 31.37 o
3533 2 7 7 5 37.26 66.18 24.19 <
3534 2 7 7 6 1330.45 1379.19 100.07 o
3535 2 7 8 -12 290.98 338.78 37.57 o
3536 2 7 8 -11 380.66 395.27 28.00 o
3537 2 7 8 -10 233.03 252.40 23.45 o
3538 2 7 8 -9 1323.30 1247.68 76.81 o
3539 2 7 8 -5 29.20 42.98 16.82 <
3540 2 7 8 -4 547.79 582.34 28.12 o
3541 2 7 8 -3 101.30 109.10 11.24 o
3542 2 7 8 -2 396.66 372.49 19.28 o
3543 2 7 8 3 322.86 300.84 32.48 o
3544 2 7 8 4 33.12 -5.16 30.45 <
3545 2 7 8 5 11.48 -17.31 30.02 <
3546 2 7 9 -11 83.03 88.04 21.37 o
3547 2 7 9 -10 246.11 241.90 23.27 o
3548 2 7 9 -9 190.64 174.43 33.03 o
3549 2 7 9 -5 440.13 477.90 65.08 o
3550 2 7 9 -4 256.51 278.24 22.16 o
3551 2 7 9 -3 610.46 634.34 39.17 o
3552 2 7 9 -2 298.56 275.11 28.79 o
3553 2 7 9 3 209.80 192.72 30.82 o
3554 2 7 9 4 174.55 120.76 67.41 <
3555 2 7 10 -10 115.23 162.33 44.70 o
3556 2 7 10 -9 269.12 208.32 36.53 o
3557 2 7 10 -5 895.66 985.09 42.06 o
3558 2 7 10 -4 191.75 182.22 27.08 o
3559 2 7 10 -3 9.81 -11.54 20.81 <
3560 2 7 10 -2 170.54 133.17 29.78 o
3561 2 7 10 3 373.48 313.30 76.38 o
3562 2 7 11 -8 171.46 221.51 28.92 o
3563 2 7 11 -5 758.62 857.39 57.77 o
3564 2 7 11 -4 129.52 134.64 28.49 o
3565 2 7 11 -3 328.61 366.47 36.35 o
3566 2 7 11 -2 1012.06 1046.24 61.83 o
3567 2 8 0 -13 431.96 498.65 53.97 o
3568 2 8 0 -12 32.92 30.64 22.53 <
3569 2 8 0 -11 1297.14 1301.28 76.13 o
3570 2 8 0 -5 2089.91 2077.20 56.67 o
3571 2 8 0 -4 1725.22 1644.97 43.04 o
3572 2 8 0 -3 3.27 7.31 14.31 <
3573 2 8 0 2 264.45 289.67 35.67 o
3574 2 8 0 3 970.83 1412.16 132.25 o
3575 2 8 0 4 1424.93 1810.37 147.78 o
3576 2 8 1 -13 333.17 322.45 43.59 o
3577 2 8 -1 -13 281.42 284.02 41.81 o
3578 2 8 1 -12 2537.21 2622.09 129.85 o
3579 2 8 1 -11 501.14 477.23 31.93 o
3580 2 8 1 -5 140.08 108.24 13.14 o
3581 2 8 -1 -5 84.17 48.26 12.59 o
3582 2 8 1 -4 991.62 959.74 30.82 o
3583 2 8 -1 -4 877.29 939.29 41.07 o
3584 2 8 1 -3 2271.37 2220.07 63.85 o
3585 2 8 -1 -3 2459.16 2440.97 81.66 o
3586 2 8 1 2 1429.97 1497.19 70.18 o
3587 2 8 1 3 567.83 591.42 47.27 o
3588 2 8 1 4 11.07 45.00 50.04 <
3589 2 8 2 -13 5.12 13.69 21.18 <
3590 2 8 2 -12 35.52 48.87 17.25 <
3591 2 8 2 -11 331.73 308.45 23.64 o
3592 2 8 2 -5 711.09 652.88 31.86 o
3593 2 8 -2 -5 700.50 711.64 52.80 o
3594 2 8 2 -4 789.70 746.76 27.38 o
3595 2 8 -2 -4 921.82 808.89 54.40 o
3596 2 8 2 -3 1276.98 1341.19 56.73 o
3597 2 8 -2 -3 1321.13 1340.88 74.60 o
3598 2 8 2 2 272.22 340.75 37.39 o
3599 2 8 2 3 3004.35 3116.32 122.48 o
3600 2 8 2 4 111.44 133.41 56.55 <
3601 2 8 3 -13 1936.14 1968.90 55.75 o
3602 2 8 3 -12 11.24 22.78 14.92 <
3603 2 8 3 -11 175.94 184.31 18.91 o
3604 2 8 3 -6 269.91 286.23 33.58 o
3605 2 8 3 -5 2073.29 2036.49 58.88 o
3606 2 8 -3 -5 2030.80 2037.97 98.66 o
3607 2 8 3 -4 4180.23 4222.42 101.18 o
3608 2 8 3 -3 706.43 700.65 41.14 o
3609 2 8 3 1 1585.28 1645.34 80.12 o
3610 2 8 3 2 435.55 433.08 30.82 o
3611 2 8 3 3 77.05 59.74 28.98 <
3612 2 8 3 4 1859.96 1881.41 94.61 o
3613 2 8 4 -13 239.64 264.92 22.59 o
3614 2 8 4 -12 31.60 32.42 16.33 <
3615 2 8 4 -11 327.91 340.13 24.19 o
3616 2 8 4 -10 127.47 164.36 34.50 o
3617 2 8 4 -6 2007.20 2042.33 94.18 o
3618 2 8 4 -5 25.28 9.82 11.24 <
3619 2 8 4 -4 704.47 632.68 25.66 o
3620 2 8 4 -3 754.50 727.91 33.28 o
3621 2 8 4 1 1062.74 1107.58 63.18 o
3622 2 8 4 2 118.36 102.22 20.63 o
3623 2 8 4 3 1552.93 1695.26 87.61 o
3624 2 8 4 4 64.03 73.61 35.49 <
3625 2 8 5 -13 275.85 298.81 30.39 o
3626 2 8 5 -12 539.20 478.76 28.73 o
3627 2 8 5 -11 55.67 36.28 15.78 <
3628 2 8 5 -10 366.83 351.43 46.84 o
3629 2 8 5 -5 325.86 397.23 20.69 o
3630 2 8 5 -4 377.69 455.37 21.30 o
3631 2 8 5 -3 265.07 254.30 19.52 o
3632 2 8 5 -2 434.09 438.00 34.07 o
3633 2 8 5 1 199.69 164.97 23.02 o
3634 2 8 5 2 601.38 551.82 29.29 o
3635 2 8 5 3 175.13 195.73 41.50 o
3636 2 8 5 4 70.95 88.04 38.56 <
3637 2 8 6 -13 354.96 284.81 49.42 o
3638 2 8 6 -12 18.50 -3.56 18.73 <
3639 2 8 6 -11 354.46 273.58 22.84 o
3640 2 8 6 -10 76.36 91.11 32.97 <
3641 2 8 6 -5 499.52 553.30 24.68 o
3642 2 8 6 -4 1179.84 1160.38 29.47 o
3643 2 8 6 -3 116.23 139.61 13.51 o
3644 2 8 6 2 194.80 191.00 25.72 o
3645 2 8 6 3 918.03 841.67 45.13 o
3646 2 8 6 4 583.46 536.47 49.06 o
3647 2 8 6 6 36.19 -69.50 86.02 <
3648 2 8 7 -13 382.84 376.79 55.32 o
3649 2 8 7 -12 821.48 841.06 61.46 o
3650 2 8 7 -11 238.83 232.38 31.13 o
3651 2 8 7 -10 103.08 61.95 29.65 <
3652 2 8 7 -6 1349.95 1374.28 47.46 o
3653 2 8 7 -5 56.59 57.40 11.05 o
3654 2 8 7 -4 468.33 443.77 19.59 o
3655 2 8 7 -3 1283.81 1230.68 31.93 o
3656 2 8 7 2 132.31 117.33 25.48 o
3657 2 8 7 3 450.44 376.79 35.18 o
3658 2 8 7 4 237.71 195.24 31.43 o
3659 2 8 8 -12 22.13 11.36 37.51 <
3660 2 8 8 -11 145.20 144.89 27.38 o
3661 2 8 8 -10 347.24 371.93 47.15 o
3662 2 8 8 -6 1584.70 1599.42 70.79 o
3663 2 8 8 -5 710.98 734.29 24.44 o
3664 2 8 8 -4 212.02 190.14 14.12 o
3665 2 8 8 -3 408.01 421.97 18.91 o
3666 2 8 8 2 213.57 117.02 28.61 o
3667 2 8 8 3 1747.69 1566.94 95.84 o
3668 2 8 8 4 210.33 227.96 79.02 <
3669 2 8 9 -11 437.62 365.67 69.81 o
3670 2 8 9 -10 1.24 20.63 26.52 <
3671 2 8 9 -6 326.51 313.12 35.92 o
3672 2 8 9 -5 329.99 286.53 30.82 o
3673 2 8 9 -4 133.79 134.64 19.77 o
3674 2 8 9 -3 690.77 647.78 40.40 o
3675 2 8 9 2 78.62 62.81 39.48 <
3676 2 8 9 3 69.38 50.34 39.29 <
3677 2 8 10 -5 583.65 577.98 35.06 o
3678 2 8 10 -4 385.53 437.57 37.21 o
3679 2 8 10 -3 79.78 50.84 28.18 <
3680 2 8 11 -5 248.24 250.86 38.92 o
3681 2 8 11 -4 53.33 29.41 28.24 <
3682 2 8 11 -3 95.67 115.36 31.19 o
3683 2 8 11 -1 112.65 94.37 31.25 o
3684 2 9 0 -6 335.55 364.08 44.14 o
3685 2 9 0 -5 23.17 24.37 13.81 <
3686 2 9 0 -4 3098.35 2904.75 101.67 o
3687 2 9 0 1 1.77 -5.16 19.28 <
3688 2 9 0 2 158.92 204.69 54.76 o
3689 2 9 0 3 4.09 -1.11 42.55 <
3690 2 9 1 -6 379.96 292.06 38.92 o
3691 2 9 -1 -6 397.84 413.87 45.80 o
3692 2 9 1 -5 3674.22 3440.55 93.26 o
3693 2 9 1 -4 640.48 592.78 30.76 o
3694 2 9 -1 -4 541.21 423.45 45.19 o
3695 2 9 1 1 430.21 440.94 39.17 o
3696 2 9 -1 1 361.54 449.48 46.66 o
3697 2 9 1 2 530.85 527.27 45.19 o
3698 2 9 1 3 28.18 47.83 50.65 <
3699 2 9 2 -14 230.24 291.57 38.56 o
3700 2 9 2 -13 3.14 37.76 26.46 <
3701 2 9 2 -12 40.00 83.99 26.34 o
3702 2 9 2 -6 974.51 847.08 49.48 o
3703 2 9 -2 -6 929.37 920.01 64.90 o
3704 2 9 2 -5 30.62 39.97 20.87 <
3705 2 9 2 -4 315.88 282.79 22.84 o
3706 2 9 2 1 175.02 214.39 23.08 o
3707 2 9 2 2 1408.37 1455.08 75.82 o
3708 2 9 2 3 237.83 323.25 71.16 o
3709 2 9 3 -13 346.91 380.16 31.50 o
3710 2 9 3 -12 2049.70 2153.82 68.76 o
3711 2 9 3 -6 1633.05 1615.63 86.14 o
3712 2 9 3 -5 738.88 802.38 47.95 o
3713 2 9 3 -4 1106.81 1074.24 52.92 o
3714 2 9 3 1 558.67 565.33 34.93 o
3715 2 9 3 2 652.26 619.36 52.92 o
3716 2 9 3 3 365.86 405.09 46.48 o
3717 2 9 4 -13 181.50 200.09 26.40 o
3718 2 9 4 -12 613.93 635.51 39.35 o
3719 2 9 4 -6 258.91 229.74 23.08 o
3720 2 9 4 -5 125.71 93.32 16.82 o
3721 2 9 4 -4 732.10 705.44 37.27 o
3722 2 9 4 1 235.21 249.76 35.98 o
3723 2 9 4 2 22.75 21.18 28.36 <
3724 2 9 4 3 27.83 27.93 33.64 <
3725 2 9 5 -14 250.58 372.36 72.39 o
3726 2 9 5 -13 279.81 316.31 41.81 o
3727 2 9 5 -12 1229.92 1256.28 74.78 o
3728 2 9 5 -6 1231.93 1177.20 41.81 o
3729 2 9 5 -5 1691.08 1750.33 51.02 o
3730 2 9 5 -4 351.93 381.76 24.68 o
3731 2 9 5 1 220.03 244.48 38.13 o
3732 2 9 5 2 244.66 220.29 39.29 o
3733 2 9 5 3 574.51 576.69 56.48 o
3734 2 9 5 4 1214.00 1219.56 96.70 o
3735 2 9 6 -13 120.33 172.83 37.45 o
3736 2 9 6 -12 530.60 504.12 51.51 o
3737 2 9 6 -7 44.95 41.69 26.28 <
3738 2 9 6 -6 148.95 139.80 23.51 o
3739 2 9 6 -5 100.36 103.57 18.42 o
3740 2 9 6 -4 627.05 660.13 49.12 o
3741 2 9 6 1 54.89 8.17 22.96 <
3742 2 9 6 2 0.14 -24.13 25.85 <
3743 2 9 6 3 212.45 153.80 35.79 o
3744 2 9 7 -12 369.32 297.03 44.08 o
3745 2 9 7 -7 34.14 20.20 24.44 <
3746 2 9 7 -6 58.02 55.50 16.82 o
3747 2 9 7 -5 1654.42 1619.06 38.50 o
3748 2 9 7 -4 167.27 152.08 14.92 o
3749 2 9 7 1 165.05 86.94 27.14 o
3750 2 9 7 2 6.08 14.61 23.64 <
3751 2 9 7 3 87.64 16.45 38.25 <
3752 2 9 8 -7 791.00 809.75 28.06 o
3753 2 9 8 -6 487.79 512.53 24.07 o
3754 2 9 8 -5 16.78 13.32 11.79 <
3755 2 9 8 -4 51.32 63.24 12.95 o
3756 2 9 8 1 1.84 -20.57 58.51 <
3757 2 9 8 2 1166.51 690.58 64.96 o
3758 2 9 9 -10 259.21 335.53 38.62 o
3759 2 9 9 -7 159.47 187.62 35.06 o
3760 2 9 9 -6 408.21 441.86 34.63 o
3761 2 9 9 -5 1572.30 1781.21 62.75 o
3762 2 9 9 -4 19.79 21.55 23.33 <
3763 2 9 9 1 222.83 238.15 49.42 o
3764 2 9 10 -6 79.55 70.67 24.01 <
3765 2 9 10 -5 30.95 27.75 30.58 <
3766 2 9 10 -4 561.11 632.38 52.31 o
3767 2 10 0 -7 234.26 209.91 41.93 o
3768 2 10 0 -6 341.52 386.98 56.61 o
3769 2 10 0 -5 40.33 44.76 35.24 <
3770 2 10 0 0 1864.11 2080.27 87.00 o
3771 2 10 0 1 458.41 498.10 68.70 o
3772 2 10 0 2 324.68 360.95 65.82 o
3773 2 10 1 -14 4.64 43.71 44.88 <
3774 2 10 1 -13 143.56 111.31 43.04 <
3775 2 10 1 -7 363.70 324.72 52.37 o
3776 2 10 1 -6 422.40 384.27 35.98 o
3777 2 10 1 -5 95.66 83.25 23.02 o
3778 2 10 -1 -5 103.42 134.76 42.85 o
3779 2 10 1 0 566.62 639.44 48.26 o
3780 2 10 -1 0 565.93 605.30 59.25 o
3781 2 10 1 1 24.12 37.51 27.01 <
3782 2 10 1 2 272.89 300.53 65.26 o
3783 2 10 1 3 75.74 101.18 58.88 <
3784 2 10 2 -14 302.35 271.00 37.02 o
3785 2 10 2 -13 519.43 487.79 68.03 o
3786 2 10 2 -7 792.58 782.55 51.14 o
3787 2 10 2 -6 1133.88 1113.29 59.25 o
3788 2 10 2 -5 829.50 746.08 48.81 o
3789 2 10 2 0 648.93 624.70 48.87 o
3790 2 10 2 1 2147.55 2283.24 97.62 o
3791 2 10 2 2 111.56 105.85 50.71 <
3792 2 10 2 3 498.33 481.28 83.44 o
3793 2 10 3 -14 142.92 162.70 33.64 o
3794 2 10 3 -13 58.63 62.32 21.73 <
3795 2 10 3 -7 84.11 94.00 26.40 o
3796 2 10 3 -6 58.87 31.80 23.33 <
3797 2 10 3 -5 348.55 318.46 35.73 o
3798 2 10 3 0 1440.04 1437.58 54.40 o
3799 2 10 3 1 66.50 69.81 29.04 <
3800 2 10 3 2 32.88 48.63 29.41 <
3801 2 10 3 3 351.96 347.62 75.64 o
3802 2 10 4 -14 229.78 280.58 39.60 o
3803 2 10 4 -13 508.41 564.96 50.10 o
3804 2 10 4 -7 986.26 863.71 45.31 o
3805 2 10 4 -6 341.20 396.74 31.19 o
3806 2 10 4 -5 459.17 454.57 41.32 o
3807 2 10 4 0 857.43 836.33 43.84 o
3808 2 10 4 1 1290.87 1379.93 77.91 o
3809 2 10 4 2 87.41 55.69 31.31 <
3810 2 10 4 3 407.62 498.35 87.67 o
3811 2 10 5 -13 63.14 72.88 32.48 <
3812 2 10 5 -7 337.08 351.00 41.07 o
3813 2 10 5 -6 2429.59 2306.94 92.77 o
3814 2 10 5 -5 1285.98 1187.94 44.39 o
3815 2 10 5 0 346.41 353.64 42.42 o
3816 2 10 5 1 205.40 204.39 38.50 o
3817 2 10 5 2 882.21 912.89 69.87 o
3818 2 10 5 3 1124.99 1163.32 80.92 o
3819 2 10 6 -8 485.57 503.87 52.86 o
3820 2 10 6 -7 236.04 142.01 27.75 o
3821 2 10 6 -6 287.92 268.73 32.42 o
3822 2 10 6 -5 10.25 -10.07 19.28 <
3823 2 10 6 0 761.59 694.94 62.75 o
3824 2 10 6 1 750.91 773.03 68.70 o
3825 2 10 6 2 177.54 120.27 41.07 <
3826 2 10 6 3 741.97 643.30 54.03 o
3827 2 10 7 -12 411.09 268.79 72.82 o
3828 2 10 7 -8 1068.89 1022.79 74.66 o
3829 2 10 7 -7 155.78 153.74 23.02 o
3830 2 10 7 -6 197.08 204.39 23.15 o
3831 2 10 7 -5 254.28 218.81 22.35 o
3832 2 10 7 0 1984.51 1985.96 76.81 o
3833 2 10 7 1 124.82 119.66 42.67 <
3834 2 10 7 2 64.67 22.53 38.07 <
3835 2 10 8 -7 2.80 -3.38 17.93 <
3836 2 10 8 -6 754.73 740.98 35.79 o
3837 2 10 8 -5 242.07 253.99 23.58 o
3838 2 10 8 0 563.65 616.84 64.47 o
3839 2 10 8 1 606.75 653.31 87.30 o
3840 2 10 9 -7 56.96 15.53 25.72 <
3841 2 10 9 -6 33.05 33.09 23.70 <
3842 2 10 9 -5 332.23 294.76 30.94 o
3843 2 11 0 -8 3784.20 3458.54 173.87 o
3844 2 11 0 -7 356.39 478.46 78.71 o
3845 2 11 0 -6 1.37 37.94 39.85 <
3846 2 11 0 -1 24.65 46.72 24.80 <
3847 2 11 0 0 907.01 1061.96 99.95 o
3848 2 11 0 1 3763.23 3624.49 211.32 o
3849 2 11 1 -14 339.07 275.05 56.85 o
3850 2 11 1 -8 771.78 772.36 80.12 o
3851 2 11 1 -7 2409.83 2184.83 134.82 o
3852 2 11 -1 -7 2477.96 2389.89 135.62 o
3853 2 11 1 -6 1317.59 1268.86 99.89 o
3854 2 11 -1 -6 1340.46 1385.15 99.77 o
3855 2 11 1 -1 593.16 657.55 50.59 o
3856 2 11 -1 -1 686.06 852.05 58.57 o
3857 2 11 1 0 76.57 59.31 25.54 <
3858 2 11 -1 0 75.23 42.24 36.65 <
3859 2 11 1 1 52.42 14.55 40.71 <
3860 2 11 -1 1 44.84 22.72 44.14 <
3861 2 11 1 2 1230.57 1291.52 121.93 o
3862 2 11 2 -14 326.81 335.71 41.38 o
3863 2 11 2 -8 42.27 48.07 41.75 <
3864 2 11 2 -7 22.09 41.63 44.51 <
3865 2 11 2 -6 1089.76 970.73 90.19 o
3866 2 11 2 -1 721.49 704.15 52.92 o
3867 2 11 2 0 443.16 497.67 45.74 o
3868 2 11 2 1 183.90 145.57 50.84 <
3869 2 11 2 2 152.39 149.19 57.47 <
3870 2 11 3 -8 2499.31 2298.10 144.59 o
3871 2 11 3 -7 17.61 25.48 25.30 <
3872 2 11 3 -6 503.62 406.07 42.79 o
3873 2 11 3 -1 145.43 178.05 24.13 o
3874 2 11 3 0 26.09 25.42 26.77 <
3875 2 11 3 1 994.10 1012.78 68.21 o
3876 2 11 3 2 50.11 44.20 50.16 <
3877 2 11 4 -8 434.88 430.26 36.90 o
3878 2 11 4 -7 8.80 18.05 21.80 <
3879 2 11 4 -6 865.37 809.32 46.11 o
3880 2 11 4 -1 717.20 643.79 39.72 o
3881 2 11 4 0 264.95 234.59 38.13 o
3882 2 11 4 1 429.29 358.98 45.68 o
3883 2 11 4 2 181.74 238.77 67.60 o
3884 2 11 5 -8 1047.72 928.18 52.37 o
3885 2 11 5 -7 925.35 741.29 45.25 o
3886 2 11 5 -6 174.70 80.12 24.93 o
3887 2 11 5 -1 137.49 180.13 54.89 o
3888 2 11 5 0 111.77 120.21 35.00 o
3889 2 11 5 1 43.31 50.84 33.28 <
3890 2 11 5 2 451.84 445.36 52.92 o
3891 2 11 6 -8 1074.95 810.85 49.67 o
3892 2 11 6 -7 57.14 0.00 23.51 <
3893 2 11 6 -6 213.75 146.00 28.36 o
3894 2 11 6 -1 163.37 207.64 45.06 o
3895 2 11 6 0 230.92 237.97 47.09 o
3896 2 11 6 1 1146.30 1123.11 81.59 o
3897 2 11 7 -8 735.29 744.97 62.07 o
3898 2 11 7 -7 637.36 504.92 41.32 o
3899 2 11 7 -6 980.64 1040.96 50.16 o
3900 2 11 7 -1 32.39 48.63 40.34 <
3901 2 11 7 0 101.29 101.86 43.04 <
3902 2 11 8 -8 5.29 21.24 34.50 <
3903 2 11 8 -7 74.74 6.57 24.99 <
3904 2 11 8 -6 418.60 396.55 37.33 o
3905 2 12 0 -9 120.00 173.87 62.32 <
3906 2 12 0 -8 273.31 282.48 57.22 o
3907 2 12 0 -7 161.56 162.15 51.02 o
3908 2 12 0 -2 1219.26 1194.27 67.04 o
3909 2 12 0 -1 750.41 646.74 82.70 o
3910 2 12 0 0 202.22 229.74 57.22 o
3911 2 12 0 1 104.43 85.59 53.05 <
3912 2 12 1 -9 205.77 211.69 56.30 o
3913 2 12 -1 -9 188.51 145.51 42.67 o
3914 2 12 1 -8 519.86 486.07 69.50 o
3915 2 12 -1 -8 373.51 385.38 61.15 o
3916 2 12 1 -7 269.45 256.82 57.59 o
3917 2 12 -1 -7 207.40 214.95 61.40 o
3918 2 12 1 -2 1203.86 1230.18 69.87 o
3919 2 12 -1 -2 1111.84 1087.38 63.36 o
3920 2 12 1 -1 169.34 185.72 34.01 o
3921 2 12 -1 -1 174.44 215.44 48.99 o
3922 2 12 1 0 9.33 56.18 41.26 <
3923 2 12 -1 0 4.54 -23.33 36.90 <
3924 2 12 1 1 308.32 318.34 65.08 o
3925 2 12 -1 1 325.30 303.36 64.53 o
3926 2 12 2 -9 79.10 121.93 50.28 <
3927 2 12 2 -8 230.93 176.94 53.05 o
3928 2 12 2 -7 134.98 114.32 50.84 <
3929 2 12 -2 -7 103.29 85.59 38.86 <
3930 2 12 2 -2 1164.61 1246.09 101.79 o
3931 2 12 2 -1 146.53 122.55 31.25 o
3932 2 12 2 0 93.55 47.83 39.78 <
3933 2 12 -2 0 149.82 170.56 61.52 <
3934 2 12 2 1 298.57 298.51 61.95 o
3935 2 12 -2 1 316.49 346.09 68.89 o
3936 2 12 3 -9 54.52 106.71 51.76 <
3937 2 12 3 -8 256.33 290.34 62.56 o
3938 2 12 3 -7 2056.57 1817.62 135.50 o
3939 2 12 3 -2 134.28 105.11 30.15 o
3940 2 12 3 -1 268.61 281.68 39.48 o
3941 2 12 3 0 97.88 93.69 32.60 <
3942 2 12 3 1 162.61 142.01 55.32 <
3943 2 12 4 -9 685.76 585.84 53.84 o
3944 2 12 4 -8 36.04 39.48 32.17 <
3945 2 12 4 -7 219.63 213.04 30.15 o
3946 2 12 4 -2 295.76 245.46 35.79 o
3947 2 12 4 -1 329.47 327.12 42.79 o
3948 2 12 4 0 350.87 346.39 44.76 o
3949 2 12 5 -9 8.23 58.82 34.81 <
3950 2 12 5 -8 110.41 112.72 27.87 o
3951 2 12 5 -7 205.36 192.41 30.64 o
3952 2 12 5 -2 931.77 1035.25 73.80 o
3953 2 12 5 -1 24.72 32.11 36.35 <
3954 2 12 5 0 57.14 51.51 50.41 <
3955 2 12 6 -9 700.76 654.42 46.91 o
3956 2 12 6 -8 98.36 26.58 26.65 <
3957 2 12 6 -7 142.16 99.22 28.98 o
3958 2 12 6 -2 670.53 757.01 64.53 o
3959 2 12 6 -1 396.42 435.30 74.72 o
3960 2 12 7 -9 141.41 89.76 64.22 <
3961 2 12 7 -8 360.02 213.96 34.20 o
3962 2 12 7 -7 208.60 183.27 40.21 o
3963 2 13 0 -10 316.93 279.53 60.23 o
3964 2 13 0 -9 149.64 190.39 57.59 o
3965 2 13 0 -8 20.95 52.06 47.15 <
3966 2 13 0 -3 15.27 12.40 41.44 <
3967 2 13 1 -10 484.37 431.43 69.50 o
3968 2 13 -1 -10 406.27 350.20 69.07 o
3969 2 13 1 -9 52.29 25.23 48.32 <
3970 2 13 -1 -9 63.27 50.16 60.23 <
3971 2 13 -1 -8 545.19 512.16 70.73 o
3972 2 13 1 -3 21.68 8.29 42.36 <
3973 2 13 -1 -3 9.17 63.18 44.82 <
3974 2 13 1 -2 1.04 33.28 41.87 <
3975 2 13 2 -10 1048.89 1054.47 106.83 o
3976 2 13 2 -9 74.03 65.51 51.94 <
3977 2 13 -2 -9 45.33 45.74 46.23 <
3978 2 13 -2 -8 736.60 628.38 75.64 o
3979 2 13 2 -3 216.75 204.02 56.48 o
3980 2 13 2 -2 720.56 658.59 82.33 o
3981 2 13 3 -9 355.01 339.27 73.86 o
3982 2 13 -3 -8 679.15 815.33 89.76 o
3983 2 13 3 -3 550.77 508.60 47.64 o
3984 2 13 3 -2 105.79 117.14 51.57 <
3985 2 13 3 -1 1.74 -16.39 43.10 <
3986 2 13 4 -10 436.04 478.95 49.79 o
3987 2 13 4 -9 36.20 63.30 33.89 <
3988 2 13 4 -8 417.22 465.38 59.25 o
3989 2 13 4 -3 443.17 366.84 42.61 o
3990 2 13 4 -2 914.54 962.50 100.63 o
3991 2 13 5 -9 292.93 300.59 45.74 o
3992 2 13 5 -8 109.77 133.72 38.62 o
3993 2 13 5 -3 307.05 270.14 66.49 o
3994 2 13 6 -7 3.78 -6.14 54.64 <
3995 2 13 6 -6 249.90 394.04 82.45 o
3996 2 14 0 -10 40.02 48.44 50.90 <
3997 2 14 0 -9 186.55 180.93 60.84 <
3998 2 14 0 -4 321.50 287.88 62.99 o
3999 2 14 1 -10 906.84 856.78 96.39 o
4000 2 14 -1 -10 1027.17 1267.94 118.99 o
4001 2 14 1 -9 438.04 421.97 72.75 o
4002 2 14 -1 -9 384.65 442.72 76.01 o
4003 2 14 1 -4 522.68 459.73 72.82 o
4004 2 14 -1 -4 567.07 605.97 81.10 o
4005 2 14 2 -9 248.82 323.43 71.46 o
4006 2 14 -2 -9 272.11 273.39 63.79 o
4007 2 14 2 -4 45.31 62.81 53.23 <
4008 2 -1 0 8 1270.07 1489.09 68.21 o
4008 1 7 0 0 1270.07 1489.09 68.21 o
4009 2 -1 0 8 1270.07 1386.56 54.64 o
4009 1 7 0 0 1270.07 1386.56 54.64 o
4010 2 1 0 -8 1270.07 1411.73 72.57 o
4010 1 -7 0 0 1270.07 1411.73 72.57 o
4011 2 -1 0 9 336.56 434.93 53.48 o
4011 1 8 0 0 336.56 434.93 53.48 o
4012 2 -1 0 10 1754.42 1908.97 120.70 o
4012 1 9 0 0 1754.42 1908.97 120.70 o
4013 2 -1 1 7 658.46 729.81 59.68 o
4013 1 6 -1 0 658.46 729.81 59.68 o
4014 2 1 1 -8 3075.36 2948.96 122.91 o
4014 1 -7 -1 0 3075.36 2948.96 122.91 o
4015 2 -1 1 8 3075.36 3188.52 117.02 o
4015 1 7 -1 0 3075.36 3188.52 117.02 o
4016 2 -1 1 8 3075.36 2753.16 153.00 o
4016 1 7 -1 0 3075.36 2753.16 153.00 o
4017 2 -1 1 8 3075.36 2986.35 107.44 o
4017 1 7 -1 0 3075.36 2986.35 107.44 o
4018 2 -1 -1 8 2988.25 3618.17 141.82 o
4018 1 7 1 0 2988.25 3618.17 141.82 o
4019 2 1 -1 -8 2988.24 3763.55 146.67 o
4019 1 -7 1 0 2988.24 3763.55 146.67 o
4020 2 1 1 -9 2159.68 2064.31 100.01 o
4020 1 -8 -1 0 2159.68 2064.31 100.01 o
4021 2 -1 1 9 2159.67 2316.70 92.65 o
4021 1 8 -1 0 2159.67 2316.70 92.65 o
4022 2 -1 1 9 2159.67 2001.50 122.85 o
4022 1 8 -1 0 2159.67 2001.50 122.85 o
4023 2 -1 1 10 1335.60 1594.57 109.84 o
4023 1 9 -1 0 1335.60 1594.57 109.84 o
4024 2 0 2 0 6132.48 5553.73 191.62 o
4024 1 0 -2 0 6132.48 5553.73 191.62 o
4025 2 0 2 0 6132.48 5740.74 214.70 o
4025 1 0 -2 0 6132.48 5740.74 214.70 o
4026 2 0 -2 0 5691.36 8671.34 292.55 o
4026 1 0 2 0 5691.36 8671.34 292.55 o
4027 2 0 -2 0 5691.36 8303.52 319.07 o
4027 1 0 2 0 5691.36 8303.52 319.07 o
4028 2 0 -2 0 5691.36 8747.41 343.69 o
4028 1 0 2 0 5691.36 8747.41 343.69 o
4029 2 -1 2 8 2864.48 2858.77 157.91 o
4029 1 7 -2 0 2864.48 2858.77 157.91 o
4030 2 -1 2 8 2864.48 3130.50 114.38 o
4030 1 7 -2 0 2864.48 3130.50 114.38 o
4031 2 1 2 -8 2864.48 3033.50 131.02 o
4031 1 -7 -2 0 2864.48 3033.50 131.02 o
4032 2 1 2 -8 2864.48 2963.02 123.96 o
4032 1 -7 -2 0 2864.48 2963.02 123.96 o
4033 2 -1 2 8 2864.48 3015.08 110.76 o
4033 1 7 -2 0 2864.48 3015.08 110.76 o
4034 2 1 -2 -8 2956.74 3429.87 139.18 o
4034 1 -7 2 0 2956.74 3429.87 139.18 o
4035 2 1 2 -9 4266.62 4307.03 165.77 o
4035 1 -8 -2 0 4266.62 4307.03 165.77 o
4036 2 -1 2 9 4266.62 3781.91 207.27 o
4036 1 8 -2 0 4266.62 3781.91 207.27 o
4037 2 1 2 -9 4266.62 4087.05 172.15 o
4037 1 -8 -2 0 4266.62 4087.05 172.15 o
4038 2 -1 2 9 4266.62 4336.19 212.92 o
4038 1 8 -2 0 4266.62 4336.19 212.92 o
4039 2 -1 2 10 353.72 373.53 66.12 o
4039 1 9 -2 0 353.72 373.53 66.12 o
4040 2 -1 2 10 353.72 502.46 90.50 o
4040 1 9 -2 0 353.72 502.46 90.50 o
4041 2 -1 3 7 2237.88 2253.59 127.21 o
4041 1 6 -3 0 2237.88 2253.59 127.21 o
4042 2 -1 3 7 2237.88 2272.31 128.26 o
4042 1 6 -3 0 2237.88 2272.31 128.26 o
4043 2 1 3 -8 19292.90 19282.80 738.28 o
4043 1 -7 -3 0 19292.90 19282.80 738.28 o
4044 2 -1 3 8 19292.90 20231.60 671.73 o
4044 1 7 -3 0 19292.90 20231.60 671.73 o
4045 2 1 3 -8 19292.90 19709.90 737.36 o
4045 1 -7 -3 0 19292.90 19709.90 737.36 o
4046 2 -1 3 8 19292.90 19687.40 900.67 o
4046 1 7 -3 0 19292.90 19687.40 900.67 o
4047 2 1 3 -8 19292.90 19575.90 677.68 o
4047 1 -7 -3 0 19292.90 19575.90 677.68 o
4048 2 -1 3 9 1023.33 987.98 82.02 o
4048 1 8 -3 0 1023.33 987.98 82.02 o
4049 2 1 3 -9 1023.32 1046.00 68.89 o
4049 1 -8 -3 0 1023.32 1046.00 68.89 o
4050 2 1 3 -9 1023.32 1076.27 65.57 o
4050 1 -8 -3 0 1023.32 1076.27 65.57 o
4051 2 -1 3 9 1023.33 1030.03 49.73 o
4051 1 8 -3 0 1023.33 1030.03 49.73 o
4052 2 1 3 -10 1664.98 1535.69 90.44 o
4052 1 -9 -3 0 1664.98 1535.69 90.44 o
4053 2 -1 3 10 1664.97 1645.71 110.94 o
4053 1 9 -3 0 1664.97 1645.71 110.94 o
4054 2 -1 3 10 1664.97 1137.91 120.33 o
4054 1 9 -3 0 1664.97 1137.91 120.33 o
4055 2 0 4 0 12895.60 13795.70 460.22 o
4055 1 0 -4 0 12895.60 13795.70 460.22 o
4056 2 0 4 0 12895.60 13239.70 503.44 o
4056 1 0 -4 0 12895.60 13239.70 503.44 o
4057 2 0 4 0 12895.60 13206.00 445.12 o
4057 1 0 -4 0 12895.60 13206.00 445.12 o
4058 2 0 4 0 12895.60 13512.80 507.37 o
4058 1 0 -4 0 12895.60 13512.80 507.37 o
4059 2 0 4 -1 4082.82 4076.06 166.44 o
4059 1 -1 -4 0 4082.82 4076.06 166.44 o
4060 2 0 4 1 4082.83 4145.56 165.40 o
4060 1 1 -4 0 4082.83 4145.56 165.40 o
4061 2 0 4 1 4082.83 4108.35 174.06 o
4061 1 1 -4 0 4082.83 4108.35 174.06 o
4062 2 0 4 1 4082.83 4131.62 140.10 o
4062 1 1 -4 0 4082.83 4131.62 140.10 o
4063 2 -1 4 7 811.95 644.72 70.97 o
4063 1 6 -4 0 811.95 644.72 70.97 o
4064 2 1 4 -8 2164.06 1983.82 99.22 o
4064 1 -7 -4 0 2164.06 1983.82 99.22 o
4065 2 1 4 -8 2164.06 1929.17 88.59 o
4065 1 -7 -4 0 2164.06 1929.17 88.59 o
4066 2 -1 4 8 2164.06 2079.59 82.15 o
4066 1 7 -4 0 2164.06 2079.59 82.15 o
4067 2 -1 4 8 2164.06 1740.51 114.13 o
4067 1 7 -4 0 2164.06 1740.51 114.13 o
4068 2 -1 4 8 2164.06 1941.27 116.96 o
4068 1 7 -4 0 2164.06 1941.27 116.96 o
4069 2 -1 4 9 1945.73 1942.01 123.22 o
4069 1 8 -4 0 1945.73 1942.01 123.22 o
4070 2 1 4 -9 1945.73 2048.22 104.99 o
4070 1 -8 -4 0 1945.73 2048.22 104.99 o
4071 2 1 4 -9 1945.73 1986.52 95.35 o
4071 1 -8 -4 0 1945.73 1986.52 95.35 o
4072 2 -1 4 9 1945.73 2046.44 84.30 o
4072 1 8 -4 0 1945.73 2046.44 84.30 o
4073 2 0 5 1 15899.50 15241.30 578.90 o
4073 1 1 -5 0 15899.50 15241.30 578.90 o
4074 2 0 5 1 15899.50 15163.70 620.71 o
4074 1 1 -5 0 15899.50 15163.70 620.71 o
4075 2 0 5 -1 15899.50 15789.70 581.17 o
4075 1 -1 -5 0 15899.50 15789.70 581.17 o
4076 2 0 5 1 15899.50 15496.30 512.10 o
4076 1 1 -5 0 15899.50 15496.30 512.10 o
4077 2 -1 5 7 2960.43 3168.08 158.34 o
4077 1 6 -5 0 2960.43 3168.08 158.34 o
4078 2 -1 5 7 2960.43 2994.02 120.89 o
4078 1 6 -5 0 2960.43 2994.02 120.89 o
4079 2 1 5 -8 754.16 927.69 56.85 o
4079 1 -7 -5 0 754.16 927.69 56.85 o
4080 2 -1 5 8 754.17 767.26 74.23 o
4080 1 7 -5 0 754.17 767.26 74.23 o
4081 2 -1 5 8 754.17 953.35 52.25 o
4081 1 7 -5 0 754.17 953.35 52.25 o
4082 2 1 5 -8 754.16 828.04 67.29 o
4082 1 -7 -5 0 754.16 828.04 67.29 o
4083 2 -1 5 9 2043.73 2183.97 90.50 o
4083 1 8 -5 0 2043.73 2183.97 90.50 o
4084 2 1 5 -9 2043.73 2222.03 97.37 o
4084 1 -8 -5 0 2043.73 2222.03 97.37 o
4085 2 1 5 -9 2043.73 2120.73 111.31 o
4085 1 -8 -5 0 2043.73 2120.73 111.31 o
4086 2 -1 5 9 2043.73 1668.61 125.74 o
4086 1 8 -5 0 2043.73 1668.61 125.74 o
4087 2 1 5 -10 2853.02 2593.05 136.42 o
4087 1 -9 -5 0 2853.02 2593.05 136.42 o
4088 2 1 5 -10 2853.02 2623.13 122.48 o
4088 1 -9 -5 0 2853.02 2623.13 122.48 o
4089 2 0 6 0 61316.60 61395.60 2106.55 o
4089 1 0 -6 0 61316.60 61395.60 2106.55 o
4090 2 0 6 0 61316.60 61016.50 2016.66 o
4090 1 0 -6 0 61316.60 61016.50 2016.66 o
4091 2 0 6 0 61316.60 61017.60 2303.50 o
4091 1 0 -6 0 61316.60 61017.60 2303.50 o
4092 2 0 6 0 61316.60 60279.70 2271.76 o
4092 1 0 -6 0 61316.60 60279.70 2271.76 o
4093 2 0 6 -1 2941.93 2994.76 129.54 o
4093 1 -1 -6 0 2941.93 2994.76 129.54 o
4094 2 0 6 1 2941.93 2468.78 95.41 o
4094 1 1 -6 0 2941.93 2468.78 95.41 o
4095 2 0 6 1 2941.93 2959.82 128.81 o
4095 1 1 -6 0 2941.93 2959.82 128.81 o
4096 2 0 6 2 5548.33 5659.57 232.63 o
4096 1 2 -6 0 5548.33 5659.57 232.63 o
4097 2 -1 6 7 2207.82 2114.77 117.45 o
4097 1 6 -6 0 2207.82 2114.77 117.45 o
4098 2 1 6 -7 2207.82 1898.17 83.81 o
4098 1 -6 -6 0 2207.82 1898.17 83.81 o
4099 2 1 6 -8 585.08 557.96 45.31 o
4099 1 -7 -6 0 585.08 557.96 45.31 o
4100 2 1 6 -8 585.08 622.61 64.22 o
4100 1 -7 -6 0 585.08 622.61 64.22 o
4101 2 -1 6 8 585.08 656.01 47.52 o
4101 1 7 -6 0 585.08 656.01 47.52 o
4102 2 -1 6 8 585.08 503.02 64.04 o
4102 1 7 -6 0 585.08 503.02 64.04 o
4103 2 -1 6 9 990.17 895.27 92.03 o
4103 1 8 -6 0 990.17 895.27 92.03 o
4104 2 1 6 -9 990.17 983.01 80.18 o
4104 1 -8 -6 0 990.17 983.01 80.18 o
4105 2 -1 6 9 990.17 1022.91 57.59 o
4105 1 8 -6 0 990.17 1022.91 57.59 o
4106 2 1 6 -9 990.17 907.30 59.49 o
4106 1 -8 -6 0 990.17 907.30 59.49 o
4107 2 1 6 -10 2336.48 2060.50 103.82 o
4107 1 -9 -6 0 2336.48 2060.50 103.82 o
4108 2 1 6 -10 2336.48 2114.34 126.35 o
4108 1 -9 -6 0 2336.48 2114.34 126.35 o
4109 2 0 7 1 139.45 161.04 17.87 o
4109 1 1 -7 0 139.45 161.04 17.87 o
4110 2 0 7 -1 139.45 173.14 25.17 o
4110 1 -1 -7 0 139.45 173.14 25.17 o
4111 2 0 7 1 139.45 133.54 52.49 <
4111 1 1 -7 0 139.45 133.54 52.49 <
4112 2 0 7 -1 139.45 77.97 53.41 <
4112 1 -1 -7 0 139.45 77.97 53.41 <
4113 2 -1 7 7 283.42 299.73 70.54 o
4113 1 6 -7 0 283.42 299.73 70.54 o
4114 2 1 7 -7 283.42 279.47 30.76 o
4114 1 -6 -7 0 283.42 279.47 30.76 o
4115 2 1 7 -7 283.42 254.36 32.66 o
4115 1 -6 -7 0 283.42 254.36 32.66 o
4116 2 1 7 -8 9578.39 8899.18 332.15 o
4116 1 -7 -7 0 9578.39 8899.18 332.15 o
4117 2 -1 7 8 9578.39 9483.48 417.49 o
4117 1 7 -7 0 9578.39 9483.48 417.49 o
4118 2 1 7 -8 9578.39 9630.95 383.97 o
4118 1 -7 -7 0 9578.39 9630.95 383.97 o
4119 2 -1 7 8 9578.39 10135.20 343.02 o
4119 1 7 -7 0 9578.39 10135.20 343.02 o
4120 2 1 7 -9 659.67 676.58 77.42 o
4120 1 -8 -7 0 659.67 676.58 77.42 o
4121 2 1 7 -9 659.67 586.64 45.62 o
4121 1 -8 -7 0 659.67 586.64 45.62 o
4122 2 -1 7 9 659.67 585.53 84.66 o
4122 1 8 -7 0 659.67 585.53 84.66 o
4123 2 -1 7 9 659.67 642.63 53.48 o
4123 1 8 -7 0 659.67 642.63 53.48 o
4124 2 1 7 -10 135.52 112.48 79.02 <
4124 1 -9 -7 0 135.52 112.48 79.02 <
4125 2 1 7 -10 135.52 102.78 41.69 <
4125 1 -9 -7 0 135.52 102.78 41.69 <
4126 2 -1 7 10 135.52 -146.43 89.94 <
4126 1 9 -7 0 135.52 -146.43 89.94 <
4127 2 0 8 0 4046.74 4067.46 154.41 o
4127 1 0 -8 0 4046.74 4067.46 154.41 o
4128 2 0 8 0 4046.74 3870.93 136.97 o
4128 1 0 -8 0 4046.74 3870.93 136.97 o
4129 2 0 8 0 4046.74 4059.17 180.13 o
4129 1 0 -8 0 4046.74 4059.17 180.13 o
4130 2 0 8 -1 542.49 525.98 47.77 o
4130 1 -1 -8 0 542.49 525.98 47.77 o
4131 2 0 8 1 542.49 603.89 50.34 o
4131 1 1 -8 0 542.49 603.89 50.34 o
4132 2 0 8 -1 542.49 590.63 67.90 o
4132 1 -1 -8 0 542.49 590.63 67.90 o
4133 2 0 8 -1 542.49 547.77 34.69 o
4133 1 -1 -8 0 542.49 547.77 34.69 o
4134 2 0 8 1 542.49 628.88 69.99 o
4134 1 1 -8 0 542.49 628.88 69.99 o
4135 2 -1 8 7 3793.20 3713.21 193.15 o
4135 1 6 -8 0 3793.20 3713.21 193.15 o
4136 2 1 8 -7 3793.20 3691.72 183.82 o
4136 1 -6 -8 0 3793.20 3691.72 183.82 o
4137 2 -1 8 7 3793.20 3901.26 157.79 o
4137 1 6 -8 0 3793.20 3901.26 157.79 o
4138 2 -1 8 8 2001.76 1867.04 126.72 o
4138 1 7 -8 0 2001.76 1867.04 126.72 o
4139 2 -1 8 8 2001.76 2054.18 97.13 o
4139 1 7 -8 0 2001.76 2054.18 97.13 o
4140 2 1 8 -8 2001.76 2042.02 121.26 o
4140 1 -7 -8 0 2001.76 2042.02 121.26 o
4141 2 1 8 -9 1258.64 1228.40 54.03 o
4141 1 -8 -8 0 1258.64 1228.40 54.03 o
4142 2 -1 8 9 1258.64 1403.44 76.93 o
4142 1 8 -8 0 1258.64 1403.44 76.93 o
4143 2 -1 8 9 1258.64 1165.53 109.04 o
4143 1 8 -8 0 1258.64 1165.53 109.04 o
4144 2 1 8 -9 1258.64 1267.21 99.28 o
4144 1 -8 -8 0 1258.64 1267.21 99.28 o
4145 2 1 8 -9 1258.64 1104.88 56.91 o
4145 1 -8 -8 0 1258.64 1104.88 56.91 o
4146 2 1 8 -10 609.55 710.04 105.79 o
4146 1 -9 -8 0 609.55 710.04 105.79 o
4147 2 -1 8 10 609.55 490.06 113.46 o
4147 1 9 -8 0 609.55 490.06 113.46 o
4148 2 0 9 -1 758.24 832.96 42.73 o
4148 1 -1 -9 0 758.24 832.96 42.73 o
4149 2 0 9 1 758.24 849.53 88.66 o
4149 1 1 -9 0 758.24 849.53 88.66 o
4150 2 0 9 1 758.24 825.83 60.54 o
4150 1 1 -9 0 758.24 825.83 60.54 o
4151 2 0 9 -1 758.24 758.48 58.63 o
4151 1 -1 -9 0 758.24 758.48 58.63 o
4152 2 0 9 -1 758.24 777.15 82.15 o
4152 1 -1 -9 0 758.24 777.15 82.15 o
4153 2 0 9 2 261.75 353.58 90.25 o
4153 1 2 -9 0 261.75 353.58 90.25 o
4154 2 -1 9 7 588.29 529.29 65.69 o
4154 1 6 -9 0 588.29 529.29 65.69 o
4155 2 -1 9 7 588.29 755.84 92.89 o
4155 1 6 -9 0 588.29 755.84 92.89 o
4156 2 1 9 -7 588.29 594.49 92.95 o
4156 1 -6 -9 0 588.29 594.49 92.95 o
4157 2 1 9 -8 2921.58 3186.19 165.03 o
4157 1 -7 -9 0 2921.58 3186.19 165.03 o
4158 2 -1 9 8 2921.57 2955.59 134.76 o
4158 1 7 -9 0 2921.57 2955.59 134.76 o
4159 2 -1 9 8 2921.57 3062.05 173.38 o
4159 1 7 -9 0 2921.57 3062.05 173.38 o
4160 2 1 9 -9 345.31 368.80 81.78 o
4160 1 -8 -9 0 345.31 368.80 81.78 o
4161 2 -1 9 9 345.31 356.65 54.58 o
4161 1 8 -9 0 345.31 356.65 54.58 o
4162 2 -1 9 9 345.31 346.33 76.07 o
4162 1 8 -9 0 345.31 346.33 76.07 o
4163 2 1 9 -10 567.58 579.02 103.14 o
4163 1 -9 -9 0 567.58 579.02 103.14 o
4164 2 -1 9 10 567.58 506.02 120.33 o
4164 1 9 -9 0 567.58 506.02 120.33 o
4165 2 0 10 0 13185.90 13090.40 477.41 o
4165 1 0 -10 0 13185.90 13090.40 477.41 o
4166 2 0 10 0 13185.90 13916.70 538.62 o
4166 1 0 -10 0 13185.90 13916.70 538.62 o
4167 2 0 10 1 898.39 950.83 70.73 o
4167 1 1 -10 0 898.39 950.83 70.73 o
4168 2 0 10 1 898.39 971.09 99.15 o
4168 1 1 -10 0 898.39 971.09 99.15 o
4169 2 0 10 -1 898.39 919.52 45.00 o
4169 1 -1 -10 0 898.39 919.52 45.00 o
4170 2 0 10 -1 898.39 836.88 95.78 o
4170 1 -1 -10 0 898.39 836.88 95.78 o
4171 2 0 10 -2 2090.29 2196.98 144.46 o
4171 1 -2 -10 0 2090.29 2196.98 144.46 o
4172 2 0 10 2 2090.29 2231.18 148.27 o
4172 1 2 -10 0 2090.29 2231.18 148.27 o
4173 2 -1 10 7 1474.16 1738.79 127.52 o
4173 1 6 -10 0 1474.16 1738.79 127.52 o
4174 2 1 10 -7 1474.16 1542.81 126.90 o
4174 1 -6 -10 0 1474.16 1542.81 126.90 o
4175 2 -1 10 7 1474.16 1515.06 99.03 o
4175 1 6 -10 0 1474.16 1515.06 99.03 o
4176 2 -1 10 8 392.82 562.57 81.29 o
4176 1 7 -10 0 392.82 562.57 81.29 o
4177 2 1 10 -8 392.83 454.88 87.30 o
4177 1 -7 -10 0 392.83 454.88 87.30 o
4178 2 -1 10 8 392.82 404.29 59.80 o
4178 1 7 -10 0 392.82 404.29 59.80 o
4179 2 -1 10 9 319.80 334.30 60.84 o
4179 1 8 -10 0 319.80 334.30 60.84 o
4180 2 -1 10 9 319.80 417.24 87.49 o
4180 1 8 -10 0 319.80 417.24 87.49 o
4181 2 1 10 -9 319.80 458.75 87.00 o
4181 1 -8 -10 0 319.80 458.75 87.00 o
4182 2 0 11 1 2357.27 2919.36 168.41 o
4182 1 1 -11 0 2357.27 2919.36 168.41 o
4183 2 0 11 1 2357.27 2538.53 127.15 o
4183 1 1 -11 0 2357.27 2538.53 127.15 o
4184 2 0 11 -1 2357.26 2749.05 166.14 o
4184 1 -1 -11 0 2357.26 2749.05 166.14 o
4185 2 0 11 -2 245.38 250.06 34.26 o
4185 1 -2 -11 0 245.38 250.06 34.26 o
4186 2 0 11 -2 245.38 287.45 101.79 <
4186 1 -2 -11 0 245.38 287.45 101.79 <
4187 2 -1 11 7 917.11 970.97 87.37 o
4187 1 6 -11 0 917.11 970.97 87.37 o
4188 2 1 11 -7 917.11 934.38 116.59 o
4188 1 -6 -11 0 917.11 934.38 116.59 o
4189 2 -1 11 8 219.91 174.30 59.19 <
4189 1 7 -11 0 219.91 174.30 59.19 <
4190 2 -1 11 8 219.91 405.76 73.43 o
4190 1 7 -11 0 219.91 405.76 73.43 o
4191 2 1 11 -8 219.91 153.98 82.64 <
4191 1 -7 -11 0 219.91 153.98 82.64 <
4192 2 0 12 0 1029.44 1224.04 117.27 o
4192 1 0 -12 0 1029.44 1224.04 117.27 o
4193 2 0 12 1 1322.25 1647.25 141.09 o
4193 1 1 -12 0 1322.25 1647.25 141.09 o
4194 2 0 12 -1 1322.25 1591.56 142.87 o
4194 1 -1 -12 0 1322.25 1591.56 142.87 o
4195 2 0 12 -2 2942.36 3037.86 193.46 o
4195 1 -2 -12 0 2942.36 3037.86 193.46 o
4196 2 1 12 -7 229.54 325.21 109.53 <
4196 1 -6 -12 0 229.54 325.21 109.53 <
4197 2 -1 12 7 229.54 374.45 77.85 o
4197 1 6 -12 0 229.54 374.45 77.85 o
4198 2 0 13 -1 100.93 33.09 112.97 <
4198 1 -1 -13 0 100.93 33.09 112.97 <
4199 2 0 13 -2 440.69 504.49 131.82 o
4199 1 -2 -13 0 440.69 504.49 131.82 o
4200 2 -2 0 11 1231.75 1290.78 96.15 o
4200 1 10 0 -1 1231.75 1290.78 96.15 o
4201 2 -2 0 10 934.55 1012.66 74.78 o
4201 1 9 0 -1 934.55 1012.66 74.78 o
4202 2 2 0 -9 513.25 476.92 48.69 o
4202 1 -8 0 1 513.25 476.92 48.69 o
4203 2 -2 0 9 513.25 486.99 49.67 o
4203 1 8 0 -1 513.25 486.99 49.67 o
4204 2 2 0 -9 513.25 504.12 38.92 o
4204 1 -8 0 1 513.25 504.12 38.92 o
4205 2 -2 0 9 513.25 506.76 43.22 o
4205 1 8 0 -1 513.25 506.76 43.22 o
4206 2 -2 0 8 1482.19 1546.86 75.64 o
4206 1 7 0 -1 1482.19 1546.86 75.64 o
4207 2 -1 0 1 8307.34 -0.37 3.01 <
4207 1 1 0 -1 8307.34 -0.37 3.01 <
4208 2 1 0 -1 8307.34 -0.25 1.04 <
4208 1 -1 0 1 8307.34 -0.25 1.04 <
4209 2 0 0 -7 102.94 143.05 30.27 o
4209 1 -6 0 -1 102.94 143.05 30.27 o
4210 2 0 0 7 102.94 146.61 28.79 o
4210 1 6 0 1 102.94 146.61 28.79 o
4211 2 0 0 -8 3459.26 3997.65 160.43 o
4211 1 -7 0 -1 3459.26 3997.65 160.43 o
4212 2 0 0 8 3459.26 4221.01 155.15 o
4212 1 7 0 1 3459.26 4221.01 155.15 o
4213 2 -1 0 14 176.56 218.02 133.17 <
4213 1 12 0 1 176.56 218.02 133.17 <
4214 2 -2 1 11 1046.26 1191.94 96.15 o
4214 1 10 -1 -1 1046.26 1191.94 96.15 o
4215 2 -2 -1 11 1043.01 1156.51 93.63 o
4215 1 10 1 -1 1043.01 1156.51 93.63 o
4216 2 -2 1 10 4147.50 4474.27 225.01 o
4216 1 9 -1 -1 4147.50 4474.27 225.01 o
4217 2 -2 1 9 979.57 1108.25 74.17 o
4217 1 8 -1 -1 979.57 1108.25 74.17 o
4218 2 -2 1 9 979.57 1134.96 51.02 o
4218 1 8 -1 -1 979.57 1134.96 51.02 o
4219 2 -2 1 9 979.57 1154.12 59.68 o
4219 1 8 -1 -1 979.57 1154.12 59.68 o
4220 2 2 1 -9 979.58 1040.53 59.25 o
4220 1 -8 -1 1 979.58 1040.53 59.25 o
4221 2 2 1 -9 979.58 1238.04 68.33 o
4221 1 -8 -1 1 979.58 1238.04 68.33 o
4222 2 -2 -1 8 2831.83 2726.33 111.13 o
4222 1 7 1 -1 2831.83 2726.33 111.13 o
4223 2 -1 1 2 3468.04 3619.70 137.46 o
4223 1 2 -1 -1 3468.04 3619.70 137.46 o
4224 2 1 1 -1 50.12 0.25 2.76 <
4224 1 -1 -1 1 50.12 0.25 2.76 <
4225 2 -1 1 1 50.13 -2.39 1.47 <
4225 1 1 -1 -1 50.13 -2.39 1.47 <
4226 2 -1 1 1 50.13 -3.07 3.44 <
4226 1 1 -1 -1 50.13 -3.07 3.44 <
4227 2 1 1 -1 50.12 -1.90 2.46 <
4227 1 -1 -1 1 50.12 -1.90 2.46 <
4228 2 -1 1 1 50.13 0.86 1.66 <
4228 1 1 -1 -1 50.13 0.86 1.66 <
4229 2 1 1 -1 50.12 1.11 1.41 <
4229 1 -1 -1 1 50.12 1.11 1.41 <
4230 2 1 1 -1 50.12 -1.66 2.15 <
4230 1 -1 -1 1 50.12 -1.66 2.15 <
4231 2 -1 1 1 50.13 -0.12 1.90 <
4231 1 1 -1 -1 50.13 -0.12 1.90 <
4232 2 -1 1 1 50.13 -0.74 2.09 <
4232 1 1 -1 -1 50.13 -0.74 2.09 <
4233 2 -1 -1 1 46.69 60.60 7.24 o
4233 1 1 1 -1 46.69 60.60 7.24 o
4234 2 -1 -1 1 46.69 49.91 5.77 o
4234 1 1 1 -1 46.69 49.91 5.77 o
4235 2 1 1 0 8226.36 -5.34 6.02 <
4235 1 0 -1 1 8226.36 -5.34 6.02 <
4236 2 0 1 6 2035.40 2018.14 114.07 o
4236 1 5 -1 1 2035.40 2018.14 114.07 o
4237 2 0 1 7 1496.99 1446.73 90.07 o
4237 1 6 -1 1 1496.99 1446.73 90.07 o
4238 2 0 1 -7 1496.99 1390.80 70.05 o
4238 1 -6 -1 -1 1496.99 1390.80 70.05 o
4239 2 0 1 7 1496.99 1404.00 53.17 o
4239 1 6 -1 1 1496.99 1404.00 53.17 o
4240 2 0 1 7 1496.99 1496.64 62.87 o
4240 1 6 -1 1 1496.99 1496.64 62.87 o
4241 2 0 -1 -7 1381.28 1763.77 80.61 o
4241 1 -6 1 -1 1381.28 1763.77 80.61 o
4242 2 0 -1 7 1381.28 1694.58 76.81 o
4242 1 6 1 1 1381.28 1694.58 76.81 o
4243 2 0 1 -8 1542.47 1632.20 80.00 o
4243 1 -7 -1 -1 1542.47 1632.20 80.00 o
4244 2 0 1 8 1542.47 1672.97 104.37 o
4244 1 7 -1 1 1542.47 1672.97 104.37 o
4245 2 0 -1 8 1595.30 1749.84 79.51 o
4245 1 7 1 1 1595.30 1749.84 79.51 o
4246 2 0 1 9 1960.11 2103.11 128.56 o
4246 1 8 -1 1 1960.11 2103.11 128.56 o
4247 2 -1 1 14 535.72 747.74 141.15 o
4247 1 12 -1 1 535.72 747.74 141.15 o
4248 2 -2 2 11 3630.08 4175.21 234.04 o
4248 1 10 -2 -1 3630.08 4175.21 234.04 o
4249 2 -2 2 11 3630.08 4870.46 237.91 o
4249 1 10 -2 -1 3630.08 4870.46 237.91 o
4250 2 -2 2 10 3234.45 3407.70 177.13 o
4250 1 9 -2 -1 3234.45 3407.70 177.13 o
4251 2 -2 2 10 3234.45 3436.99 179.09 o
4251 1 9 -2 -1 3234.45 3436.99 179.09 o
4252 2 2 2 -10 3234.44 3198.04 141.03 o
4252 1 -9 -2 1 3234.44 3198.04 141.03 o
4253 2 -2 2 10 3234.45 3557.75 132.31 o
4253 1 9 -2 -1 3234.45 3557.75 132.31 o
4254 2 2 2 -10 3234.44 3195.89 142.44 o
4254 1 -9 -2 1 3234.44 3195.89 142.44 o
4255 2 -2 2 9 1613.11 1761.81 113.77 o
4255 1 8 -2 -1 1613.11 1761.81 113.77 o
4256 2 -2 2 9 1613.11 1813.20 76.13 o
4256 1 8 -2 -1 1613.11 1813.20 76.13 o
4257 2 -2 2 9 1613.11 1745.85 72.14 o
4257 1 8 -2 -1 1613.11 1745.85 72.14 o
4258 2 2 2 -9 1613.11 1711.53 85.03 o
4258 1 -8 -2 1 1613.11 1711.53 85.03 o
4259 2 2 2 -9 1613.11 1654.06 83.31 o
4259 1 -8 -2 1 1613.11 1654.06 83.31 o
4260 2 -2 2 9 1613.11 1611.51 100.75 o
4260 1 8 -2 -1 1613.11 1611.51 100.75 o
4261 2 -2 -2 8 1260.30 1309.94 69.32 o
4261 1 7 2 -1 1260.30 1309.94 69.32 o
4262 2 1 2 -1 4390.88 4790.70 177.93 o
4262 1 -1 -2 1 4390.88 4790.70 177.93 o
4263 2 -1 2 1 4390.88 4511.17 155.76 o
4263 1 1 -2 -1 4390.88 4511.17 155.76 o
4264 2 -1 2 1 4390.88 4599.02 160.24 o
4264 1 1 -2 -1 4390.88 4599.02 160.24 o
4265 2 -1 2 1 4390.88 4802.61 160.67 o
4265 1 1 -2 -1 4390.88 4802.61 160.67 o
4266 2 1 2 -1 4390.88 4379.41 175.71 o
4266 1 -1 -2 1 4390.88 4379.41 175.71 o
4267 2 -1 2 1 4390.88 4611.98 175.35 o
4267 1 1 -2 -1 4390.88 4611.98 175.35 o
4268 2 -1 2 1 4390.88 4622.60 187.44 o
4268 1 1 -2 -1 4390.88 4622.60 187.44 o
4269 2 1 -2 -1 4442.21 4596.14 161.16 o
4269 1 -1 2 1 4442.21 4596.14 161.16 o
4270 2 1 -2 -1 4442.21 4663.86 157.73 o
4270 1 -1 2 1 4442.21 4663.86 157.73 o
4271 2 -1 -2 1 4442.21 4605.29 162.82 o
4271 1 1 2 -1 4442.21 4605.29 162.82 o
4272 2 1 -2 -1 4442.21 4839.76 177.43 o
4272 1 -1 2 1 4442.21 4839.76 177.43 o
4273 2 1 -2 -1 4442.21 4696.83 189.34 o
4273 1 -1 2 1 4442.21 4696.83 189.34 o
4274 2 0 2 6 4458.19 4637.64 236.86 o
4274 1 5 -2 1 4458.19 4637.64 236.86 o
4275 2 0 2 6 4458.19 5017.56 220.29 o
4275 1 5 -2 1 4458.19 5017.56 220.29 o
4276 2 0 2 7 2187.81 2220.25 125.31 o
4276 1 6 -2 1 2187.81 2220.25 125.31 o
4277 2 0 2 7 2187.81 2161.13 124.20 o
4277 1 6 -2 1 2187.81 2161.13 124.20 o
4278 2 0 2 7 2187.81 2172.48 80.49 o
4278 1 6 -2 1 2187.81 2172.48 80.49 o
4279 2 0 2 -7 2187.81 2097.71 92.83 o
4279 1 -6 -2 -1 2187.81 2097.71 92.83 o
4280 2 0 -2 7 2253.32 2611.40 104.93 o
4280 1 6 2 1 2253.32 2611.40 104.93 o
4281 2 0 -2 -7 2253.32 2480.51 106.52 o
4281 1 -6 2 -1 2253.32 2480.51 106.52 o
4282 2 0 2 8 3311.16 3357.36 118.25 o
4282 1 7 -2 1 3311.16 3357.36 118.25 o
4283 2 0 2 -8 3311.15 3568.31 137.77 o
4283 1 -7 -2 -1 3311.15 3568.31 137.77 o
4284 2 0 2 8 3311.16 2917.83 170.37 o
4284 1 7 -2 1 3311.16 2917.83 170.37 o
4285 2 0 2 8 3311.16 3354.35 176.88 o
4285 1 7 -2 1 3311.16 3354.35 176.88 o
4286 2 0 2 9 422.41 245.58 78.77 o
4286 1 8 -2 1 422.41 245.58 78.77 o
4287 2 0 2 9 422.41 444.44 68.58 o
4287 1 8 -2 1 422.41 444.44 68.58 o
4288 2 -1 2 14 672.38 1104.57 151.89 o
4288 1 12 -2 1 672.38 1104.57 151.89 o
4289 2 -2 3 11 231.22 133.72 62.32 <
4289 1 10 -3 -1 231.22 133.72 62.32 <
4290 2 -2 3 11 231.22 373.71 89.45 o
4290 1 10 -3 -1 231.22 373.71 89.45 o
4291 2 2 3 -10 416.59 385.69 45.80 o
4291 1 -9 -3 1 416.59 385.69 45.80 o
4292 2 -2 3 10 416.59 388.08 57.22 o
4292 1 9 -3 -1 416.59 388.08 57.22 o
4293 2 -2 3 10 416.59 411.90 71.96 o
4293 1 9 -3 -1 416.59 411.90 71.96 o
4294 2 2 3 -10 416.59 367.15 47.21 o
4294 1 -9 -3 1 416.59 367.15 47.21 o
4295 2 2 3 -9 8795.55 9238.63 349.65 o
4295 1 -8 -3 1 8795.55 9238.63 349.65 o
4296 2 -2 3 9 8795.56 9247.96 312.87 o
4296 1 8 -3 -1 8795.56 9247.96 312.87 o
4297 2 -2 3 9 8795.56 9151.76 310.05 o
4297 1 8 -3 -1 8795.56 9151.76 310.05 o
4298 2 2 3 -9 8795.55 8523.68 343.63 o
4298 1 -8 -3 1 8795.55 8523.68 343.63 o
4299 2 2 3 -9 8795.55 8769.63 320.42 o
4299 1 -8 -3 1 8795.55 8769.63 320.42 o
4300 2 -2 3 9 8795.56 8437.42 419.02 o
4300 1 8 -3 -1 8795.56 8437.42 419.02 o
4301 2 2 3 -8 3585.05 3666.24 151.95 o
4301 1 -7 -3 1 3585.05 3666.24 151.95 o
4302 2 -2 3 8 3585.05 3485.74 182.10 o
4302 1 7 -3 -1 3585.05 3485.74 182.10 o
4303 2 -1 3 3 3836.79 3879.65 153.24 o
4303 1 3 -3 -1 3836.79 3879.65 153.24 o
4304 2 1 3 -2 22406.20 23629.50 798.94 o
4304 1 -2 -3 1 22406.20 23629.50 798.94 o
4305 2 -1 3 2 22406.10 22618.80 916.39 o
4305 1 2 -3 -1 22406.10 22618.80 916.39 o
4306 2 -1 3 2 22406.10 22313.00 754.12 o
4306 1 2 -3 -1 22406.10 22313.00 754.12 o
4307 2 -1 3 2 22406.10 23063.50 843.09 o
4307 1 2 -3 -1 22406.10 23063.50 843.09 o
4308 2 1 3 -1 82.05 121.19 11.60 o
4308 1 -1 -3 1 82.05 121.19 11.60 o
4309 2 -1 3 1 82.05 111.43 10.38 o
4309 1 1 -3 -1 82.05 111.43 10.38 o
4310 2 -1 3 1 82.05 111.00 15.35 o
4310 1 1 -3 -1 82.05 111.00 15.35 o
4311 2 -1 3 1 82.05 98.85 10.87 o
4311 1 1 -3 -1 82.05 98.85 10.87 o
4312 2 1 3 -1 82.05 89.15 12.95 o
4312 1 -1 -3 1 82.05 89.15 12.95 o
4313 2 1 3 -1 82.05 103.33 14.12 o
4313 1 -1 -3 1 82.05 103.33 14.12 o
4314 2 -1 3 1 82.05 125.68 13.94 o
4314 1 1 -3 -1 82.05 125.68 13.94 o
4315 2 1 -3 -1 92.53 80.67 7.37 o
4315 1 -1 3 1 92.53 80.67 7.37 o
4316 2 -1 3 0 1024.69 1195.56 57.47 o
4316 1 0 -3 -1 1024.69 1195.56 57.47 o
4317 2 -1 3 0 1024.69 1139.20 42.36 o
4317 1 0 -3 -1 1024.69 1139.20 42.36 o
4318 2 1 3 0 1024.69 1101.56 56.12 o
4318 1 0 -3 1 1024.69 1101.56 56.12 o
4319 2 0 3 6 2095.18 2224.49 112.97 o
4319 1 5 -3 1 2095.18 2224.49 112.97 o
4320 2 0 3 6 2095.18 2070.81 122.18 o
4320 1 5 -3 1 2095.18 2070.81 122.18 o
4321 2 0 3 7 7220.66 7355.69 360.39 o
4321 1 6 -3 1 7220.66 7355.69 360.39 o
4322 2 0 3 7 7220.66 7608.89 329.27 o
4322 1 6 -3 1 7220.66 7608.89 329.27 o
4323 2 0 3 -7 7220.66 7489.23 269.89 o
4323 1 -6 -3 -1 7220.66 7489.23 269.89 o
4324 2 0 3 -7 7220.66 7503.78 296.42 o
4324 1 -6 -3 -1 7220.66 7503.78 296.42 o
4325 2 0 3 7 7220.66 7557.68 261.36 o
4325 1 6 -3 1 7220.66 7557.68 261.36 o
4326 2 0 -3 7 7317.86 7628.04 271.49 o
4326 1 6 3 1 7317.86 7628.04 271.49 o
4327 2 0 -3 -7 7317.86 7602.32 272.90 o
4327 1 -6 3 -1 7317.86 7602.32 272.90 o
4328 2 0 3 -8 1238.67 1396.63 73.74 o
4328 1 -7 -3 -1 1238.67 1396.63 73.74 o
4329 2 0 3 -8 1238.67 1337.20 81.35 o
4329 1 -7 -3 -1 1238.67 1337.20 81.35 o
4330 2 0 3 8 1238.67 1386.68 57.59 o
4330 1 7 -3 1 1238.67 1386.68 57.59 o
4331 2 0 3 8 1238.67 1248.11 98.42 o
4331 1 7 -3 1 1238.67 1248.11 98.42 o
4332 2 0 3 8 1238.67 1380.30 94.37 o
4332 1 7 -3 1 1238.67 1380.30 94.37 o
4333 2 0 3 9 2840.75 2840.65 155.15 o
4333 1 8 -3 1 2840.75 2840.65 155.15 o
4334 2 0 3 9 2840.75 2173.28 156.93 o
4334 1 8 -3 1 2840.75 2173.28 156.93 o
4335 2 2 4 -11 795.29 734.72 74.66 o
4335 1 -10 -4 1 795.29 734.72 74.66 o
4336 2 -2 4 11 795.29 719.19 103.70 o
4336 1 10 -4 -1 795.29 719.19 103.70 o
4337 2 2 4 -10 21.45 -5.65 42.98 <
4337 1 -9 -4 1 21.45 -5.65 42.98 <
4338 2 -2 4 10 21.45 -100.20 49.36 <
4338 1 9 -4 -1 21.45 -100.20 49.36 <
4339 2 -2 4 10 21.45 16.70 29.41 <
4339 1 9 -4 -1 21.45 16.70 29.41 <
4340 2 2 4 -10 21.45 6.94 40.64 <
4340 1 -9 -4 1 21.45 6.94 40.64 <
4341 2 2 4 -9 1175.08 1143.37 66.98 o
4341 1 -8 -4 1 1175.08 1143.37 66.98 o
4342 2 -2 4 9 1175.08 1173.27 59.06 o
4342 1 8 -4 -1 1175.08 1173.27 59.06 o
4343 2 2 4 -9 1175.08 1117.71 71.28 o
4343 1 -8 -4 1 1175.08 1117.71 71.28 o
4344 2 -2 4 8 852.84 484.96 72.26 o
4344 1 7 -4 -1 852.84 484.96 72.26 o
4345 2 2 4 -8 852.84 709.98 46.35 o
4345 1 -7 -4 1 852.84 709.98 46.35 o
4346 2 -1 4 3 853.28 839.65 53.66 o
4346 1 3 -4 -1 853.28 839.65 53.66 o
4347 2 -1 4 2 1804.67 1807.67 86.45 o
4347 1 2 -4 -1 1804.67 1807.67 86.45 o
4348 2 -1 4 2 1804.67 1896.27 70.79 o
4348 1 2 -4 -1 1804.67 1896.27 70.79 o
4349 2 -1 4 2 1804.67 1890.56 84.54 o
4349 1 2 -4 -1 1804.67 1890.56 84.54 o
4350 2 1 4 -2 1804.67 1881.59 87.43 o
4350 1 -2 -4 1 1804.67 1881.59 87.43 o
4351 2 -1 4 1 7186.73 7293.99 269.47 o
4351 1 1 -4 -1 7186.73 7293.99 269.47 o
4352 2 -1 4 1 7186.73 6817.31 243.43 o
4352 1 1 -4 -1 7186.73 6817.31 243.43 o
4353 2 -1 4 1 7186.73 6967.12 234.47 o
4353 1 1 -4 -1 7186.73 6967.12 234.47 o
4354 2 1 4 -1 7186.73 7058.96 269.65 o
4354 1 -1 -4 1 7186.73 7058.96 269.65 o
4355 2 1 4 -1 7186.73 6939.37 269.96 o
4355 1 -1 -4 1 7186.73 6939.37 269.96 o
4356 2 1 4 -1 7186.73 6862.68 243.68 o
4356 1 -1 -4 1 7186.73 6862.68 243.68 o
4357 2 1 -4 -1 7029.29 7864.97 268.61 o
4357 1 -1 4 1 7029.29 7864.97 268.61 o
4358 2 1 4 0 4229.17 4093.80 171.11 o
4358 1 0 -4 1 4229.17 4093.80 171.11 o
4359 2 1 -4 0 4233.47 4455.42 155.45 o
4359 1 0 4 1 4233.47 4455.42 155.45 o
4360 2 0 4 6 569.24 576.87 61.76 o
4360 1 5 -4 1 569.24 576.87 61.76 o
4361 2 0 4 6 569.24 573.99 59.98 o
4361 1 5 -4 1 569.24 573.99 59.98 o
4362 2 0 4 7 2999.76 3167.65 153.92 o
4362 1 6 -4 1 2999.76 3167.65 153.92 o
4363 2 0 4 7 2999.76 2935.45 164.23 o
4363 1 6 -4 1 2999.76 2935.45 164.23 o
4364 2 0 4 -7 2999.75 2890.69 138.82 o
4364 1 -6 -4 -1 2999.75 2890.69 138.82 o
4365 2 0 4 7 2999.76 3036.01 114.26 o
4365 1 6 -4 1 2999.76 3036.01 114.26 o
4366 2 0 4 -7 2999.75 3060.76 122.36 o
4366 1 -6 -4 -1 2999.75 3060.76 122.36 o
4367 2 0 4 8 278.37 236.01 51.63 o
4367 1 7 -4 1 278.37 236.01 51.63 o
4368 2 0 4 8 278.37 215.01 58.88 o
4368 1 7 -4 1 278.37 215.01 58.88 o
4369 2 0 4 -8 278.38 317.91 43.35 o
4369 1 -7 -4 -1 278.38 317.91 43.35 o
4370 2 0 4 8 278.37 290.46 29.35 o
4370 1 7 -4 1 278.37 290.46 29.35 o
4371 2 0 4 -8 278.38 272.04 50.53 o
4371 1 -7 -4 -1 278.38 272.04 50.53 o
4372 2 0 4 -9 3082.06 3021.96 131.08 o
4372 1 -8 -4 -1 3082.06 3021.96 131.08 o
4373 2 0 4 9 3082.06 3050.44 175.84 o
4373 1 8 -4 1 3082.06 3050.44 175.84 o
4374 2 0 4 9 3082.06 2714.61 172.95 o
4374 1 8 -4 1 3082.06 2714.61 172.95 o
4375 2 0 4 -9 3082.06 3019.50 146.31 o
4375 1 -8 -4 -1 3082.06 3019.50 146.31 o
4376 2 -2 5 11 914.67 717.28 105.97 o
4376 1 10 -5 -1 914.67 717.28 105.97 o
4377 2 2 5 -11 914.67 780.83 70.61 o
4377 1 -10 -5 1 914.67 780.83 70.61 o
4378 2 -2 5 10 2981.05 2777.42 115.36 o
4378 1 9 -5 -1 2981.05 2777.42 115.36 o
4379 2 2 5 -10 2981.05 2712.21 122.24 o
4379 1 -9 -5 1 2981.05 2712.21 122.24 o
4380 2 2 5 -10 2981.05 2773.79 134.27 o
4380 1 -9 -5 1 2981.05 2773.79 134.27 o
4381 2 2 5 -9 500.82 497.49 54.83 o
4381 1 -8 -5 1 500.82 497.49 54.83 o
4382 2 2 5 -9 500.82 461.94 46.11 o
4382 1 -8 -5 1 500.82 461.94 46.11 o
4383 2 -2 5 9 500.82 235.08 57.59 o
4383 1 8 -5 -1 500.82 235.08 57.59 o
4384 2 -2 5 9 500.82 487.91 41.93 o
4384 1 8 -5 -1 500.82 487.91 41.93 o
4385 2 -2 5 8 4201.38 4019.70 198.68 o
4385 1 7 -5 -1 4201.38 4019.70 198.68 o
4386 2 -1 5 2 9903.99 10435.10 413.01 o
4386 1 2 -5 -1 9903.99 10435.10 413.01 o
4387 2 -1 5 2 9903.99 9885.37 384.77 o
4387 1 2 -5 -1 9903.99 9885.37 384.77 o
4388 2 -1 5 2 9903.99 10016.40 337.61 o
4388 1 2 -5 -1 9903.99 10016.40 337.61 o
4389 2 1 5 -2 9903.98 9982.87 387.04 o
4389 1 -2 -5 1 9903.98 9982.87 387.04 o
4390 2 1 5 -1 749.44 768.73 44.82 o
4390 1 -1 -5 1 749.44 768.73 44.82 o
4391 2 1 5 -1 749.44 768.61 46.97 o
4391 1 -1 -5 1 749.44 768.61 46.97 o
4392 2 1 5 -1 749.44 732.45 38.13 o
4392 1 -1 -5 1 749.44 732.45 38.13 o
4393 2 -1 5 1 749.44 721.71 37.27 o
4393 1 1 -5 -1 749.44 721.71 37.27 o
4394 2 -1 5 1 749.44 710.35 47.64 o
4394 1 1 -5 -1 749.44 710.35 47.64 o
4395 2 -1 5 1 749.44 762.47 33.09 o
4395 1 1 -5 -1 749.44 762.47 33.09 o
4396 2 0 5 7 1948.02 2058.90 113.52 o
4396 1 6 -5 1 1948.02 2058.90 113.52 o
4397 2 0 5 -7 1948.02 1875.64 101.79 o
4397 1 -6 -5 -1 1948.02 1875.64 101.79 o
4398 2 0 5 -7 1948.02 2014.88 87.49 o
4398 1 -6 -5 -1 1948.02 2014.88 87.49 o
4399 2 0 5 7 1948.02 1894.12 82.95 o
4399 1 6 -5 1 1948.02 1894.12 82.95 o
4400 2 0 5 8 1888.03 2003.40 121.81 o
4400 1 7 -5 1 1888.03 2003.40 121.81 o
4401 2 0 5 -8 1888.03 1883.13 107.50 o
4401 1 -7 -5 -1 1888.03 1883.13 107.50 o
4402 2 0 5 -8 1888.03 1953.12 91.30 o
4402 1 -7 -5 -1 1888.03 1953.12 91.30 o
4403 2 0 5 8 1888.03 1979.40 84.05 o
4403 1 7 -5 1 1888.03 1979.40 84.05 o
4404 2 0 5 -9 1789.70 1791.10 94.37 o
4404 1 -8 -5 -1 1789.70 1791.10 94.37 o
4405 2 0 5 9 1789.69 1685.37 132.92 o
4405 1 8 -5 1 1789.69 1685.37 132.92 o
4406 2 0 5 -9 1789.70 1690.47 109.47 o
4406 1 -8 -5 -1 1789.70 1690.47 109.47 o
4407 2 -2 6 11 582.68 15.84 83.38 <
4407 1 10 -6 -1 582.68 15.84 83.38 <
4408 2 2 6 -11 582.67 530.83 61.70 o
4408 1 -10 -6 1 582.67 530.83 61.70 o
4409 2 2 6 -10 329.96 284.08 45.31 o
4409 1 -9 -6 1 329.96 284.08 45.31 o
4410 2 -2 6 10 329.96 353.33 46.29 o
4410 1 9 -6 -1 329.96 353.33 46.29 o
4411 2 2 6 -10 329.96 380.22 62.38 o
4411 1 -9 -6 1 329.96 380.22 62.38 o
4412 2 -2 6 9 562.10 390.78 65.32 o
4412 1 8 -6 -1 562.10 390.78 65.32 o
4413 2 2 6 -9 562.10 624.58 63.85 o
4413 1 -8 -6 1 562.10 624.58 63.85 o
4414 2 -2 6 9 562.10 618.74 50.22 o
4414 1 8 -6 -1 562.10 618.74 50.22 o
4415 2 2 6 -9 562.10 579.33 46.42 o
4415 1 -8 -6 1 562.10 579.33 46.42 o
4416 2 -2 6 8 1134.82 1019.04 92.83 o
4416 1 7 -6 -1 1134.82 1019.04 92.83 o
4417 2 2 6 -8 1134.82 1022.48 78.77 o
4417 1 -7 -6 1 1134.82 1022.48 78.77 o
4418 2 2 6 -8 1134.82 1031.39 55.75 o
4418 1 -7 -6 1 1134.82 1031.39 55.75 o
4419 2 -2 6 8 1134.82 1110.16 66.18 o
4419 1 7 -6 -1 1134.82 1110.16 66.18 o
4420 2 -1 6 2 1020.80 1035.01 62.56 o
4420 1 2 -6 -1 1020.80 1035.01 62.56 o
4421 2 -1 6 2 1020.80 987.36 46.23 o
4421 1 2 -6 -1 1020.80 987.36 46.23 o
4422 2 -1 6 2 1020.80 928.30 66.18 o
4422 1 2 -6 -1 1020.80 928.30 66.18 o
4423 2 1 6 -2 1020.81 1019.84 69.56 o
4423 1 -2 -6 1 1020.81 1019.84 69.56 o
4424 2 1 6 -1 5639.92 5593.39 222.74 o
4424 1 -1 -6 1 5639.92 5593.39 222.74 o
4425 2 -1 6 1 5639.89 5456.60 188.98 o
4425 1 1 -6 -1 5639.89 5456.60 188.98 o
4426 2 1 6 -1 5639.92 5483.31 225.88 o
4426 1 -1 -6 1 5639.92 5483.31 225.88 o
4427 2 -1 6 1 5639.89 5476.31 200.46 o
4427 1 1 -6 -1 5639.89 5476.31 200.46 o
4428 2 1 6 -1 5639.92 5417.86 186.46 o
4428 1 -1 -6 1 5639.92 5417.86 186.46 o
4429 2 -1 6 1 5639.89 5914.86 227.41 o
4429 1 1 -6 -1 5639.89 5914.86 227.41 o
4430 2 1 6 -1 5639.92 5521.56 200.95 o
4430 1 -1 -6 1 5639.92 5521.56 200.95 o
4431 2 0 6 7 373.71 390.66 38.80 o
4431 1 6 -6 1 373.71 390.66 38.80 o
4432 2 0 6 7 373.71 470.05 62.93 o
4432 1 6 -6 1 373.71 470.05 62.93 o
4433 2 0 6 -7 373.71 381.64 57.65 o
4433 1 -6 -6 -1 373.71 381.64 57.65 o
4434 2 0 6 -7 373.71 364.75 37.45 o
4434 1 -6 -6 -1 373.71 364.75 37.45 o
4435 2 0 6 8 564.40 591.42 46.54 o
4435 1 7 -6 1 564.40 591.42 46.54 o
4436 2 0 6 -8 564.40 605.11 69.38 o
4436 1 -7 -6 -1 564.40 605.11 69.38 o
4437 2 0 6 -8 564.40 574.91 46.35 o
4437 1 -7 -6 -1 564.40 574.91 46.35 o
4438 2 0 6 8 564.40 673.63 70.11 o
4438 1 7 -6 1 564.40 673.63 70.11 o
4439 2 0 6 9 5192.33 5204.45 257.98 o
4439 1 8 -6 1 5192.33 5204.45 257.98 o
4440 2 0 6 -9 5192.33 4978.51 197.33 o
4440 1 -8 -6 -1 5192.33 4978.51 197.33 o
4441 2 0 6 -9 5192.33 5044.82 227.84 o
4441 1 -8 -6 -1 5192.33 5044.82 227.84 o
4442 2 -2 7 11 369.58 -201.50 90.50 <
4442 1 10 -7 -1 369.58 -201.50 90.50 <
4443 2 2 7 -10 739.58 836.33 79.45 o
4443 1 -9 -7 1 739.58 836.33 79.45 o
4444 2 2 7 -10 739.58 690.46 50.77 o
4444 1 -9 -7 1 739.58 690.46 50.77 o
4445 2 -2 7 10 739.57 802.44 59.55 o
4445 1 9 -7 -1 739.57 802.44 59.55 o
4446 2 -2 7 9 640.11 516.22 73.98 o
4446 1 8 -7 -1 640.11 516.22 73.98 o
4447 2 -2 7 9 640.11 618.13 55.07 o
4447 1 8 -7 -1 640.11 618.13 55.07 o
4448 2 2 7 -9 640.11 621.75 43.22 o
4448 1 -8 -7 1 640.11 621.75 43.22 o
4449 2 2 7 -9 640.11 662.52 70.18 o
4449 1 -8 -7 1 640.11 662.52 70.18 o
4450 2 2 7 -8 176.85 165.40 32.05 o
4450 1 -7 -7 1 176.85 165.40 32.05 o
4451 2 2 7 -8 176.85 145.88 63.61 <
4451 1 -7 -7 1 176.85 145.88 63.61 <
4452 2 -2 7 8 176.85 61.46 64.10 <
4452 1 7 -7 -1 176.85 61.46 64.10 <
4453 2 -2 7 8 176.85 137.71 47.64 <
4453 1 7 -7 -1 176.85 137.71 47.64 <
4454 2 -1 7 3 2412.99 2485.79 128.13 o
4454 1 3 -7 -1 2412.99 2485.79 128.13 o
4455 2 1 7 -2 3260.38 3315.06 152.45 o
4455 1 -2 -7 1 3260.38 3315.06 152.45 o
4456 2 -1 7 2 3260.38 3419.31 130.16 o
4456 1 2 -7 -1 3260.38 3419.31 130.16 o
4457 2 1 7 -2 3260.38 3468.42 144.71 o
4457 1 -2 -7 1 3260.38 3468.42 144.71 o
4458 2 -1 7 2 3260.38 3343.98 151.65 o
4458 1 2 -7 -1 3260.38 3343.98 151.65 o
4459 2 -1 7 2 3260.38 2821.19 114.44 o
4459 1 2 -7 -1 3260.38 2821.19 114.44 o
4460 2 -1 7 1 64.63 74.47 27.57 <
4460 1 1 -7 -1 64.63 74.47 27.57 <
4461 2 -1 7 1 64.63 36.04 14.86 <
4461 1 1 -7 -1 64.63 36.04 14.86 <
4462 2 1 7 -1 64.63 35.18 16.70 <
4462 1 -1 -7 1 64.63 35.18 16.70 <
4463 2 1 7 -1 64.63 73.67 24.19 o
4463 1 -1 -7 1 64.63 73.67 24.19 o
4464 2 -1 7 1 64.63 61.33 12.71 o
4464 1 1 -7 -1 64.63 61.33 12.71 o
4465 2 1 7 -1 64.63 44.70 9.03 o
4465 1 -1 -7 1 64.63 44.70 9.03 o
4466 2 1 7 -1 64.63 51.45 24.62 <
4466 1 -1 -7 1 64.63 51.45 24.62 <
4467 2 1 7 0 104.06 143.91 51.94 <
4467 1 0 -7 1 104.06 143.91 51.94 <
4468 2 -1 7 0 104.06 95.10 52.49 <
4468 1 0 -7 -1 104.06 95.10 52.49 <
4469 2 -1 7 0 104.06 89.27 25.97 o
4469 1 0 -7 -1 104.06 89.27 25.97 o
4470 2 0 7 6 167.66 214.27 45.25 o
4470 1 5 -7 1 167.66 214.27 45.25 o
4471 2 0 7 -6 167.66 173.26 32.48 o
4471 1 -5 -7 -1 167.66 173.26 32.48 o
4472 2 0 7 6 167.66 137.59 57.10 <
4472 1 5 -7 1 167.66 137.59 57.10 <
4473 2 0 7 -6 167.66 170.56 26.77 o
4473 1 -5 -7 -1 167.66 170.56 26.77 o
4474 2 0 7 -6 167.66 139.43 64.22 <
4474 1 -5 -7 -1 167.66 139.43 64.22 <
4475 2 0 7 -7 2088.34 2110.84 90.37 o
4475 1 -6 -7 -1 2088.34 2110.84 90.37 o
4476 2 0 7 7 2088.34 2293.07 96.88 o
4476 1 6 -7 1 2088.34 2293.07 96.88 o
4477 2 0 7 -7 2088.34 2028.51 86.45 o
4477 1 -6 -7 -1 2088.34 2028.51 86.45 o
4478 2 0 7 -7 2088.34 2047.73 116.65 o
4478 1 -6 -7 -1 2088.34 2047.73 116.65 o
4479 2 0 7 7 2088.34 2102.06 123.22 o
4479 1 6 -7 1 2088.34 2102.06 123.22 o
4480 2 0 7 -8 1204.28 1167.56 63.54 o
4480 1 -7 -7 -1 1204.28 1167.56 63.54 o
4481 2 0 7 8 1204.28 1156.45 91.36 o
4481 1 7 -7 1 1204.28 1156.45 91.36 o
4482 2 0 7 -8 1204.28 1201.02 93.44 o
4482 1 -7 -7 -1 1204.28 1201.02 93.44 o
4483 2 0 7 8 1204.28 1218.27 68.39 o
4483 1 7 -7 1 1204.28 1218.27 68.39 o
4484 2 0 7 -9 235.80 148.88 47.09 o
4484 1 -8 -7 -1 235.80 148.88 47.09 o
4485 2 0 7 9 235.80 72.39 88.90 <
4485 1 8 -7 1 235.80 72.39 88.90 <
4486 2 0 7 -9 235.80 318.95 84.30 o
4486 1 -8 -7 -1 235.80 318.95 84.30 o
4487 2 -2 8 11 2603.66 1428.19 143.48 o
4487 1 10 -8 -1 2603.66 1428.19 143.48 o
4488 2 -2 8 10 3366.52 3363.93 138.57 o
4488 1 9 -8 -1 3366.52 3363.93 138.57 o
4489 2 2 8 -10 3366.53 3302.90 164.97 o
4489 1 -9 -8 1 3366.53 3302.90 164.97 o
4490 2 -2 8 10 3366.52 2696.44 184.00 o
4490 1 9 -8 -1 3366.52 2696.44 184.00 o
4491 2 -2 8 9 241.74 270.20 50.47 o
4491 1 8 -8 -1 241.74 270.20 50.47 o
4492 2 -2 8 9 241.74 173.93 62.01 <
4492 1 8 -8 -1 241.74 173.93 62.01 <
4493 2 2 8 -9 241.74 190.26 63.85 <
4493 1 -8 -8 1 241.74 190.26 63.85 <
4494 2 2 8 -8 1011.19 954.03 94.55 o
4494 1 -7 -8 1 1011.19 954.03 94.55 o
4495 2 -2 8 8 1011.19 951.26 73.86 o
4495 1 7 -8 -1 1011.19 951.26 73.86 o
4496 2 -2 8 8 1011.19 919.03 99.09 o
4496 1 7 -8 -1 1011.19 919.03 99.09 o
4497 2 -1 8 3 747.82 594.06 63.54 o
4497 1 3 -8 -1 747.82 594.06 63.54 o
4498 2 1 8 -2 6363.54 6304.60 219.12 o
4498 1 -2 -8 1 6363.54 6304.60 219.12 o
4499 2 -1 8 2 6363.55 6022.61 218.32 o
4499 1 2 -8 -1 6363.55 6022.61 218.32 o
4500 2 1 8 -2 6363.54 6438.44 263.63 o
4500 1 -2 -8 1 6363.54 6438.44 263.63 o
4501 2 -1 8 2 6363.55 6390.43 237.36 o
4501 1 2 -8 -1 6363.55 6390.43 237.36 o
4502 2 1 8 -2 6363.54 6762.61 272.11 o
4502 1 -2 -8 1 6363.54 6762.61 272.11 o
4503 2 -1 8 2 6363.55 6740.01 271.25 o
4503 1 2 -8 -1 6363.55 6740.01 271.25 o
4504 2 -1 8 1 1115.90 1144.66 49.06 o
4504 1 1 -8 -1 1115.90 1144.66 49.06 o
4505 2 1 8 -1 1115.90 1172.47 44.08 o
4505 1 -1 -8 1 1115.90 1172.47 44.08 o
4506 2 -1 8 1 1115.90 1106.17 59.31 o
4506 1 1 -8 -1 1115.90 1106.17 59.31 o
4507 2 1 8 -1 1115.90 1136.92 78.95 o
4507 1 -1 -8 1 1115.90 1136.92 78.95 o
4508 2 1 8 -1 1115.90 1097.57 67.96 o
4508 1 -1 -8 1 1115.90 1097.57 67.96 o
4509 2 -1 8 1 1115.90 1210.29 80.06 o
4509 1 1 -8 -1 1115.90 1210.29 80.06 o
4510 2 -1 8 0 380.99 352.78 65.88 o
4510 1 0 -8 -1 380.99 352.78 65.88 o
4511 2 -1 8 0 380.99 399.13 32.97 o
4511 1 0 -8 -1 380.99 399.13 32.97 o
4512 2 1 8 0 380.99 356.95 45.49 o
4512 1 0 -8 1 380.99 356.95 45.49 o
4513 2 1 8 0 380.99 406.07 57.96 o
4513 1 0 -8 1 380.99 406.07 57.96 o
4514 2 -1 8 0 380.99 406.62 44.45 o
4514 1 0 -8 -1 380.99 406.62 44.45 o
4515 2 1 8 0 380.99 438.43 67.54 o
4515 1 0 -8 1 380.99 438.43 67.54 o
4516 2 0 8 6 4063.67 4281.55 167.49 o
4516 1 5 -8 1 4063.67 4281.55 167.49 o
4517 2 0 8 -6 4063.67 4014.97 196.90 o
4517 1 -5 -8 -1 4063.67 4014.97 196.90 o
4518 2 0 8 6 4063.67 4162.69 203.46 o
4518 1 5 -8 1 4063.67 4162.69 203.46 o
4519 2 0 8 7 137.34 168.10 43.16 o
4519 1 6 -8 1 137.34 168.10 43.16 o
4520 2 0 8 7 137.34 217.03 63.24 o
4520 1 6 -8 1 137.34 217.03 63.24 o
4521 2 0 8 -7 137.34 159.01 63.30 <
4521 1 -6 -8 -1 137.34 159.01 63.30 <
4522 2 0 8 -8 1600.72 1465.33 64.16 o
4522 1 -7 -8 -1 1600.72 1465.33 64.16 o
4523 2 0 8 8 1600.72 1572.59 81.17 o
4523 1 7 -8 1 1600.72 1572.59 81.17 o
4524 2 0 8 8 1600.72 1559.88 109.16 o
4524 1 7 -8 1 1600.72 1559.88 109.16 o
4525 2 0 8 -8 1600.72 1416.34 66.55 o
4525 1 -7 -8 -1 1600.72 1416.34 66.55 o
4526 2 0 8 -8 1600.72 1722.82 113.21 o
4526 1 -7 -8 -1 1600.72 1722.82 113.21 o
4527 2 0 8 -9 399.09 396.49 45.56 o
4527 1 -8 -8 -1 399.09 396.49 45.56 o
4528 2 0 8 -9 399.09 483.24 98.48 o
4528 1 -8 -8 -1 399.09 483.24 98.48 o
4529 2 0 8 9 399.09 417.61 103.08 o
4529 1 8 -8 1 399.09 417.61 103.08 o
4530 2 0 8 -9 399.09 399.62 52.55 o
4530 1 -8 -8 -1 399.09 399.62 52.55 o
4531 2 -2 9 11 110.70 -195.67 90.31 <
4531 1 10 -9 -1 110.70 -195.67 90.31 <
4532 2 -2 9 10 468.54 302.74 91.97 o
4532 1 9 -9 -1 468.54 302.74 91.97 o
4533 2 2 9 -10 468.53 591.61 86.02 o
4533 1 -9 -9 1 468.53 591.61 86.02 o
4534 2 -2 9 9 509.85 461.45 79.75 o
4534 1 8 -9 -1 509.85 461.45 79.75 o
4535 2 2 9 -9 509.85 565.58 81.17 o
4535 1 -8 -9 1 509.85 565.58 81.17 o
4536 2 -2 9 9 509.85 541.57 62.38 o
4536 1 8 -9 -1 509.85 541.57 62.38 o
4537 2 -2 9 8 605.36 647.60 73.49 o
4537 1 7 -9 -1 605.36 647.60 73.49 o
4538 2 -2 9 8 605.36 660.07 96.88 o
4538 1 7 -9 -1 605.36 660.07 96.88 o
4539 2 2 9 -8 605.36 616.23 91.91 o
4539 1 -7 -9 1 605.36 616.23 91.91 o
4540 2 -1 9 3 1161.63 917.80 79.88 o
4540 1 3 -9 -1 1161.63 917.80 79.88 o
4541 2 -1 9 2 490.82 423.08 52.80 o
4541 1 2 -9 -1 490.82 423.08 52.80 o
4542 2 1 9 -2 490.82 481.77 60.41 o
4542 1 -2 -9 1 490.82 481.77 60.41 o
4543 2 1 9 -2 490.82 524.32 74.35 o
4543 1 -2 -9 1 490.82 524.32 74.35 o
4544 2 -1 9 2 490.82 425.96 73.74 o
4544 1 2 -9 -1 490.82 425.96 73.74 o
4545 2 1 9 -2 490.82 466.98 31.99 o
4545 1 -2 -9 1 490.82 466.98 31.99 o
4546 2 1 9 -1 63.99 33.89 25.79 <
4546 1 -1 -9 1 63.99 33.89 25.79 <
4547 2 1 9 -1 63.99 42.61 29.84 <
4547 1 -1 -9 1 63.99 42.61 29.84 <
4548 2 -1 9 1 63.98 40.28 20.51 <
4548 1 1 -9 -1 63.98 40.28 20.51 <
4549 2 -1 9 1 63.98 61.46 33.95 <
4549 1 1 -9 -1 63.98 61.46 33.95 <
4550 2 -1 9 1 63.98 55.32 12.83 o
4550 1 1 -9 -1 63.98 55.32 12.83 o
4551 2 1 9 0 737.62 750.62 83.99 o
4551 1 0 -9 1 737.62 750.62 83.99 o
4552 2 -1 9 0 737.62 798.14 81.17 o
4552 1 0 -9 -1 737.62 798.14 81.17 o
4553 2 -1 9 0 737.62 867.52 45.68 o
4553 1 0 -9 -1 737.62 867.52 45.68 o
4554 2 -1 9 0 737.62 718.08 58.82 o
4554 1 0 -9 -1 737.62 718.08 58.82 o
4555 2 1 9 0 737.62 859.23 63.24 o
4555 1 0 -9 1 737.62 859.23 63.24 o
4556 2 1 9 1 3136.64 3140.45 172.34 o
4556 1 1 -9 1 3136.64 3140.45 172.34 o
4557 2 -1 9 -1 3136.64 3481.32 174.61 o
4557 1 -1 -9 -1 3136.64 3481.32 174.61 o
4558 2 0 9 -6 636.74 663.93 90.68 o
4558 1 -5 -9 -1 636.74 663.93 90.68 o
4559 2 0 9 6 636.74 676.21 84.85 o
4559 1 5 -9 1 636.74 676.21 84.85 o
4560 2 0 9 6 636.74 638.39 66.68 o
4560 1 5 -9 1 636.74 638.39 66.68 o
4561 2 0 9 7 1196.13 1179.10 98.66 o
4561 1 6 -9 1 1196.13 1179.10 98.66 o
4562 2 0 9 -7 1196.13 1136.62 99.95 o
4562 1 -6 -9 -1 1196.13 1136.62 99.95 o
4563 2 0 9 7 1196.13 1152.89 74.90 o
4563 1 6 -9 1 1196.13 1152.89 74.90 o
4564 2 0 9 8 765.88 867.64 66.92 o
4564 1 7 -9 1 765.88 867.64 66.92 o
4565 2 0 9 8 765.88 736.32 86.20 o
4565 1 7 -9 1 765.88 736.32 86.20 o
4566 2 0 9 -8 765.88 828.60 94.98 o
4566 1 -7 -9 -1 765.88 828.60 94.98 o
4567 2 0 9 9 632.42 602.05 107.87 o
4567 1 8 -9 1 632.42 602.05 107.87 o
4568 2 0 9 -9 632.42 613.04 108.49 o
4568 1 -8 -9 -1 632.42 613.04 108.49 o
4569 2 2 10 -10 588.23 591.36 91.30 o
4569 1 -9 -10 1 588.23 591.36 91.30 o
4570 2 -2 10 10 588.23 520.33 99.09 o
4570 1 9 -10 -1 588.23 520.33 99.09 o
4571 2 2 10 -9 211.79 181.24 74.47 <
4571 1 -8 -10 1 211.79 181.24 74.47 <
4572 2 -2 10 9 211.79 313.36 61.40 o
4572 1 8 -10 -1 211.79 313.36 61.40 o
4573 2 -2 10 9 211.79 319.44 74.90 o
4573 1 8 -10 -1 211.79 319.44 74.90 o
4574 2 -2 10 8 390.12 510.51 91.54 o
4574 1 7 -10 -1 390.12 510.51 91.54 o
4575 2 2 10 -8 390.12 323.19 90.25 o
4575 1 -7 -10 1 390.12 323.19 90.25 o
4576 2 -2 10 8 390.12 382.25 71.59 o
4576 1 7 -10 -1 390.12 382.25 71.59 o
4577 2 -1 10 3 1893.26 1324.18 102.84 o
4577 1 3 -10 -1 1893.26 1324.18 102.84 o
4578 2 -1 10 2 1666.18 1821.79 96.64 o
4578 1 2 -10 -1 1666.18 1821.79 96.64 o
4579 2 1 10 -2 1666.18 1953.92 122.91 o
4579 1 -2 -10 1 1666.18 1953.92 122.91 o
4580 2 1 10 -2 1666.18 1796.93 70.48 o
4580 1 -2 -10 1 1666.18 1796.93 70.48 o
4581 2 -1 10 2 1666.18 1831.92 118.12 o
4581 1 2 -10 -1 1666.18 1831.92 118.12 o
4582 2 -1 10 1 3353.73 3835.69 183.14 o
4582 1 1 -10 -1 3353.73 3835.69 183.14 o
4583 2 1 10 -1 3353.72 3747.59 181.67 o
4583 1 -1 -10 1 3353.72 3747.59 181.67 o
4584 2 -1 10 1 3353.73 3444.66 126.11 o
4584 1 1 -10 -1 3353.73 3444.66 126.11 o
4585 2 -1 10 1 3353.73 3592.75 149.38 o
4585 1 1 -10 -1 3353.73 3592.75 149.38 o
4586 2 -1 10 0 1012.28 1043.05 102.65 o
4586 1 0 -10 -1 1012.28 1043.05 102.65 o
4587 2 -1 10 0 1012.28 1017.88 71.03 o
4587 1 0 -10 -1 1012.28 1017.88 71.03 o
4588 2 -1 10 0 1012.28 1113.90 52.74 o
4588 1 0 -10 -1 1012.28 1113.90 52.74 o
4589 2 1 10 0 1012.28 1039.67 105.23 o
4589 1 0 -10 1 1012.28 1039.67 105.23 o
4590 2 -1 10 -1 724.47 835.59 103.94 o
4590 1 -1 -10 -1 724.47 835.59 103.94 o
4591 2 1 10 1 724.47 785.62 106.89 o
4591 1 1 -10 1 724.47 785.62 106.89 o
4592 2 0 10 -6 2793.85 2584.88 163.68 o
4592 1 -5 -10 -1 2793.85 2584.88 163.68 o
4593 2 0 10 6 2793.85 3002.25 166.01 o
4593 1 5 -10 1 2793.85 3002.25 166.01 o
4594 2 0 10 6 2793.85 2779.87 132.06 o
4594 1 5 -10 1 2793.85 2779.87 132.06 o
4595 2 0 10 -7 918.93 902.70 99.65 o
4595 1 -6 -10 -1 918.93 902.70 99.65 o
4596 2 0 10 7 918.93 959.25 72.94 o
4596 1 6 -10 1 918.93 959.25 72.94 o
4597 2 0 10 7 918.93 1088.36 101.36 o
4597 1 6 -10 1 918.93 1088.36 101.36 o
4598 2 0 10 -8 371.98 361.44 87.12 o
4598 1 -7 -10 -1 371.98 361.44 87.12 o
4599 2 0 10 8 371.98 436.34 61.21 o
4599 1 7 -10 1 371.98 436.34 61.21 o
4600 2 0 10 8 371.98 402.76 74.78 o
4600 1 7 -10 1 371.98 402.76 74.78 o
4601 2 0 10 9 3509.03 3959.22 230.36 o
4601 1 8 -10 1 3509.03 3959.22 230.36 o
4602 2 0 10 -9 3509.02 3790.08 215.62 o
4602 1 -8 -10 -1 3509.02 3790.08 215.62 o
4603 2 -2 11 8 1174.94 1126.12 97.99 o
4603 1 7 -11 -1 1174.94 1126.12 97.99 o
4604 2 -2 11 8 1174.94 1633.98 125.19 o
4604 1 7 -11 -1 1174.94 1633.98 125.19 o
4605 2 2 11 -8 1174.94 1234.85 126.60 o
4605 1 -7 -11 1 1174.94 1234.85 126.60 o
4606 2 -1 11 3 1794.42 1451.21 127.27 o
4606 1 3 -11 -1 1794.42 1451.21 127.27 o
4607 2 1 11 -3 1794.41 1722.45 71.89 o
4607 1 -3 -11 1 1794.41 1722.45 71.89 o
4608 2 1 11 -3 1794.41 2018.93 140.60 o
4608 1 -3 -11 1 1794.41 2018.93 140.60 o
4609 2 1 11 -2 853.68 851.13 109.10 o
4609 1 -2 -11 1 853.68 851.13 109.10 o
4610 2 -1 11 2 853.68 934.44 103.45 o
4610 1 2 -11 -1 853.68 934.44 103.45 o
4611 2 -1 11 2 853.68 946.60 75.58 o
4611 1 2 -11 -1 853.68 946.60 75.58 o
4612 2 1 11 -1 178.58 182.53 51.08 o
4612 1 -1 -11 1 178.58 182.53 51.08 o
4613 2 -1 11 1 178.58 251.17 58.69 o
4613 1 1 -11 -1 178.58 251.17 58.69 o
4614 2 -1 11 1 178.58 207.21 34.63 o
4614 1 1 -11 -1 178.58 207.21 34.63 o
4615 2 -1 11 0 2161.69 1822.78 77.85 o
4615 1 0 -11 -1 2161.69 1822.78 77.85 o
4616 2 -1 11 0 2161.69 2233.33 141.64 o
4616 1 0 -11 -1 2161.69 2233.33 141.64 o
4617 2 1 11 0 2161.69 2459.51 151.59 o
4617 1 0 -11 1 2161.69 2459.51 151.59 o
4618 2 -1 11 0 2161.69 2376.38 109.84 o
4618 1 0 -11 -1 2161.69 2376.38 109.84 o
4619 2 -1 11 -1 41.86 27.26 97.31 <
4619 1 -1 -11 -1 41.86 27.26 97.31 <
4620 2 0 11 6 288.18 325.46 72.63 o
4620 1 5 -11 1 288.18 325.46 72.63 o
4621 2 0 11 -6 288.18 165.77 92.40 <
4621 1 -5 -11 -1 288.18 165.77 92.40 <
4622 2 0 11 -7 803.84 981.72 111.62 o
4622 1 -6 -11 -1 803.84 981.72 111.62 o
4623 2 0 11 7 803.83 1247.62 101.36 o
4623 1 6 -11 1 803.83 1247.62 101.36 o
4624 2 0 11 -8 311.33 250.31 91.97 <
4624 1 -7 -11 -1 311.33 250.31 91.97 <
4625 2 0 11 8 311.33 501.54 79.20 o
4625 1 7 -11 1 311.33 501.54 79.20 o
4626 2 -1 12 3 18.14 4.54 67.41 <
4626 1 3 -12 -1 18.14 4.54 67.41 <
4627 2 1 12 -3 18.14 -74.29 104.31 <
4627 1 -3 -12 1 18.14 -74.29 104.31 <
4628 2 -1 12 2 47.14 108.18 85.16 <
4628 1 2 -12 -1 47.14 108.18 85.16 <
4629 2 -1 12 2 47.14 73.06 61.83 <
4629 1 2 -12 -1 47.14 73.06 61.83 <
4630 2 1 12 -2 47.14 41.56 95.35 <
4630 1 -2 -12 1 47.14 41.56 95.35 <
4631 2 -1 12 1 842.53 948.38 70.54 o
4631 1 1 -12 -1 842.53 948.38 70.54 o
4632 2 1 12 -1 842.53 891.53 96.88 o
4632 1 -1 -12 1 842.53 891.53 96.88 o
4633 2 -1 12 1 842.53 1084.80 103.14 o
4633 1 1 -12 -1 842.53 1084.80 103.14 o
4634 2 -1 12 0 1273.70 1458.58 138.20 o
4634 1 0 -12 -1 1273.70 1458.58 138.20 o
4635 2 1 12 0 1273.70 1566.76 141.27 o
4635 1 0 -12 1 1273.70 1566.76 141.27 o
4636 2 -1 12 -1 664.84 659.27 129.85 o
4636 1 -1 -12 -1 664.84 659.27 129.85 o
4637 2 0 12 -6 138.83 223.54 106.64 <
4637 1 -5 -12 -1 138.83 223.54 106.64 <
4638 2 1 13 -3 66.57 80.80 119.54 <
4638 1 -3 -13 1 66.57 80.80 119.54 <
4639 2 -1 13 3 66.57 223.36 82.45 <
4639 1 3 -13 -1 66.57 223.36 82.45 <
4640 2 1 13 -2 1520.44 2078.67 159.08 o
4640 1 -2 -13 1 1520.44 2078.67 159.08 o
4641 2 -1 13 1 115.88 173.50 66.86 <
4641 1 1 -13 -1 115.88 173.50 66.86 <
4642 2 1 13 -1 115.88 143.67 56.36 <
4642 1 -1 -13 1 115.88 143.67 56.36 <
4643 2 -1 13 0 68.00 171.17 110.27 <
4643 1 0 -13 -1 68.00 171.17 110.27 <
4644 2 -1 13 -1 3590.61 4219.42 243.80 o
4644 1 -1 -13 -1 3590.61 4219.42 243.80 o
4645 2 -3 0 11 519.31 548.75 53.66 o
4645 1 10 0 -2 519.31 548.75 53.66 o
4646 2 -3 0 10 932.76 1085.60 72.57 o
4646 1 9 0 -2 932.76 1085.60 72.57 o
4647 2 -2 0 3 5008.04 5779.60 221.64 o
4647 1 3 0 -2 5008.04 5779.60 221.64 o
4648 2 -2 0 3 5008.04 5776.10 201.93 o
4648 1 3 0 -2 5008.04 5776.10 201.93 o
4649 2 -2 0 2 6946.19 6559.39 233.79 o
4649 1 2 0 -2 6946.19 6559.39 233.79 o
4650 2 2 0 -2 6946.19 6848.99 234.53 o
4650 1 -2 0 2 6946.19 6848.99 234.53 o
4651 2 -2 0 2 6946.19 7037.05 229.68 o
4651 1 2 0 -2 6946.19 7037.05 229.68 o
4652 2 -1 0 -7 5900.00 3104.41 123.96 o
4652 1 -6 0 -2 5900.00 3104.41 123.96 o
4653 2 0 0 13 131.67 395.45 126.78 o
4653 1 11 0 2 131.67 395.45 126.78 o
4654 2 -3 1 11 1239.08 1443.66 94.06 o
4654 1 10 -1 -2 1239.08 1443.66 94.06 o
4655 2 -3 -1 11 1231.00 1331.79 86.45 o
4655 1 10 1 -2 1231.00 1331.79 86.45 o
4656 2 -3 1 10 4753.93 5446.90 195.42 o
4656 1 9 -1 -2 4753.93 5446.90 195.42 o
4657 2 -3 1 10 4753.93 5449.60 261.55 o
4657 1 9 -1 -2 4753.93 5449.60 261.55 o
4658 2 3 1 -10 4753.93 5277.57 208.62 o
4658 1 -9 -1 2 4753.93 5277.57 208.62 o
4659 2 -3 -1 10 4885.79 5131.63 248.28 o
4659 1 9 1 -2 4885.79 5131.63 248.28 o
4660 2 -2 -1 3 10077.70 10303.20 349.83 o
4660 1 3 1 -2 10077.70 10303.20 349.83 o
4661 2 -2 -1 3 10077.70 10513.80 378.44 o
4661 1 3 1 -2 10077.70 10513.80 378.44 o
4662 2 2 -1 -3 10077.80 9854.55 342.83 o
4662 1 -3 1 2 10077.80 9854.55 342.83 o
4663 2 2 1 -2 99.16 69.81 11.91 o
4663 1 -2 -1 2 99.16 69.81 11.91 o
4664 2 -2 1 2 99.16 76.81 9.76 o
4664 1 2 -1 -2 99.16 76.81 9.76 o
4665 2 2 1 -2 99.16 72.63 11.60 o
4665 1 -2 -1 2 99.16 72.63 11.60 o
4666 2 -2 1 2 99.16 62.13 12.83 o
4666 1 2 -1 -2 99.16 62.13 12.83 o
4667 2 -2 1 2 99.16 65.63 7.43 o
4667 1 2 -1 -2 99.16 65.63 7.43 o
4668 2 -2 -1 2 92.37 94.73 10.68 o
4668 1 2 1 -2 92.37 94.73 10.68 o
4669 2 -2 -1 2 92.37 95.72 12.34 o
4669 1 2 1 -2 92.37 95.72 12.34 o
4670 2 2 -1 -2 92.37 99.83 10.93 o
4670 1 -2 1 2 92.37 99.83 10.93 o
4671 2 -2 -1 2 92.37 108.24 12.34 o
4671 1 2 1 -2 92.37 108.24 12.34 o
4672 2 2 -1 -2 92.37 57.77 12.22 o
4672 1 -2 1 2 92.37 57.77 12.22 o
4673 2 -2 -1 2 92.37 100.57 9.45 o
4673 1 2 1 -2 92.37 100.57 9.45 o
4674 2 -1 1 -6 13414.00 13998.60 483.24 o
4674 1 -5 -1 -2 13414.00 13998.60 483.24 o
4675 2 -1 -1 -6 13573.10 14561.40 500.74 o
4675 1 -5 1 -2 13573.10 14561.40 500.74 o
4676 2 -1 1 -7 6125.96 6408.72 244.17 o
4676 1 -6 -1 -2 6125.96 6408.72 244.17 o
4677 2 1 1 7 6125.97 7073.52 331.35 o
4677 1 6 -1 2 6125.97 7073.52 331.35 o
4678 2 -1 -1 -7 6251.11 6448.51 235.08 o
4678 1 -6 1 -2 6251.11 6448.51 235.08 o
4679 2 1 1 8 2107.77 2621.72 158.46 o
4679 1 7 -1 2 2107.77 2621.72 158.46 o
4680 2 0 1 13 2252.14 2727.93 193.27 o
4680 1 11 -1 2 2252.14 2727.93 193.27 o
4681 2 -3 2 12 833.70 1107.39 115.61 o
4681 1 11 -2 -2 833.70 1107.39 115.61 o
4682 2 -3 2 11 7672.66 9660.05 409.76 o
4682 1 10 -2 -2 7672.66 9660.05 409.76 o
4683 2 -3 2 11 7672.66 8823.78 435.91 o
4683 1 10 -2 -2 7672.66 8823.78 435.91 o
4684 2 -3 2 10 1405.21 1357.83 89.51 o
4684 1 9 -2 -2 1405.21 1357.83 89.51 o
4685 2 -3 2 10 1405.21 1606.17 105.29 o
4685 1 9 -2 -2 1405.21 1606.17 105.29 o
4686 2 -3 2 10 1405.21 1486.76 71.59 o
4686 1 9 -2 -2 1405.21 1486.76 71.59 o
4687 2 -3 2 10 1405.21 1400.07 66.80 o
4687 1 9 -2 -2 1405.21 1400.07 66.80 o
4688 2 3 2 -10 1405.20 1399.15 79.14 o
4688 1 -9 -2 2 1405.20 1399.15 79.14 o
4689 2 -3 2 9 2436.63 2621.53 108.92 o
4689 1 8 -2 -2 2436.63 2621.53 108.92 o
4690 2 -3 2 9 2436.63 2716.94 113.03 o
4690 1 8 -2 -2 2436.63 2716.94 113.03 o
4691 2 -3 2 9 2436.63 3005.87 155.51 o
4691 1 8 -2 -2 2436.63 3005.87 155.51 o
4692 2 -2 2 3 12732.70 12965.80 429.40 o
4692 1 3 -2 -2 12732.70 12965.80 429.40 o
4693 2 -2 2 3 12732.70 12687.00 422.22 o
4693 1 3 -2 -2 12732.70 12687.00 422.22 o
4694 2 2 2 -3 12732.70 12207.00 429.95 o
4694 1 -3 -2 2 12732.70 12207.00 429.95 o
4695 2 -2 2 3 12732.70 12578.60 505.96 o
4695 1 3 -2 -2 12732.70 12578.60 505.96 o
4696 2 -2 2 3 12732.70 12752.30 467.28 o
4696 1 3 -2 -2 12732.70 12752.30 467.28 o
4697 2 -2 -2 3 12687.70 12671.30 404.05 o
4697 1 3 2 -2 12687.70 12671.30 404.05 o
4698 2 2 -2 -3 12687.70 10975.70 394.28 o
4698 1 -3 2 2 12687.70 10975.70 394.28 o
4699 2 -2 2 2 47101.50 45634.70 1782.62 o
4699 1 2 -2 -2 47101.50 45634.70 1782.62 o
4700 2 2 2 -2 47101.50 45145.60 1517.21 o
4700 1 -2 -2 2 47101.50 45145.60 1517.21 o
4701 2 2 2 -2 47101.50 42831.80 1480.00 o
4701 1 -2 -2 2 47101.50 42831.80 1480.00 o
4702 2 2 2 -2 47101.50 42461.80 1651.24 o
4702 1 -2 -2 2 47101.50 42461.80 1651.24 o
4703 2 -2 2 2 47101.50 43783.40 1476.20 o
4703 1 2 -2 -2 47101.50 43783.40 1476.20 o
4704 2 2 2 -2 47101.50 43829.30 1672.48 o
4704 1 -2 -2 2 47101.50 43829.30 1672.48 o
4705 2 -2 2 2 47101.50 43665.00 1521.57 o
4705 1 2 -2 -2 47101.50 43665.00 1521.57 o
4706 2 -2 2 2 47101.50 48068.10 1651.60 o
4706 1 2 -2 -2 47101.50 48068.10 1651.60 o
4707 2 -2 2 2 47101.50 44729.70 1512.85 o
4707 1 2 -2 -2 47101.50 44729.70 1512.85 o
4708 2 -2 -2 2 46711.20 46949.90 1499.22 o
4708 1 2 2 -2 46711.20 46949.90 1499.22 o
4709 2 2 -2 -2 46711.20 42988.60 1466.93 o
4709 1 -2 2 2 46711.20 42988.60 1466.93 o
4710 2 2 -2 -2 46711.20 42074.90 1493.69 o
4710 1 -2 2 2 46711.20 42074.90 1493.69 o
4711 2 2 2 -1 7360.85 7629.27 253.93 o
4711 1 -1 -2 2 7360.85 7629.27 253.93 o
4712 2 -2 2 1 7360.85 7555.23 260.32 o
4712 1 1 -2 -2 7360.85 7555.23 260.32 o
4713 2 2 -2 -1 7699.76 7452.51 256.33 o
4713 1 -1 2 2 7699.76 7452.51 256.33 o
4714 2 -1 2 -6 3958.17 3827.28 153.55 o
4714 1 -5 -2 -2 3958.17 3827.28 153.55 o
4715 2 1 2 6 3958.17 4111.24 209.42 o
4715 1 5 -2 2 3958.17 4111.24 209.42 o
4716 2 1 2 6 3958.17 4337.97 190.33 o
4716 1 5 -2 2 3958.17 4337.97 190.33 o
4717 2 1 -2 6 3821.59 4591.10 168.22 o
4717 1 5 2 2 3821.59 4591.10 168.22 o
4718 2 -1 -2 -6 3821.59 4526.76 169.27 o
4718 1 -5 2 -2 3821.59 4526.76 169.27 o
4719 2 1 2 7 5012.14 5472.38 242.39 o
4719 1 6 -2 2 5012.14 5472.38 242.39 o
4720 2 -1 2 -7 5012.14 4873.65 194.93 o
4720 1 -6 -2 -2 5012.14 4873.65 194.93 o
4721 2 1 2 7 5012.14 5451.26 266.46 o
4721 1 6 -2 2 5012.14 5451.26 266.46 o
4722 2 1 -2 7 4880.75 5774.20 213.90 o
4722 1 6 2 2 4880.75 5774.20 213.90 o
4723 2 -1 -2 -7 4880.75 5987.98 217.89 o
4723 1 -6 2 -2 4880.75 5987.98 217.89 o
4724 2 1 2 8 899.64 930.14 87.98 o
4724 1 7 -2 2 899.64 930.14 87.98 o
4725 2 1 2 8 899.64 833.20 91.66 o
4725 1 7 -2 2 899.64 833.20 91.66 o
4726 2 0 2 13 337.07 470.90 133.60 o
4726 1 11 -2 2 337.07 470.90 133.60 o
4727 2 -3 3 12 2670.57 2999.73 179.64 o
4727 1 11 -3 -2 2670.57 2999.73 179.64 o
4728 2 -3 3 11 2504.81 2772.01 113.46 o
4728 1 10 -3 -2 2504.81 2772.01 113.46 o
4729 2 3 3 -11 2504.81 2643.21 126.04 o
4729 1 -10 -3 2 2504.81 2643.21 126.04 o
4730 2 -3 3 11 2504.81 3082.80 166.32 o
4730 1 10 -3 -2 2504.81 3082.80 166.32 o
4731 2 3 3 -10 762.64 788.75 55.44 o
4731 1 -9 -3 2 762.64 788.75 55.44 o
4732 2 -3 3 10 762.64 804.22 47.21 o
4732 1 9 -3 -2 762.64 804.22 47.21 o
4733 2 -3 3 10 762.64 846.40 85.22 o
4733 1 9 -3 -2 762.64 846.40 85.22 o
4734 2 3 3 -10 762.64 726.25 59.49 o
4734 1 -9 -3 2 762.64 726.25 59.49 o
4735 2 -3 3 10 762.64 855.85 51.39 o
4735 1 9 -3 -2 762.64 855.85 51.39 o
4736 2 -3 3 9 1286.55 1309.63 63.36 o
4736 1 8 -3 -2 1286.55 1309.63 63.36 o
4737 2 -3 3 9 1286.55 1088.11 98.36 o
4737 1 8 -3 -2 1286.55 1088.11 98.36 o
4738 2 -3 3 9 1286.55 1290.35 64.90 o
4738 1 8 -3 -2 1286.55 1290.35 64.90 o
4739 2 -2 -3 4 15545.10 16489.50 561.28 o
4739 1 4 3 -2 15545.10 16489.50 561.28 o
4740 2 -2 3 3 1312.76 1562.40 73.37 o
4740 1 3 -3 -2 1312.76 1562.40 73.37 o
4741 2 -2 3 3 1312.76 1553.99 68.70 o
4741 1 3 -3 -2 1312.76 1553.99 68.70 o
4742 2 -2 3 3 1312.76 1600.58 64.77 o
4742 1 3 -3 -2 1312.76 1600.58 64.77 o
4743 2 2 3 -3 1312.76 1581.80 60.11 o
4743 1 -3 -3 2 1312.76 1581.80 60.11 o
4744 2 -2 -3 3 1599.93 1292.93 51.82 o
4744 1 3 3 -2 1599.93 1292.93 51.82 o
4745 2 2 -3 -3 1599.93 1185.73 51.63 o
4745 1 -3 3 2 1599.93 1185.73 51.63 o
4746 2 -2 3 2 760.38 819.76 40.52 o
4746 1 2 -3 -2 760.38 819.76 40.52 o
4747 2 -2 3 2 760.38 720.29 38.50 o
4747 1 2 -3 -2 760.38 720.29 38.50 o
4748 2 -2 3 2 760.38 773.83 30.88 o
4748 1 2 -3 -2 760.38 773.83 30.88 o
4749 2 2 3 -2 760.39 738.10 31.74 o
4749 1 -2 -3 2 760.39 738.10 31.74 o
4750 2 -2 3 2 760.38 750.13 34.26 o
4750 1 2 -3 -2 760.38 750.13 34.26 o
4751 2 2 3 -2 760.39 759.83 41.01 o
4751 1 -2 -3 2 760.39 759.83 41.01 o
4752 2 -2 3 2 760.38 783.29 35.12 o
4752 1 2 -3 -2 760.38 783.29 35.12 o
4753 2 2 3 -2 760.39 778.37 40.46 o
4753 1 -2 -3 2 760.39 778.37 40.46 o
4754 2 2 -3 -2 761.58 756.33 33.77 o
4754 1 -2 3 2 761.58 756.33 33.77 o
4755 2 -2 -3 2 761.59 772.85 31.86 o
4755 1 2 3 -2 761.59 772.85 31.86 o
4756 2 2 3 -1 20329.90 20628.80 734.54 o
4756 1 -1 -3 2 20329.90 20628.80 734.54 o
4757 2 -2 3 1 20329.90 17140.30 668.41 o
4757 1 1 -3 -2 20329.90 17140.30 668.41 o
4758 2 -2 3 1 20329.90 21061.00 733.49 o
4758 1 1 -3 -2 20329.90 21061.00 733.49 o
4759 2 2 3 -1 20329.90 20514.90 656.93 o
4759 1 -1 -3 2 20329.90 20514.90 656.93 o
4760 2 2 -3 -1 20452.90 22317.00 753.69 o
4760 1 -1 3 2 20452.90 22317.00 753.69 o
4761 2 1 3 5 9549.89 10143.40 418.96 o
4761 1 4 -3 2 9549.89 10143.40 418.96 o
4762 2 1 3 5 9549.89 10133.40 476.00 o
4762 1 4 -3 2 9549.89 10133.40 476.00 o
4763 2 -1 3 -6 1268.33 1178.24 62.44 o
4763 1 -5 -3 -2 1268.33 1178.24 62.44 o
4764 2 1 3 6 1268.32 1261.43 86.87 o
4764 1 5 -3 2 1268.32 1261.43 86.87 o
4765 2 1 3 6 1268.32 1197.40 51.39 o
4765 1 5 -3 2 1268.32 1197.40 51.39 o
4766 2 1 3 6 1268.32 1273.41 77.60 o
4766 1 5 -3 2 1268.32 1273.41 77.60 o
4767 2 -1 -3 -6 1190.24 1569.58 71.34 o
4767 1 -5 3 -2 1190.24 1569.58 71.34 o
4768 2 1 -3 6 1190.24 1516.60 71.16 o
4768 1 5 3 2 1190.24 1516.60 71.16 o
4769 2 -1 3 -7 1817.80 1791.46 83.50 o
4769 1 -6 -3 -2 1817.80 1791.46 83.50 o
4770 2 1 3 7 1817.80 1827.63 70.54 o
4770 1 6 -3 2 1817.80 1827.63 70.54 o
4771 2 1 3 7 1817.80 1718.28 112.48 o
4771 1 6 -3 2 1817.80 1718.28 112.48 o
4772 2 1 3 7 1817.80 1859.00 106.34 o
4772 1 6 -3 2 1817.80 1859.00 106.34 o
4773 2 1 3 8 2577.49 2731.12 161.04 o
4773 1 7 -3 2 2577.49 2731.12 161.04 o
4774 2 1 3 8 2577.49 2664.76 156.13 o
4774 1 7 -3 2 2577.49 2664.76 156.13 o
4775 2 0 3 13 81.03 143.11 118.74 <
4775 1 11 -3 2 81.03 143.11 118.74 <
4776 2 -3 4 12 51.16 318.89 99.15 o
4776 1 11 -4 -2 51.16 318.89 99.15 o
4777 2 -3 4 11 5484.28 5953.60 279.47 o
4777 1 10 -4 -2 5484.28 5953.60 279.47 o
4778 2 3 4 -11 5484.28 5419.15 218.51 o
4778 1 -10 -4 2 5484.28 5419.15 218.51 o
4779 2 -3 4 10 767.14 886.25 54.70 o
4779 1 9 -4 -2 767.14 886.25 54.70 o
4780 2 -3 4 10 767.14 711.27 80.98 o
4780 1 9 -4 -2 767.14 711.27 80.98 o
4781 2 3 4 -10 767.14 827.61 60.97 o
4781 1 -9 -4 2 767.14 827.61 60.97 o
4782 2 3 4 -10 767.14 816.32 58.57 o
4782 1 -9 -4 2 767.14 816.32 58.57 o
4783 2 -3 4 9 349.58 333.44 44.33 o
4783 1 8 -4 -2 349.58 333.44 44.33 o
4784 2 -3 4 9 349.58 166.44 63.48 <
4784 1 8 -4 -2 349.58 166.44 63.48 <
4785 2 3 4 -9 349.58 346.03 49.24 o
4785 1 -8 -4 2 349.58 346.03 49.24 o
4786 2 -2 4 3 21067.70 20973.50 776.41 o
4786 1 3 -4 -2 21067.70 20973.50 776.41 o
4787 2 -2 4 3 21067.70 20934.80 695.06 o
4787 1 3 -4 -2 21067.70 20934.80 695.06 o
4788 2 2 4 -3 21067.70 21303.70 779.48 o
4788 1 -3 -4 2 21067.70 21303.70 779.48 o
4789 2 -2 4 3 21067.70 20720.70 838.05 o
4789 1 3 -4 -2 21067.70 20720.70 838.05 o
4790 2 2 -4 -3 21019.70 21771.50 736.07 o
4790 1 -3 4 2 21019.70 21771.50 736.07 o
4791 2 2 4 -2 1930.43 1880.24 71.22 o
4791 1 -2 -4 2 1930.43 1880.24 71.22 o
4792 2 -2 4 2 1930.44 2045.58 78.53 o
4792 1 2 -4 -2 1930.44 2045.58 78.53 o
4793 2 -2 4 2 1930.44 1940.16 89.51 o
4793 1 2 -4 -2 1930.44 1940.16 89.51 o
4794 2 2 4 -2 1930.43 2079.23 88.84 o
4794 1 -2 -4 2 1930.43 2079.23 88.84 o
4795 2 -2 4 2 1930.44 2113.30 88.72 o
4795 1 2 -4 -2 1930.44 2113.30 88.72 o
4796 2 2 4 -2 1930.43 1933.10 88.29 o
4796 1 -2 -4 2 1930.43 1933.10 88.29 o
4797 2 -2 4 2 1930.44 1969.02 74.96 o
4797 1 2 -4 -2 1930.44 1969.02 74.96 o
4798 2 2 -4 -2 2026.39 1520.65 60.17 o
4798 1 -2 4 2 2026.39 1520.65 60.17 o
4799 2 -2 4 1 1851.37 1663.09 62.13 o
4799 1 1 -4 -2 1851.37 1663.09 62.13 o
4800 2 2 4 -1 1851.37 1758.68 62.32 o
4800 1 -1 -4 2 1851.37 1758.68 62.32 o
4801 2 -2 4 1 1851.37 1858.51 82.82 o
4801 1 1 -4 -2 1851.37 1858.51 82.82 o
4802 2 2 4 -1 1851.37 1756.28 83.25 o
4802 1 -1 -4 2 1851.37 1756.28 83.25 o
4803 2 2 -4 -1 1853.59 1760.64 69.13 o
4803 1 -1 4 2 1853.59 1760.64 69.13 o
4804 2 1 4 5 957.96 1000.44 66.98 o
4804 1 4 -4 2 957.96 1000.44 66.98 o
4805 2 1 4 5 957.96 991.42 81.41 o
4805 1 4 -4 2 957.96 991.42 81.41 o
4806 2 1 4 6 2872.21 2964.92 114.44 o
4806 1 5 -4 2 2872.21 2964.92 114.44 o
4807 2 1 4 6 2872.21 3251.70 148.95 o
4807 1 5 -4 2 2872.21 3251.70 148.95 o
4808 2 -1 4 -6 2872.21 3113.99 142.81 o
4808 1 -5 -4 -2 2872.21 3113.99 142.81 o
4809 2 -1 4 -6 2872.21 2952.58 120.21 o
4809 1 -5 -4 -2 2872.21 2952.58 120.21 o
4810 2 1 4 6 2872.21 3064.13 170.07 o
4810 1 5 -4 2 2872.21 3064.13 170.07 o
4811 2 1 4 7 512.14 511.49 60.54 o
4811 1 6 -4 2 512.14 511.49 60.54 o
4812 2 1 4 7 512.14 524.75 33.64 o
4812 1 6 -4 2 512.14 524.75 33.64 o
4813 2 -1 4 -7 512.14 531.87 45.31 o
4813 1 -6 -4 -2 512.14 531.87 45.31 o
4814 2 1 4 7 512.14 490.55 63.85 o
4814 1 6 -4 2 512.14 490.55 63.85 o
4815 2 -1 4 -7 512.14 545.87 58.45 o
4815 1 -6 -4 -2 512.14 545.87 58.45 o
4816 2 1 4 8 2393.48 2545.09 150.97 o
4816 1 7 -4 2 2393.48 2545.09 150.97 o
4817 2 1 4 8 2393.48 2601.03 162.09 o
4817 1 7 -4 2 2393.48 2601.03 162.09 o
4818 2 0 4 13 412.28 334.30 122.30 <
4818 1 11 -4 2 412.28 334.30 122.30 <
4819 2 3 5 -12 235.90 182.47 58.02 o
4819 1 -11 -5 2 235.90 182.47 58.02 o
4820 2 -3 5 12 235.90 325.21 98.72 o
4820 1 11 -5 -2 235.90 325.21 98.72 o
4821 2 3 5 -11 4141.07 4086.00 166.51 o
4821 1 -10 -5 2 4141.07 4086.00 166.51 o
4822 2 -3 5 11 4141.07 4070.22 218.63 o
4822 1 10 -5 -2 4141.07 4070.22 218.63 o
4823 2 3 5 -10 2673.12 2446.74 110.39 o
4823 1 -9 -5 2 2673.12 2446.74 110.39 o
4824 2 3 5 -10 2673.12 2546.51 122.18 o
4824 1 -9 -5 2 2673.12 2546.51 122.18 o
4825 2 -3 5 10 2673.12 2165.98 145.63 o
4825 1 9 -5 -2 2673.12 2165.98 145.63 o
4826 2 -3 5 10 2673.12 2798.05 109.84 o
4826 1 9 -5 -2 2673.12 2798.05 109.84 o
4827 2 -3 5 9 1590.62 1051.83 100.69 o
4827 1 8 -5 -2 1590.62 1051.83 100.69 o
4828 2 3 5 -9 1590.62 1509.35 74.96 o
4828 1 -8 -5 2 1590.62 1509.35 74.96 o
4829 2 -3 5 9 1590.62 1628.40 76.81 o
4829 1 8 -5 -2 1590.62 1628.40 76.81 o
4830 2 3 5 -9 1590.62 1470.36 79.63 o
4830 1 -8 -5 2 1590.62 1470.36 79.63 o
4831 2 2 5 -3 7818.22 7742.91 305.69 o
4831 1 -3 -5 2 7818.22 7742.91 305.69 o
4832 2 -2 5 3 7818.23 7876.14 324.78 o
4832 1 3 -5 -2 7818.23 7876.14 324.78 o
4833 2 -2 5 3 7818.23 7891.67 303.54 o
4833 1 3 -5 -2 7818.23 7891.67 303.54 o
4834 2 -2 5 3 7818.23 7852.13 268.42 o
4834 1 3 -5 -2 7818.23 7852.13 268.42 o
4835 2 2 5 -2 771.45 835.78 48.32 o
4835 1 -2 -5 2 771.45 835.78 48.32 o
4836 2 -2 5 2 771.45 773.16 46.60 o
4836 1 2 -5 -2 771.45 773.16 46.60 o
4837 2 -2 5 2 771.45 874.46 43.04 o
4837 1 2 -5 -2 771.45 874.46 43.04 o
4838 2 2 5 -2 771.45 757.44 49.12 o
4838 1 -2 -5 2 771.45 757.44 49.12 o
4839 2 -2 5 2 771.45 882.93 51.94 o
4839 1 2 -5 -2 771.45 882.93 51.94 o
4840 2 -2 5 2 771.45 780.46 38.37 o
4840 1 2 -5 -2 771.45 780.46 38.37 o
4841 2 2 -5 -2 787.62 741.54 36.16 o
4841 1 -2 5 2 787.62 741.54 36.16 o
4842 2 2 5 -1 10034.30 9899.13 339.83 o
4842 1 -1 -5 2 10034.30 9899.13 339.83 o
4843 2 -2 5 1 10034.30 10560.10 390.97 o
4843 1 1 -5 -2 10034.30 10560.10 390.97 o
4844 2 2 5 -1 10034.30 10073.20 390.78 o
4844 1 -1 -5 2 10034.30 10073.20 390.78 o
4845 2 2 -5 -1 10173.60 10814.70 371.32 o
4845 1 -1 5 2 10173.60 10814.70 371.32 o
4846 2 1 5 5 6152.39 5761.80 250.86 o
4846 1 4 -5 2 6152.39 5761.80 250.86 o
4847 2 1 5 6 14574.30 14385.40 498.47 o
4847 1 5 -5 2 14574.30 14385.40 498.47 o
4848 2 1 5 6 14574.30 14099.60 675.47 o
4848 1 5 -5 2 14574.30 14099.60 675.47 o
4849 2 -1 5 -6 14574.30 14725.30 556.67 o
4849 1 -5 -5 -2 14574.30 14725.30 556.67 o
4850 2 -1 5 -6 14574.30 14592.00 499.58 o
4850 1 -5 -5 -2 14574.30 14592.00 499.58 o
4851 2 1 5 6 14574.30 14497.60 596.40 o
4851 1 5 -5 2 14574.30 14497.60 596.40 o
4852 2 1 5 7 4031.81 4072.13 147.66 o
4852 1 6 -5 2 4031.81 4072.13 147.66 o
4853 2 -1 5 -7 4031.82 3977.89 153.67 o
4853 1 -6 -5 -2 4031.82 3977.89 153.67 o
4854 2 -1 5 -7 4031.82 3668.57 174.67 o
4854 1 -6 -5 -2 4031.82 3668.57 174.67 o
4855 2 1 5 7 4031.81 3836.12 213.29 o
4855 1 6 -5 2 4031.81 3836.12 213.29 o
4856 2 1 5 7 4031.81 4119.40 192.35 o
4856 1 6 -5 2 4031.81 4119.40 192.35 o
4857 2 1 5 8 4772.63 4305.80 250.43 o
4857 1 7 -5 2 4772.63 4305.80 250.43 o
4858 2 1 5 8 4772.63 5138.08 235.57 o
4858 1 7 -5 2 4772.63 5138.08 235.57 o
4859 2 -3 6 12 1470.87 1602.00 142.19 o
4859 1 11 -6 -2 1470.87 1602.00 142.19 o
4860 2 3 6 -12 1470.87 1349.05 90.25 o
4860 1 -11 -6 2 1470.87 1349.05 90.25 o
4861 2 -3 6 11 1105.50 927.57 104.68 o
4861 1 10 -6 -2 1105.50 927.57 104.68 o
4862 2 3 6 -11 1105.50 1107.09 69.32 o
4862 1 -10 -6 2 1105.50 1107.09 69.32 o
4863 2 -3 6 10 420.19 212.80 66.00 o
4863 1 9 -6 -2 420.19 212.80 66.00 o
4864 2 3 6 -10 420.19 446.84 45.13 o
4864 1 -9 -6 2 420.19 446.84 45.13 o
4865 2 -3 6 10 420.19 415.16 47.64 o
4865 1 9 -6 -2 420.19 415.16 47.64 o
4866 2 3 6 -10 420.19 520.94 61.09 o
4866 1 -9 -6 2 420.19 520.94 61.09 o
4867 2 -3 6 9 2983.20 2352.93 153.12 o
4867 1 8 -6 -2 2983.20 2352.93 153.12 o
4868 2 -3 6 9 2983.20 2921.82 119.17 o
4868 1 8 -6 -2 2983.20 2921.82 119.17 o
4869 2 3 6 -9 2983.19 2652.54 111.56 o
4869 1 -8 -6 2 2983.19 2652.54 111.56 o
4870 2 -2 6 3 4206.39 4304.57 163.13 o
4870 1 3 -6 -2 4206.39 4304.57 163.13 o
4871 2 -2 6 3 4206.39 4422.94 155.33 o
4871 1 3 -6 -2 4206.39 4422.94 155.33 o
4872 2 2 6 -3 4206.39 4333.30 184.68 o
4872 1 -3 -6 2 4206.39 4333.30 184.68 o
4873 2 2 6 -3 4206.39 4303.04 181.12 o
4873 1 -3 -6 2 4206.39 4303.04 181.12 o
4874 2 -2 6 3 4206.39 4255.82 180.69 o
4874 1 3 -6 -2 4206.39 4255.82 180.69 o
4875 2 -2 6 3 4206.39 4276.21 189.96 o
4875 1 3 -6 -2 4206.39 4276.21 189.96 o
4876 2 2 6 -2 6197.53 6526.05 254.42 o
4876 1 -2 -6 2 6197.53 6526.05 254.42 o
4877 2 -2 6 2 6197.53 6104.75 226.79 o
4877 1 2 -6 -2 6197.53 6104.75 226.79 o
4878 2 -2 6 2 6197.53 6114.52 217.16 o
4878 1 2 -6 -2 6197.53 6114.52 217.16 o
4879 2 2 6 -2 6197.53 6234.54 253.81 o
4879 1 -2 -6 2 6197.53 6234.54 253.81 o
4880 2 2 6 -2 6197.53 6448.69 213.60 o
4880 1 -2 -6 2 6197.53 6448.69 213.60 o
4881 2 -2 6 2 6197.53 6472.57 254.67 o
4881 1 2 -6 -2 6197.53 6472.57 254.67 o
4882 2 -2 6 1 856.70 919.46 66.86 o
4882 1 1 -6 -2 856.70 919.46 66.86 o
4883 2 2 6 -1 856.70 825.16 32.79 o
4883 1 -1 -6 2 856.70 825.16 32.79 o
4884 2 2 6 -1 856.70 804.34 64.77 o
4884 1 -1 -6 2 856.70 804.34 64.77 o
4885 2 -2 6 1 856.70 835.84 45.99 o
4885 1 1 -6 -2 856.70 835.84 45.99 o
4886 2 1 6 5 1560.71 1505.48 92.65 o
4886 1 4 -6 2 1560.71 1505.48 92.65 o
4887 2 -1 6 -5 1560.71 1557.36 69.25 o
4887 1 -4 -6 -2 1560.71 1557.36 69.25 o
4888 2 -1 6 -5 1560.71 1684.51 101.43 o
4888 1 -4 -6 -2 1560.71 1684.51 101.43 o
4889 2 1 6 6 1693.38 1679.85 74.60 o
4889 1 5 -6 2 1693.38 1679.85 74.60 o
4890 2 -1 6 -6 1693.39 1586.03 73.12 o
4890 1 -5 -6 -2 1693.39 1586.03 73.12 o
4891 2 1 6 6 1693.38 1671.86 97.68 o
4891 1 5 -6 2 1693.38 1671.86 97.68 o
4892 2 -1 6 -6 1693.39 1390.86 93.01 o
4892 1 -5 -6 -2 1693.39 1390.86 93.01 o
4893 2 -1 6 -7 1046.48 1071.97 81.17 o
4893 1 -6 -6 -2 1046.48 1071.97 81.17 o
4894 2 1 6 7 1046.48 1042.87 84.23 o
4894 1 6 -6 2 1046.48 1042.87 84.23 o
4895 2 -1 6 -7 1046.48 1089.40 61.83 o
4895 1 -6 -6 -2 1046.48 1089.40 61.83 o
4896 2 1 6 7 1046.48 1050.73 57.65 o
4896 1 6 -6 2 1046.48 1050.73 57.65 o
4897 2 1 6 8 1685.49 1599.11 121.07 o
4897 1 7 -6 2 1685.49 1599.11 121.07 o
4898 2 -1 6 -8 1685.49 1677.02 112.17 o
4898 1 -7 -6 -2 1685.49 1677.02 112.17 o
4899 2 -1 6 -8 1685.49 1593.83 86.57 o
4899 1 -7 -6 -2 1685.49 1593.83 86.57 o
4900 2 -3 7 12 340.94 343.20 109.59 o
4900 1 11 -7 -2 340.94 343.20 109.59 o
4901 2 -3 7 11 385.12 218.14 75.70 <
4901 1 10 -7 -2 385.12 218.14 75.70 <
4902 2 3 7 -11 385.12 358.37 42.92 o
4902 1 -10 -7 2 385.12 358.37 42.92 o
4903 2 -3 7 10 1454.79 1079.46 107.26 o
4903 1 9 -7 -2 1454.79 1079.46 107.26 o
4904 2 3 7 -10 1454.79 1392.51 66.12 o
4904 1 -9 -7 2 1454.79 1392.51 66.12 o
4905 2 3 7 -10 1454.79 1407.50 93.63 o
4905 1 -9 -7 2 1454.79 1407.50 93.63 o
4906 2 -3 7 10 1454.79 1450.53 80.37 o
4906 1 9 -7 -2 1454.79 1450.53 80.37 o
4907 2 -3 7 9 447.62 414.05 81.04 o
4907 1 8 -7 -2 447.62 414.05 81.04 o
4908 2 3 7 -9 447.62 457.46 72.51 o
4908 1 -8 -7 2 447.62 457.46 72.51 o
4909 2 3 7 -9 447.62 476.86 38.68 o
4909 1 -8 -7 2 447.62 476.86 38.68 o
4910 2 -3 7 9 447.62 415.89 61.89 o
4910 1 8 -7 -2 447.62 415.89 61.89 o
4911 2 -2 7 4 3828.72 4183.62 184.74 o
4911 1 4 -7 -2 3828.72 4183.62 184.74 o
4912 2 2 7 -3 1132.80 1135.39 78.95 o
4912 1 -3 -7 2 1132.80 1135.39 78.95 o
4913 2 -2 7 3 1132.80 1263.58 66.37 o
4913 1 3 -7 -2 1132.80 1263.58 66.37 o
4914 2 2 7 -3 1132.80 1188.68 73.31 o
4914 1 -3 -7 2 1132.80 1188.68 73.31 o
4915 2 -2 7 3 1132.80 1189.60 56.67 o
4915 1 3 -7 -2 1132.80 1189.60 56.67 o
4916 2 -2 7 3 1132.80 1041.09 72.94 o
4916 1 3 -7 -2 1132.80 1041.09 72.94 o
4917 2 -2 7 2 255.68 281.07 25.66 o
4917 1 2 -7 -2 255.68 281.07 25.66 o
4918 2 2 7 -2 255.68 306.98 20.08 o
4918 1 -2 -7 2 255.68 306.98 20.08 o
4919 2 2 7 -2 255.68 259.70 36.41 o
4919 1 -2 -7 2 255.68 259.70 36.41 o
4920 2 2 7 -2 255.68 236.01 32.48 o
4920 1 -2 -7 2 255.68 236.01 32.48 o
4921 2 -2 7 2 255.68 255.59 27.69 o
4921 1 2 -7 -2 255.68 255.59 27.69 o
4922 2 -2 7 2 255.68 293.41 38.86 o
4922 1 2 -7 -2 255.68 293.41 38.86 o
4923 2 -2 7 1 4468.40 4648.39 200.82 o
4923 1 1 -7 -2 4468.40 4648.39 200.82 o
4924 2 2 7 -1 4468.41 4552.06 197.88 o
4924 1 -1 -7 2 4468.41 4552.06 197.88 o
4925 2 -2 7 1 4468.40 4462.24 171.23 o
4925 1 1 -7 -2 4468.40 4462.24 171.23 o
4926 2 2 7 -1 4468.41 4496.68 195.05 o
4926 1 -1 -7 2 4468.41 4496.68 195.05 o
4927 2 -2 7 1 4468.40 4596.26 162.58 o
4927 1 1 -7 -2 4468.40 4596.26 162.58 o
4928 2 -1 7 -5 2134.68 2165.30 84.54 o
4928 1 -4 -7 -2 2134.68 2165.30 84.54 o
4929 2 -1 7 -5 2134.68 2060.87 120.64 o
4929 1 -4 -7 -2 2134.68 2060.87 120.64 o
4930 2 1 7 5 2134.69 2131.41 119.84 o
4930 1 4 -7 2 2134.69 2131.41 119.84 o
4931 2 -1 7 -5 2134.68 2210.24 87.12 o
4931 1 -4 -7 -2 2134.68 2210.24 87.12 o
4932 2 -1 7 -6 898.22 757.07 75.95 o
4932 1 -5 -7 -2 898.22 757.07 75.95 o
4933 2 -1 7 -6 898.22 878.33 50.34 o
4933 1 -5 -7 -2 898.22 878.33 50.34 o
4934 2 1 7 6 898.22 912.65 55.38 o
4934 1 5 -7 2 898.22 912.65 55.38 o
4935 2 -1 7 -6 898.22 865.99 47.03 o
4935 1 -5 -7 -2 898.22 865.99 47.03 o
4936 2 1 7 6 898.22 840.32 72.08 o
4936 1 5 -7 2 898.22 840.32 72.08 o
4937 2 1 7 7 1571.58 1645.71 107.26 o
4937 1 6 -7 2 1571.58 1645.71 107.26 o
4938 2 -1 7 -7 1571.58 1605.31 74.60 o
4938 1 -6 -7 -2 1571.58 1605.31 74.60 o
4939 2 -1 7 -7 1571.58 1591.44 78.46 o
4939 1 -6 -7 -2 1571.58 1591.44 78.46 o
4940 2 -1 7 -7 1571.58 1599.60 105.60 o
4940 1 -6 -7 -2 1571.58 1599.60 105.60 o
4941 2 1 7 7 1571.58 1618.08 78.71 o
4941 1 6 -7 2 1571.58 1618.08 78.71 o
4942 2 -1 7 -8 218.75 236.37 46.54 o
4942 1 -7 -7 -2 218.75 236.37 46.54 o
4943 2 1 7 8 218.75 234.41 76.07 o
4943 1 7 -7 2 218.75 234.41 76.07 o
4944 2 -1 7 -8 218.75 236.37 83.62 <
4944 1 -7 -7 -2 218.75 236.37 83.62 <
4945 2 -3 8 12 196.71 204.39 117.82 <
4945 1 11 -8 -2 196.71 204.39 117.82 <
4946 2 -3 8 11 2557.74 1891.97 145.32 o
4946 1 10 -8 -2 2557.74 1891.97 145.32 o
4947 2 -3 8 10 916.11 685.48 92.65 o
4947 1 9 -8 -2 916.11 685.48 92.65 o
4948 2 -3 8 10 916.11 915.04 70.73 o
4948 1 9 -8 -2 916.11 915.04 70.73 o
4949 2 3 8 -10 916.11 869.18 82.82 o
4949 1 -9 -8 2 916.11 869.18 82.82 o
4950 2 -3 8 9 774.77 707.95 97.93 o
4950 1 8 -8 -2 774.77 707.95 97.93 o
4951 2 3 8 -9 774.76 852.29 90.37 o
4951 1 -8 -8 2 774.76 852.29 90.37 o
4952 2 -3 8 9 774.77 731.16 73.00 o
4952 1 8 -8 -2 774.77 731.16 73.00 o
4953 2 -2 8 4 2829.10 3077.64 155.51 o
4953 1 4 -8 -2 2829.10 3077.64 155.51 o
4954 2 -2 8 3 2597.88 2517.41 126.60 o
4954 1 3 -8 -2 2597.88 2517.41 126.60 o
4955 2 2 8 -3 2597.87 2706.75 127.09 o
4955 1 -3 -8 2 2597.87 2706.75 127.09 o
4956 2 -2 8 3 2597.88 2764.15 114.38 o
4956 1 3 -8 -2 2597.88 2764.15 114.38 o
4957 2 2 8 -3 2597.87 2674.64 136.67 o
4957 1 -3 -8 2 2597.87 2674.64 136.67 o
4958 2 -2 8 3 2597.88 2345.68 98.17 o
4958 1 3 -8 -2 2597.88 2345.68 98.17 o
4959 2 2 8 -2 17767.30 17533.10 693.03 o
4959 1 -2 -8 2 17767.30 17533.10 693.03 o
4960 2 -2 8 2 17767.30 17749.20 605.05 o
4960 1 2 -8 -2 17767.30 17749.20 605.05 o
4961 2 -2 8 2 17767.30 18708.70 631.27 o
4961 1 2 -8 -2 17767.30 18708.70 631.27 o
4962 2 2 8 -2 17767.30 18713.70 601.80 o
4962 1 -2 -8 2 17767.30 18713.70 601.80 o
4963 2 2 8 -2 17767.30 17955.00 600.33 o
4963 1 -2 -8 2 17767.30 17955.00 600.33 o
4964 2 2 8 -2 17767.30 17985.80 696.47 o
4964 1 -2 -8 2 17767.30 17985.80 696.47 o
4965 2 -2 8 2 17767.30 18559.00 693.83 o
4965 1 2 -8 -2 17767.30 18559.00 693.83 o
4966 2 -2 8 1 6806.40 7234.25 242.94 o
4966 1 1 -8 -2 6806.40 7234.25 242.94 o
4967 2 2 8 -1 6806.39 6666.77 289.79 o
4967 1 -1 -8 2 6806.39 6666.77 289.79 o
4968 2 2 8 -1 6806.39 6981.05 288.07 o
4968 1 -1 -8 2 6806.39 6981.05 288.07 o
4969 2 -2 8 1 6806.40 6912.04 256.33 o
4969 1 1 -8 -2 6806.40 6912.04 256.33 o
4970 2 -2 8 1 6806.40 7133.56 291.94 o
4970 1 1 -8 -2 6806.40 7133.56 291.94 o
4971 2 -2 8 0 3348.02 3474.99 170.86 o
4971 1 0 -8 -2 3348.02 3474.99 170.86 o
4972 2 2 8 0 3348.02 3410.47 170.19 o
4972 1 0 -8 2 3348.02 3410.47 170.19 o
4973 2 1 8 5 2169.52 2229.95 128.99 o
4973 1 4 -8 2 2169.52 2229.95 128.99 o
4974 2 -1 8 -5 2169.53 2115.76 129.05 o
4974 1 -4 -8 -2 2169.53 2115.76 129.05 o
4975 2 1 8 5 2169.52 2269.86 103.57 o
4975 1 4 -8 2 2169.52 2269.86 103.57 o
4976 2 1 8 6 426.23 441.43 64.53 o
4976 1 5 -8 2 426.23 441.43 64.53 o
4977 2 -1 8 -6 426.23 449.29 67.35 o
4977 1 -5 -8 -2 426.23 449.29 67.35 o
4978 2 1 8 6 426.23 413.74 48.01 o
4978 1 5 -8 2 426.23 413.74 48.01 o
4979 2 -1 8 -7 2676.82 2619.02 145.82 o
4979 1 -6 -8 -2 2676.82 2619.02 145.82 o
4980 2 1 8 7 2676.82 2750.46 151.71 o
4980 1 6 -8 2 2676.82 2750.46 151.71 o
4981 2 -1 8 -7 2676.82 2566.89 101.79 o
4981 1 -6 -8 -2 2676.82 2566.89 101.79 o
4982 2 -1 8 -7 2676.82 2713.56 104.74 o
4982 1 -6 -8 -2 2676.82 2713.56 104.74 o
4983 2 -1 8 -8 553.79 513.39 55.87 o
4983 1 -7 -8 -2 553.79 513.39 55.87 o
4984 2 1 8 8 553.79 591.30 95.10 o
4984 1 7 -8 2 553.79 591.30 95.10 o
4985 2 -1 8 -8 553.79 590.57 98.60 o
4985 1 -7 -8 -2 553.79 590.57 98.60 o
4986 2 -1 8 -8 553.79 441.74 44.39 o
4986 1 -7 -8 -2 553.79 441.74 44.39 o
4987 2 -3 9 11 1007.86 726.25 109.59 o
4987 1 10 -9 -2 1007.86 726.25 109.59 o
4988 2 -3 9 10 2023.47 2294.66 109.65 o
4988 1 9 -9 -2 2023.47 2294.66 109.65 o
4989 2 3 9 -10 2023.48 2108.45 128.68 o
4989 1 -9 -9 2 2023.48 2108.45 128.68 o
4990 2 -3 9 10 2023.47 1617.10 138.82 o
4990 1 9 -9 -2 2023.47 1617.10 138.82 o
4991 2 -3 9 9 1092.69 1110.40 87.18 o
4991 1 8 -9 -2 1092.69 1110.40 87.18 o
4992 2 -3 9 9 1092.69 1166.58 118.19 o
4992 1 8 -9 -2 1092.69 1166.58 118.19 o
4993 2 3 9 -9 1092.69 1134.71 103.33 o
4993 1 -8 -9 2 1092.69 1134.71 103.33 o
4994 2 -2 9 4 888.68 955.81 100.07 o
4994 1 4 -9 -2 888.68 955.81 100.07 o
4995 2 -2 9 3 923.28 935.55 80.55 o
4995 1 3 -9 -2 923.28 935.55 80.55 o
4996 2 2 9 -3 923.29 1035.99 89.27 o
4996 1 -3 -9 2 923.29 1035.99 89.27 o
4997 2 2 9 -3 923.29 931.43 45.62 o
4997 1 -3 -9 2 923.29 931.43 45.62 o
4998 2 2 9 -3 923.29 958.51 47.40 o
4998 1 -3 -9 2 923.29 958.51 47.40 o
4999 2 2 9 -3 923.29 887.53 74.84 o
4999 1 -3 -9 2 923.29 887.53 74.84 o
5000 2 -2 9 3 923.28 895.82 65.45 o
5000 1 3 -9 -2 923.28 895.82 65.45 o
5001 2 -2 9 3 923.28 851.62 45.49 o
5001 1 3 -9 -2 923.28 851.62 45.49 o
5002 2 -2 9 2 154.30 148.52 38.31 o
5002 1 2 -9 -2 154.30 148.52 38.31 o
5003 2 2 9 -2 154.30 162.39 34.26 o
5003 1 -2 -9 2 154.30 162.39 34.26 o
5004 2 -2 9 2 154.30 163.99 20.94 o
5004 1 2 -9 -2 154.30 163.99 20.94 o
5005 2 2 9 -2 154.30 170.68 39.54 o
5005 1 -2 -9 2 154.30 170.68 39.54 o
5006 2 -2 9 2 154.30 161.78 26.09 o
5006 1 2 -9 -2 154.30 161.78 26.09 o
5007 2 -2 9 1 360.71 449.97 40.09 o
5007 1 1 -9 -2 360.71 449.97 40.09 o
5008 2 -2 9 1 360.71 481.83 77.48 o
5008 1 1 -9 -2 360.71 481.83 77.48 o
5009 2 -2 9 1 360.71 396.92 49.24 o
5009 1 1 -9 -2 360.71 396.92 49.24 o
5010 2 2 9 -1 360.71 379.30 69.87 o
5010 1 -1 -9 2 360.71 379.30 69.87 o
5011 2 2 9 -1 360.71 344.61 66.74 o
5011 1 -1 -9 2 360.71 344.61 66.74 o
5012 2 2 9 0 409.16 353.82 85.95 o
5012 1 0 -9 2 409.16 353.82 85.95 o
5013 2 -2 9 0 409.16 345.54 84.48 o
5013 1 0 -9 -2 409.16 345.54 84.48 o
5014 2 1 9 5 1958.38 2061.85 125.80 o
5014 1 4 -9 2 1958.38 2061.85 125.80 o
5015 2 -1 9 -5 1958.39 1909.90 129.91 o
5015 1 -4 -9 -2 1958.39 1909.90 129.91 o
5016 2 1 9 5 1958.38 2039.62 103.70 o
5016 1 4 -9 2 1958.38 2039.62 103.70 o
5017 2 1 9 6 1575.89 1620.29 107.26 o
5017 1 5 -9 2 1575.89 1620.29 107.26 o
5018 2 -1 9 -6 1575.89 1564.24 110.94 o
5018 1 -5 -9 -2 1575.89 1564.24 110.94 o
5019 2 1 9 7 650.86 718.45 86.57 o
5019 1 6 -9 2 650.86 718.45 86.57 o
5020 2 -1 9 -7 650.86 574.97 88.66 o
5020 1 -6 -9 -2 650.86 574.97 88.66 o
5021 2 1 9 8 454.01 467.83 103.45 o
5021 1 7 -9 2 454.01 467.83 103.45 o
5022 2 -1 9 -8 454.01 518.79 104.93 o
5022 1 -7 -9 -2 454.01 518.79 104.93 o
5023 2 -3 10 10 431.85 345.04 92.58 o
5023 1 9 -10 -2 431.85 345.04 92.58 o
5024 2 -3 10 10 431.85 453.96 66.98 o
5024 1 9 -10 -2 431.85 453.96 66.98 o
5025 2 3 10 -10 431.85 486.13 81.84 o
5025 1 -9 -10 2 431.85 486.13 81.84 o
5026 2 -3 10 9 1803.74 1900.69 113.03 o
5026 1 8 -10 -2 1803.74 1900.69 113.03 o
5027 2 3 10 -9 1803.74 1959.01 139.74 o
5027 1 -8 -10 2 1803.74 1959.01 139.74 o
5028 2 -3 10 9 1803.74 1671.56 140.10 o
5028 1 8 -10 -2 1803.74 1671.56 140.10 o
5029 2 -2 10 3 2573.12 2798.84 153.49 o
5029 1 3 -10 -2 2573.12 2798.84 153.49 o
5030 2 -2 10 3 2573.12 2676.11 126.47 o
5030 1 3 -10 -2 2573.12 2676.11 126.47 o
5031 2 2 10 -3 2573.12 2868.71 103.02 o
5031 1 -3 -10 2 2573.12 2868.71 103.02 o
5032 2 2 10 -3 2573.12 2796.08 158.52 o
5032 1 -3 -10 2 2573.12 2796.08 158.52 o
5033 2 2 10 -3 2573.12 2780.06 141.64 o
5033 1 -3 -10 2 2573.12 2780.06 141.64 o
5034 2 2 10 -3 2573.12 2671.88 100.81 o
5034 1 -3 -10 2 2573.12 2671.88 100.81 o
5035 2 -2 10 2 787.90 887.17 60.78 o
5035 1 2 -10 -2 787.90 887.17 60.78 o
5036 2 -2 10 2 787.90 881.09 45.68 o
5036 1 2 -10 -2 787.90 881.09 45.68 o
5037 2 -2 10 2 787.90 779.66 81.35 o
5037 1 2 -10 -2 787.90 779.66 81.35 o
5038 2 2 10 -2 787.90 827.55 81.04 o
5038 1 -2 -10 2 787.90 827.55 81.04 o
5039 2 2 10 -2 787.90 876.61 68.52 o
5039 1 -2 -10 2 787.90 876.61 68.52 o
5040 2 2 10 -1 1614.74 1666.16 112.23 o
5040 1 -1 -10 2 1614.74 1666.16 112.23 o
5041 2 2 10 -1 1614.74 1892.28 129.54 o
5041 1 -1 -10 2 1614.74 1892.28 129.54 o
5042 2 -2 10 1 1614.74 1872.20 125.92 o
5042 1 1 -10 -2 1614.74 1872.20 125.92 o
5043 2 -2 10 1 1614.74 1759.23 94.86 o
5043 1 1 -10 -2 1614.74 1759.23 94.86 o
5044 2 -2 10 1 1614.74 1720.86 77.17 o
5044 1 1 -10 -2 1614.74 1720.86 77.17 o
5045 2 -2 10 0 2316.42 2392.47 149.93 o
5045 1 0 -10 -2 2316.42 2392.47 149.93 o
5046 2 -1 10 -5 145.26 86.81 91.60 <
5046 1 -4 -10 -2 145.26 86.81 91.60 <
5047 2 1 10 6 1030.97 1249.40 97.86 o
5047 1 5 -10 2 1030.97 1249.40 97.86 o
5048 2 -1 10 -6 1030.98 954.70 101.79 o
5048 1 -5 -10 -2 1030.98 954.70 101.79 o
5049 2 1 10 7 857.21 999.77 100.93 o
5049 1 6 -10 2 857.21 999.77 100.93 o
5050 2 -1 10 -7 857.21 972.45 104.25 o
5050 1 -6 -10 -2 857.21 972.45 104.25 o
5051 2 1 10 8 1024.96 1235.03 125.00 o
5051 1 7 -10 2 1024.96 1235.03 125.00 o
5052 2 -1 10 -8 1024.95 903.74 121.81 o
5052 1 -7 -10 -2 1024.95 903.74 121.81 o
5053 2 3 11 -9 307.27 288.01 68.76 o
5053 1 -8 -11 2 307.27 288.01 68.76 o
5054 2 -3 11 9 307.27 259.58 96.39 <
5054 1 8 -11 -2 307.27 259.58 96.39 <
5055 2 -3 11 9 307.27 323.19 77.91 o
5055 1 8 -11 -2 307.27 323.19 77.91 o
5056 2 3 11 -9 307.27 254.79 104.37 <
5056 1 -8 -11 2 307.27 254.79 104.37 <
5057 2 2 11 -4 557.37 531.93 40.09 o
5057 1 -4 -11 2 557.37 531.93 40.09 o
5058 2 -2 11 3 1243.93 1345.67 112.78 o
5058 1 3 -11 -2 1243.93 1345.67 112.78 o
5059 2 -2 11 3 1243.93 1308.71 89.58 o
5059 1 3 -11 -2 1243.93 1308.71 89.58 o
5060 2 2 11 -3 1243.94 1303.86 120.95 o
5060 1 -3 -11 2 1243.94 1303.86 120.95 o
5061 2 2 11 -2 130.78 131.51 48.44 <
5061 1 -2 -11 2 130.78 131.51 48.44 <
5062 2 -2 11 2 130.78 114.50 30.64 o
5062 1 2 -11 -2 130.78 114.50 30.64 o
5063 2 -2 11 2 130.78 130.71 52.49 <
5063 1 2 -11 -2 130.78 130.71 52.49 <
5064 2 -2 11 1 883.03 966.00 76.44 o
5064 1 1 -11 -2 883.03 966.00 76.44 o
5065 2 -2 11 1 883.03 773.95 46.35 o
5065 1 1 -11 -2 883.03 773.95 46.35 o
5066 2 2 11 -1 883.04 933.58 110.27 o
5066 1 -1 -11 2 883.04 933.58 110.27 o
5067 2 -2 11 1 883.03 1036.54 114.50 o
5067 1 1 -11 -2 883.03 1036.54 114.50 o
5068 2 -2 11 0 355.13 425.17 114.26 o
5068 1 0 -11 -2 355.13 425.17 114.26 o
5069 2 -1 11 -5 1789.24 1818.91 143.54 o
5069 1 -4 -11 -2 1789.24 1818.91 143.54 o
5070 2 -1 11 -6 2368.52 2318.12 149.56 o
5070 1 -5 -11 -2 2368.52 2318.12 149.56 o
5071 2 -1 11 -7 455.48 519.90 100.26 o
5071 1 -6 -11 -2 455.48 519.90 100.26 o
5072 2 1 11 7 455.48 636.73 85.34 o
5072 1 6 -11 2 455.48 636.73 85.34 o
5073 2 2 12 -5 807.71 782.12 51.20 o
5073 1 -5 -12 2 807.71 782.12 51.20 o
5074 2 -2 12 3 3008.15 3285.47 156.01 o
5074 1 3 -12 -2 3008.15 3285.47 156.01 o
5075 2 -2 12 3 3008.15 3351.22 190.33 o
5075 1 3 -12 -2 3008.15 3351.22 190.33 o
5076 2 2 12 -3 3008.14 3494.09 195.42 o
5076 1 -3 -12 2 3008.14 3494.09 195.42 o
5077 2 -2 12 2 1461.38 1623.49 93.81 o
5077 1 2 -12 -2 1461.38 1623.49 93.81 o
5078 2 2 12 -2 1461.38 1751.13 128.75 o
5078 1 -2 -12 2 1461.38 1751.13 128.75 o
5079 2 -2 12 2 1461.38 1688.50 136.54 o
5079 1 2 -12 -2 1461.38 1688.50 136.54 o
5080 2 -2 12 1 37.64 21.86 59.80 <
5080 1 1 -12 -2 37.64 21.86 59.80 <
5081 2 -2 12 1 37.64 90.19 89.76 <
5081 1 1 -12 -2 37.64 90.19 89.76 <
5082 2 -2 12 0 3020.31 3016.43 196.77 o
5082 1 0 -12 -2 3020.31 3016.43 196.77 o
5083 2 -1 12 -5 176.69 80.49 101.98 <
5083 1 -4 -12 -2 176.69 80.49 101.98 <
5084 2 -1 12 -6 451.92 462.25 92.65 o
5084 1 -5 -12 -2 451.92 462.25 92.65 o
5085 2 -2 13 4 1156.22 1285.50 104.62 o
5085 1 4 -13 -2 1156.22 1285.50 104.62 o
5086 2 2 13 -3 237.86 361.56 108.79 o
5086 1 -3 -13 2 237.86 361.56 108.79 o
5087 2 -2 13 3 237.86 218.14 69.93 o
5087 1 3 -13 -2 237.86 218.14 69.93 o
5088 2 -2 13 2 267.76 347.99 48.87 o
5088 1 2 -13 -2 267.76 347.99 48.87 o
5089 2 -2 13 2 267.76 442.60 81.84 o
5089 1 2 -13 -2 267.76 442.60 81.84 o
5090 2 -2 13 1 1550.22 1738.29 110.27 o
5090 1 1 -13 -2 1550.22 1738.29 110.27 o
5091 2 -2 13 1 1550.22 1572.83 139.80 o
5091 1 1 -13 -2 1550.22 1572.83 139.80 o
5092 2 -2 13 0 441.66 423.81 136.05 o
5092 1 0 -13 -2 441.66 423.81 136.05 o
5093 2 -4 0 10 1738.20 2055.03 110.51 o
5093 1 9 0 -3 1738.20 2055.03 110.51 o
5094 2 -3 0 4 15316.50 16363.80 586.21 o
5094 1 4 0 -3 15316.50 16363.80 586.21 o
5095 2 3 0 -4 15316.50 15415.40 524.69 o
5095 1 -4 0 3 15316.50 15415.40 524.69 o
5096 2 -3 0 4 15316.50 15453.60 535.55 o
5096 1 4 0 -3 15316.50 15453.60 535.55 o
5097 2 3 0 -4 15316.50 15626.60 536.17 o
5097 1 -4 0 3 15316.50 15626.60 536.17 o
5098 2 -3 0 3 18548.40 16282.40 551.95 o
5098 1 3 0 -3 18548.40 16282.40 551.95 o
5099 2 -3 0 3 18548.40 17023.60 565.15 o
5099 1 3 0 -3 18548.40 17023.60 565.15 o
5100 2 3 0 -3 18548.40 16525.10 552.93 o
5100 1 -3 0 3 18548.40 16525.10 552.93 o
5101 2 3 0 -3 18548.40 16716.90 565.09 o
5101 1 -3 0 3 18548.40 16716.90 565.09 o
5102 2 -2 0 -5 827.15 863.41 45.00 o
5102 1 -4 0 -3 827.15 863.41 45.00 o
5103 2 -2 0 -6 2280.96 -12.40 7.31 <
5103 1 -5 0 -3 2280.96 -12.40 7.31 <
5104 2 1 0 13 86.31 104.62 96.45 <
5104 1 11 0 3 86.31 104.62 96.45 <
5105 2 1 0 13 86.31 58.45 105.42 <
5105 1 11 0 3 86.31 58.45 105.42 <
5106 2 -4 1 13 339.10 506.94 100.07 o
5106 1 12 -1 -3 339.10 506.94 100.07 o
5107 2 -4 1 11 678.24 784.33 53.54 o
5107 1 10 -1 -3 678.24 784.33 53.54 o
5108 2 -4 1 10 4474.10 4668.46 226.06 o
5108 1 9 -1 -3 4474.10 4668.46 226.06 o
5109 2 -4 -1 10 4520.68 5140.41 244.60 o
5109 1 9 1 -3 4520.68 5140.41 244.60 o
5110 2 3 1 -4 1721.71 1950.72 77.11 o
5110 1 -4 -1 3 1721.71 1950.72 77.11 o
5111 2 -3 1 4 1721.71 1934.64 76.87 o
5111 1 4 -1 -3 1721.71 1934.64 76.87 o
5112 2 -3 1 4 1721.71 2015.43 78.65 o
5112 1 4 -1 -3 1721.71 2015.43 78.65 o
5113 2 3 1 -4 1721.71 1767.95 75.03 o
5113 1 -4 -1 3 1721.71 1767.95 75.03 o
5114 2 -3 -1 4 2030.90 1689.12 73.25 o
5114 1 4 1 -3 2030.90 1689.12 73.25 o
5115 2 3 -1 -4 2030.90 1842.85 76.38 o
5115 1 -4 1 3 2030.90 1842.85 76.38 o
5116 2 -3 -1 4 2030.90 2091.93 76.87 o
5116 1 4 1 -3 2030.90 2091.93 76.87 o
5117 2 -3 1 3 524.23 466.67 27.01 o
5117 1 3 -1 -3 524.23 466.67 27.01 o
5118 2 3 1 -3 524.23 490.73 26.95 o
5118 1 -3 -1 3 524.23 490.73 26.95 o
5119 2 -3 1 3 524.23 516.77 25.97 o
5119 1 3 -1 -3 524.23 516.77 25.97 o
5120 2 -3 1 3 524.23 512.78 27.81 o
5120 1 3 -1 -3 524.23 512.78 27.81 o
5121 2 3 1 -3 524.23 467.96 26.89 o
5121 1 -3 -1 3 524.23 467.96 26.89 o
5122 2 -3 -1 3 517.08 517.50 25.54 o
5122 1 3 1 -3 517.08 517.50 25.54 o
5123 2 -3 -1 3 517.08 533.22 27.14 o
5123 1 3 1 -3 517.08 533.22 27.14 o
5124 2 -3 -1 3 517.08 520.45 27.51 o
5124 1 3 1 -3 517.08 520.45 27.51 o
5125 2 -3 -1 3 517.08 528.12 27.87 o
5125 1 3 1 -3 517.08 528.12 27.87 o
5126 2 3 -1 -3 517.08 458.99 28.00 o
5126 1 -3 1 3 517.08 458.99 28.00 o
5127 2 3 1 -2 14082.40 15321.60 637.53 o
5127 1 -2 -1 3 14082.40 15321.60 637.53 o
5128 2 -3 1 2 14082.40 13568.00 478.64 o
5128 1 2 -1 -3 14082.40 13568.00 478.64 o
5129 2 3 1 -2 14082.40 13349.30 467.47 o
5129 1 -2 -1 3 14082.40 13349.30 467.47 o
5130 2 -2 1 -5 2528.56 2603.05 102.04 o
5130 1 -4 -1 -3 2528.56 2603.05 102.04 o
5131 2 -2 -1 -5 2704.69 3007.22 115.06 o
5131 1 -4 1 -3 2704.69 3007.22 115.06 o
5132 2 -2 1 -6 3380.52 3331.27 129.30 o
5132 1 -5 -1 -3 3380.52 3331.27 129.30 o
5133 2 -2 -1 -6 3457.79 3684.17 140.66 o
5133 1 -5 1 -3 3457.79 3684.17 140.66 o
5134 2 1 1 12 964.31 926.95 126.84 o
5134 1 10 -1 3 964.31 926.95 126.84 o
5135 2 1 1 13 774.26 1083.20 128.56 o
5135 1 11 -1 3 774.26 1083.20 128.56 o
5136 2 1 1 13 774.26 942.42 130.83 o
5136 1 11 -1 3 774.26 942.42 130.83 o
5137 2 1 -1 13 851.16 861.26 119.54 o
5137 1 11 1 3 851.16 861.26 119.54 o
5138 2 -4 2 13 408.17 803.79 106.77 o
5138 1 12 -2 -3 408.17 803.79 106.77 o
5139 2 -4 2 12 211.35 228.09 69.25 o
5139 1 11 -2 -3 211.35 228.09 69.25 o
5140 2 4 2 -11 278.45 339.70 50.65 o
5140 1 -10 -2 3 278.45 339.70 50.65 o
5141 2 -4 2 11 278.45 357.69 41.75 o
5141 1 10 -2 -3 278.45 357.69 41.75 o
5142 2 -4 2 11 278.45 472.13 69.93 o
5142 1 10 -2 -3 278.45 472.13 69.93 o
5143 2 -4 2 10 1408.77 1428.31 76.07 o
5143 1 9 -2 -3 1408.77 1428.31 76.07 o
5144 2 -4 2 10 1408.77 1631.22 106.46 o
5144 1 9 -2 -3 1408.77 1631.22 106.46 o
5145 2 -4 2 10 1408.77 1475.95 78.34 o
5145 1 9 -2 -3 1408.77 1475.95 78.34 o
5146 2 -3 2 4 1399.57 1392.94 61.89 o
5146 1 4 -2 -3 1399.57 1392.94 61.89 o
5147 2 3 2 -4 1399.57 1334.19 58.08 o
5147 1 -4 -2 3 1399.57 1334.19 58.08 o
5148 2 -3 2 4 1399.57 1326.82 54.70 o
5148 1 4 -2 -3 1399.57 1326.82 54.70 o
5149 2 -3 2 4 1399.57 1313.07 64.16 o
5149 1 4 -2 -3 1399.57 1313.07 64.16 o
5150 2 -3 2 4 1399.57 1375.75 58.14 o
5150 1 4 -2 -3 1399.57 1375.75 58.14 o
5151 2 3 -2 -4 1475.05 1218.83 55.13 o
5151 1 -4 2 3 1475.05 1218.83 55.13 o
5152 2 -3 -2 4 1475.06 1173.88 53.11 o
5152 1 4 2 -3 1475.06 1173.88 53.11 o
5153 2 3 -2 -4 1475.05 1322.22 56.18 o
5153 1 -4 2 3 1475.05 1322.22 56.18 o
5154 2 -3 2 3 8136.22 7658.19 260.99 o
5154 1 3 -2 -3 8136.22 7658.19 260.99 o
5155 2 -3 2 3 8136.22 7167.02 255.90 o
5155 1 3 -2 -3 8136.22 7167.02 255.90 o
5156 2 3 2 -3 8136.21 7163.71 258.66 o
5156 1 -3 -2 3 8136.21 7163.71 258.66 o
5157 2 3 2 -3 8136.21 7281.46 255.16 o
5157 1 -3 -2 3 8136.21 7281.46 255.16 o
5158 2 -3 2 3 8136.22 8242.55 281.93 o
5158 1 3 -2 -3 8136.22 8242.55 281.93 o
5159 2 -3 2 3 8136.22 7349.49 302.56 o
5159 1 3 -2 -3 8136.22 7349.49 302.56 o
5160 2 3 2 -3 8136.21 7732.29 290.40 o
5160 1 -3 -2 3 8136.21 7732.29 290.40 o
5161 2 3 -2 -3 7955.28 7716.51 271.06 o
5161 1 -3 2 3 7955.28 7716.51 271.06 o
5162 2 -3 -2 3 7955.27 8259.68 269.83 o
5162 1 3 2 -3 7955.27 8259.68 269.83 o
5163 2 3 -2 -3 7955.28 7407.08 264.43 o
5163 1 -3 2 3 7955.28 7407.08 264.43 o
5164 2 -3 2 2 12159.20 11809.90 403.92 o
5164 1 2 -2 -3 12159.20 11809.90 403.92 o
5165 2 -3 2 2 12159.20 12090.50 471.58 o
5165 1 2 -2 -3 12159.20 12090.50 471.58 o
5166 2 3 2 -2 12159.20 11532.30 393.67 o
5166 1 -2 -2 3 12159.20 11532.30 393.67 o
5167 2 3 -2 -2 12547.50 11226.40 391.64 o
5167 1 -2 2 3 12547.50 11226.40 391.64 o
5168 2 3 -2 -2 12547.50 11635.30 382.92 o
5168 1 -2 2 3 12547.50 11635.30 382.92 o
5169 2 2 2 4 15320.90 15480.10 633.11 o
5169 1 3 -2 3 15320.90 15480.10 633.11 o
5170 2 2 2 4 15320.90 15919.30 725.57 o
5170 1 3 -2 3 15320.90 15919.30 725.57 o
5171 2 2 2 5 3330.40 3483.83 159.94 o
5171 1 4 -2 3 3330.40 3483.83 159.94 o
5172 2 2 2 5 3330.40 3837.53 192.72 o
5172 1 4 -2 3 3330.40 3837.53 192.72 o
5173 2 -2 2 -5 3330.40 3318.37 133.29 o
5173 1 -4 -2 -3 3330.40 3318.37 133.29 o
5174 2 -2 -2 -5 3049.02 3716.22 138.32 o
5174 1 -4 2 -3 3049.02 3716.22 138.32 o
5175 2 2 2 6 6159.35 6423.46 278.98 o
5175 1 5 -2 3 6159.35 6423.46 278.98 o
5176 2 2 2 6 6159.35 6638.04 320.67 o
5176 1 5 -2 3 6159.35 6638.04 320.67 o
5177 2 -2 2 -6 6159.35 6264.07 233.30 o
5177 1 -5 -2 -3 6159.35 6264.07 233.30 o
5178 2 -2 -2 -6 6275.04 7009.29 250.92 o
5178 1 -5 2 -3 6275.04 7009.29 250.92 o
5179 2 2 2 7 8716.39 9119.03 449.29 o
5179 1 6 -2 3 8716.39 9119.03 449.29 o
5180 2 2 2 7 8716.39 9383.16 397.78 o
5180 1 6 -2 3 8716.39 9383.16 397.78 o
5181 2 1 2 12 1651.28 1813.50 165.15 o
5181 1 10 -2 3 1651.28 1813.50 165.15 o
5182 2 1 2 13 2340.08 2290.86 176.33 o
5182 1 11 -2 3 2340.08 2290.86 176.33 o
5183 2 1 2 13 2340.08 2355.38 170.99 o
5183 1 11 -2 3 2340.08 2355.38 170.99 o
5184 2 1 -2 13 2176.83 2441.89 182.47 o
5184 1 11 2 3 2176.83 2441.89 182.47 o
5185 2 -4 3 13 1251.03 1570.44 131.26 o
5185 1 12 -3 -3 1251.03 1570.44 131.26 o
5186 2 -4 3 12 862.47 1113.96 99.09 o
5186 1 11 -3 -3 862.47 1113.96 99.09 o
5187 2 -4 3 11 4068.77 4332.38 165.65 o
5187 1 10 -3 -3 4068.77 4332.38 165.65 o
5188 2 -4 3 11 4068.77 4397.77 163.80 o
5188 1 10 -3 -3 4068.77 4397.77 163.80 o
5189 2 -4 3 11 4068.77 4485.01 212.55 o
5189 1 10 -3 -3 4068.77 4485.01 212.55 o
5190 2 4 3 -11 4068.77 3854.73 171.54 o
5190 1 -10 -3 3 4068.77 3854.73 171.54 o
5191 2 -4 3 10 8271.85 9060.89 317.11 o
5191 1 9 -3 -3 8271.85 9060.89 317.11 o
5192 2 -4 3 10 8271.85 8562.11 319.26 o
5192 1 9 -3 -3 8271.85 8562.11 319.26 o
5193 2 -4 3 10 8271.85 9221.87 393.73 o
5193 1 9 -3 -3 8271.85 9221.87 393.73 o
5194 2 -3 -3 5 77.77 40.28 34.63 <
5194 1 5 3 -3 77.77 40.28 34.63 <
5195 2 -3 3 4 7411.11 8243.10 276.53 o
5195 1 4 -3 -3 7411.11 8243.10 276.53 o
5196 2 -3 3 4 7411.11 7857.11 300.35 o
5196 1 4 -3 -3 7411.11 7857.11 300.35 o
5197 2 3 3 -4 7411.11 7920.90 277.32 o
5197 1 -4 -3 3 7411.11 7920.90 277.32 o
5198 2 3 3 -4 7411.11 8143.15 312.07 o
5198 1 -4 -3 3 7411.11 8143.15 312.07 o
5199 2 -3 3 4 7411.11 8179.56 280.64 o
5199 1 4 -3 -3 7411.11 8179.56 280.64 o
5200 2 3 3 -4 7411.11 7619.08 304.28 o
5200 1 -4 -3 3 7411.11 7619.08 304.28 o
5201 2 3 3 -4 7411.11 8028.09 274.13 o
5201 1 -4 -3 3 7411.11 8028.09 274.13 o
5202 2 -3 3 4 7411.11 8100.30 277.20 o
5202 1 4 -3 -3 7411.11 8100.30 277.20 o
5203 2 -3 3 4 7411.11 8020.67 327.30 o
5203 1 4 -3 -3 7411.11 8020.67 327.30 o
5204 2 -3 -3 4 7716.83 7725.60 271.92 o
5204 1 4 3 -3 7716.83 7725.60 271.92 o
5205 2 3 -3 -4 7716.84 7874.67 273.21 o
5205 1 -4 3 3 7716.84 7874.67 273.21 o
5206 2 3 3 -3 1874.72 1773.17 80.12 o
5206 1 -3 -3 3 1874.72 1773.17 80.12 o
5207 2 -3 3 3 1874.72 1800.43 81.10 o
5207 1 3 -3 -3 1874.72 1800.43 81.10 o
5208 2 -3 3 3 1874.72 1842.61 73.00 o
5208 1 3 -3 -3 1874.72 1842.61 73.00 o
5209 2 3 3 -3 1874.72 1848.01 82.58 o
5209 1 -3 -3 3 1874.72 1848.01 82.58 o
5210 2 3 3 -3 1874.72 1797.36 65.94 o
5210 1 -3 -3 3 1874.72 1797.36 65.94 o
5211 2 -3 3 3 1874.72 1978.11 78.83 o
5211 1 3 -3 -3 1874.72 1978.11 78.83 o
5212 2 -3 3 3 1874.72 1819.52 71.53 o
5212 1 3 -3 -3 1874.72 1819.52 71.53 o
5213 2 3 3 -3 1874.72 1683.22 69.32 o
5213 1 -3 -3 3 1874.72 1683.22 69.32 o
5214 2 -3 3 3 1874.72 1844.88 70.24 o
5214 1 3 -3 -3 1874.72 1844.88 70.24 o
5215 2 -3 -3 3 1883.94 1797.30 68.39 o
5215 1 3 3 -3 1883.94 1797.30 68.39 o
5216 2 3 -3 -3 1883.94 1758.49 71.16 o
5216 1 -3 3 3 1883.94 1758.49 71.16 o
5217 2 3 -3 -3 1883.94 1735.47 70.91 o
5217 1 -3 3 3 1883.94 1735.47 70.91 o
5218 2 -3 3 2 1693.79 1678.37 77.36 o
5218 1 2 -3 -3 1693.79 1678.37 77.36 o
5219 2 -3 3 2 1693.79 1684.94 68.46 o
5219 1 2 -3 -3 1693.79 1684.94 68.46 o
5220 2 3 3 -2 1693.79 1732.89 66.68 o
5220 1 -2 -3 3 1693.79 1732.89 66.68 o
5221 2 -3 3 2 1693.79 1927.45 79.88 o
5221 1 2 -3 -3 1693.79 1927.45 79.88 o
5222 2 3 -3 -2 1589.91 1547.66 64.83 o
5222 1 -2 3 3 1589.91 1547.66 64.83 o
5223 2 -2 3 -5 3323.34 3520.06 137.77 o
5223 1 -4 -3 -3 3323.34 3520.06 137.77 o
5224 2 2 3 5 3323.34 3600.30 195.42 o
5224 1 4 -3 3 3323.34 3600.30 195.42 o
5225 2 2 3 5 3323.34 3772.21 165.40 o
5225 1 4 -3 3 3323.34 3772.21 165.40 o
5226 2 -2 -3 -5 3543.85 4195.90 154.04 o
5226 1 -4 3 -3 3543.85 4195.90 154.04 o
5227 2 -2 3 -6 1224.89 1166.58 64.10 o
5227 1 -5 -3 -3 1224.89 1166.58 64.10 o
5228 2 2 3 6 1224.89 1354.69 98.54 o
5228 1 5 -3 3 1224.89 1354.69 98.54 o
5229 2 2 3 6 1224.89 1356.91 81.78 o
5229 1 5 -3 3 1224.89 1356.91 81.78 o
5230 2 2 3 7 2267.14 2375.83 154.53 o
5230 1 6 -3 3 2267.14 2375.83 154.53 o
5231 2 2 3 7 2267.14 2497.70 134.21 o
5231 1 6 -3 3 2267.14 2497.70 134.21 o
5232 2 1 3 12 549.66 602.72 126.04 o
5232 1 10 -3 3 549.66 602.72 126.04 o
5233 2 1 3 13 511.41 387.59 121.50 o
5233 1 11 -3 3 511.41 387.59 121.50 o
5234 2 1 3 13 511.41 546.30 110.57 o
5234 1 11 -3 3 511.41 546.30 110.57 o
5235 2 -4 4 13 552.53 767.94 111.31 o
5235 1 12 -4 -3 552.53 767.94 111.31 o
5236 2 -4 4 12 236.48 279.29 74.90 o
5236 1 11 -4 -3 236.48 279.29 74.90 o
5237 2 4 4 -12 236.48 205.49 50.10 o
5237 1 -11 -4 3 236.48 205.49 50.10 o
5238 2 -4 4 11 604.53 722.44 78.65 o
5238 1 10 -4 -3 604.53 722.44 78.65 o
5239 2 4 4 -11 604.53 480.61 54.76 o
5239 1 -10 -4 3 604.53 480.61 54.76 o
5240 2 -4 4 11 604.53 644.29 52.98 o
5240 1 10 -4 -3 604.53 644.29 52.98 o
5241 2 -4 4 11 604.53 664.91 42.73 o
5241 1 10 -4 -3 604.53 664.91 42.73 o
5242 2 -4 4 10 976.18 978.46 94.79 o
5242 1 9 -4 -3 976.18 978.46 94.79 o
5243 2 4 4 -10 976.18 949.97 81.35 o
5243 1 -9 -4 3 976.18 949.97 81.35 o
5244 2 -4 4 10 976.18 1117.58 56.30 o
5244 1 9 -4 -3 976.18 1117.58 56.30 o
5245 2 4 4 -10 976.18 956.05 66.86 o
5245 1 -9 -4 3 976.18 956.05 66.86 o
5246 2 -4 4 10 976.18 1078.97 67.29 o
5246 1 9 -4 -3 976.18 1078.97 67.29 o
5247 2 -3 4 4 504.71 589.52 40.83 o
5247 1 4 -4 -3 504.71 589.52 40.83 o
5248 2 -3 4 4 504.71 514.49 39.66 o
5248 1 4 -4 -3 504.71 514.49 39.66 o
5249 2 -3 4 4 504.71 560.54 29.59 o
5249 1 4 -4 -3 504.71 560.54 29.59 o
5250 2 3 4 -4 504.71 520.08 46.29 o
5250 1 -4 -4 3 504.71 520.08 46.29 o
5251 2 -3 4 4 504.71 522.84 36.90 o
5251 1 4 -4 -3 504.71 522.84 36.90 o
5252 2 3 4 -4 504.71 529.54 45.37 o
5252 1 -4 -4 3 504.71 529.54 45.37 o
5253 2 3 4 -4 504.71 563.43 27.51 o
5253 1 -4 -4 3 504.71 563.43 27.51 o
5254 2 -3 4 4 504.71 566.62 38.25 o
5254 1 4 -4 -3 504.71 566.62 38.25 o
5255 2 3 -4 -4 546.48 871.08 47.83 o
5255 1 -4 4 3 546.48 871.08 47.83 o
5256 2 3 4 -3 673.94 645.64 33.77 o
5256 1 -3 -4 3 673.94 645.64 33.77 o
5257 2 -3 4 3 673.94 732.45 31.37 o
5257 1 3 -4 -3 673.94 732.45 31.37 o
5258 2 -3 4 3 673.94 631.88 36.71 o
5258 1 3 -4 -3 673.94 631.88 36.71 o
5259 2 -3 4 3 673.94 757.32 37.39 o
5259 1 3 -4 -3 673.94 757.32 37.39 o
5260 2 -3 4 3 673.94 720.05 40.77 o
5260 1 3 -4 -3 673.94 720.05 40.77 o
5261 2 3 4 -3 673.94 645.08 43.28 o
5261 1 -3 -4 3 673.94 645.08 43.28 o
5262 2 3 4 -3 673.94 711.70 43.35 o
5262 1 -3 -4 3 673.94 711.70 43.35 o
5263 2 -3 4 3 673.94 662.15 42.98 o
5263 1 3 -4 -3 673.94 662.15 42.98 o
5264 2 3 -4 -3 649.02 865.49 42.79 o
5264 1 -3 4 3 649.02 865.49 42.79 o
5265 2 3 -4 -2 18935.30 19723.30 670.44 o
5265 1 -2 4 3 18935.30 19723.30 670.44 o
5266 2 2 4 4 824.35 855.24 78.03 o
5266 1 3 -4 3 824.35 855.24 78.03 o
5267 2 -2 4 -5 3211.24 3210.07 125.86 o
5267 1 -4 -4 -3 3211.24 3210.07 125.86 o
5268 2 2 4 5 3211.25 3272.94 150.36 o
5268 1 4 -4 3 3211.25 3272.94 150.36 o
5269 2 2 4 5 3211.25 3190.49 179.27 o
5269 1 4 -4 3 3211.25 3190.49 179.27 o
5270 2 2 4 6 4941.80 4849.52 252.52 o
5270 1 5 -4 3 4941.80 4849.52 252.52 o
5271 2 2 4 6 4941.80 4932.65 218.26 o
5271 1 5 -4 3 4941.80 4932.65 218.26 o
5272 2 -2 4 -6 4941.80 4701.62 180.63 o
5272 1 -5 -4 -3 4941.80 4701.62 180.63 o
5273 2 2 4 7 919.52 794.40 90.74 o
5273 1 6 -4 3 919.52 794.40 90.74 o
5274 2 2 4 7 919.52 898.59 82.39 o
5274 1 6 -4 3 919.52 898.59 82.39 o
5275 2 1 4 12 1765.48 1564.97 157.17 o
5275 1 10 -4 3 1765.48 1564.97 157.17 o
5276 2 4 5 -13 827.95 764.68 76.99 o
5276 1 -12 -5 3 827.95 764.68 76.99 o
5277 2 -4 5 13 827.95 1233.99 124.82 o
5277 1 12 -5 -3 827.95 1233.99 124.82 o
5278 2 4 5 -12 487.30 506.02 58.69 o
5278 1 -11 -5 3 487.30 506.02 58.69 o
5279 2 -4 5 12 487.30 578.04 88.47 o
5279 1 11 -5 -3 487.30 578.04 88.47 o
5280 2 4 5 -11 1761.28 1762.67 92.34 o
5280 1 -10 -5 3 1761.28 1762.67 92.34 o
5281 2 -4 5 11 1761.28 1843.04 89.76 o
5281 1 10 -5 -3 1761.28 1843.04 89.76 o
5282 2 -4 5 11 1761.28 1853.78 126.60 o
5282 1 10 -5 -3 1761.28 1853.78 126.60 o
5283 2 4 5 -10 6991.80 6891.29 282.79 o
5283 1 -9 -5 3 6991.80 6891.29 282.79 o
5284 2 -4 5 10 6991.81 7009.97 254.98 o
5284 1 9 -5 -3 6991.81 7009.97 254.98 o
5285 2 -4 5 10 6991.81 7078.86 316.43 o
5285 1 9 -5 -3 6991.81 7078.86 316.43 o
5286 2 4 5 -10 6991.80 6508.80 251.91 o
5286 1 -9 -5 3 6991.80 6508.80 251.91 o
5287 2 3 5 -4 4519.53 4776.83 197.82 o
5287 1 -4 -5 3 4519.53 4776.83 197.82 o
5288 2 -3 5 4 4519.52 4994.35 174.24 o
5288 1 4 -5 -3 4519.52 4994.35 174.24 o
5289 2 -3 5 4 4519.52 4608.79 190.88 o
5289 1 4 -5 -3 4519.52 4608.79 190.88 o
5290 2 -3 5 4 4519.52 4879.23 177.56 o
5290 1 4 -5 -3 4519.52 4879.23 177.56 o
5291 2 -3 5 4 4519.52 4618.06 204.63 o
5291 1 4 -5 -3 4519.52 4618.06 204.63 o
5292 2 3 5 -4 4519.53 4781.00 197.14 o
5292 1 -4 -5 3 4519.53 4781.00 197.14 o
5293 2 3 -5 -4 4703.40 4496.00 166.32 o
5293 1 -4 5 3 4703.40 4496.00 166.32 o
5294 2 -3 5 3 1222.53 1351.75 60.17 o
5294 1 3 -5 -3 1222.53 1351.75 60.17 o
5295 2 -3 5 3 1222.53 1380.36 70.85 o
5295 1 3 -5 -3 1222.53 1380.36 70.85 o
5296 2 3 5 -3 1222.53 1266.16 69.62 o
5296 1 -3 -5 3 1222.53 1266.16 69.62 o
5297 2 3 5 -3 1222.53 1290.05 53.91 o
5297 1 -3 -5 3 1222.53 1290.05 53.91 o
5298 2 -3 5 3 1222.53 1275.74 66.92 o
5298 1 3 -5 -3 1222.53 1275.74 66.92 o
5299 2 3 5 -3 1222.53 1316.20 69.01 o
5299 1 -3 -5 3 1222.53 1316.20 69.01 o
5300 2 -3 5 3 1222.53 1290.54 58.26 o
5300 1 3 -5 -3 1222.53 1290.54 58.26 o
5301 2 3 -5 -3 1216.61 1292.93 57.53 o
5301 1 -3 5 3 1216.61 1292.93 57.53 o
5302 2 -3 5 2 8469.31 8801.86 286.04 o
5302 1 2 -5 -3 8469.31 8801.86 286.04 o
5303 2 -3 5 2 8469.31 7354.34 284.51 o
5303 1 2 -5 -3 8469.31 7354.34 284.51 o
5304 2 3 5 -2 8469.30 8540.32 280.95 o
5304 1 -2 -5 3 8469.30 8540.32 280.95 o
5305 2 -3 5 2 8469.31 8395.85 323.49 o
5305 1 2 -5 -3 8469.31 8395.85 323.49 o
5306 2 3 5 -2 8469.30 8711.18 326.87 o
5306 1 -2 -5 3 8469.30 8711.18 326.87 o
5307 2 3 -5 -2 8569.60 9418.52 328.71 o
5307 1 -2 5 3 8569.60 9418.52 328.71 o
5308 2 -2 5 -5 10352.50 10207.50 404.66 o
5308 1 -4 -5 -3 10352.50 10207.50 404.66 o
5309 2 2 5 5 10352.50 9917.42 426.70 o
5309 1 4 -5 3 10352.50 9917.42 426.70 o
5310 2 -2 5 -5 10352.50 10557.70 360.27 o
5310 1 -4 -5 -3 10352.50 10557.70 360.27 o
5311 2 2 5 5 10352.50 10484.20 494.05 o
5311 1 4 -5 3 10352.50 10484.20 494.05 o
5312 2 2 5 6 1682.58 1699.12 99.83 o
5312 1 5 -5 3 1682.58 1699.12 99.83 o
5313 2 -2 5 -6 1682.57 1708.58 102.35 o
5313 1 -5 -5 -3 1682.57 1708.58 102.35 o
5314 2 -2 5 -6 1682.57 1695.56 79.02 o
5314 1 -5 -5 -3 1682.57 1695.56 79.02 o
5315 2 2 5 6 1682.58 1700.78 120.83 o
5315 1 5 -5 3 1682.58 1700.78 120.83 o
5316 2 2 5 7 1108.36 1277.46 98.79 o
5316 1 6 -5 3 1108.36 1277.46 98.79 o
5317 2 2 5 7 1108.36 1193.04 111.92 o
5317 1 6 -5 3 1108.36 1193.04 111.92 o
5318 2 -2 5 -7 1108.36 1156.94 92.09 o
5318 1 -6 -5 -3 1108.36 1156.94 92.09 o
5319 2 1 5 12 3796.16 3679.81 239.01 o
5319 1 10 -5 3 3796.16 3679.81 239.01 o
5320 2 -4 6 13 1164.56 1467.23 137.22 o
5320 1 12 -6 -3 1164.56 1467.23 137.22 o
5321 2 4 6 -12 960.62 866.54 62.69 o
5321 1 -11 -6 3 960.62 866.54 62.69 o
5322 2 -4 6 12 960.61 991.48 100.38 o
5322 1 11 -6 -3 960.61 991.48 100.38 o
5323 2 4 6 -11 236.90 253.81 45.19 o
5323 1 -10 -6 3 236.90 253.81 45.19 o
5324 2 -4 6 11 236.90 204.20 48.63 o
5324 1 10 -6 -3 236.90 204.20 48.63 o
5325 2 -4 6 11 236.90 225.94 71.16 o
5325 1 10 -6 -3 236.90 225.94 71.16 o
5326 2 -4 6 10 1022.53 1047.10 74.60 o
5326 1 9 -6 -3 1022.53 1047.10 74.60 o
5327 2 4 6 -10 1022.53 931.37 61.15 o
5327 1 -9 -6 3 1022.53 931.37 61.15 o
5328 2 -4 6 10 1022.53 1020.09 99.65 o
5328 1 9 -6 -3 1022.53 1020.09 99.65 o
5329 2 -3 6 5 280.39 239.38 47.46 o
5329 1 5 -6 -3 280.39 239.38 47.46 o
5330 2 -3 6 5 280.39 120.46 26.71 o
5330 1 5 -6 -3 280.39 120.46 26.71 o
5331 2 -3 6 5 280.39 255.16 52.98 o
5331 1 5 -6 -3 280.39 255.16 52.98 o
5332 2 -3 6 4 6239.46 6018.49 249.27 o
5332 1 4 -6 -3 6239.46 6018.49 249.27 o
5333 2 3 6 -4 6239.45 6248.60 254.36 o
5333 1 -4 -6 3 6239.45 6248.60 254.36 o
5334 2 -3 6 4 6239.46 6316.69 222.01 o
5334 1 4 -6 -3 6239.46 6316.69 222.01 o
5335 2 -3 6 4 6239.46 6157.55 266.15 o
5335 1 4 -6 -3 6239.46 6157.55 266.15 o
5336 2 3 6 -4 6239.45 6321.23 218.32 o
5336 1 -4 -6 3 6239.45 6321.23 218.32 o
5337 2 -3 6 4 6239.46 6337.93 229.13 o
5337 1 4 -6 -3 6239.46 6337.93 229.13 o
5338 2 3 6 -4 6239.45 6393.56 256.45 o
5338 1 -4 -6 3 6239.45 6393.56 256.45 o
5339 2 3 6 -3 4513.15 4396.85 188.49 o
5339 1 -3 -6 3 4513.15 4396.85 188.49 o
5340 2 3 6 -3 4513.15 4620.27 157.66 o
5340 1 -3 -6 3 4513.15 4620.27 157.66 o
5341 2 -3 6 3 4513.16 4467.52 168.04 o
5341 1 3 -6 -3 4513.16 4467.52 168.04 o
5342 2 -3 6 3 4513.16 4437.98 162.76 o
5342 1 3 -6 -3 4513.16 4437.98 162.76 o
5343 2 3 6 -3 4513.15 4524.74 189.10 o
5343 1 -3 -6 3 4513.15 4524.74 189.10 o
5344 2 -3 6 3 4513.16 4508.83 187.81 o
5344 1 3 -6 -3 4513.16 4508.83 187.81 o
5345 2 -3 6 2 3901.00 4020.19 151.52 o
5345 1 2 -6 -3 3901.00 4020.19 151.52 o
5346 2 -3 6 2 3901.00 3999.80 171.85 o
5346 1 2 -6 -3 3901.00 3999.80 171.85 o
5347 2 -3 6 2 3901.00 4094.72 145.45 o
5347 1 2 -6 -3 3901.00 4094.72 145.45 o
5348 2 3 6 -2 3901.00 3979.54 171.11 o
5348 1 -2 -6 3 3901.00 3979.54 171.11 o
5349 2 3 6 -2 3901.00 3821.51 136.73 o
5349 1 -2 -6 3 3901.00 3821.51 136.73 o
5350 2 3 6 -2 3901.00 3719.35 171.42 o
5350 1 -2 -6 3 3901.00 3719.35 171.42 o
5351 2 -2 6 -4 3318.13 2990.27 148.52 o
5351 1 -3 -6 -3 3318.13 2990.27 148.52 o
5352 2 -2 6 -4 3318.13 3243.90 121.62 o
5352 1 -3 -6 -3 3318.13 3243.90 121.62 o
5353 2 2 6 4 3318.14 3048.17 147.53 o
5353 1 3 -6 3 3318.14 3048.17 147.53 o
5354 2 -2 6 -5 687.43 757.38 46.29 o
5354 1 -4 -6 -3 687.43 757.38 46.29 o
5355 2 2 6 5 687.43 807.29 62.19 o
5355 1 4 -6 3 687.43 807.29 62.19 o
5356 2 -2 6 -5 687.43 740.86 70.11 o
5356 1 -4 -6 -3 687.43 740.86 70.11 o
5357 2 -2 6 -6 1212.21 1243.81 65.69 o
5357 1 -5 -6 -3 1212.21 1243.81 65.69 o
5358 2 2 6 6 1212.21 1351.38 87.00 o
5358 1 5 -6 3 1212.21 1351.38 87.00 o
5359 2 -2 6 -6 1212.21 1159.58 87.30 o
5359 1 -5 -6 -3 1212.21 1159.58 87.30 o
5360 2 -2 6 -7 437.81 393.91 52.92 o
5360 1 -6 -6 -3 437.81 393.91 52.92 o
5361 2 -2 6 -7 437.81 358.98 76.62 o
5361 1 -6 -6 -3 437.81 358.98 76.62 o
5362 2 2 6 7 437.81 429.34 70.48 o
5362 1 6 -6 3 437.81 429.34 70.48 o
5363 2 -4 7 13 248.96 235.70 104.80 <
5363 1 12 -7 -3 248.96 235.70 104.80 <
5364 2 -4 7 12 1629.71 1818.97 137.28 o
5364 1 11 -7 -3 1629.71 1818.97 137.28 o
5365 2 -4 7 11 3376.53 3458.54 145.75 o
5365 1 10 -7 -3 3376.53 3458.54 145.75 o
5366 2 4 7 -11 3376.53 3197.85 128.32 o
5366 1 -10 -7 3 3376.53 3197.85 128.32 o
5367 2 -4 7 11 3376.53 3285.28 188.61 o
5367 1 10 -7 -3 3376.53 3285.28 188.61 o
5368 2 -4 7 10 1802.10 1941.94 101.06 o
5368 1 9 -7 -3 1802.10 1941.94 101.06 o
5369 2 -4 7 10 1802.10 1541.15 125.86 o
5369 1 9 -7 -3 1802.10 1541.15 125.86 o
5370 2 4 7 -10 1802.10 1748.12 76.62 o
5370 1 -9 -7 3 1802.10 1748.12 76.62 o
5371 2 4 7 -10 1802.10 1853.90 113.46 o
5371 1 -9 -7 3 1802.10 1853.90 113.46 o
5372 2 -3 7 5 1592.68 1544.78 96.08 o
5372 1 5 -7 -3 1592.68 1544.78 96.08 o
5373 2 -3 7 5 1592.68 1748.36 100.07 o
5373 1 5 -7 -3 1592.68 1748.36 100.07 o
5374 2 -3 7 4 2890.73 2905.36 140.72 o
5374 1 4 -7 -3 2890.73 2905.36 140.72 o
5375 2 3 7 -4 2890.74 2935.26 140.17 o
5375 1 -4 -7 3 2890.74 2935.26 140.17 o
5376 2 -3 7 4 2890.73 3024.23 116.59 o
5376 1 4 -7 -3 2890.73 3024.23 116.59 o
5377 2 3 7 -4 2890.74 2940.11 111.13 o
5377 1 -4 -7 3 2890.74 2940.11 111.13 o
5378 2 -3 7 4 2890.73 2867.79 121.56 o
5378 1 4 -7 -3 2890.73 2867.79 121.56 o
5379 2 3 7 -4 2890.74 2927.84 136.79 o
5379 1 -4 -7 3 2890.74 2927.84 136.79 o
5380 2 -3 7 4 2890.73 2753.35 133.41 o
5380 1 4 -7 -3 2890.73 2753.35 133.41 o
5381 2 3 7 -3 112.38 97.86 25.85 o
5381 1 -3 -7 3 112.38 97.86 25.85 o
5382 2 -3 7 3 112.38 118.56 19.77 o
5382 1 3 -7 -3 112.38 118.56 19.77 o
5383 2 -3 7 3 112.38 182.04 35.49 o
5383 1 3 -7 -3 112.38 182.04 35.49 o
5384 2 -3 7 3 112.38 99.03 20.32 o
5384 1 3 -7 -3 112.38 99.03 20.32 o
5385 2 3 7 -3 112.38 89.27 27.63 o
5385 1 -3 -7 3 112.38 89.27 27.63 o
5386 2 3 7 -3 112.38 116.96 15.90 o
5386 1 -3 -7 3 112.38 116.96 15.90 o
5387 2 3 7 -2 1765.15 1776.61 98.79 o
5387 1 -2 -7 3 1765.15 1776.61 98.79 o
5388 2 -3 7 2 1765.15 1755.18 78.34 o
5388 1 2 -7 -3 1765.15 1755.18 78.34 o
5389 2 3 7 -2 1765.15 1842.54 103.94 o
5389 1 -2 -7 3 1765.15 1842.54 103.94 o
5390 2 3 7 -2 1765.15 1707.04 65.88 o
5390 1 -2 -7 3 1765.15 1707.04 65.88 o
5391 2 -3 7 2 1765.15 1821.12 102.29 o
5391 1 2 -7 -3 1765.15 1821.12 102.29 o
5392 2 -3 7 2 1765.15 1761.81 82.21 o
5392 1 2 -7 -3 1765.15 1761.81 82.21 o
5393 2 -2 7 -4 3422.71 3382.65 166.51 o
5393 1 -3 -7 -3 3422.71 3382.65 166.51 o
5394 2 -2 7 -4 3422.71 3514.78 129.24 o
5394 1 -3 -7 -3 3422.71 3514.78 129.24 o
5395 2 2 7 4 3422.71 3358.34 165.65 o
5395 1 3 -7 3 3422.71 3358.34 165.65 o
5396 2 -2 7 -5 1330.41 1256.03 61.52 o
5396 1 -4 -7 -3 1330.41 1256.03 61.52 o
5397 2 -2 7 -5 1330.41 1205.93 58.20 o
5397 1 -4 -7 -3 1330.41 1205.93 58.20 o
5398 2 -2 7 -5 1330.41 1149.45 87.06 o
5398 1 -4 -7 -3 1330.41 1149.45 87.06 o
5399 2 2 7 5 1330.42 1257.20 82.21 o
5399 1 4 -7 3 1330.42 1257.20 82.21 o
5400 2 2 7 6 2498.09 2345.44 127.52 o
5400 1 5 -7 3 2498.09 2345.44 127.52 o
5401 2 -2 7 -6 2498.09 2255.92 98.66 o
5401 1 -5 -7 -3 2498.09 2255.92 98.66 o
5402 2 -2 7 -6 2498.09 2226.02 125.55 o
5402 1 -5 -7 -3 2498.09 2226.02 125.55 o
5403 2 -2 7 -6 2498.09 2397.32 97.62 o
5403 1 -5 -7 -3 2498.09 2397.32 97.62 o
5404 2 -2 7 -7 470.55 469.74 56.55 o
5404 1 -6 -7 -3 470.55 469.74 56.55 o
5405 2 2 7 7 470.55 476.18 79.02 o
5405 1 6 -7 3 470.55 476.18 79.02 o
5406 2 -2 7 -7 470.55 454.20 52.25 o
5406 1 -6 -7 -3 470.55 454.20 52.25 o
5407 2 -2 7 -7 470.55 448.74 85.83 o
5407 1 -6 -7 -3 470.55 448.74 85.83 o
5408 2 -4 8 12 338.77 294.64 83.01 o
5408 1 11 -8 -3 338.77 294.64 83.01 o
5409 2 -4 8 11 280.48 298.38 60.41 o
5409 1 10 -8 -3 280.48 298.38 60.41 o
5410 2 -4 8 11 280.48 276.22 80.80 o
5410 1 10 -8 -3 280.48 276.22 80.80 o
5411 2 -4 8 10 830.03 840.69 77.79 o
5411 1 9 -8 -3 830.03 840.69 77.79 o
5412 2 -4 8 10 830.03 588.23 100.38 o
5412 1 9 -8 -3 830.03 588.23 100.38 o
5413 2 4 8 -10 830.04 851.07 93.44 o
5413 1 -9 -8 3 830.04 851.07 93.44 o
5414 2 4 8 -10 830.04 736.13 81.72 o
5414 1 -9 -8 3 830.04 736.13 81.72 o
5415 2 -3 8 5 554.11 560.11 76.56 o
5415 1 5 -8 -3 554.11 560.11 76.56 o
5416 2 -3 8 4 1103.02 1003.14 66.18 o
5416 1 4 -8 -3 1103.02 1003.14 66.18 o
5417 2 -3 8 4 1103.02 1041.88 76.50 o
5417 1 4 -8 -3 1103.02 1041.88 76.50 o
5418 2 3 8 -4 1103.02 1063.13 83.38 o
5418 1 -4 -8 3 1103.02 1063.13 83.38 o
5419 2 -3 8 4 1103.02 1023.90 55.62 o
5419 1 4 -8 -3 1103.02 1023.90 55.62 o
5420 2 3 8 -4 1103.02 997.62 76.81 o
5420 1 -4 -8 3 1103.02 997.62 76.81 o
5421 2 3 8 -4 1103.02 1086.83 54.46 o
5421 1 -4 -8 3 1103.02 1086.83 54.46 o
5422 2 3 8 -3 3262.26 3389.29 121.01 o
5422 1 -3 -8 3 3262.26 3389.29 121.01 o
5423 2 -3 8 3 3262.26 3326.97 127.64 o
5423 1 3 -8 -3 3262.26 3326.97 127.64 o
5424 2 3 8 -3 3262.26 3266.56 157.54 o
5424 1 -3 -8 3 3262.26 3266.56 157.54 o
5425 2 -3 8 3 3262.26 3313.65 135.87 o
5425 1 3 -8 -3 3262.26 3313.65 135.87 o
5426 2 3 8 -3 3262.26 3379.22 153.61 o
5426 1 -3 -8 3 3262.26 3379.22 153.61 o
5427 2 -3 8 3 3262.26 3441.23 157.54 o
5427 1 3 -8 -3 3262.26 3441.23 157.54 o
5428 2 -3 8 2 2139.27 2266.42 104.74 o
5428 1 2 -8 -3 2139.27 2266.42 104.74 o
5429 2 3 8 -2 2139.27 2379.14 129.73 o
5429 1 -2 -8 3 2139.27 2379.14 129.73 o
5430 2 3 8 -2 2139.27 2416.16 123.53 o
5430 1 -2 -8 3 2139.27 2416.16 123.53 o
5431 2 -3 8 2 2139.27 2295.21 97.37 o
5431 1 2 -8 -3 2139.27 2295.21 97.37 o
5432 2 -3 8 2 2139.27 2380.00 128.13 o
5432 1 2 -8 -3 2139.27 2380.00 128.13 o
5433 2 -3 8 1 1135.07 1139.63 96.27 o
5433 1 1 -8 -3 1135.07 1139.63 96.27 o
5434 2 -2 8 -5 212.11 174.24 21.24 o
5434 1 -4 -8 -3 212.11 174.24 21.24 o
5435 2 -2 8 -5 212.11 186.52 20.87 o
5435 1 -4 -8 -3 212.11 186.52 20.87 o
5436 2 2 8 5 212.11 242.88 56.30 o
5436 1 4 -8 3 212.11 242.88 56.30 o
5437 2 -2 8 -5 212.11 173.20 57.28 o
5437 1 -4 -8 -3 212.11 173.20 57.28 o
5438 2 -2 8 -6 3260.18 3104.47 117.02 o
5438 1 -5 -8 -3 3260.18 3104.47 117.02 o
5439 2 2 8 6 3260.18 3213.76 162.33 o
5439 1 5 -8 3 3260.18 3213.76 162.33 o
5440 2 -2 8 -6 3260.18 3032.33 119.54 o
5440 1 -5 -8 -3 3260.18 3032.33 119.54 o
5441 2 -2 8 -6 3260.18 3091.64 160.37 o
5441 1 -5 -8 -3 3260.18 3091.64 160.37 o
5442 2 -2 8 -7 4813.72 4902.32 182.35 o
5442 1 -6 -8 -3 4813.72 4902.32 182.35 o
5443 2 2 8 7 4813.71 4933.20 234.65 o
5443 1 6 -8 3 4813.71 4933.20 234.65 o
5444 2 -2 8 -7 4813.72 4516.14 175.71 o
5444 1 -6 -8 -3 4813.72 4516.14 175.71 o
5445 2 -2 8 -7 4813.72 4526.21 224.22 o
5445 1 -6 -8 -3 4813.72 4526.21 224.22 o
5446 2 -4 9 11 771.67 722.69 75.89 o
5446 1 10 -9 -3 771.67 722.69 75.89 o
5447 2 -4 9 11 771.67 810.73 104.62 o
5447 1 10 -9 -3 771.67 810.73 104.62 o
5448 2 -4 9 10 1895.50 2019.79 114.38 o
5448 1 9 -9 -3 1895.50 2019.79 114.38 o
5449 2 4 9 -10 1895.51 1886.44 131.32 o
5449 1 -9 -9 3 1895.51 1886.44 131.32 o
5450 2 4 9 -10 1895.51 1906.09 112.48 o
5450 1 -9 -9 3 1895.51 1906.09 112.48 o
5451 2 -4 9 10 1895.50 1776.54 145.51 o
5451 1 9 -9 -3 1895.50 1776.54 145.51 o
5452 2 -3 9 5 484.99 472.32 91.23 o
5452 1 5 -9 -3 484.99 472.32 91.23 o
5453 2 3 9 -4 361.83 433.15 39.48 o
5453 1 -4 -9 3 361.83 433.15 39.48 o
5454 2 3 9 -4 361.83 406.99 60.41 o
5454 1 -4 -9 3 361.83 406.99 60.41 o
5455 2 3 9 -4 361.83 435.42 75.46 o
5455 1 -4 -9 3 361.83 435.42 75.46 o
5456 2 -3 9 4 361.83 397.41 55.13 o
5456 1 4 -9 -3 361.83 397.41 55.13 o
5457 2 -3 9 4 361.83 406.56 38.19 o
5457 1 4 -9 -3 361.83 406.56 38.19 o
5458 2 -3 9 4 361.83 393.55 65.63 o
5458 1 4 -9 -3 361.83 393.55 65.63 o
5459 2 3 9 -3 400.27 380.84 23.21 o
5459 1 -3 -9 3 400.27 380.84 23.21 o
5460 2 3 9 -3 400.27 354.38 50.53 o
5460 1 -3 -9 3 400.27 354.38 50.53 o
5461 2 3 9 -3 400.27 413.56 25.97 o
5461 1 -3 -9 3 400.27 413.56 25.97 o
5462 2 -3 9 3 400.27 389.68 39.11 o
5462 1 3 -9 -3 400.27 389.68 39.11 o
5463 2 3 9 -3 400.27 500.25 51.82 o
5463 1 -3 -9 3 400.27 500.25 51.82 o
5464 2 -3 9 3 400.27 478.03 55.44 o
5464 1 3 -9 -3 400.27 478.03 55.44 o
5465 2 -3 9 3 400.27 397.60 36.84 o
5465 1 3 -9 -3 400.27 397.60 36.84 o
5466 2 3 9 -2 792.75 822.03 89.09 o
5466 1 -2 -9 3 792.75 822.03 89.09 o
5467 2 -3 9 2 792.75 865.07 55.44 o
5467 1 2 -9 -3 792.75 865.07 55.44 o
5468 2 -3 9 2 792.75 731.96 76.25 o
5468 1 2 -9 -3 792.75 731.96 76.25 o
5469 2 3 9 -2 792.75 889.01 80.18 o
5469 1 -2 -9 3 792.75 889.01 80.18 o
5470 2 -3 9 2 792.75 739.63 61.70 o
5470 1 2 -9 -3 792.75 739.63 61.70 o
5471 2 -3 9 1 947.30 930.21 99.40 o
5471 1 1 -9 -3 947.30 930.21 99.40 o
5472 2 -2 9 -4 2479.29 2429.49 146.49 o
5472 1 -3 -9 -3 2479.29 2429.49 146.49 o
5473 2 2 9 4 2479.28 2445.33 138.02 o
5473 1 3 -9 3 2479.28 2445.33 138.02 o
5474 2 2 9 5 299.25 364.26 65.39 o
5474 1 4 -9 3 299.25 364.26 65.39 o
5475 2 -2 9 -5 299.25 237.42 71.46 o
5475 1 -4 -9 -3 299.25 237.42 71.46 o
5476 2 -2 9 -6 657.43 736.75 90.93 o
5476 1 -5 -9 -3 657.43 736.75 90.93 o
5477 2 2 9 6 657.43 742.58 77.48 o
5477 1 5 -9 3 657.43 742.58 77.48 o
5478 2 -2 9 -7 400.08 381.21 101.79 o
5478 1 -6 -9 -3 400.08 381.21 101.79 o
5479 2 2 9 7 400.08 389.00 90.93 o
5479 1 6 -9 3 400.08 389.00 90.93 o
5480 2 -4 10 10 385.37 264.61 73.61 o
5480 1 9 -10 -3 385.37 264.61 73.61 o
5481 2 4 10 -10 385.37 438.92 98.66 o
5481 1 -9 -10 3 385.37 438.92 98.66 o
5482 2 -4 10 10 385.37 322.76 97.56 o
5482 1 9 -10 -3 385.37 322.76 97.56 o
5483 2 4 10 -10 385.37 440.88 77.67 o
5483 1 -9 -10 3 385.37 440.88 77.67 o
5484 2 -3 10 5 328.26 312.14 96.39 o
5484 1 5 -10 -3 328.26 312.14 96.39 o
5485 2 3 10 -4 2150.99 2327.26 91.11 o
5485 1 -4 -10 3 2150.99 2327.26 91.11 o
5486 2 -3 10 4 2150.99 2227.13 131.32 o
5486 1 4 -10 -3 2150.99 2227.13 131.32 o
5487 2 3 10 -4 2150.99 2290.12 127.95 o
5487 1 -4 -10 3 2150.99 2290.12 127.95 o
5488 2 3 10 -4 2150.99 2215.09 139.80 o
5488 1 -4 -10 3 2150.99 2215.09 139.80 o
5489 2 -3 10 4 2150.99 2368.15 114.93 o
5489 1 4 -10 -3 2150.99 2368.15 114.93 o
5490 2 3 10 -4 2150.99 2241.92 88.29 o
5490 1 -4 -10 3 2150.99 2241.92 88.29 o
5491 2 -3 10 3 3633.16 3843.92 187.62 o
5491 1 3 -10 -3 3633.16 3843.92 187.62 o
5492 2 -3 10 3 3633.16 3757.60 155.45 o
5492 1 3 -10 -3 3633.16 3757.60 155.45 o
5493 2 -3 10 3 3633.16 3742.80 140.66 o
5493 1 3 -10 -3 3633.16 3742.80 140.66 o
5494 2 3 10 -3 3633.17 3578.38 174.12 o
5494 1 -3 -10 3 3633.17 3578.38 174.12 o
5495 2 3 10 -3 3633.17 3837.90 186.70 o
5495 1 -3 -10 3 3633.17 3837.90 186.70 o
5496 2 3 10 -2 2220.83 2326.65 132.06 o
5496 1 -2 -10 3 2220.83 2326.65 132.06 o
5497 2 -3 10 2 2220.83 2051.78 128.38 o
5497 1 2 -10 -3 2220.83 2051.78 128.38 o
5498 2 -3 10 2 2220.83 2231.55 95.10 o
5498 1 2 -10 -3 2220.83 2231.55 95.10 o
5499 2 -3 10 2 2220.83 2214.97 108.92 o
5499 1 2 -10 -3 2220.83 2214.97 108.92 o
5500 2 3 10 -2 2220.83 2192.75 141.88 o
5500 1 -2 -10 3 2220.83 2192.75 141.88 o
5501 2 -3 10 1 1465.91 1409.52 127.27 o
5501 1 1 -10 -3 1465.91 1409.52 127.27 o
5502 2 -2 10 -4 711.89 726.37 101.86 o
5502 1 -3 -10 -3 711.89 726.37 101.86 o
5503 2 2 10 5 586.05 559.93 72.39 o
5503 1 4 -10 3 586.05 559.93 72.39 o
5504 2 -2 10 -5 586.05 472.01 79.69 o
5504 1 -4 -10 -3 586.05 472.01 79.69 o
5505 2 -2 10 -6 779.15 702.12 96.88 o
5505 1 -5 -10 -3 779.15 702.12 96.88 o
5506 2 2 10 6 779.15 846.59 89.94 o
5506 1 5 -10 3 779.15 846.59 89.94 o
5507 2 2 10 7 90.22 137.90 88.47 <
5507 1 6 -10 3 90.22 137.90 88.47 <
5508 2 -2 10 -7 90.22 168.96 107.93 <
5508 1 -6 -10 -3 90.22 168.96 107.93 <
5509 2 -3 11 5 376.74 429.65 75.76 o
5509 1 5 -11 -3 376.74 429.65 75.76 o
5510 2 3 11 -4 754.44 811.34 37.14 o
5510 1 -4 -11 3 754.44 811.34 37.14 o
5511 2 -3 11 4 754.43 939.91 79.63 o
5511 1 4 -11 -3 754.43 939.91 79.63 o
5512 2 3 11 -4 754.44 827.98 87.49 o
5512 1 -4 -11 3 754.44 827.98 87.49 o
5513 2 -3 11 4 754.43 904.60 99.46 o
5513 1 4 -11 -3 754.43 904.60 99.46 o
5514 2 3 11 -4 754.44 837.31 105.29 o
5514 1 -4 -11 3 754.44 837.31 105.29 o
5515 2 -3 11 3 411.24 346.76 42.85 o
5515 1 3 -11 -3 411.24 346.76 42.85 o
5516 2 -3 11 3 411.24 475.57 69.19 o
5516 1 3 -11 -3 411.24 475.57 69.19 o
5517 2 3 11 -3 411.24 404.41 61.40 o
5517 1 -3 -11 3 411.24 404.41 61.40 o
5518 2 3 11 -3 411.24 400.55 53.97 o
5518 1 -3 -11 3 411.24 400.55 53.97 o
5519 2 -3 11 3 411.24 469.37 38.07 o
5519 1 3 -11 -3 411.24 469.37 38.07 o
5520 2 -3 11 2 1348.11 1314.42 114.87 o
5520 1 2 -11 -3 1348.11 1314.42 114.87 o
5521 2 -3 11 2 1348.11 1317.00 70.61 o
5521 1 2 -11 -3 1348.11 1317.00 70.61 o
5522 2 -3 11 2 1348.11 1489.27 89.76 o
5522 1 2 -11 -3 1348.11 1489.27 89.76 o
5523 2 3 11 -2 1348.12 1388.65 109.41 o
5523 1 -2 -11 3 1348.12 1388.65 109.41 o
5524 2 -3 11 1 1878.20 1746.15 147.23 o
5524 1 1 -11 -3 1878.20 1746.15 147.23 o
5525 2 -2 11 -4 698.76 694.02 111.62 o
5525 1 -3 -11 -3 698.76 694.02 111.62 o
5526 2 -2 11 -5 2377.57 2677.77 168.41 o
5526 1 -4 -11 -3 2377.57 2677.77 168.41 o
5527 2 -2 11 -6 534.89 493.87 104.00 o
5527 1 -5 -11 -3 534.89 493.87 104.00 o
5528 2 -3 12 5 301.36 406.07 81.90 o
5528 1 5 -12 -3 301.36 406.07 81.90 o
5529 2 -3 12 4 134.08 76.01 64.04 <
5529 1 4 -12 -3 134.08 76.01 64.04 <
5530 2 -3 12 4 134.08 180.69 91.85 <
5530 1 4 -12 -3 134.08 180.69 91.85 <
5531 2 3 12 -4 134.08 25.72 93.14 <
5531 1 -4 -12 3 134.08 25.72 93.14 <
5532 2 -3 12 3 800.54 1080.19 104.86 o
5532 1 3 -12 -3 800.54 1080.19 104.86 o
5533 2 -3 12 3 800.54 841.55 72.94 o
5533 1 3 -12 -3 800.54 841.55 72.94 o
5534 2 -3 12 2 2835.23 3295.35 181.12 o
5534 1 2 -12 -3 2835.23 3295.35 181.12 o
5535 2 -3 12 2 2835.23 3111.96 143.11 o
5535 1 2 -12 -3 2835.23 3111.96 143.11 o
5536 2 -3 12 2 2835.23 2695.39 110.76 o
5536 1 2 -12 -3 2835.23 2695.39 110.76 o
5537 2 -3 12 1 28.61 60.66 113.15 <
5537 1 1 -12 -3 28.61 60.66 113.15 <
5538 2 -2 12 -4 668.65 565.82 124.20 o
5538 1 -3 -12 -3 668.65 565.82 124.20 o
5539 2 -2 12 -5 511.78 653.37 103.88 o
5539 1 -4 -12 -3 511.78 653.37 103.88 o
5540 2 -3 13 4 758.95 741.35 84.85 o
5540 1 4 -13 -3 758.95 741.35 84.85 o
5541 2 -3 13 3 130.72 135.87 37.76 o
5541 1 3 -13 -3 130.72 135.87 37.76 o
5542 2 -3 13 3 130.72 224.46 72.14 o
5542 1 3 -13 -3 130.72 224.46 72.14 o
5543 2 -3 13 2 203.25 243.25 73.12 o
5543 1 2 -13 -3 203.25 243.25 73.12 o
5544 2 -3 13 2 203.25 146.80 95.84 <
5544 1 2 -13 -3 203.25 146.80 95.84 <
5545 2 -3 13 1 75.58 49.55 137.65 <
5545 1 1 -13 -3 75.58 49.55 137.65 <
5546 2 -3 13 1 75.58 38.00 33.28 <
5546 1 1 -13 -3 75.58 38.00 33.28 <
5547 2 -4 0 6 20724.70 21343.30 729.87 o
5547 1 6 0 -4 20724.70 21343.30 729.87 o
5548 2 -4 0 5 22294.80 19678.00 722.75 o
5548 1 5 0 -4 22294.80 19678.00 722.75 o
5549 2 4 0 -5 22294.80 22114.70 724.71 o
5549 1 -5 0 4 22294.80 22114.70 724.71 o
5550 2 -4 0 5 22294.80 22190.40 784.82 o
5550 1 5 0 -4 22294.80 22190.40 784.82 o
5551 2 4 0 -5 22294.80 21018.10 708.38 o
5551 1 -5 0 4 22294.80 21018.10 708.38 o
5552 2 4 0 -4 323.68 247.79 23.08 o
5552 1 -4 0 4 323.68 247.79 23.08 o
5553 2 4 0 -4 323.68 253.38 23.82 o
5553 1 -4 0 4 323.68 253.38 23.82 o
5554 2 -4 0 4 323.68 245.09 23.45 o
5554 1 4 0 -4 323.68 245.09 23.45 o
5555 2 -4 0 4 323.68 265.84 24.19 o
5555 1 4 0 -4 323.68 265.84 24.19 o
5556 2 -4 0 3 20149.10 19534.00 657.30 o
5556 1 3 0 -4 20149.10 19534.00 657.30 o
5557 2 4 0 -3 20149.10 19408.70 672.90 o
5557 1 -3 0 4 20149.10 19408.70 672.90 o
5558 2 -4 0 3 20149.10 20641.00 673.94 o
5558 1 3 0 -4 20149.10 20641.00 673.94 o
5559 2 4 0 -3 20149.10 19721.20 658.59 o
5559 1 -3 0 4 20149.10 19721.20 658.59 o
5560 2 -3 0 -4 116.26 110.64 22.78 o
5560 1 -3 0 -4 116.26 110.64 22.78 o
5561 2 -3 0 -5 14775.50 14731.30 506.39 o
5561 1 -4 0 -4 14775.50 14731.30 506.39 o
5562 2 2 0 12 31.08 -36.71 92.89 <
5562 1 10 0 4 31.08 -36.71 92.89 <
5563 2 2 0 12 31.08 -64.10 87.37 <
5563 1 10 0 4 31.08 -64.10 87.37 <
5564 2 -5 1 14 444.89 468.33 98.17 o
5564 1 13 -1 -4 444.89 468.33 98.17 o
5565 2 -5 1 13 641.25 1017.63 97.13 o
5565 1 12 -1 -4 641.25 1017.63 97.13 o
5566 2 -4 1 6 6648.98 7054.36 253.13 o
5566 1 6 -1 -4 6648.98 7054.36 253.13 o
5567 2 -4 -1 6 6860.66 6805.95 246.38 o
5567 1 6 1 -4 6860.66 6805.95 246.38 o
5568 2 4 1 -5 2495.71 2515.87 97.80 o
5568 1 -5 -1 4 2495.71 2515.87 97.80 o
5569 2 4 1 -5 2495.71 2515.44 97.50 o
5569 1 -5 -1 4 2495.71 2515.44 97.50 o
5570 2 -4 1 5 2495.71 2287.23 95.72 o
5570 1 5 -1 -4 2495.71 2287.23 95.72 o
5571 2 4 -1 -5 2698.52 2559.95 98.48 o
5571 1 -5 1 4 2698.52 2559.95 98.48 o
5572 2 4 -1 -5 2698.52 2124.11 96.58 o
5572 1 -5 1 4 2698.52 2124.11 96.58 o
5573 2 -4 -1 5 2698.52 2715.22 99.46 o
5573 1 5 1 -4 2698.52 2715.22 99.46 o
5574 2 4 1 -4 495.05 495.34 31.37 o
5574 1 -4 -1 4 495.05 495.34 31.37 o
5575 2 -4 1 4 495.05 553.11 32.72 o
5575 1 4 -1 -4 495.05 553.11 32.72 o
5576 2 -4 1 4 495.05 512.72 33.34 o
5576 1 4 -1 -4 495.05 512.72 33.34 o
5577 2 -4 1 4 495.05 498.41 28.55 o
5577 1 4 -1 -4 495.05 498.41 28.55 o
5578 2 4 1 -4 495.05 531.01 32.85 o
5578 1 -4 -1 4 495.05 531.01 32.85 o
5579 2 4 -1 -4 500.34 505.23 31.13 o
5579 1 -4 1 4 500.34 505.23 31.13 o
5580 2 -4 -1 4 500.34 527.14 31.86 o
5580 1 4 1 -4 500.34 527.14 31.86 o
5581 2 -4 1 3 2680.36 2431.57 100.07 o
5581 1 3 -1 -4 2680.36 2431.57 100.07 o
5582 2 4 1 -3 2680.36 2357.53 92.89 o
5582 1 -3 -1 4 2680.36 2357.53 92.89 o
5583 2 4 1 -3 2680.36 2350.16 92.58 o
5583 1 -3 -1 4 2680.36 2350.16 92.58 o
5584 2 4 1 -3 2680.36 2564.01 113.64 o
5584 1 -3 -1 4 2680.36 2564.01 113.64 o
5585 2 -4 1 3 2680.36 2492.23 95.16 o
5585 1 3 -1 -4 2680.36 2492.23 95.16 o
5586 2 -4 1 3 2680.36 2347.03 93.69 o
5586 1 3 -1 -4 2680.36 2347.03 93.69 o
5587 2 -4 -1 3 2287.71 2798.47 104.00 o
5587 1 3 1 -4 2287.71 2798.47 104.00 o
5588 2 4 -1 -3 2287.71 2652.17 104.56 o
5588 1 -3 1 4 2287.71 2652.17 104.56 o
5589 2 3 1 4 1088.15 1156.02 59.86 o
5589 1 3 -1 4 1088.15 1156.02 59.86 o
5590 2 -3 1 -4 1088.15 1166.58 55.19 o
5590 1 -3 -1 -4 1088.15 1166.58 55.19 o
5591 2 3 1 4 1088.15 1323.44 98.91 o
5591 1 3 -1 4 1088.15 1323.44 98.91 o
5592 2 -3 -1 -4 1099.20 1178.98 53.48 o
5592 1 -3 1 -4 1099.20 1178.98 53.48 o
5593 2 -3 -1 -4 1099.20 1119.24 42.49 o
5593 1 -3 1 -4 1099.20 1119.24 42.49 o
5594 2 -3 1 -5 6068.97 6126.86 220.47 o
5594 1 -4 -1 -4 6068.97 6126.86 220.47 o
5595 2 -3 -1 -5 6220.96 6603.84 235.94 o
5595 1 -4 1 -4 6220.96 6603.84 235.94 o
5596 2 2 1 11 3180.85 3741.39 237.60 o
5596 1 9 -1 4 3180.85 3741.39 237.60 o
5597 2 2 1 12 75.53 50.53 94.79 <
5597 1 10 -1 4 75.53 50.53 94.79 <
5598 2 2 1 12 75.53 111.62 103.21 <
5598 1 10 -1 4 75.53 111.62 103.21 <
5599 2 2 -1 12 72.06 -28.61 109.35 <
5599 1 10 1 4 72.06 -28.61 109.35 <
5600 2 -5 2 14 3446.70 4097.98 221.39 o
5600 1 13 -2 -4 3446.70 4097.98 221.39 o
5601 2 -5 2 13 564.22 742.58 86.08 o
5601 1 12 -2 -4 564.22 742.58 86.08 o
5602 2 -5 2 12 328.89 367.08 50.10 o
5602 1 11 -2 -4 328.89 367.08 50.10 o
5603 2 -5 2 12 328.89 542.00 69.81 o
5603 1 11 -2 -4 328.89 542.00 69.81 o
5604 2 -5 2 11 4180.84 4907.23 226.49 o
5604 1 10 -2 -4 4180.84 4907.23 226.49 o
5605 2 -5 2 11 4180.84 4661.34 187.13 o
5605 1 10 -2 -4 4180.84 4661.34 187.13 o
5606 2 -4 -2 6 1319.16 1812.03 85.34 o
5606 1 6 2 -4 1319.16 1812.03 85.34 o
5607 2 -4 2 5 3681.65 3937.49 140.54 o
5607 1 5 -2 -4 3681.65 3937.49 140.54 o
5608 2 -4 2 5 3681.65 3740.16 140.17 o
5608 1 5 -2 -4 3681.65 3740.16 140.17 o
5609 2 4 2 -5 3681.66 3764.84 139.06 o
5609 1 -5 -2 4 3681.66 3764.84 139.06 o
5610 2 4 2 -5 3681.66 3814.63 139.18 o
5610 1 -5 -2 4 3681.66 3814.63 139.18 o
5611 2 -4 2 5 3681.65 3592.38 158.15 o
5611 1 5 -2 -4 3681.65 3592.38 158.15 o
5612 2 -4 2 5 3681.65 3332.06 136.91 o
5612 1 5 -2 -4 3681.65 3332.06 136.91 o
5613 2 4 -2 -5 3593.55 3151.68 126.66 o
5613 1 -5 2 4 3593.55 3151.68 126.66 o
5614 2 -4 -2 5 3593.55 3522.76 127.46 o
5614 1 5 2 -4 3593.55 3522.76 127.46 o
5615 2 4 -2 -5 3593.55 3217.93 126.04 o
5615 1 -5 2 4 3593.55 3217.93 126.04 o
5616 2 4 2 -4 444.49 592.78 41.87 o
5616 1 -4 -2 4 444.49 592.78 41.87 o
5617 2 -4 2 4 444.49 505.16 30.39 o
5617 1 4 -2 -4 444.49 505.16 30.39 o
5618 2 -4 2 4 444.49 607.57 36.47 o
5618 1 4 -2 -4 444.49 607.57 36.47 o
5619 2 -4 2 4 444.49 575.58 33.52 o
5619 1 4 -2 -4 444.49 575.58 33.52 o
5620 2 4 2 -4 444.49 535.62 32.60 o
5620 1 -4 -2 4 444.49 535.62 32.60 o
5621 2 -4 2 4 444.49 599.47 30.21 o
5621 1 4 -2 -4 444.49 599.47 30.21 o
5622 2 4 2 -4 444.49 552.25 31.74 o
5622 1 -4 -2 4 444.49 552.25 31.74 o
5623 2 -4 -2 4 494.16 367.58 25.54 o
5623 1 4 2 -4 494.16 367.58 25.54 o
5624 2 4 -2 -4 494.15 325.46 26.46 o
5624 1 -4 2 4 494.15 325.46 26.46 o
5625 2 4 -2 -4 494.15 329.57 26.40 o
5625 1 -4 2 4 494.15 329.57 26.40 o
5626 2 -4 2 3 1932.63 1711.22 73.67 o
5626 1 3 -2 -4 1932.63 1711.22 73.67 o
5627 2 4 2 -3 1932.64 1726.88 71.65 o
5627 1 -3 -2 4 1932.64 1726.88 71.65 o
5628 2 4 2 -3 1932.64 1801.96 69.44 o
5628 1 -3 -2 4 1932.64 1801.96 69.44 o
5629 2 -4 2 3 1932.63 1714.78 72.57 o
5629 1 3 -2 -4 1932.63 1714.78 72.57 o
5630 2 -4 2 3 1932.63 1834.81 76.68 o
5630 1 3 -2 -4 1932.63 1834.81 76.68 o
5631 2 4 2 -3 1932.64 1813.57 84.48 o
5631 1 -3 -2 4 1932.64 1813.57 84.48 o
5632 2 -4 -2 3 1819.66 1893.99 73.98 o
5632 1 3 2 -4 1819.66 1893.99 73.98 o
5633 2 4 -2 -3 1819.66 1719.39 75.27 o
5633 1 -3 2 4 1819.66 1719.39 75.27 o
5634 2 4 -2 -3 1819.66 1895.47 77.17 o
5634 1 -3 2 4 1819.66 1895.47 77.17 o
5635 2 4 -2 -2 7120.25 5058.14 181.85 o
5635 1 -2 2 4 7120.25 5058.14 181.85 o
5636 2 3 2 3 16974.70 15649.40 726.13 o
5636 1 2 -2 4 16974.70 15649.40 726.13 o
5637 2 3 2 4 2379.15 2686.24 119.17 o
5637 1 3 -2 4 2379.15 2686.24 119.17 o
5638 2 3 2 4 2379.15 2452.02 148.95 o
5638 1 3 -2 4 2379.15 2452.02 148.95 o
5639 2 3 2 4 2379.15 2561.92 111.68 o
5639 1 3 -2 4 2379.15 2561.92 111.68 o
5640 2 -3 2 -4 2379.15 2436.73 98.72 o
5640 1 -3 -2 -4 2379.15 2436.73 98.72 o
5641 2 -3 -2 -4 2377.58 2628.47 100.44 o
5641 1 -3 2 -4 2377.58 2628.47 100.44 o
5642 2 3 2 5 361.87 448.31 46.60 o
5642 1 4 -2 4 361.87 448.31 46.60 o
5643 2 -3 2 -5 361.87 405.03 35.36 o
5643 1 -4 -2 -4 361.87 405.03 35.36 o
5644 2 3 2 5 361.87 439.35 67.23 o
5644 1 4 -2 4 361.87 439.35 67.23 o
5645 2 -3 -2 -5 434.68 374.02 33.95 o
5645 1 -4 2 -4 434.68 374.02 33.95 o
5646 2 3 2 6 6007.53 7069.40 353.70 o
5646 1 5 -2 4 6007.53 7069.40 353.70 o
5647 2 3 2 6 6007.53 6777.90 300.90 o
5647 1 5 -2 4 6007.53 6777.90 300.90 o
5648 2 2 2 11 442.18 404.60 116.41 o
5648 1 9 -2 4 442.18 404.60 116.41 o
5649 2 2 2 12 306.17 32.23 97.99 <
5649 1 10 -2 4 306.17 32.23 97.99 <
5650 2 2 2 12 306.17 239.07 108.73 <
5650 1 10 -2 4 306.17 239.07 108.73 <
5651 2 -5 3 14 152.03 397.05 98.60 o
5651 1 13 -3 -4 152.03 397.05 98.60 o
5652 2 -5 3 13 4487.39 5212.98 251.91 o
5652 1 12 -3 -4 4487.39 5212.98 251.91 o
5653 2 5 3 -12 554.50 475.45 61.83 o
5653 1 -11 -3 4 554.50 475.45 61.83 o
5654 2 5 3 -12 554.50 618.93 72.51 o
5654 1 -11 -3 4 554.50 618.93 72.51 o
5655 2 -5 3 12 554.50 624.82 56.91 o
5655 1 11 -3 -4 554.50 624.82 56.91 o
5656 2 -5 3 12 554.50 692.97 75.82 o
5656 1 11 -3 -4 554.50 692.97 75.82 o
5657 2 -5 3 11 604.38 572.33 61.21 o
5657 1 10 -3 -4 604.38 572.33 61.21 o
5658 2 -5 3 11 604.38 688.67 79.63 o
5658 1 10 -3 -4 604.38 688.67 79.63 o
5659 2 5 3 -11 604.39 619.85 66.61 o
5659 1 -10 -3 4 604.39 619.85 66.61 o
5660 2 -4 -3 6 743.18 1053.86 65.20 o
5660 1 6 3 -4 743.18 1053.86 65.20 o
5661 2 4 3 -5 17185.00 17999.70 669.77 o
5661 1 -5 -3 4 17185.00 17999.70 669.77 o
5662 2 -4 3 5 17184.90 16555.90 702.24 o
5662 1 5 -3 -4 17184.90 16555.90 702.24 o
5663 2 4 3 -5 17185.00 17625.20 587.80 o
5663 1 -5 -3 4 17185.00 17625.20 587.80 o
5664 2 4 3 -5 17185.00 17367.40 598.12 o
5664 1 -5 -3 4 17185.00 17367.40 598.12 o
5665 2 -4 3 5 17184.90 17763.90 646.56 o
5665 1 5 -3 -4 17184.90 17763.90 646.56 o
5666 2 4 3 -5 17185.00 17724.80 652.82 o
5666 1 -5 -3 4 17185.00 17724.80 652.82 o
5667 2 -4 3 5 17184.90 17427.80 598.05 o
5667 1 5 -3 -4 17184.90 17427.80 598.05 o
5668 2 -4 3 5 17184.90 17793.70 589.83 o
5668 1 5 -3 -4 17184.90 17793.70 589.83 o
5669 2 4 -3 -5 16863.60 16089.50 552.44 o
5669 1 -5 3 4 16863.60 16089.50 552.44 o
5670 2 4 3 -4 3409.07 3326.42 124.45 o
5670 1 -4 -3 4 3409.07 3326.42 124.45 o
5671 2 -4 3 4 3409.07 3420.41 128.01 o
5671 1 4 -3 -4 3409.07 3420.41 128.01 o
5672 2 -4 3 4 3409.07 3457.80 146.55 o
5672 1 4 -3 -4 3409.07 3457.80 146.55 o
5673 2 -4 3 4 3409.07 3502.81 137.16 o
5673 1 4 -3 -4 3409.07 3502.81 137.16 o
5674 2 4 3 -4 3409.07 3491.08 147.29 o
5674 1 -4 -3 4 3409.07 3491.08 147.29 o
5675 2 4 3 -4 3409.07 3412.12 127.21 o
5675 1 -4 -3 4 3409.07 3412.12 127.21 o
5676 2 -4 3 4 3409.07 3637.75 130.59 o
5676 1 4 -3 -4 3409.07 3637.75 130.59 o
5677 2 -4 3 4 3409.07 3428.89 128.68 o
5677 1 4 -3 -4 3409.07 3428.89 128.68 o
5678 2 4 -3 -4 3449.33 2952.27 112.91 o
5678 1 -4 3 4 3449.33 2952.27 112.91 o
5679 2 4 -3 -4 3449.33 3042.58 115.24 o
5679 1 -4 3 4 3449.33 3042.58 115.24 o
5680 2 4 3 -3 8560.86 9057.15 343.69 o
5680 1 -3 -3 4 8560.86 9057.15 343.69 o
5681 2 -4 3 3 8560.86 8590.11 355.05 o
5681 1 3 -3 -4 8560.86 8590.11 355.05 o
5682 2 -4 3 3 8560.86 9041.49 307.10 o
5682 1 3 -3 -4 8560.86 9041.49 307.10 o
5683 2 4 3 -3 8560.86 8708.42 299.24 o
5683 1 -3 -3 4 8560.86 8708.42 299.24 o
5684 2 -4 3 3 8560.86 8741.45 302.07 o
5684 1 3 -3 -4 8560.86 8741.45 302.07 o
5685 2 -4 3 3 8560.86 8719.23 333.38 o
5685 1 3 -3 -4 8560.86 8719.23 333.38 o
5686 2 4 -3 -3 8292.27 8306.58 285.06 o
5686 1 -3 3 4 8292.27 8306.58 285.06 o
5687 2 4 -3 -3 8292.27 8320.34 291.81 o
5687 1 -3 3 4 8292.27 8320.34 291.81 o
5688 2 3 3 3 16583.40 17178.70 795.50 o
5688 1 2 -3 4 16583.40 17178.70 795.50 o
5689 2 3 3 4 1856.04 1694.09 113.58 o
5689 1 3 -3 4 1856.04 1694.09 113.58 o
5690 2 -3 3 -4 1856.05 1732.52 75.39 o
5690 1 -3 -3 -4 1856.05 1732.52 75.39 o
5691 2 3 3 4 1856.04 1808.16 88.59 o
5691 1 3 -3 4 1856.04 1808.16 88.59 o
5692 2 3 3 4 1856.04 1791.52 89.45 o
5692 1 3 -3 4 1856.04 1791.52 89.45 o
5693 2 -3 3 -4 1856.05 1822.10 65.75 o
5693 1 -3 -3 -4 1856.05 1822.10 65.75 o
5694 2 -3 -3 -4 1844.17 2115.57 83.81 o
5694 1 -3 3 -4 1844.17 2115.57 83.81 o
5695 2 3 3 5 7846.76 8013.91 327.48 o
5695 1 4 -3 4 7846.76 8013.91 327.48 o
5696 2 -3 3 -5 7846.76 7474.43 275.85 o
5696 1 -4 -3 -4 7846.76 7474.43 275.85 o
5697 2 3 3 5 7846.76 7778.03 385.01 o
5697 1 4 -3 4 7846.76 7778.03 385.01 o
5698 2 -3 -3 -5 7809.73 8828.63 309.49 o
5698 1 -4 3 -4 7809.73 8828.63 309.49 o
5699 2 3 3 6 5446.96 6152.09 312.38 o
5699 1 5 -3 4 5446.96 6152.09 312.38 o
5700 2 3 3 6 5446.96 5686.16 261.91 o
5700 1 5 -3 4 5446.96 5686.16 261.91 o
5701 2 2 3 11 515.73 458.13 121.62 o
5701 1 9 -3 4 515.73 458.13 121.62 o
5702 2 2 3 11 515.73 268.30 110.21 <
5702 1 9 -3 4 515.73 268.30 110.21 <
5703 2 2 3 12 132.94 139.98 100.87 <
5703 1 10 -3 4 132.94 139.98 100.87 <
5704 2 2 3 12 132.94 32.72 97.31 <
5704 1 10 -3 4 132.94 32.72 97.31 <
5705 2 -5 4 14 553.52 820.98 109.65 o
5705 1 13 -4 -4 553.52 820.98 109.65 o
5706 2 -5 4 13 4180.82 4400.96 213.41 o
5706 1 12 -4 -4 4180.82 4400.96 213.41 o
5707 2 5 4 -13 4180.82 3786.88 171.85 o
5707 1 -12 -4 4 4180.82 3786.88 171.85 o
5708 2 5 4 -12 177.31 134.09 48.93 <
5708 1 -11 -4 4 177.31 134.09 48.93 <
5709 2 -5 4 12 177.31 232.81 64.83 o
5709 1 11 -4 -4 177.31 232.81 64.83 o
5710 2 -5 4 12 177.31 156.25 45.86 o
5710 1 11 -4 -4 177.31 156.25 45.86 o
5711 2 -5 4 11 743.42 716.67 65.26 o
5711 1 10 -4 -4 743.42 716.67 65.26 o
5712 2 -5 4 11 743.42 676.03 84.54 o
5712 1 10 -4 -4 743.42 676.03 84.54 o
5713 2 -5 4 11 743.42 840.57 55.81 o
5713 1 10 -4 -4 743.42 840.57 55.81 o
5714 2 5 4 -11 743.42 466.73 79.94 o
5714 1 -10 -4 4 743.42 466.73 79.94 o
5715 2 5 4 -11 743.42 784.39 67.35 o
5715 1 -10 -4 4 743.42 784.39 67.35 o
5716 2 -4 4 6 1561.23 1605.56 87.73 o
5716 1 6 -4 -4 1561.23 1605.56 87.73 o
5717 2 -4 4 5 11849.60 12863.20 464.27 o
5717 1 5 -4 -4 11849.60 12863.20 464.27 o
5718 2 4 4 -5 11849.60 12633.60 481.40 o
5718 1 -5 -4 4 11849.60 12633.60 481.40 o
5719 2 4 4 -5 11849.60 11931.60 424.37 o
5719 1 -5 -4 4 11849.60 11931.60 424.37 o
5720 2 -4 4 5 11849.60 12019.60 503.26 o
5720 1 5 -4 -4 11849.60 12019.60 503.26 o
5721 2 -4 4 5 11849.60 12332.40 432.23 o
5721 1 5 -4 -4 11849.60 12332.40 432.23 o
5722 2 -4 4 5 11849.60 12388.50 425.47 o
5722 1 5 -4 -4 11849.60 12388.50 425.47 o
5723 2 -4 4 5 11849.60 12724.30 424.61 o
5723 1 5 -4 -4 11849.60 12724.30 424.61 o
5724 2 4 4 -5 11849.60 12495.50 421.60 o
5724 1 -5 -4 4 11849.60 12495.50 421.60 o
5725 2 4 4 -5 11849.60 12358.30 470.29 o
5725 1 -5 -4 4 11849.60 12358.30 470.29 o
5726 2 4 -4 -5 12352.60 12072.10 420.50 o
5726 1 -5 4 4 12352.60 12072.10 420.50 o
5727 2 4 4 -4 4105.06 3795.72 144.46 o
5727 1 -4 -4 4 4105.06 3795.72 144.46 o
5728 2 -4 4 4 4105.05 3962.41 170.99 o
5728 1 4 -4 -4 4105.05 3962.41 170.99 o
5729 2 -4 4 4 4105.05 4233.66 162.09 o
5729 1 4 -4 -4 4105.05 4233.66 162.09 o
5730 2 -4 4 4 4105.05 4050.09 149.68 o
5730 1 4 -4 -4 4105.05 4050.09 149.68 o
5731 2 -4 4 4 4105.05 4037.01 148.39 o
5731 1 4 -4 -4 4105.05 4037.01 148.39 o
5732 2 4 4 -4 4105.06 3849.45 164.73 o
5732 1 -4 -4 4 4105.06 3849.45 164.73 o
5733 2 -4 4 4 4105.05 4173.68 146.18 o
5733 1 4 -4 -4 4105.05 4173.68 146.18 o
5734 2 4 4 -4 4105.06 4064.08 169.15 o
5734 1 -4 -4 4 4105.06 4064.08 169.15 o
5735 2 4 -4 -4 4097.77 3988.88 149.13 o
5735 1 -4 4 4 4097.77 3988.88 149.13 o
5736 2 4 4 -3 757.69 698.56 38.31 o
5736 1 -3 -4 4 757.69 698.56 38.31 o
5737 2 -4 4 3 757.69 656.32 45.56 o
5737 1 3 -4 -4 757.69 656.32 45.56 o
5738 2 -4 4 3 757.69 696.72 40.95 o
5738 1 3 -4 -4 757.69 696.72 40.95 o
5739 2 4 4 -3 757.69 697.88 52.49 o
5739 1 -3 -4 4 757.69 697.88 52.49 o
5740 2 -4 4 3 757.69 680.08 41.01 o
5740 1 3 -4 -4 757.69 680.08 41.01 o
5741 2 -4 4 3 757.69 697.88 48.44 o
5741 1 3 -4 -4 757.69 697.88 48.44 o
5742 2 -4 4 3 757.69 535.55 33.40 o
5742 1 3 -4 -4 757.69 535.55 33.40 o
5743 2 4 -4 -3 618.63 912.83 50.04 o
5743 1 -3 4 4 618.63 912.83 50.04 o
5744 2 -3 4 -4 4128.39 3925.76 157.91 o
5744 1 -3 -4 -4 4128.39 3925.76 157.91 o
5745 2 3 4 4 4128.39 4016.50 175.29 o
5745 1 3 -4 4 4128.39 4016.50 175.29 o
5746 2 3 4 4 4128.39 4162.19 183.14 o
5746 1 3 -4 4 4128.39 4162.19 183.14 o
5747 2 3 4 4 4128.39 4092.45 221.39 o
5747 1 3 -4 4 4128.39 4092.45 221.39 o
5748 2 -3 4 -4 4128.39 4291.00 154.66 o
5748 1 -3 -4 -4 4128.39 4291.00 154.66 o
5749 2 -3 4 -4 4128.39 4189.45 146.61 o
5749 1 -3 -4 -4 4128.39 4189.45 146.61 o
5750 2 -3 4 -5 2213.31 2415.86 101.61 o
5750 1 -4 -4 -4 2213.31 2415.86 101.61 o
5751 2 3 4 5 2213.31 2347.59 120.27 o
5751 1 4 -4 4 2213.31 2347.59 120.27 o
5752 2 3 4 5 2213.31 2548.16 157.11 o
5752 1 4 -4 4 2213.31 2548.16 157.11 o
5753 2 3 4 6 295.46 263.88 58.33 o
5753 1 5 -4 4 295.46 263.88 58.33 o
5754 2 3 4 6 295.46 362.66 85.22 o
5754 1 5 -4 4 295.46 362.66 85.22 o
5755 2 2 4 11 810.70 704.39 129.67 o
5755 1 9 -4 4 810.70 704.39 129.67 o
5756 2 2 4 11 810.70 759.16 124.33 o
5756 1 9 -4 4 810.70 759.16 124.33 o
5757 2 2 4 12 373.73 306.12 111.37 <
5757 1 10 -4 4 373.73 306.12 111.37 <
5758 2 2 4 12 373.73 383.23 109.78 o
5758 1 10 -4 4 373.73 383.23 109.78 o
5759 2 -5 5 14 356.39 533.59 104.56 o
5759 1 13 -5 -4 356.39 533.59 104.56 o
5760 2 5 5 -13 643.93 548.88 60.54 o
5760 1 -12 -5 4 643.93 548.88 60.54 o
5761 2 -5 5 13 643.92 659.76 86.69 o
5761 1 12 -5 -4 643.92 659.76 86.69 o
5762 2 -5 5 12 797.53 868.81 85.40 o
5762 1 11 -5 -4 797.53 868.81 85.40 o
5763 2 -5 5 12 797.53 813.98 65.69 o
5763 1 11 -5 -4 797.53 813.98 65.69 o
5764 2 5 5 -12 797.53 721.46 62.56 o
5764 1 -11 -5 4 797.53 721.46 62.56 o
5765 2 -5 5 11 295.32 277.63 34.87 o
5765 1 10 -5 -4 295.32 277.63 34.87 o
5766 2 -5 5 11 295.32 295.99 60.97 o
5766 1 10 -5 -4 295.32 295.99 60.97 o
5767 2 5 5 -11 295.32 219.86 70.42 o
5767 1 -10 -5 4 295.32 219.86 70.42 o
5768 2 5 5 -11 295.32 258.54 52.55 o
5768 1 -10 -5 4 295.32 258.54 52.55 o
5769 2 -5 5 11 295.32 349.71 76.44 o
5769 1 10 -5 -4 295.32 349.71 76.44 o
5770 2 -4 5 5 1537.85 1390.12 56.79 o
5770 1 5 -5 -4 1537.85 1390.12 56.79 o
5771 2 -4 5 5 1537.85 1405.22 72.94 o
5771 1 5 -5 -4 1537.85 1405.22 72.94 o
5772 2 4 5 -5 1537.84 1384.47 80.31 o
5772 1 -5 -5 4 1537.84 1384.47 80.31 o
5773 2 -4 5 5 1537.85 1410.01 73.31 o
5773 1 5 -5 -4 1537.85 1410.01 73.31 o
5774 2 -4 5 5 1537.85 1350.52 70.42 o
5774 1 5 -5 -4 1537.85 1350.52 70.42 o
5775 2 4 5 -5 1537.84 1405.59 81.96 o
5775 1 -5 -5 4 1537.84 1405.59 81.96 o
5776 2 -4 5 5 1537.85 1386.19 76.31 o
5776 1 5 -5 -4 1537.85 1386.19 76.31 o
5777 2 4 5 -5 1537.84 1400.56 68.39 o
5777 1 -5 -5 4 1537.84 1400.56 68.39 o
5778 2 4 -5 -5 1268.48 1694.21 81.41 o
5778 1 -5 5 4 1268.48 1694.21 81.41 o
5779 2 -4 5 4 2239.76 2269.61 91.30 o
5779 1 4 -5 -4 2239.76 2269.61 91.30 o
5780 2 -4 5 4 2239.76 2147.25 81.59 o
5780 1 4 -5 -4 2239.76 2147.25 81.59 o
5781 2 4 5 -4 2239.77 2137.00 102.90 o
5781 1 -4 -5 4 2239.77 2137.00 102.90 o
5782 2 4 5 -4 2239.77 2246.04 105.11 o
5782 1 -4 -5 4 2239.77 2246.04 105.11 o
5783 2 -4 5 4 2239.76 2201.22 91.42 o
5783 1 4 -5 -4 2239.76 2201.22 91.42 o
5784 2 -4 5 4 2239.76 2372.33 102.90 o
5784 1 4 -5 -4 2239.76 2372.33 102.90 o
5785 2 -4 5 4 2239.76 2139.88 102.71 o
5785 1 4 -5 -4 2239.76 2139.88 102.71 o
5786 2 4 5 -4 2239.77 2202.63 87.49 o
5786 1 -4 -5 4 2239.77 2202.63 87.49 o
5787 2 4 -5 -4 2210.46 2421.32 99.65 o
5787 1 -4 5 4 2210.46 2421.32 99.65 o
5788 2 -4 5 3 5174.39 5384.83 195.67 o
5788 1 3 -5 -4 5174.39 5384.83 195.67 o
5789 2 4 5 -3 5174.40 5329.57 220.78 o
5789 1 -3 -5 4 5174.40 5329.57 220.78 o
5790 2 4 5 -3 5174.40 5172.21 185.35 o
5790 1 -3 -5 4 5174.40 5172.21 185.35 o
5791 2 -4 5 3 5174.39 5277.39 191.55 o
5791 1 3 -5 -4 5174.39 5277.39 191.55 o
5792 2 -4 5 3 5174.39 5283.22 186.77 o
5792 1 3 -5 -4 5174.39 5283.22 186.77 o
5793 2 -4 5 3 5174.39 5495.71 216.30 o
5793 1 3 -5 -4 5174.39 5495.71 216.30 o
5794 2 4 -5 -3 5181.34 4895.07 181.61 o
5794 1 -3 5 4 5181.34 4895.07 181.61 o
5795 2 -3 5 -3 2107.12 2217.98 121.32 o
5795 1 -2 -5 -4 2107.12 2217.98 121.32 o
5796 2 3 5 3 2107.12 2367.42 143.85 o
5796 1 2 -5 4 2107.12 2367.42 143.85 o
5797 2 3 5 4 731.96 710.90 54.09 o
5797 1 3 -5 4 731.96 710.90 54.09 o
5798 2 -3 5 -4 731.96 716.12 53.97 o
5798 1 -3 -5 -4 731.96 716.12 53.97 o
5799 2 3 5 4 731.96 718.70 73.55 o
5799 1 3 -5 4 731.96 718.70 73.55 o
5800 2 3 5 4 731.96 698.56 59.43 o
5800 1 3 -5 4 731.96 698.56 59.43 o
5801 2 -3 5 -4 731.96 715.38 38.19 o
5801 1 -3 -5 -4 731.96 715.38 38.19 o
5802 2 -3 5 -4 731.96 712.62 45.56 o
5802 1 -3 -5 -4 731.96 712.62 45.56 o
5803 2 3 5 5 631.50 759.83 61.83 o
5803 1 4 -5 4 631.50 759.83 61.83 o
5804 2 -3 5 -5 631.50 853.34 52.62 o
5804 1 -4 -5 -4 631.50 853.34 52.62 o
5805 2 3 5 5 631.50 746.20 84.66 o
5805 1 4 -5 4 631.50 746.20 84.66 o
5806 2 -3 5 -6 1186.77 1118.81 96.02 o
5806 1 -5 -5 -4 1186.77 1118.81 96.02 o
5807 2 3 5 6 1186.77 1119.55 115.06 o
5807 1 5 -5 4 1186.77 1119.55 115.06 o
5808 2 3 5 6 1186.77 1042.68 82.39 o
5808 1 5 -5 4 1186.77 1042.68 82.39 o
5809 2 2 5 11 2892.80 2820.27 212.86 o
5809 1 9 -5 4 2892.80 2820.27 212.86 o
5810 2 2 5 11 2892.80 2844.46 197.94 o
5810 1 9 -5 4 2892.80 2844.46 197.94 o
5811 2 -5 6 13 1996.70 2092.36 142.56 o
5811 1 12 -6 -4 1996.70 2092.36 142.56 o
5812 2 5 6 -12 355.70 305.32 47.09 o
5812 1 -11 -6 4 355.70 305.32 47.09 o
5813 2 -5 6 12 355.70 320.48 55.38 o
5813 1 11 -6 -4 355.70 320.48 55.38 o
5814 2 -5 6 12 355.70 345.29 74.53 o
5814 1 11 -6 -4 355.70 345.29 74.53 o
5815 2 -5 6 11 465.94 557.90 88.66 o
5815 1 10 -6 -4 465.94 557.90 88.66 o
5816 2 5 6 -11 465.94 471.15 51.08 o
5816 1 -10 -6 4 465.94 471.15 51.08 o
5817 2 -5 6 11 465.94 578.16 68.09 o
5817 1 10 -6 -4 465.94 578.16 68.09 o
5818 2 -4 6 6 5673.92 5338.29 248.28 o
5818 1 6 -6 -4 5673.92 5338.29 248.28 o
5819 2 -4 6 6 5673.92 6059.50 230.97 o
5819 1 6 -6 -4 5673.92 6059.50 230.97 o
5820 2 4 6 -5 10890.60 11277.00 432.59 o
5820 1 -5 -6 4 10890.60 11277.00 432.59 o
5821 2 -4 6 5 10890.60 11415.30 384.40 o
5821 1 5 -6 -4 10890.60 11415.30 384.40 o
5822 2 -4 6 5 10890.60 11108.20 394.04 o
5822 1 5 -6 -4 10890.60 11108.20 394.04 o
5823 2 4 6 -5 10890.60 11036.10 379.67 o
5823 1 -5 -6 4 10890.60 11036.10 379.67 o
5824 2 -4 6 5 10890.60 10653.70 458.75 o
5824 1 5 -6 -4 10890.60 10653.70 458.75 o
5825 2 -4 6 5 10890.60 11649.60 426.33 o
5825 1 5 -6 -4 10890.60 11649.60 426.33 o
5826 2 4 6 -5 10890.60 10776.00 435.85 o
5826 1 -5 -6 4 10890.60 10776.00 435.85 o
5827 2 -4 6 4 2358.97 2425.50 97.62 o
5827 1 4 -6 -4 2358.97 2425.50 97.62 o
5828 2 4 6 -4 2358.97 2399.03 93.38 o
5828 1 -4 -6 4 2358.97 2399.03 93.38 o
5829 2 4 6 -4 2358.97 2335.80 114.14 o
5829 1 -4 -6 4 2358.97 2335.80 114.14 o
5830 2 -4 6 4 2358.97 2487.69 112.60 o
5830 1 4 -6 -4 2358.97 2487.69 112.60 o
5831 2 -4 6 4 2358.97 2315.48 112.29 o
5831 1 4 -6 -4 2358.97 2315.48 112.29 o
5832 2 -4 6 4 2358.97 2376.26 99.34 o
5832 1 4 -6 -4 2358.97 2376.26 99.34 o
5833 2 4 6 -4 2358.97 2365.82 113.15 o
5833 1 -4 -6 4 2358.97 2365.82 113.15 o
5834 2 -4 6 3 8036.10 7999.12 288.31 o
5834 1 3 -6 -4 8036.10 7999.12 288.31 o
5835 2 4 6 -3 8036.10 8140.76 323.55 o
5835 1 -3 -6 4 8036.10 8140.76 323.55 o
5836 2 4 6 -3 8036.10 7936.55 273.76 o
5836 1 -3 -6 4 8036.10 7936.55 273.76 o
5837 2 -4 6 3 8036.10 8195.52 281.19 o
5837 1 3 -6 -4 8036.10 8195.52 281.19 o
5838 2 -4 6 3 8036.10 7967.37 319.01 o
5838 1 3 -6 -4 8036.10 7967.37 319.01 o
5839 2 -4 6 2 1965.56 1985.41 107.87 o
5839 1 2 -6 -4 1965.56 1985.41 107.87 o
5840 2 -3 6 -4 372.77 320.98 57.28 o
5840 1 -3 -6 -4 372.77 320.98 57.28 o
5841 2 3 6 4 372.77 358.86 52.80 o
5841 1 3 -6 4 372.77 358.86 52.80 o
5842 2 -3 6 -4 372.77 382.86 37.64 o
5842 1 -3 -6 -4 372.77 382.86 37.64 o
5843 2 3 6 4 372.77 352.04 45.99 o
5843 1 3 -6 4 372.77 352.04 45.99 o
5844 2 -3 6 -4 372.77 408.40 31.31 o
5844 1 -3 -6 -4 372.77 408.40 31.31 o
5845 2 -3 6 -4 372.77 384.40 35.06 o
5845 1 -3 -6 -4 372.77 384.40 35.06 o
5846 2 3 6 5 4416.20 4312.55 193.15 o
5846 1 4 -6 4 4416.20 4312.55 193.15 o
5847 2 -3 6 -5 4416.21 4347.86 159.81 o
5847 1 -4 -6 -4 4416.21 4347.86 159.81 o
5848 2 -3 6 -5 4416.21 4075.81 161.41 o
5848 1 -4 -6 -4 4416.21 4075.81 161.41 o
5849 2 -3 6 -5 4416.21 4008.64 189.28 o
5849 1 -4 -6 -4 4416.21 4008.64 189.28 o
5850 2 3 6 6 646.08 683.58 75.58 o
5850 1 5 -6 4 646.08 683.58 75.58 o
5851 2 -3 6 -6 646.08 683.83 54.95 o
5851 1 -5 -6 -4 646.08 683.83 54.95 o
5852 2 -3 6 -6 646.08 576.44 80.67 o
5852 1 -5 -6 -4 646.08 576.44 80.67 o
5853 2 2 6 11 586.00 642.87 133.04 o
5853 1 9 -6 4 586.00 642.87 133.04 o
5854 2 -5 7 13 503.57 521.25 89.21 o
5854 1 12 -7 -4 503.57 521.25 89.21 o
5855 2 -5 7 12 252.19 264.18 75.46 o
5855 1 11 -7 -4 252.19 264.18 75.46 o
5856 2 -5 7 12 252.19 249.14 57.90 o
5856 1 11 -7 -4 252.19 249.14 57.90 o
5857 2 -5 7 11 1885.97 1780.60 103.94 o
5857 1 10 -7 -4 1885.97 1780.60 103.94 o
5858 2 -5 7 11 1885.97 1806.32 131.57 o
5858 1 10 -7 -4 1885.97 1806.32 131.57 o
5859 2 5 7 -11 1885.97 1812.71 76.13 o
5859 1 -10 -7 4 1885.97 1812.71 76.13 o
5860 2 -4 7 6 510.53 623.47 69.68 o
5860 1 6 -7 -4 510.53 623.47 69.68 o
5861 2 -4 7 6 510.53 631.15 66.68 o
5861 1 6 -7 -4 510.53 631.15 66.68 o
5862 2 -4 7 5 4443.05 4758.53 176.02 o
5862 1 5 -7 -4 4443.05 4758.53 176.02 o
5863 2 -4 7 5 4443.05 4820.97 198.31 o
5863 1 5 -7 -4 4443.05 4820.97 198.31 o
5864 2 4 7 -5 4443.05 4354.18 200.33 o
5864 1 -5 -7 4 4443.05 4354.18 200.33 o
5865 2 -4 7 5 4443.05 4658.82 180.38 o
5865 1 5 -7 -4 4443.05 4658.82 180.38 o
5866 2 -4 7 5 4443.05 4608.48 208.38 o
5866 1 5 -7 -4 4443.05 4608.48 208.38 o
5867 2 4 7 -5 4443.05 4748.95 171.42 o
5867 1 -5 -7 4 4443.05 4748.95 171.42 o
5868 2 4 7 -5 4443.05 4486.73 202.48 o
5868 1 -5 -7 4 4443.05 4486.73 202.48 o
5869 2 -4 7 4 7.74 14.55 17.01 <
5869 1 4 -7 -4 7.74 14.55 17.01 <
5870 2 4 7 -4 7.74 14.00 13.14 <
5870 1 -4 -7 4 7.74 14.00 13.14 <
5871 2 4 7 -4 7.74 25.48 23.39 <
5871 1 -4 -7 4 7.74 25.48 23.39 <
5872 2 -4 7 4 7.74 33.34 26.65 <
5872 1 4 -7 -4 7.74 33.34 26.65 <
5873 2 4 7 -4 7.74 14.37 22.90 <
5873 1 -4 -7 4 7.74 14.37 22.90 <
5874 2 -4 7 4 7.74 24.13 18.23 <
5874 1 4 -7 -4 7.74 24.13 18.23 <
5875 2 -4 7 3 1852.05 1895.96 102.65 o
5875 1 3 -7 -4 1852.05 1895.96 102.65 o
5876 2 -4 7 3 1852.05 2105.44 90.13 o
5876 1 3 -7 -4 1852.05 2105.44 90.13 o
5877 2 -4 7 3 1852.05 1883.62 90.68 o
5877 1 3 -7 -4 1852.05 1883.62 90.68 o
5878 2 4 7 -3 1852.06 1984.25 108.30 o
5878 1 -3 -7 4 1852.06 1984.25 108.30 o
5879 2 4 7 -3 1852.06 1939.80 78.03 o
5879 1 -3 -7 4 1852.06 1939.80 78.03 o
5880 2 -3 7 -3 3720.13 3455.16 128.38 o
5880 1 -2 -7 -4 3720.13 3455.16 128.38 o
5881 2 -3 7 -3 3720.13 3466.46 132.12 o
5881 1 -2 -7 -4 3720.13 3466.46 132.12 o
5882 2 -3 7 -3 3720.13 3606.99 173.01 o
5882 1 -2 -7 -4 3720.13 3606.99 173.01 o
5883 2 -3 7 -4 97.88 94.18 27.57 o
5883 1 -3 -7 -4 97.88 94.18 27.57 o
5884 2 -3 7 -4 97.88 80.98 59.86 <
5884 1 -3 -7 -4 97.88 80.98 59.86 <
5885 2 -3 7 -4 97.88 82.27 30.58 <
5885 1 -3 -7 -4 97.88 82.27 30.58 <
5886 2 3 7 4 97.88 86.75 45.68 <
5886 1 3 -7 4 97.88 86.75 45.68 <
5887 2 -3 7 -4 97.88 120.09 28.55 o
5887 1 -3 -7 -4 97.88 120.09 28.55 o
5888 2 -3 7 -5 6445.84 6338.73 233.92 o
5888 1 -4 -7 -4 6445.84 6338.73 233.92 o
5889 2 -3 7 -5 6445.84 6377.23 275.36 o
5889 1 -4 -7 -4 6445.84 6377.23 275.36 o
5890 2 -3 7 -5 6445.84 6473.50 231.58 o
5890 1 -4 -7 -4 6445.84 6473.50 231.58 o
5891 2 3 7 5 6445.84 6431.01 283.40 o
5891 1 4 -7 4 6445.84 6431.01 283.40 o
5892 2 3 7 6 1540.46 1513.28 104.62 o
5892 1 5 -7 4 1540.46 1513.28 104.62 o
5893 2 -3 7 -6 1540.46 1546.00 117.08 o
5893 1 -5 -7 -4 1540.46 1546.00 117.08 o
5894 2 -3 7 -6 1540.46 1583.95 84.42 o
5894 1 -5 -7 -4 1540.46 1583.95 84.42 o
5895 2 -3 7 -6 1540.46 1553.56 80.74 o
5895 1 -5 -7 -4 1540.46 1553.56 80.74 o
5896 2 -5 8 12 185.35 238.34 81.72 <
5896 1 11 -8 -4 185.35 238.34 81.72 <
5897 2 -5 8 11 2202.17 2030.05 147.16 o
5897 1 10 -8 -4 2202.17 2030.05 147.16 o
5898 2 -5 8 11 2202.17 2114.16 118.56 o
5898 1 10 -8 -4 2202.17 2114.16 118.56 o
5899 2 -4 8 6 522.06 566.74 75.82 o
5899 1 6 -8 -4 522.06 566.74 75.82 o
5900 2 -4 8 5 445.40 546.11 68.33 o
5900 1 5 -8 -4 445.40 546.11 68.33 o
5901 2 4 8 -5 445.40 428.23 44.39 o
5901 1 -5 -8 4 445.40 428.23 44.39 o
5902 2 4 8 -5 445.40 437.26 60.47 o
5902 1 -5 -8 4 445.40 437.26 60.47 o
5903 2 -4 8 5 445.40 553.60 51.02 o
5903 1 5 -8 -4 445.40 553.60 51.02 o
5904 2 -4 8 5 445.40 418.04 52.74 o
5904 1 5 -8 -4 445.40 418.04 52.74 o
5905 2 4 8 -5 445.40 508.54 71.53 o
5905 1 -5 -8 4 445.40 508.54 71.53 o
5906 2 4 8 -4 1561.41 1538.27 90.44 o
5906 1 -4 -8 4 1561.41 1538.27 90.44 o
5907 2 -4 8 4 1561.41 1594.51 95.90 o
5907 1 4 -8 -4 1561.41 1594.51 95.90 o
5908 2 -4 8 4 1561.41 1510.03 77.36 o
5908 1 4 -8 -4 1561.41 1510.03 77.36 o
5909 2 4 8 -4 1561.41 1629.44 67.84 o
5909 1 -4 -8 4 1561.41 1629.44 67.84 o
5910 2 -4 8 4 1561.41 1598.19 75.89 o
5910 1 4 -8 -4 1561.41 1598.19 75.89 o
5911 2 4 8 -4 1561.41 1592.66 95.10 o
5911 1 -4 -8 4 1561.41 1592.66 95.10 o
5912 2 -4 8 3 1160.82 1157.68 70.73 o
5912 1 3 -8 -4 1160.82 1157.68 70.73 o
5913 2 -4 8 3 1160.82 1235.53 69.13 o
5913 1 3 -8 -4 1160.82 1235.53 69.13 o
5914 2 4 8 -3 1160.82 1169.59 88.16 o
5914 1 -3 -8 4 1160.82 1169.59 88.16 o
5915 2 4 8 -3 1160.82 1222.69 52.19 o
5915 1 -3 -8 4 1160.82 1222.69 52.19 o
5916 2 -4 8 3 1160.82 1231.41 84.66 o
5916 1 3 -8 -4 1160.82 1231.41 84.66 o
5917 2 -4 8 2 2655.76 2569.04 142.74 o
5917 1 2 -8 -4 2655.76 2569.04 142.74 o
5918 2 3 8 3 6651.24 6331.24 283.34 o
5918 1 2 -8 4 6651.24 6331.24 283.34 o
5919 2 -3 8 -3 6651.24 6445.50 278.74 o
5919 1 -2 -8 -4 6651.24 6445.50 278.74 o
5920 2 -3 8 -4 105.93 121.07 32.85 o
5920 1 -3 -8 -4 105.93 121.07 32.85 o
5921 2 -3 8 -4 105.93 108.49 21.98 o
5921 1 -3 -8 -4 105.93 108.49 21.98 o
5922 2 -3 8 -4 105.93 137.46 22.47 o
5922 1 -3 -8 -4 105.93 137.46 22.47 o
5923 2 -3 8 -4 105.93 138.39 61.15 <
5923 1 -3 -8 -4 105.93 138.39 61.15 <
5924 2 3 8 4 105.93 111.19 49.98 <
5924 1 3 -8 4 105.93 111.19 49.98 <
5925 2 3 8 5 492.40 542.25 67.90 o
5925 1 4 -8 4 492.40 542.25 67.90 o
5926 2 -3 8 -5 492.40 534.88 39.42 o
5926 1 -4 -8 -4 492.40 534.88 39.42 o
5927 2 -3 8 -5 492.40 522.60 37.45 o
5927 1 -4 -8 -4 492.40 522.60 37.45 o
5928 2 -3 8 -5 492.40 445.30 75.64 o
5928 1 -4 -8 -4 492.40 445.30 75.64 o
5929 2 -3 8 -6 4074.83 3699.76 198.68 o
5929 1 -5 -8 -4 4074.83 3699.76 198.68 o
5930 2 -3 8 -6 4074.83 3731.81 145.75 o
5930 1 -5 -8 -4 4074.83 3731.81 145.75 o
5931 2 -3 8 -6 4074.83 3929.14 152.94 o
5931 1 -5 -8 -4 4074.83 3929.14 152.94 o
5932 2 3 8 6 4074.83 3817.58 193.76 o
5932 1 5 -8 4 4074.83 3817.58 193.76 o
5933 2 5 9 -11 784.01 752.10 89.27 o
5933 1 -10 -9 4 784.01 752.10 89.27 o
5934 2 -5 9 11 784.01 779.60 112.17 o
5934 1 10 -9 -4 784.01 779.60 112.17 o
5935 2 -5 9 11 784.01 819.20 89.39 o
5935 1 10 -9 -4 784.01 819.20 89.39 o
5936 2 -4 9 6 1124.03 1123.72 82.21 o
5936 1 6 -9 -4 1124.03 1123.72 82.21 o
5937 2 -4 9 6 1124.03 1266.29 103.27 o
5937 1 6 -9 -4 1124.03 1266.29 103.27 o
5938 2 4 9 -5 996.10 1049.50 83.87 o
5938 1 -5 -9 4 996.10 1049.50 83.87 o
5939 2 4 9 -5 996.10 1081.12 60.29 o
5939 1 -5 -9 4 996.10 1081.12 60.29 o
5940 2 -4 9 5 996.09 1107.64 75.21 o
5940 1 5 -9 -4 996.09 1107.64 75.21 o
5941 2 -4 9 5 996.09 1197.58 94.18 o
5941 1 5 -9 -4 996.09 1197.58 94.18 o
5942 2 -4 9 5 996.09 987.00 60.72 o
5942 1 5 -9 -4 996.09 987.00 60.72 o
5943 2 4 9 -5 996.10 1134.59 96.76 o
5943 1 -5 -9 4 996.10 1134.59 96.76 o
5944 2 -4 9 4 465.17 521.25 58.57 o
5944 1 4 -9 -4 465.17 521.25 58.57 o
5945 2 4 9 -4 465.17 433.82 55.07 o
5945 1 -4 -9 4 465.17 433.82 55.07 o
5946 2 -4 9 4 465.17 472.32 43.28 o
5946 1 4 -9 -4 465.17 472.32 43.28 o
5947 2 4 9 -4 465.17 466.91 54.03 o
5947 1 -4 -9 4 465.17 466.91 54.03 o
5948 2 -4 9 4 465.17 365.80 39.29 o
5948 1 4 -9 -4 465.17 365.80 39.29 o
5949 2 4 9 -4 465.17 500.68 33.09 o
5949 1 -4 -9 4 465.17 500.68 33.09 o
5950 2 -4 9 3 385.37 346.89 53.54 o
5950 1 3 -9 -4 385.37 346.89 53.54 o
5951 2 -4 9 3 385.37 312.07 47.83 o
5951 1 3 -9 -4 385.37 312.07 47.83 o
5952 2 4 9 -3 385.37 378.44 66.25 o
5952 1 -3 -9 4 385.37 378.44 66.25 o
5953 2 -4 9 3 385.37 174.55 41.26 o
5953 1 3 -9 -4 385.37 174.55 41.26 o
5954 2 -4 9 2 690.03 607.33 87.98 o
5954 1 2 -9 -4 690.03 607.33 87.98 o
5955 2 -3 9 -3 2881.61 2831.08 159.94 o
5955 1 -2 -9 -4 2881.61 2831.08 159.94 o
5956 2 3 9 4 246.90 280.70 57.90 o
5956 1 3 -9 4 246.90 280.70 57.90 o
5957 2 -3 9 -4 246.90 195.67 72.51 <
5957 1 -3 -9 -4 246.90 195.67 72.51 <
5958 2 3 9 5 3046.83 2998.87 161.04 o
5958 1 4 -9 4 3046.83 2998.87 161.04 o
5959 2 -3 9 -5 3046.83 3046.21 167.79 o
5959 1 -4 -9 -4 3046.83 3046.21 167.79 o
5960 2 -3 9 -6 424.50 427.07 102.84 o
5960 1 -5 -9 -4 424.50 427.07 102.84 o
5961 2 3 9 6 424.50 363.95 80.80 o
5961 1 5 -9 4 424.50 363.95 80.80 o
5962 2 -4 10 5 4576.27 4970.10 202.11 o
5962 1 5 -10 -4 4576.27 4970.10 202.11 o
5963 2 4 10 -5 4576.27 4750.61 223.54 o
5963 1 -5 -10 4 4576.27 4750.61 223.54 o
5964 2 4 10 -5 4576.27 4873.46 234.22 o
5964 1 -5 -10 4 4576.27 4873.46 234.22 o
5965 2 -4 10 5 4576.27 5230.05 233.24 o
5965 1 5 -10 -4 4576.27 5230.05 233.24 o
5966 2 4 10 -5 4576.27 4944.87 180.69 o
5966 1 -5 -10 4 4576.27 4944.87 180.69 o
5967 2 4 10 -4 695.60 681.61 67.23 o
5967 1 -4 -10 4 695.60 681.61 67.23 o
5968 2 4 10 -4 695.60 918.91 96.33 o
5968 1 -4 -10 4 695.60 918.91 96.33 o
5969 2 -4 10 4 695.60 906.45 81.53 o
5969 1 4 -10 -4 695.60 906.45 81.53 o
5970 2 -4 10 4 695.60 756.21 53.84 o
5970 1 4 -10 -4 695.60 756.21 53.84 o
5971 2 -4 10 4 695.60 813.06 62.38 o
5971 1 4 -10 -4 695.60 813.06 62.38 o
5972 2 -4 10 3 2789.25 2812.10 153.43 o
5972 1 3 -10 -4 2789.25 2812.10 153.43 o
5973 2 -4 10 3 2789.25 3036.38 122.73 o
5973 1 3 -10 -4 2789.25 3036.38 122.73 o
5974 2 4 10 -3 2789.25 2847.41 153.49 o
5974 1 -3 -10 4 2789.25 2847.41 153.49 o
5975 2 -4 10 3 2789.25 2785.03 130.96 o
5975 1 3 -10 -4 2789.25 2785.03 130.96 o
5976 2 -4 10 2 3186.31 2007.45 131.08 o
5976 1 2 -10 -4 3186.31 2007.45 131.08 o
5977 2 -3 10 -3 711.54 631.45 104.74 o
5977 1 -2 -10 -4 711.54 631.45 104.74 o
5978 2 -3 10 -3 711.54 719.37 63.85 o
5978 1 -2 -10 -4 711.54 719.37 63.85 o
5979 2 -3 10 -4 956.03 990.93 101.67 o
5979 1 -3 -10 -4 956.03 990.93 101.67 o
5980 2 3 10 5 3214.62 3288.84 175.04 o
5980 1 4 -10 4 3214.62 3288.84 175.04 o
5981 2 -3 10 -5 3214.61 3386.71 189.59 o
5981 1 -4 -10 -4 3214.61 3386.71 189.59 o
5982 2 -3 10 -6 692.24 510.69 114.81 o
5982 1 -5 -10 -4 692.24 510.69 114.81 o
5983 2 3 10 6 692.24 672.53 97.31 o
5983 1 5 -10 4 692.24 672.53 97.31 o
5984 2 4 11 -5 81.80 158.65 88.96 <
5984 1 -5 -11 4 81.80 158.65 88.96 <
5985 2 -4 11 5 81.80 51.02 93.87 <
5985 1 5 -11 -4 81.80 51.02 93.87 <
5986 2 4 11 -5 81.80 97.31 64.77 <
5986 1 -5 -11 4 81.80 97.31 64.77 <
5987 2 4 11 -5 81.80 77.42 25.36 o
5987 1 -5 -11 4 81.80 77.42 25.36 o
5988 2 -4 11 5 81.80 110.21 61.27 <
5988 1 5 -11 -4 81.80 110.21 61.27 <
5989 2 4 11 -5 81.80 116.16 31.19 o
5989 1 -5 -11 4 81.80 116.16 31.19 o
5990 2 -4 11 4 888.79 963.36 70.54 o
5990 1 4 -11 -4 888.79 963.36 70.54 o
5991 2 4 11 -4 888.79 883.42 80.49 o
5991 1 -4 -11 4 888.79 883.42 80.49 o
5992 2 -4 11 4 888.79 1132.07 101.18 o
5992 1 4 -11 -4 888.79 1132.07 101.18 o
5993 2 -4 11 4 888.79 991.05 59.62 o
5993 1 4 -11 -4 888.79 991.05 59.62 o
5994 2 -4 11 3 668.08 749.03 60.90 o
5994 1 3 -11 -4 668.08 749.03 60.90 o
5995 2 4 11 -3 668.09 684.07 92.95 o
5995 1 -3 -11 4 668.09 684.07 92.95 o
5996 2 -4 11 3 668.08 679.53 73.25 o
5996 1 3 -11 -4 668.08 679.53 73.25 o
5997 2 -4 11 3 668.08 769.04 96.15 o
5997 1 3 -11 -4 668.08 769.04 96.15 o
5998 2 -4 11 2 387.98 172.83 79.88 <
5998 1 2 -11 -4 387.98 172.83 79.88 <
5999 2 -3 11 -3 918.45 975.09 123.40 o
5999 1 -2 -11 -4 918.45 975.09 123.40 o
6000 2 -3 11 -4 262.30 363.95 88.90 o
6000 1 -3 -11 -4 262.30 363.95 88.90 o
6001 2 -3 11 -5 31.74 -19.28 88.59 <
6001 1 -4 -11 -4 31.74 -19.28 88.59 <
6002 2 -3 11 -6 479.39 393.79 118.31 o
6002 1 -5 -11 -4 479.39 393.79 118.31 o
6003 2 -4 12 6 211.87 274.01 82.70 o
6003 1 6 -12 -4 211.87 274.01 82.70 o
6004 2 -4 12 5 2031.48 2267.89 124.33 o
6004 1 5 -12 -4 2031.48 2267.89 124.33 o
6005 2 4 12 -5 2031.48 2127.05 132.49 o
6005 1 -5 -12 4 2031.48 2127.05 132.49 o
6006 2 4 12 -4 505.09 559.99 67.17 o
6006 1 -4 -12 4 505.09 559.99 67.17 o
6007 2 -4 12 4 505.09 740.98 89.09 o
6007 1 4 -12 -4 505.09 740.98 89.09 o
6008 2 -4 12 4 505.09 595.41 58.02 o
6008 1 4 -12 -4 505.09 595.41 58.02 o
6009 2 4 12 -3 179.51 180.01 81.41 <
6009 1 -3 -12 4 179.51 180.01 81.41 <
6010 2 -4 12 3 179.51 192.84 36.65 o
6010 1 3 -12 -4 179.51 192.84 36.65 o
6011 2 -4 12 3 179.51 192.90 64.34 <
6011 1 3 -12 -4 179.51 192.90 64.34 <
6012 2 -4 12 3 179.51 244.48 90.68 <
6012 1 3 -12 -4 179.51 244.48 90.68 <
6013 2 -4 12 2 426.68 464.89 59.37 o
6013 1 2 -12 -4 426.68 464.89 59.37 o
6014 2 -4 12 2 426.68 314.47 92.46 o
6014 1 2 -12 -4 426.68 314.47 92.46 o
6015 2 -3 12 -3 782.22 889.68 133.84 o
6015 1 -2 -12 -4 782.22 889.68 133.84 o
6016 2 -3 12 -4 433.31 429.65 99.40 o
6016 1 -3 -12 -4 433.31 429.65 99.40 o
6017 2 -4 13 3 591.19 660.43 79.63 o
6017 1 3 -13 -4 591.19 660.43 79.63 o
6018 2 -4 13 3 591.19 762.10 114.20 o
6018 1 3 -13 -4 591.19 762.10 114.20 o
6019 2 -4 13 2 1216.47 1276.17 70.73 o
6019 1 2 -13 -4 1216.47 1276.17 70.73 o
6020 2 -4 13 2 1216.47 1250.81 100.01 o
6020 1 2 -13 -4 1216.47 1250.81 100.01 o
6021 2 -4 13 2 1216.47 1457.10 169.33 o
6021 1 2 -13 -4 1216.47 1457.10 169.33 o
6022 2 -6 0 15 705.94 891.71 116.78 o
6022 1 14 0 -5 705.94 891.71 116.78 o
6023 2 5 0 -6 5788.47 5759.96 220.84 o
6023 1 -6 0 5 5788.47 5759.96 220.84 o
6024 2 5 0 -6 5788.47 6066.99 220.04 o
6024 1 -6 0 5 5788.47 6066.99 220.04 o
6025 2 -5 0 6 5788.47 6011.86 221.21 o
6025 1 6 0 -5 5788.47 6011.86 221.21 o
6026 2 -5 0 6 5788.47 6328.60 225.94 o
6026 1 6 0 -5 5788.47 6328.60 225.94 o
6027 2 5 0 -5 810.54 787.52 44.27 o
6027 1 -5 0 5 810.54 787.52 44.27 o
6028 2 -5 0 5 810.54 773.59 44.63 o
6028 1 5 0 -5 810.54 773.59 44.63 o
6029 2 5 0 -5 810.54 760.63 44.76 o
6029 1 -5 0 5 810.54 760.63 44.76 o
6030 2 -5 0 5 810.54 813.61 38.19 o
6030 1 5 0 -5 810.54 813.61 38.19 o
6031 2 -5 0 5 810.54 842.10 45.86 o
6031 1 5 0 -5 810.54 842.10 45.86 o
6032 2 5 0 -4 18303.30 17915.10 612.48 o
6032 1 -4 0 5 18303.30 17915.10 612.48 o
6033 2 5 0 -4 18303.30 17986.00 805.63 o
6033 1 -4 0 5 18303.30 17986.00 805.63 o
6034 2 5 0 -4 18303.30 17049.30 599.22 o
6034 1 -4 0 5 18303.30 17049.30 599.22 o
6035 2 -5 0 4 18303.30 18127.90 599.90 o
6035 1 4 0 -5 18303.30 18127.90 599.90 o
6036 2 -5 0 4 18303.30 18415.20 613.28 o
6036 1 4 0 -5 18303.30 18415.20 613.28 o
6037 2 -4 0 -3 987.96 962.99 47.89 o
6037 1 -2 0 -5 987.96 962.99 47.89 o
6038 2 4 0 3 987.96 1073.32 52.37 o
6038 1 2 0 5 987.96 1073.32 52.37 o
6039 2 4 0 4 18333.90 18243.20 694.94 o
6039 1 3 0 5 18333.90 18243.20 694.94 o
6040 2 -4 0 -4 18333.90 18884.90 633.79 o
6040 1 -3 0 -5 18333.90 18884.90 633.79 o
6041 2 3 0 10 1898.40 1990.20 171.48 o
6041 1 8 0 5 1898.40 1990.20 171.48 o
6042 2 3 0 11 3252.95 3486.84 207.82 o
6042 1 9 0 5 3252.95 3486.84 207.82 o
6043 2 3 0 11 3252.95 3699.15 235.57 o
6043 1 9 0 5 3252.95 3699.15 235.57 o
6044 2 3 0 12 1061.29 1073.44 113.28 o
6044 1 10 0 5 1061.29 1073.44 113.28 o
6045 2 3 0 12 1061.29 1193.47 128.87 o
6045 1 10 0 5 1061.29 1193.47 128.87 o
6046 2 -6 1 15 366.26 330.62 96.45 o
6046 1 14 -1 -5 366.26 330.62 96.45 o
6047 2 -6 1 14 231.31 328.96 69.87 o
6047 1 13 -1 -5 231.31 328.96 69.87 o
6048 2 -6 1 13 5484.37 5861.50 267.99 o
6048 1 12 -1 -5 5484.37 5861.50 267.99 o
6049 2 -6 1 12 1698.36 1847.15 117.51 o
6049 1 11 -1 -5 1698.36 1847.15 117.51 o
6050 2 -5 -1 7 1792.55 2040.05 96.15 o
6050 1 7 1 -5 1792.55 2040.05 96.15 o
6051 2 -5 1 6 3963.19 4499.26 165.89 o
6051 1 6 -1 -5 3963.19 4499.26 165.89 o
6052 2 5 1 -6 3963.19 4261.23 165.09 o
6052 1 -6 -1 5 3963.19 4261.23 165.09 o
6053 2 5 1 -6 3963.19 4354.24 165.77 o
6053 1 -6 -1 5 3963.19 4354.24 165.77 o
6054 2 -5 -1 6 4288.08 4383.10 162.51 o
6054 1 6 1 -5 4288.08 4383.10 162.51 o
6055 2 5 -1 -6 4288.08 4138.25 162.39 o
6055 1 -6 1 5 4288.08 4138.25 162.39 o
6056 2 -5 1 5 406.19 387.04 31.00 o
6056 1 5 -1 -5 406.19 387.04 31.00 o
6057 2 -5 1 5 406.19 404.78 27.26 o
6057 1 5 -1 -5 406.19 404.78 27.26 o
6058 2 5 1 -5 406.19 345.41 30.45 o
6058 1 -5 -1 5 406.19 345.41 30.45 o
6059 2 -5 1 5 406.19 431.80 33.46 o
6059 1 5 -1 -5 406.19 431.80 33.46 o
6060 2 5 1 -5 406.19 373.71 31.56 o
6060 1 -5 -1 5 406.19 373.71 31.56 o
6061 2 5 -1 -5 399.96 466.91 35.43 o
6061 1 -5 1 5 399.96 466.91 35.43 o
6062 2 -5 -1 5 399.96 403.43 33.09 o
6062 1 5 1 -5 399.96 403.43 33.09 o
6063 2 -5 1 4 3185.36 3278.16 131.63 o
6063 1 4 -1 -5 3185.36 3278.16 131.63 o
6064 2 5 1 -4 3185.36 3054.92 121.62 o
6064 1 -4 -1 5 3185.36 3054.92 121.62 o
6065 2 5 1 -4 3185.36 3273.68 122.73 o
6065 1 -4 -1 5 3185.36 3273.68 122.73 o
6066 2 -5 1 4 3185.36 3229.35 122.91 o
6066 1 4 -1 -5 3185.36 3229.35 122.91 o
6067 2 -5 1 4 3185.36 3087.83 122.30 o
6067 1 4 -1 -5 3185.36 3087.83 122.30 o
6068 2 5 -1 -4 2969.13 3046.02 121.50 o
6068 1 -4 1 5 2969.13 3046.02 121.50 o
6069 2 -5 -1 4 2969.13 3234.20 120.46 o
6069 1 4 1 -5 2969.13 3234.20 120.46 o
6070 2 -4 1 -3 3382.14 3493.96 120.83 o
6070 1 -2 -1 -5 3382.14 3493.96 120.83 o
6071 2 4 1 3 3382.14 3497.28 143.11 o
6071 1 2 -1 5 3382.14 3497.28 143.11 o
6072 2 -4 1 -3 3382.14 3388.49 128.87 o
6072 1 -2 -1 -5 3382.14 3388.49 128.87 o
6073 2 4 1 3 3382.14 3421.52 149.50 o
6073 1 2 -1 5 3382.14 3421.52 149.50 o
6074 2 4 -1 3 3145.16 3810.21 148.58 o
6074 1 2 1 5 3145.16 3810.21 148.58 o
6075 2 4 1 4 3958.89 4332.51 180.44 o
6075 1 3 -1 5 3958.89 4332.51 180.44 o
6076 2 -4 1 -4 3958.89 4144.82 152.88 o
6076 1 -3 -1 -5 3958.89 4144.82 152.88 o
6077 2 4 1 4 3958.89 3881.92 221.09 o
6077 1 3 -1 5 3958.89 3881.92 221.09 o
6078 2 4 1 4 3958.89 3988.45 166.20 o
6078 1 3 -1 5 3958.89 3988.45 166.20 o
6079 2 -4 -1 -4 3844.92 4198.36 146.86 o
6079 1 -3 1 -5 3844.92 4198.36 146.86 o
6080 2 -4 -1 -4 3844.92 4289.22 156.93 o
6080 1 -3 1 -5 3844.92 4289.22 156.93 o
6081 2 4 1 5 437.80 444.57 56.36 o
6081 1 4 -1 5 437.80 444.57 56.36 o
6082 2 3 1 10 617.68 630.53 121.26 o
6082 1 8 -1 5 617.68 630.53 121.26 o
6083 2 3 1 11 662.95 690.64 110.14 o
6083 1 9 -1 5 662.95 690.64 110.14 o
6084 2 3 1 11 662.95 674.98 121.75 o
6084 1 9 -1 5 662.95 674.98 121.75 o
6085 2 3 -1 11 715.25 893.31 131.57 o
6085 1 9 1 5 715.25 893.31 131.57 o
6086 2 3 1 12 737.29 805.70 110.14 o
6086 1 10 -1 5 737.29 805.70 110.14 o
6087 2 3 1 12 737.29 802.44 93.14 o
6087 1 10 -1 5 737.29 802.44 93.14 o
6088 2 3 -1 12 709.83 818.59 94.98 o
6088 1 10 1 5 709.83 818.59 94.98 o
6089 2 3 -1 12 709.83 725.02 100.14 o
6089 1 10 1 5 709.83 725.02 100.14 o
6090 2 -6 2 15 1406.50 1532.68 127.40 o
6090 1 14 -2 -5 1406.50 1532.68 127.40 o
6091 2 -6 2 14 1155.89 1274.21 104.00 o
6091 1 13 -2 -5 1155.89 1274.21 104.00 o
6092 2 -6 2 13 481.15 604.75 72.94 o
6092 1 12 -2 -5 481.15 604.75 72.94 o
6093 2 -6 2 12 650.70 711.82 71.16 o
6093 1 11 -2 -5 650.70 711.82 71.16 o
6094 2 -6 2 12 650.70 737.73 80.80 o
6094 1 11 -2 -5 650.70 737.73 80.80 o
6095 2 -5 -2 7 2586.22 3060.88 129.91 o
6095 1 7 2 -5 2586.22 3060.88 129.91 o
6096 2 5 2 -6 1010.98 973.80 58.88 o
6096 1 -6 -2 5 1010.98 973.80 58.88 o
6097 2 -5 2 6 1010.98 989.58 52.74 o
6097 1 6 -2 -5 1010.98 989.58 52.74 o
6098 2 -5 2 6 1010.98 1007.87 56.67 o
6098 1 6 -2 -5 1010.98 1007.87 56.67 o
6099 2 5 2 -6 1010.98 1009.41 57.10 o
6099 1 -6 -2 5 1010.98 1009.41 57.10 o
6100 2 -5 2 6 1010.98 1005.97 63.48 o
6100 1 6 -2 -5 1010.98 1005.97 63.48 o
6101 2 5 -2 -6 1010.92 1202.74 67.84 o
6101 1 -6 2 5 1010.92 1202.74 67.84 o
6102 2 -5 -2 6 1010.92 1364.03 68.09 o
6102 1 6 2 -5 1010.92 1364.03 68.09 o
6103 2 5 2 -5 25625.00 24661.20 871.27 o
6103 1 -5 -2 5 25625.00 24661.20 871.27 o
6104 2 -5 2 5 25625.00 26966.90 963.91 o
6104 1 5 -2 -5 25625.00 26966.90 963.91 o
6105 2 5 2 -5 25625.00 25655.70 994.61 o
6105 1 -5 -2 5 25625.00 25655.70 994.61 o
6106 2 -5 2 5 25625.00 27951.60 875.13 o
6106 1 5 -2 -5 25625.00 27951.60 875.13 o
6107 2 -5 2 5 25625.00 27546.10 892.39 o
6107 1 5 -2 -5 25625.00 27546.10 892.39 o
6108 2 -5 2 5 25625.00 25935.00 1042.87 o
6108 1 5 -2 -5 25625.00 25935.00 1042.87 o
6109 2 5 2 -5 25625.00 24976.40 889.32 o
6109 1 -5 -2 5 25625.00 24976.40 889.32 o
6110 2 -5 -2 5 25943.20 24679.40 815.33 o
6110 1 5 2 -5 25943.20 24679.40 815.33 o
6111 2 5 -2 -5 25943.20 23212.10 797.47 o
6111 1 -5 2 5 25943.20 23212.10 797.47 o
6112 2 -5 2 4 3064.84 3507.84 129.24 o
6112 1 4 -2 -5 3064.84 3507.84 129.24 o
6113 2 -5 2 4 3064.84 3215.23 137.22 o
6113 1 4 -2 -5 3064.84 3215.23 137.22 o
6114 2 -5 2 4 3064.84 3432.88 127.95 o
6114 1 4 -2 -5 3064.84 3432.88 127.95 o
6115 2 5 2 -4 3064.84 3095.32 123.16 o
6115 1 -4 -2 5 3064.84 3095.32 123.16 o
6116 2 5 2 -4 3064.84 3368.41 126.78 o
6116 1 -4 -2 5 3064.84 3368.41 126.78 o
6117 2 -5 -2 4 3382.46 2927.90 111.80 o
6117 1 4 2 -5 3382.46 2927.90 111.80 o
6118 2 5 -2 -4 3382.46 2728.48 111.07 o
6118 1 -4 2 5 3382.46 2728.48 111.07 o
6119 2 -4 2 -3 2612.57 2922.74 112.11 o
6119 1 -2 -2 -5 2612.57 2922.74 112.11 o
6120 2 -4 2 -3 2612.57 2911.26 104.31 o
6120 1 -2 -2 -5 2612.57 2911.26 104.31 o
6121 2 4 2 3 2612.57 2943.74 127.03 o
6121 1 2 -2 5 2612.57 2943.74 127.03 o
6122 2 -4 2 -3 2612.57 3082.68 119.48 o
6122 1 -2 -2 -5 2612.57 3082.68 119.48 o
6123 2 4 2 3 2612.57 2870.74 129.79 o
6123 1 2 -2 5 2612.57 2870.74 129.79 o
6124 2 4 2 4 597.30 471.03 69.68 o
6124 1 3 -2 5 597.30 471.03 69.68 o
6125 2 4 2 4 597.30 602.29 45.31 o
6125 1 3 -2 5 597.30 602.29 45.31 o
6126 2 4 2 4 597.30 553.48 44.76 o
6126 1 3 -2 5 597.30 553.48 44.76 o
6127 2 -4 2 -4 597.30 566.93 39.11 o
6127 1 -3 -2 -5 597.30 566.93 39.11 o
6128 2 -4 -2 -4 545.03 567.30 38.56 o
6128 1 -3 2 -5 545.03 567.30 38.56 o
6129 2 4 2 5 427.97 447.33 84.73 o
6129 1 4 -2 5 427.97 447.33 84.73 o
6130 2 4 2 5 427.97 427.44 52.31 o
6130 1 4 -2 5 427.97 427.44 52.31 o
6131 2 3 2 10 2973.68 2937.72 210.16 o
6131 1 8 -2 5 2973.68 2937.72 210.16 o
6132 2 3 2 11 1053.19 1150.80 136.36 o
6132 1 9 -2 5 1053.19 1150.80 136.36 o
6133 2 3 2 11 1053.19 1278.93 122.67 o
6133 1 9 -2 5 1053.19 1278.93 122.67 o
6134 2 3 2 12 61.19 23.64 84.42 <
6134 1 10 -2 5 61.19 23.64 84.42 <
6135 2 3 -2 12 76.22 32.05 57.53 <
6135 1 10 2 5 76.22 32.05 57.53 <
6136 2 -6 3 14 238.24 249.45 67.47 o
6136 1 13 -3 -5 238.24 249.45 67.47 o
6137 2 -6 3 13 694.27 692.97 78.53 o
6137 1 12 -3 -5 694.27 692.97 78.53 o
6138 2 6 3 -13 694.27 668.41 77.36 o
6138 1 -12 -3 5 694.27 668.41 77.36 o
6139 2 -6 3 12 8535.33 9039.77 387.22 o
6139 1 11 -3 -5 8535.33 9039.77 387.22 o
6140 2 -6 3 12 8535.33 9184.30 328.96 o
6140 1 11 -3 -5 8535.33 9184.30 328.96 o
6141 2 6 3 -12 8535.33 8412.55 330.62 o
6141 1 -11 -3 5 8535.33 8412.55 330.62 o
6142 2 5 3 -6 1238.93 1096.83 83.81 o
6142 1 -6 -3 5 1238.93 1096.83 83.81 o
6143 2 5 3 -6 1238.93 1251.80 68.27 o
6143 1 -6 -3 5 1238.93 1251.80 68.27 o
6144 2 -5 3 6 1238.93 1131.64 58.94 o
6144 1 6 -3 -5 1238.93 1131.64 58.94 o
6145 2 -5 3 6 1238.93 1152.95 67.96 o
6145 1 6 -3 -5 1238.93 1152.95 67.96 o
6146 2 -5 3 6 1238.93 1277.15 52.37 o
6146 1 6 -3 -5 1238.93 1277.15 52.37 o
6147 2 -5 3 6 1238.93 1138.09 63.85 o
6147 1 6 -3 -5 1238.93 1138.09 63.85 o
6148 2 5 3 -6 1238.93 1148.84 60.41 o
6148 1 -6 -3 5 1238.93 1148.84 60.41 o
6149 2 5 -3 -6 1161.37 1334.86 70.73 o
6149 1 -6 3 5 1161.37 1334.86 70.73 o
6150 2 5 -3 -6 1161.37 1238.17 67.29 o
6150 1 -6 3 5 1161.37 1238.17 67.29 o
6151 2 -5 3 5 4277.38 4450.69 165.28 o
6151 1 5 -3 -5 4277.38 4450.69 165.28 o
6152 2 -5 3 5 4277.38 4017.67 177.31 o
6152 1 5 -3 -5 4277.38 4017.67 177.31 o
6153 2 -5 3 5 4277.38 4144.88 157.30 o
6153 1 5 -3 -5 4277.38 4144.88 157.30 o
6154 2 5 3 -5 4277.36 3945.78 155.09 o
6154 1 -5 -3 5 4277.36 3945.78 155.09 o
6155 2 5 3 -5 4277.36 4523.88 184.43 o
6155 1 -5 -3 5 4277.36 4523.88 184.43 o
6156 2 -5 3 5 4277.38 4483.48 159.69 o
6156 1 5 -3 -5 4277.38 4483.48 159.69 o
6157 2 5 3 -5 4277.36 4123.88 154.47 o
6157 1 -5 -3 5 4277.36 4123.88 154.47 o
6158 2 5 -3 -5 4272.34 4171.96 152.08 o
6158 1 -5 3 5 4272.34 4171.96 152.08 o
6159 2 5 -3 -5 4272.34 3712.41 146.80 o
6159 1 -5 3 5 4272.34 3712.41 146.80 o
6160 2 -5 3 4 16645.90 15647.30 619.30 o
6160 1 4 -3 -5 16645.90 15647.30 619.30 o
6161 2 -5 3 4 16645.90 17367.10 573.01 o
6161 1 4 -3 -5 16645.90 17367.10 573.01 o
6162 2 5 3 -4 16645.90 17170.00 638.64 o
6162 1 -4 -3 5 16645.90 17170.00 638.64 o
6163 2 5 3 -4 16645.90 16086.00 558.33 o
6163 1 -4 -3 5 16645.90 16086.00 558.33 o
6164 2 -5 3 4 16645.90 16627.70 665.84 o
6164 1 4 -3 -5 16645.90 16627.70 665.84 o
6165 2 -5 3 4 16645.90 17182.30 562.81 o
6165 1 4 -3 -5 16645.90 17182.30 562.81 o
6166 2 5 -3 -4 16829.30 15692.40 541.33 o
6166 1 -4 3 5 16829.30 15692.40 541.33 o
6167 2 5 -3 -4 16829.30 16475.60 555.08 o
6167 1 -4 3 5 16829.30 16475.60 555.08 o
6168 2 5 -3 -3 178.36 70.18 34.93 <
6168 1 -3 3 5 178.36 70.18 34.93 <
6169 2 4 3 3 5359.56 5452.42 212.92 o
6169 1 2 -3 5 5359.56 5452.42 212.92 o
6170 2 4 3 3 5359.56 5376.91 220.23 o
6170 1 2 -3 5 5359.56 5376.91 220.23 o
6171 2 -4 3 -3 5359.55 5180.07 187.07 o
6171 1 -2 -3 -5 5359.55 5180.07 187.07 o
6172 2 -4 3 -3 5359.55 5065.14 180.63 o
6172 1 -2 -3 -5 5359.55 5065.14 180.63 o
6173 2 4 3 3 5359.56 4358.97 265.17 o
6173 1 2 -3 5 5359.56 4358.97 265.17 o
6174 2 -4 3 -3 5359.55 5582.28 193.40 o
6174 1 -2 -3 -5 5359.55 5582.28 193.40 o
6175 2 4 3 4 6400.40 5887.78 240.79 o
6175 1 3 -3 5 6400.40 5887.78 240.79 o
6176 2 -4 3 -4 6400.40 6071.05 216.24 o
6176 1 -3 -3 -5 6400.40 6071.05 216.24 o
6177 2 4 3 4 6400.40 6048.94 253.81 o
6177 1 3 -3 5 6400.40 6048.94 253.81 o
6178 2 4 3 4 6400.40 5390.48 310.17 o
6178 1 3 -3 5 6400.40 5390.48 310.17 o
6179 2 -4 3 -4 6400.40 6313.25 206.23 o
6179 1 -3 -3 -5 6400.40 6313.25 206.23 o
6180 2 -4 -3 -4 6350.31 7169.66 253.01 o
6180 1 -3 3 -5 6350.31 7169.66 253.01 o
6181 2 4 3 5 1828.63 1644.73 94.49 o
6181 1 4 -3 5 1828.63 1644.73 94.49 o
6182 2 4 3 5 1828.63 1732.83 142.81 o
6182 1 4 -3 5 1828.63 1732.83 142.81 o
6183 2 3 3 10 2093.46 2123.49 182.35 o
6183 1 8 -3 5 2093.46 2123.49 182.35 o
6184 2 3 3 11 968.74 999.46 142.99 o
6184 1 9 -3 5 968.74 999.46 142.99 o
6185 2 3 3 11 968.74 1042.62 119.66 o
6185 1 9 -3 5 968.74 1042.62 119.66 o
6186 2 -6 4 14 975.73 945.06 92.65 o
6186 1 13 -4 -5 975.73 945.06 92.65 o
6187 2 -6 4 13 84.58 134.95 61.83 <
6187 1 12 -4 -5 84.58 134.95 61.83 <
6188 2 6 4 -13 84.59 126.04 54.03 <
6188 1 -12 -4 5 84.59 126.04 54.03 <
6189 2 -6 4 12 52.70 12.46 59.55 <
6189 1 11 -4 -5 52.70 12.46 59.55 <
6190 2 6 4 -12 52.70 56.73 75.39 <
6190 1 -11 -4 5 52.70 56.73 75.39 <
6191 2 -6 4 12 52.70 178.29 68.15 <
6191 1 11 -4 -5 52.70 178.29 68.15 <
6192 2 6 4 -12 52.70 -4.42 56.73 <
6192 1 -11 -4 5 52.70 -4.42 56.73 <
6193 2 5 4 -6 686.56 707.77 43.84 o
6193 1 -6 -4 5 686.56 707.77 43.84 o
6194 2 5 4 -6 686.56 769.72 67.35 o
6194 1 -6 -4 5 686.56 769.72 67.35 o
6195 2 -5 4 6 686.56 744.24 59.37 o
6195 1 6 -4 -5 686.56 744.24 59.37 o
6196 2 5 4 -6 686.56 685.30 54.46 o
6196 1 -6 -4 5 686.56 685.30 54.46 o
6197 2 -5 4 6 686.56 645.76 49.18 o
6197 1 6 -4 -5 686.56 645.76 49.18 o
6198 2 -5 4 6 686.56 909.15 58.45 o
6198 1 6 -4 -5 686.56 909.15 58.45 o
6199 2 -5 4 6 686.56 785.56 50.28 o
6199 1 6 -4 -5 686.56 785.56 50.28 o
6200 2 -5 4 6 686.56 805.33 47.21 o
6200 1 6 -4 -5 686.56 805.33 47.21 o
6201 2 5 -4 -6 697.87 686.77 52.00 o
6201 1 -6 4 5 697.87 686.77 52.00 o
6202 2 -5 4 5 4548.81 4477.65 164.17 o
6202 1 5 -4 -5 4548.81 4477.65 164.17 o
6203 2 5 4 -5 4548.82 4299.17 163.13 o
6203 1 -5 -4 5 4548.82 4299.17 163.13 o
6204 2 -5 4 5 4548.81 4612.84 177.25 o
6204 1 5 -4 -5 4548.81 4612.84 177.25 o
6205 2 5 4 -5 4548.82 4542.54 191.49 o
6205 1 -5 -4 5 4548.82 4542.54 191.49 o
6206 2 -5 4 5 4548.81 4521.24 168.41 o
6206 1 5 -4 -5 4548.81 4521.24 168.41 o
6207 2 -5 4 5 4548.81 4328.82 188.91 o
6207 1 5 -4 -5 4548.81 4328.82 188.91 o
6208 2 -5 4 5 4548.81 4422.64 166.26 o
6208 1 5 -4 -5 4548.81 4422.64 166.26 o
6209 2 5 -4 -5 4520.07 4912.27 185.66 o
6209 1 -5 4 5 4520.07 4912.27 185.66 o
6210 2 -5 4 4 11407.70 10965.90 387.35 o
6210 1 4 -4 -5 11407.70 10965.90 387.35 o
6211 2 -5 4 4 11407.70 11494.60 384.70 o
6211 1 4 -4 -5 11407.70 11494.60 384.70 o
6212 2 -5 4 4 11407.70 11051.50 423.20 o
6212 1 4 -4 -5 11407.70 11051.50 423.20 o
6213 2 -5 4 4 11407.70 11345.60 452.18 o
6213 1 4 -4 -5 11407.70 11345.60 452.18 o
6214 2 5 4 -4 11407.70 11103.50 436.71 o
6214 1 -4 -4 5 11407.70 11103.50 436.71 o
6215 2 5 4 -4 11407.70 10780.40 379.42 o
6215 1 -4 -4 5 11407.70 10780.40 379.42 o
6216 2 -5 4 4 11407.70 11446.00 391.95 o
6216 1 4 -4 -5 11407.70 11446.00 391.95 o
6217 2 5 -4 -4 10847.80 11428.50 401.34 o
6217 1 -4 4 5 10847.80 11428.50 401.34 o
6218 2 -5 4 3 4509.30 4768.42 197.76 o
6218 1 3 -4 -5 4509.30 4768.42 197.76 o
6219 2 5 -4 -3 4393.56 4766.21 180.07 o
6219 1 -3 4 5 4393.56 4766.21 180.07 o
6220 2 4 4 2 990.10 658.28 64.10 o
6220 1 1 -4 5 990.10 658.28 64.10 o
6221 2 4 4 3 3832.77 3203.07 198.68 o
6221 1 2 -4 5 3832.77 3203.07 198.68 o
6222 2 -4 4 -3 3832.78 3601.22 136.79 o
6222 1 -2 -4 -5 3832.78 3601.22 136.79 o
6223 2 -4 4 -3 3832.78 3641.56 131.20 o
6223 1 -2 -4 -5 3832.78 3641.56 131.20 o
6224 2 4 4 3 3832.77 3888.55 160.67 o
6224 1 2 -4 5 3832.77 3888.55 160.67 o
6225 2 4 4 3 3832.77 3771.10 162.21 o
6225 1 2 -4 5 3832.77 3771.10 162.21 o
6226 2 -4 4 -3 3832.78 3697.49 143.60 o
6226 1 -2 -4 -5 3832.78 3697.49 143.60 o
6227 2 4 4 4 1893.55 1962.27 97.50 o
6227 1 3 -4 5 1893.55 1962.27 97.50 o
6228 2 4 4 4 1893.55 1785.88 93.87 o
6228 1 3 -4 5 1893.55 1785.88 93.87 o
6229 2 -4 4 -4 1893.55 1843.53 69.75 o
6229 1 -3 -4 -5 1893.55 1843.53 69.75 o
6230 2 -4 4 -4 1893.55 1852.74 79.57 o
6230 1 -3 -4 -5 1893.55 1852.74 79.57 o
6231 2 4 4 4 1893.55 1581.49 123.59 o
6231 1 3 -4 5 1893.55 1581.49 123.59 o
6232 2 4 4 5 50.26 77.05 48.13 <
6232 1 4 -4 5 50.26 77.05 48.13 <
6233 2 4 4 5 50.26 -39.42 79.69 <
6233 1 4 -4 5 50.26 -39.42 79.69 <
6234 2 3 4 10 2553.59 2835.86 214.76 o
6234 1 8 -4 5 2553.59 2835.86 214.76 o
6235 2 -3 4 -11 308.45 202.85 94.06 <
6235 1 -9 -4 -5 308.45 202.85 94.06 <
6236 2 3 4 11 308.45 294.39 115.18 <
6236 1 9 -4 5 308.45 294.39 115.18 <
6237 2 3 4 11 308.45 301.39 102.29 <
6237 1 9 -4 5 308.45 301.39 102.29 <
6238 2 -6 5 14 68.53 100.87 65.45 <
6238 1 13 -5 -5 68.53 100.87 65.45 <
6239 2 -6 5 13 3248.78 3409.85 178.91 o
6239 1 12 -5 -5 3248.78 3409.85 178.91 o
6240 2 -6 5 13 3248.78 3320.22 127.76 o
6240 1 12 -5 -5 3248.78 3320.22 127.76 o
6241 2 6 5 -13 3248.78 3192.70 145.26 o
6241 1 -12 -5 5 3248.78 3192.70 145.26 o
6242 2 -6 5 12 1937.90 2034.71 88.29 o
6242 1 11 -5 -5 1937.90 2034.71 88.29 o
6243 2 6 5 -12 1937.91 1938.38 103.82 o
6243 1 -11 -5 5 1937.91 1938.38 103.82 o
6244 2 -6 5 12 1937.90 2019.06 109.84 o
6244 1 11 -5 -5 1937.90 2019.06 109.84 o
6245 2 -6 5 12 1937.90 2030.05 128.56 o
6245 1 11 -5 -5 1937.90 2030.05 128.56 o
6246 2 -5 5 7 5245.43 4613.88 212.61 o
6246 1 7 -5 -5 5245.43 4613.88 212.61 o
6247 2 -5 5 6 538.45 627.46 47.77 o
6247 1 6 -5 -5 538.45 627.46 47.77 o
6248 2 -5 5 6 538.45 622.80 39.42 o
6248 1 6 -5 -5 538.45 622.80 39.42 o
6249 2 5 5 -6 538.45 483.80 59.06 o
6249 1 -6 -5 5 538.45 483.80 59.06 o
6250 2 -5 5 6 538.45 619.91 50.96 o
6250 1 6 -5 -5 538.45 619.91 50.96 o
6251 2 -5 5 6 538.45 554.46 55.50 o
6251 1 6 -5 -5 538.45 554.46 55.50 o
6252 2 5 5 -6 538.45 581.23 51.14 o
6252 1 -6 -5 5 538.45 581.23 51.14 o
6253 2 -5 5 6 538.45 561.83 47.89 o
6253 1 6 -5 -5 538.45 561.83 47.89 o
6254 2 -5 5 5 1661.48 1632.76 76.25 o
6254 1 5 -5 -5 1661.48 1632.76 76.25 o
6255 2 -5 5 5 1661.48 1737.19 80.80 o
6255 1 5 -5 -5 1661.48 1737.19 80.80 o
6256 2 -5 5 5 1661.48 1581.00 66.25 o
6256 1 5 -5 -5 1661.48 1581.00 66.25 o
6257 2 -5 5 5 1661.48 1607.71 74.78 o
6257 1 5 -5 -5 1661.48 1607.71 74.78 o
6258 2 5 5 -5 1661.48 1556.99 71.77 o
6258 1 -5 -5 5 1661.48 1556.99 71.77 o
6259 2 -5 5 5 1661.48 1589.41 81.04 o
6259 1 5 -5 -5 1661.48 1589.41 81.04 o
6260 2 5 5 -5 1661.48 1576.46 87.73 o
6260 1 -5 -5 5 1661.48 1576.46 87.73 o
6261 2 5 -5 -5 1675.61 1561.35 75.52 o
6261 1 -5 5 5 1675.61 1561.35 75.52 o
6262 2 -5 5 4 1091.11 1063.00 63.36 o
6262 1 4 -5 -5 1091.11 1063.00 63.36 o
6263 2 5 5 -4 1091.10 1146.01 57.83 o
6263 1 -4 -5 5 1091.10 1146.01 57.83 o
6264 2 -5 5 4 1091.11 1099.17 60.17 o
6264 1 4 -5 -5 1091.11 1099.17 60.17 o
6265 2 -5 5 4 1091.11 969.07 50.04 o
6265 1 4 -5 -5 1091.11 969.07 50.04 o
6266 2 5 5 -4 1091.10 1191.20 76.38 o
6266 1 -4 -5 5 1091.10 1191.20 76.38 o
6267 2 -5 5 4 1091.11 1150.68 65.26 o
6267 1 4 -5 -5 1091.11 1150.68 65.26 o
6268 2 5 -5 -4 1303.78 1346.28 71.28 o
6268 1 -4 5 5 1303.78 1346.28 71.28 o
6269 2 5 -5 -3 3159.63 2873.81 122.18 o
6269 1 -3 5 5 3159.63 2873.81 122.18 o
6270 2 4 5 3 9118.37 8289.89 432.59 o
6270 1 2 -5 5 9118.37 8289.89 432.59 o
6271 2 -4 5 -3 9118.35 8646.10 306.73 o
6271 1 -2 -5 -5 9118.35 8646.10 306.73 o
6272 2 4 5 3 9118.37 9011.59 353.33 o
6272 1 2 -5 5 9118.37 9011.59 353.33 o
6273 2 -4 5 -3 9118.35 9001.09 315.64 o
6273 1 -2 -5 -5 9118.35 9001.09 315.64 o
6274 2 -4 5 -3 9118.35 8835.26 309.43 o
6274 1 -2 -5 -5 9118.35 8835.26 309.43 o
6275 2 4 5 3 9118.37 9163.36 368.74 o
6275 1 2 -5 5 9118.37 9163.36 368.74 o
6276 2 4 5 4 753.10 674.55 55.38 o
6276 1 3 -5 5 753.10 674.55 55.38 o
6277 2 4 5 4 753.10 671.67 61.09 o
6277 1 3 -5 5 753.10 671.67 61.09 o
6278 2 4 5 4 753.10 594.43 76.68 o
6278 1 3 -5 5 753.10 594.43 76.68 o
6279 2 -4 5 -4 753.10 638.33 35.67 o
6279 1 -3 -5 -5 753.10 638.33 35.67 o
6280 2 -4 5 -4 753.10 687.88 45.49 o
6280 1 -3 -5 -5 753.10 687.88 45.49 o
6281 2 4 5 5 1377.53 1298.33 120.09 o
6281 1 4 -5 5 1377.53 1298.33 120.09 o
6282 2 4 5 5 1377.53 1265.61 84.17 o
6282 1 4 -5 5 1377.53 1265.61 84.17 o
6283 2 3 5 10 608.47 684.62 146.80 o
6283 1 8 -5 5 608.47 684.62 146.80 o
6284 2 3 5 11 542.77 459.12 110.70 o
6284 1 9 -5 5 542.77 459.12 110.70 o
6285 2 -3 5 -11 542.77 527.33 95.41 o
6285 1 -9 -5 -5 542.77 527.33 95.41 o
6286 2 3 5 11 542.77 665.59 132.74 o
6286 1 9 -5 5 542.77 665.59 132.74 o
6287 2 -6 6 13 439.72 403.18 70.97 o
6287 1 12 -6 -5 439.72 403.18 70.97 o
6288 2 -6 6 12 1028.12 1005.84 100.01 o
6288 1 11 -6 -5 1028.12 1005.84 100.01 o
6289 2 6 6 -12 1028.12 941.13 66.06 o
6289 1 -11 -6 5 1028.12 941.13 66.06 o
6290 2 -6 6 12 1028.12 966.86 86.45 o
6290 1 11 -6 -5 1028.12 966.86 86.45 o
6291 2 6 6 -11 32.64 15.41 82.76 <
6291 1 -10 -6 5 32.64 15.41 82.76 <
6292 2 -5 6 6 1110.75 1162.96 73.31 o
6292 1 6 -6 -5 1110.75 1162.96 73.31 o
6293 2 -5 6 6 1110.75 1160.38 71.65 o
6293 1 6 -6 -5 1110.75 1160.38 71.65 o
6294 2 5 6 -6 1110.74 1196.60 83.25 o
6294 1 -6 -6 5 1110.74 1196.60 83.25 o
6295 2 5 6 -6 1110.74 1166.52 66.18 o
6295 1 -6 -6 5 1110.74 1166.52 66.18 o
6296 2 -5 6 6 1110.75 1219.93 72.69 o
6296 1 6 -6 -5 1110.75 1219.93 72.69 o
6297 2 5 6 -6 1110.74 1042.44 79.02 o
6297 1 -6 -6 5 1110.74 1042.44 79.02 o
6298 2 -5 6 6 1110.75 1174.19 47.58 o
6298 1 6 -6 -5 1110.75 1174.19 47.58 o
6299 2 -5 6 6 1110.75 1206.61 69.56 o
6299 1 6 -6 -5 1110.75 1206.61 69.56 o
6300 2 -5 6 5 1450.10 1381.95 52.74 o
6300 1 5 -6 -5 1450.10 1381.95 52.74 o
6301 2 -5 6 5 1450.10 1532.01 79.63 o
6301 1 5 -6 -5 1450.10 1532.01 79.63 o
6302 2 -5 6 5 1450.10 1390.12 69.50 o
6302 1 5 -6 -5 1450.10 1390.12 69.50 o
6303 2 5 6 -5 1450.09 1399.02 65.14 o
6303 1 -5 -6 5 1450.09 1399.02 65.14 o
6304 2 -5 6 5 1450.10 1415.35 54.95 o
6304 1 5 -6 -5 1450.10 1415.35 54.95 o
6305 2 5 6 -5 1450.09 1345.73 80.55 o
6305 1 -5 -6 5 1450.09 1345.73 80.55 o
6306 2 -5 6 5 1450.10 1348.00 75.64 o
6306 1 5 -6 -5 1450.10 1348.00 75.64 o
6307 2 -5 6 5 1450.10 1428.49 71.96 o
6307 1 5 -6 -5 1450.10 1428.49 71.96 o
6308 2 -5 6 4 8905.65 8881.68 318.46 o
6308 1 4 -6 -5 8905.65 8881.68 318.46 o
6309 2 -5 6 4 8905.65 8987.65 348.85 o
6309 1 4 -6 -5 8905.65 8987.65 348.85 o
6310 2 -5 6 4 8905.65 8800.76 302.07 o
6310 1 4 -6 -5 8905.65 8800.76 302.07 o
6311 2 5 6 -4 8905.65 8625.04 304.21 o
6311 1 -4 -6 5 8905.65 8625.04 304.21 o
6312 2 -5 6 4 8905.65 8901.57 304.89 o
6312 1 4 -6 -5 8905.65 8901.57 304.89 o
6313 2 5 6 -4 8905.65 8818.93 356.10 o
6313 1 -4 -6 5 8905.65 8818.93 356.10 o
6314 2 -5 6 4 8905.65 9055.12 313.12 o
6314 1 4 -6 -5 8905.65 9055.12 313.12 o
6315 2 -5 6 3 266.14 150.36 41.32 o
6315 1 3 -6 -5 266.14 150.36 41.32 o
6316 2 -4 6 -2 1890.30 1803.87 112.72 o
6316 1 -1 -6 -5 1890.30 1803.87 112.72 o
6317 2 4 6 3 1120.09 1055.76 69.81 o
6317 1 2 -6 5 1120.09 1055.76 69.81 o
6318 2 -4 6 -3 1120.10 1034.03 58.82 o
6318 1 -2 -6 -5 1120.10 1034.03 58.82 o
6319 2 -4 6 -3 1120.10 1030.03 51.51 o
6319 1 -2 -6 -5 1120.10 1030.03 51.51 o
6320 2 -4 6 -3 1120.10 1100.58 87.80 o
6320 1 -2 -6 -5 1120.10 1100.58 87.80 o
6321 2 -4 6 -3 1120.10 1022.54 53.17 o
6321 1 -2 -6 -5 1120.10 1022.54 53.17 o
6322 2 4 6 3 1120.09 1083.20 75.39 o
6322 1 2 -6 5 1120.09 1083.20 75.39 o
6323 2 -4 6 -4 5558.04 4942.35 186.52 o
6323 1 -3 -6 -5 5558.04 4942.35 186.52 o
6324 2 4 6 4 5558.05 5172.03 221.27 o
6324 1 3 -6 5 5558.05 5172.03 221.27 o
6325 2 -4 6 -4 5558.04 5003.87 191.00 o
6325 1 -3 -6 -5 5558.04 5003.87 191.00 o
6326 2 4 6 4 5558.05 5034.75 225.32 o
6326 1 3 -6 5 5558.05 5034.75 225.32 o
6327 2 -4 6 -4 5558.04 5175.10 183.14 o
6327 1 -3 -6 -5 5558.04 5175.10 183.14 o
6328 2 -4 6 -4 5558.04 5028.49 224.65 o
6328 1 -3 -6 -5 5558.04 5028.49 224.65 o
6329 2 4 6 5 999.03 1177.45 123.47 o
6329 1 4 -6 5 999.03 1177.45 123.47 o
6330 2 4 6 5 999.03 872.80 77.91 o
6330 1 4 -6 5 999.03 872.80 77.91 o
6331 2 -4 6 -5 999.03 966.67 99.03 o
6331 1 -4 -6 -5 999.03 966.67 99.03 o
6332 2 -6 7 13 1927.73 2026.61 133.54 o
6332 1 12 -7 -5 1927.73 2026.61 133.54 o
6333 2 -6 7 12 1843.84 1866.00 134.64 o
6333 1 11 -7 -5 1843.84 1866.00 134.64 o
6334 2 -6 7 12 1843.84 1864.40 113.71 o
6334 1 11 -7 -5 1843.84 1864.40 113.71 o
6335 2 -5 7 7 1909.56 1675.12 103.39 o
6335 1 7 -7 -5 1909.56 1675.12 103.39 o
6336 2 -5 7 6 1658.69 1926.35 99.46 o
6336 1 6 -7 -5 1658.69 1926.35 99.46 o
6337 2 -5 7 6 1658.69 1879.87 93.26 o
6337 1 6 -7 -5 1658.69 1879.87 93.26 o
6338 2 -5 7 6 1658.69 1793.18 93.20 o
6338 1 6 -7 -5 1658.69 1793.18 93.20 o
6339 2 -5 7 6 1658.69 1679.42 99.89 o
6339 1 6 -7 -5 1658.69 1679.42 99.89 o
6340 2 5 7 -6 1658.69 1715.76 105.54 o
6340 1 -6 -7 5 1658.69 1715.76 105.54 o
6341 2 5 7 -6 1658.69 1919.78 88.16 o
6341 1 -6 -7 5 1658.69 1919.78 88.16 o
6342 2 5 7 -6 1658.69 1928.62 110.57 o
6342 1 -6 -7 5 1658.69 1928.62 110.57 o
6343 2 5 7 -5 226.90 227.59 30.88 o
6343 1 -5 -7 5 226.90 227.59 30.88 o
6344 2 5 7 -5 226.90 254.18 38.80 o
6344 1 -5 -7 5 226.90 254.18 38.80 o
6345 2 -5 7 5 226.91 212.68 29.41 o
6345 1 5 -7 -5 226.91 212.68 29.41 o
6346 2 -5 7 5 226.91 227.04 31.13 o
6346 1 5 -7 -5 226.91 227.04 31.13 o
6347 2 -5 7 5 226.91 289.30 38.00 o
6347 1 5 -7 -5 226.91 289.30 38.00 o
6348 2 5 7 -4 6392.28 6484.36 229.01 o
6348 1 -4 -7 5 6392.28 6484.36 229.01 o
6349 2 5 7 -4 6392.28 6633.92 275.17 o
6349 1 -4 -7 5 6392.28 6633.92 275.17 o
6350 2 -5 7 4 6392.28 6758.00 268.55 o
6350 1 4 -7 -5 6392.28 6758.00 268.55 o
6351 2 -5 7 4 6392.28 6300.11 241.90 o
6351 1 4 -7 -5 6392.28 6300.11 241.90 o
6352 2 -5 7 4 6392.28 6542.63 238.21 o
6352 1 4 -7 -5 6392.28 6542.63 238.21 o
6353 2 -5 7 3 1187.65 601.13 59.43 o
6353 1 3 -7 -5 1187.65 601.13 59.43 o
6354 2 -4 7 -3 922.91 981.59 51.88 o
6354 1 -2 -7 -5 922.91 981.59 51.88 o
6355 2 -4 7 -3 922.91 934.87 53.84 o
6355 1 -2 -7 -5 922.91 934.87 53.84 o
6356 2 4 7 3 922.91 959.55 69.32 o
6356 1 2 -7 5 922.91 959.55 69.32 o
6357 2 -4 7 -3 922.91 816.01 82.58 o
6357 1 -2 -7 -5 922.91 816.01 82.58 o
6358 2 -4 7 -3 922.91 881.64 49.12 o
6358 1 -2 -7 -5 922.91 881.64 49.12 o
6359 2 4 7 3 922.91 892.82 77.05 o
6359 1 2 -7 5 922.91 892.82 77.05 o
6360 2 -4 7 -4 4360.99 4383.28 163.25 o
6360 1 -3 -7 -5 4360.99 4383.28 163.25 o
6361 2 -4 7 -4 4360.99 4353.63 166.63 o
6361 1 -3 -7 -5 4360.99 4353.63 166.63 o
6362 2 -4 7 -4 4360.99 4307.64 206.54 o
6362 1 -3 -7 -5 4360.99 4307.64 206.54 o
6363 2 4 7 4 4360.99 4326.86 202.18 o
6363 1 3 -7 5 4360.99 4326.86 202.18 o
6364 2 -4 7 -4 4360.99 4396.05 161.84 o
6364 1 -3 -7 -5 4360.99 4396.05 161.84 o
6365 2 -4 7 -5 20.06 10.81 47.70 <
6365 1 -4 -7 -5 20.06 10.81 47.70 <
6366 2 4 7 5 20.06 58.26 58.14 <
6366 1 4 -7 5 20.06 58.26 58.14 <
6367 2 -4 7 -5 20.06 -0.31 41.01 <
6367 1 -4 -7 -5 20.06 -0.31 41.01 <
6368 2 -4 7 -5 20.06 -32.91 80.00 <
6368 1 -4 -7 -5 20.06 -32.91 80.00 <
6369 2 -6 8 12 553.25 414.67 79.75 o
6369 1 11 -8 -5 553.25 414.67 79.75 o
6370 2 -6 8 12 553.25 459.61 89.39 o
6370 1 11 -8 -5 553.25 459.61 89.39 o
6371 2 -5 8 7 106.34 156.93 56.79 <
6371 1 7 -8 -5 106.34 156.93 56.79 <
6372 2 -5 8 6 1093.86 1255.30 84.85 o
6372 1 6 -8 -5 1093.86 1255.30 84.85 o
6373 2 5 8 -6 1093.86 1099.17 65.82 o
6373 1 -6 -8 5 1093.86 1099.17 65.82 o
6374 2 5 8 -6 1093.86 998.23 82.39 o
6374 1 -6 -8 5 1093.86 998.23 82.39 o
6375 2 -5 8 6 1093.86 1138.03 76.56 o
6375 1 6 -8 -5 1093.86 1138.03 76.56 o
6376 2 5 8 -5 13258.50 13305.20 458.87 o
6376 1 -5 -8 5 13258.50 13305.20 458.87 o
6377 2 -5 8 5 13258.50 13324.30 480.73 o
6377 1 5 -8 -5 13258.50 13324.30 480.73 o
6378 2 -5 8 5 13258.50 14235.50 524.38 o
6378 1 5 -8 -5 13258.50 14235.50 524.38 o
6379 2 5 8 -5 13258.50 12584.50 530.15 o
6379 1 -5 -8 5 13258.50 12584.50 530.15 o
6380 2 -5 8 5 13258.50 14289.00 468.33 o
6380 1 5 -8 -5 13258.50 14289.00 468.33 o
6381 2 5 8 -4 367.68 310.42 35.61 o
6381 1 -4 -8 5 367.68 310.42 35.61 o
6382 2 -5 8 4 367.68 316.25 50.28 o
6382 1 4 -8 -5 367.68 316.25 50.28 o
6383 2 -5 8 4 367.68 331.84 60.23 o
6383 1 4 -8 -5 367.68 331.84 60.23 o
6384 2 -5 8 4 367.68 345.41 50.10 o
6384 1 4 -8 -5 367.68 345.41 50.10 o
6385 2 5 8 -4 367.68 346.58 64.40 o
6385 1 -4 -8 5 367.68 346.58 64.40 o
6386 2 5 8 -3 656.17 698.99 36.04 o
6386 1 -3 -8 5 656.17 698.99 36.04 o
6387 2 -5 8 3 656.17 432.59 60.11 o
6387 1 3 -8 -5 656.17 432.59 60.11 o
6388 2 -4 8 -2 2622.24 1837.45 68.52 o
6388 1 -1 -8 -5 2622.24 1837.45 68.52 o
6389 2 -4 8 -3 202.86 110.88 63.48 <
6389 1 -2 -8 -5 202.86 110.88 63.48 <
6390 2 4 8 3 202.86 234.72 53.11 o
6390 1 2 -8 5 202.86 234.72 53.11 o
6391 2 -4 8 -3 202.86 239.63 35.55 o
6391 1 -2 -8 -5 202.86 239.63 35.55 o
6392 2 4 8 3 202.86 260.50 62.62 o
6392 1 2 -8 5 202.86 260.50 62.62 o
6393 2 -4 8 -3 202.86 225.69 27.44 o
6393 1 -2 -8 -5 202.86 225.69 27.44 o
6394 2 -4 8 -3 202.86 212.68 26.03 o
6394 1 -2 -8 -5 202.86 212.68 26.03 o
6395 2 -4 8 -4 467.21 503.38 83.62 o
6395 1 -3 -8 -5 467.21 503.38 83.62 o
6396 2 -4 8 -4 467.21 467.53 40.89 o
6396 1 -3 -8 -5 467.21 467.53 40.89 o
6397 2 4 8 4 467.20 475.94 59.06 o
6397 1 3 -8 5 467.20 475.94 59.06 o
6398 2 -4 8 -4 467.21 523.28 42.30 o
6398 1 -3 -8 -5 467.21 523.28 42.30 o
6399 2 -4 8 -4 467.21 399.26 37.21 o
6399 1 -3 -8 -5 467.21 399.26 37.21 o
6400 2 -4 8 -5 133.75 162.27 41.01 o
6400 1 -4 -8 -5 133.75 162.27 41.01 o
6401 2 -4 8 -5 133.75 145.51 46.60 o
6401 1 -4 -8 -5 133.75 145.51 46.60 o
6402 2 -4 8 -5 133.75 155.27 95.72 <
6402 1 -4 -8 -5 133.75 155.27 95.72 <
6403 2 4 8 5 133.75 97.68 70.73 <
6403 1 4 -8 5 133.75 97.68 70.73 <
6404 2 -4 8 -6 2224.21 2137.92 100.63 o
6404 1 -5 -8 -5 2224.21 2137.92 100.63 o
6405 2 5 9 -7 815.86 765.48 84.60 o
6405 1 -7 -9 5 815.86 765.48 84.60 o
6406 2 5 9 -6 947.87 1009.34 65.32 o
6406 1 -6 -9 5 947.87 1009.34 65.32 o
6407 2 5 9 -6 947.87 837.68 85.09 o
6407 1 -6 -9 5 947.87 837.68 85.09 o
6408 2 -5 9 6 947.87 1104.94 92.28 o
6408 1 6 -9 -5 947.87 1104.94 92.28 o
6409 2 -5 9 6 947.87 886.12 74.47 o
6409 1 6 -9 -5 947.87 886.12 74.47 o
6410 2 -5 9 5 786.57 808.21 56.18 o
6410 1 5 -9 -5 786.57 808.21 56.18 o
6411 2 -5 9 5 786.57 795.99 59.74 o
6411 1 5 -9 -5 786.57 795.99 59.74 o
6412 2 -5 9 5 786.57 981.84 79.38 o
6412 1 5 -9 -5 786.57 981.84 79.38 o
6413 2 5 9 -5 786.57 753.51 68.03 o
6413 1 -5 -9 5 786.57 753.51 68.03 o
6414 2 5 9 -5 786.57 778.25 47.15 o
6414 1 -5 -9 5 786.57 778.25 47.15 o
6415 2 -5 9 4 1756.66 1804.66 111.13 o
6415 1 4 -9 -5 1756.66 1804.66 111.13 o
6416 2 5 9 -4 1756.68 1736.88 72.45 o
6416 1 -4 -9 5 1756.68 1736.88 72.45 o
6417 2 5 9 -4 1756.68 1712.26 112.48 o
6417 1 -4 -9 5 1756.68 1712.26 112.48 o
6418 2 -5 9 4 1756.66 1725.09 92.95 o
6418 1 4 -9 -5 1756.66 1725.09 92.95 o
6419 2 -5 9 4 1756.66 1836.41 92.34 o
6419 1 4 -9 -5 1756.66 1836.41 92.34 o
6420 2 -5 9 3 404.87 268.42 63.73 o
6420 1 3 -9 -5 404.87 268.42 63.73 o
6421 2 4 9 2 1821.00 1970.43 123.59 o
6421 1 1 -9 5 1821.00 1970.43 123.59 o
6422 2 -4 9 -2 1821.00 1645.40 129.05 o
6422 1 -1 -9 -5 1821.00 1645.40 129.05 o
6423 2 -4 9 -2 1821.00 1665.60 87.92 o
6423 1 -1 -9 -5 1821.00 1665.60 87.92 o
6424 2 -4 9 -3 375.38 308.02 72.75 o
6424 1 -2 -9 -5 375.38 308.02 72.75 o
6425 2 -4 9 -3 375.38 365.67 43.28 o
6425 1 -2 -9 -5 375.38 365.67 43.28 o
6426 2 -4 9 -4 1789.48 1728.96 130.34 o
6426 1 -3 -9 -5 1789.48 1728.96 130.34 o
6427 2 4 9 4 1789.48 1854.70 113.89 o
6427 1 3 -9 5 1789.48 1854.70 113.89 o
6428 2 4 9 5 106.16 109.41 75.03 <
6428 1 4 -9 5 106.16 109.41 75.03 <
6429 2 -4 9 -5 106.16 108.79 98.48 <
6429 1 -4 -9 -5 106.16 108.79 98.48 <
6430 2 -5 10 7 3605.78 3655.62 166.32 o
6430 1 7 -10 -5 3605.78 3655.62 166.32 o
6431 2 5 10 -7 3605.79 3493.23 181.98 o
6431 1 -7 -10 5 3605.79 3493.23 181.98 o
6432 2 5 10 -6 689.91 713.54 56.48 o
6432 1 -6 -10 5 689.91 713.54 56.48 o
6433 2 -5 10 6 689.91 636.43 70.30 o
6433 1 6 -10 -5 689.91 636.43 70.30 o
6434 2 5 10 -6 689.91 729.38 83.19 o
6434 1 -6 -10 5 689.91 729.38 83.19 o
6435 2 -5 10 5 60.18 29.04 25.66 <
6435 1 5 -10 -5 60.18 29.04 25.66 <
6436 2 -5 10 5 60.18 89.82 45.56 <
6436 1 5 -10 -5 60.18 89.82 45.56 <
6437 2 -5 10 5 60.18 94.79 27.44 o
6437 1 5 -10 -5 60.18 94.79 27.44 o
6438 2 5 10 -5 60.18 56.42 36.41 <
6438 1 -5 -10 5 60.18 56.42 36.41 <
6439 2 5 10 -5 60.18 66.37 18.73 o
6439 1 -5 -10 5 60.18 66.37 18.73 o
6440 2 5 10 -4 4379.09 4439.70 213.10 o
6440 1 -4 -10 5 4379.09 4439.70 213.10 o
6441 2 -5 10 4 4379.10 4218.68 186.03 o
6441 1 4 -10 -5 4379.10 4218.68 186.03 o
6442 2 -5 10 4 4379.10 4817.47 216.42 o
6442 1 4 -10 -5 4379.10 4817.47 216.42 o
6443 2 -5 10 4 4379.10 4624.01 178.85 o
6443 1 4 -10 -5 4379.10 4624.01 178.85 o
6444 2 -5 10 3 484.75 356.22 82.52 o
6444 1 3 -10 -5 484.75 356.22 82.52 o
6445 2 4 10 2 194.26 245.95 85.83 <
6445 1 1 -10 5 194.26 245.95 85.83 <
6446 2 -4 10 -2 194.26 130.65 100.14 <
6446 1 -1 -10 -5 194.26 130.65 100.14 <
6447 2 -4 10 -2 194.26 131.76 52.37 <
6447 1 -1 -10 -5 194.26 131.76 52.37 <
6448 2 -4 10 -3 730.60 692.67 56.05 o
6448 1 -2 -10 -5 730.60 692.67 56.05 o
6449 2 -4 10 -3 730.60 723.67 95.96 o
6449 1 -2 -10 -5 730.60 723.67 95.96 o
6450 2 -4 10 -4 3311.60 3522.33 196.65 o
6450 1 -3 -10 -5 3311.60 3522.33 196.65 o
6451 2 -4 10 -5 68.41 -50.16 105.66 <
6451 1 -4 -10 -5 68.41 -50.16 105.66 <
6452 2 -5 11 7 1553.46 1627.78 110.27 o
6452 1 7 -11 -5 1553.46 1627.78 110.27 o
6453 2 5 11 -7 1553.46 1343.89 111.80 o
6453 1 -7 -11 5 1553.46 1343.89 111.80 o
6454 2 5 11 -6 133.67 193.15 41.50 o
6454 1 -6 -11 5 133.67 193.15 41.50 o
6455 2 5 11 -6 133.67 142.87 68.76 <
6455 1 -6 -11 5 133.67 142.87 68.76 <
6456 2 -5 11 6 133.67 133.84 65.08 <
6456 1 6 -11 -5 133.67 133.84 65.08 <
6457 2 5 11 -5 925.69 933.83 83.13 o
6457 1 -5 -11 5 925.69 933.83 83.13 o
6458 2 -5 11 5 925.69 1000.81 64.59 o
6458 1 5 -11 -5 925.69 1000.81 64.59 o
6459 2 -5 11 5 925.69 1166.33 105.54 o
6459 1 5 -11 -5 925.69 1166.33 105.54 o
6460 2 -5 11 5 925.69 1070.19 76.38 o
6460 1 5 -11 -5 925.69 1070.19 76.38 o
6461 2 5 11 -4 100.59 131.39 77.60 <
6461 1 -4 -11 5 100.59 131.39 77.60 <
6462 2 -5 11 4 100.59 34.75 49.18 <
6462 1 4 -11 -5 100.59 34.75 49.18 <
6463 2 -5 11 4 100.59 51.88 58.69 <
6463 1 4 -11 -5 100.59 51.88 58.69 <
6464 2 -5 11 4 100.59 84.85 91.97 <
6464 1 4 -11 -5 100.59 84.85 91.97 <
6465 2 -5 11 3 542.19 594.37 115.42 o
6465 1 3 -11 -5 542.19 594.37 115.42 o
6466 2 -4 11 -2 1086.70 1060.79 132.86 o
6466 1 -1 -11 -5 1086.70 1060.79 132.86 o
6467 2 -4 11 -2 1086.70 1151.72 80.49 o
6467 1 -1 -11 -5 1086.70 1151.72 80.49 o
6468 2 -4 11 -3 1782.37 1703.67 137.90 o
6468 1 -2 -11 -5 1782.37 1703.67 137.90 o
6469 2 -4 11 -3 1782.37 1877.11 95.59 o
6469 1 -2 -11 -5 1782.37 1877.11 95.59 o
6470 2 -4 11 -4 76.88 55.50 91.60 <
6470 1 -3 -11 -5 76.88 55.50 91.60 <
6471 2 -4 11 -5 630.49 609.90 125.74 o
6471 1 -4 -11 -5 630.49 609.90 125.74 o
6472 2 5 12 -6 140.99 160.86 73.43 <
6472 1 -6 -12 5 140.99 160.86 73.43 <
6473 2 -5 12 6 140.99 107.50 67.35 <
6473 1 6 -12 -5 140.99 107.50 67.35 <
6474 2 -5 12 5 1650.60 1807.24 100.81 o
6474 1 5 -12 -5 1650.60 1807.24 100.81 o
6475 2 5 12 -5 1650.60 1496.89 108.73 o
6475 1 -5 -12 5 1650.60 1496.89 108.73 o
6476 2 -5 12 4 1682.72 1731.17 87.67 o
6476 1 4 -12 -5 1682.72 1731.17 87.67 o
6477 2 5 12 -4 1682.71 1744.37 127.27 o
6477 1 -4 -12 5 1682.71 1744.37 127.27 o
6478 2 -5 12 4 1682.72 1833.34 107.69 o
6478 1 4 -12 -5 1682.72 1833.34 107.69 o
6479 2 -5 12 4 1682.72 1928.62 154.90 o
6479 1 4 -12 -5 1682.72 1928.62 154.90 o
6480 2 -5 12 3 457.72 561.59 129.48 o
6480 1 3 -12 -5 457.72 561.59 129.48 o
6481 2 -5 12 3 457.72 435.23 77.97 o
6481 1 3 -12 -5 457.72 435.23 77.97 o
6482 2 5 12 -3 457.72 463.11 101.55 o
6482 1 -3 -12 5 457.72 463.11 101.55 o
6483 2 -5 12 3 457.72 449.85 68.33 o
6483 1 3 -12 -5 457.72 449.85 68.33 o
6484 2 -4 12 -1 514.71 549.18 142.99 o
6484 1 0 -12 -5 514.71 549.18 142.99 o
6485 2 -4 12 -2 173.20 101.73 115.30 <
6485 1 -1 -12 -5 173.20 101.73 115.30 <
6486 2 -4 12 -2 173.20 300.78 64.65 o
6486 1 -1 -12 -5 173.20 300.78 64.65 o
6487 2 -4 12 -3 577.84 595.97 103.33 o
6487 1 -2 -12 -5 577.84 595.97 103.33 o
6488 2 -7 0 15 973.41 993.63 95.59 o
6488 1 14 0 -6 973.41 993.63 95.59 o
6489 2 -7 0 14 67.01 49.79 59.19 <
6489 1 13 0 -6 67.01 49.79 59.19 <
6490 2 6 0 -7 975.92 999.64 65.32 o
6490 1 -7 0 6 975.92 999.64 65.32 o
6491 2 6 0 -7 975.92 962.50 66.86 o
6491 1 -7 0 6 975.92 962.50 66.86 o
6492 2 -6 0 7 975.92 1207.53 67.23 o
6492 1 7 0 -6 975.92 1207.53 67.23 o
6493 2 -6 0 6 5917.88 5990.13 211.14 o
6493 1 6 0 -6 5917.88 5990.13 211.14 o
6494 2 6 0 -6 5917.88 5596.27 210.46 o
6494 1 -6 0 6 5917.88 5596.27 210.46 o
6495 2 6 0 -6 5917.88 5484.90 207.27 o
6495 1 -6 0 6 5917.88 5484.90 207.27 o
6496 2 6 0 -5 8656.68 8694.79 304.58 o
6496 1 -5 0 6 8656.68 8694.79 304.58 o
6497 2 6 0 -5 8656.68 8688.10 308.70 o
6497 1 -5 0 6 8656.68 8688.10 308.70 o
6498 2 -6 0 5 8656.68 8693.07 307.96 o
6498 1 5 0 -6 8656.68 8693.07 307.96 o
6499 2 5 0 2 1023.63 1079.27 55.26 o
6499 1 1 0 6 1023.63 1079.27 55.26 o
6500 2 5 0 2 1023.63 1006.27 55.81 o
6500 1 1 0 6 1023.63 1006.27 55.81 o
6501 2 5 0 3 1469.71 1509.29 72.32 o
6501 1 2 0 6 1469.71 1509.29 72.32 o
6502 2 4 0 10 25.12 -124.57 84.85 <
6502 1 8 0 6 25.12 -124.57 84.85 <
6503 2 4 0 10 25.12 -17.93 114.69 <
6503 1 8 0 6 25.12 -17.93 114.69 <
6504 2 4 0 11 258.92 389.49 97.19 o
6504 1 9 0 6 258.92 389.49 97.19 o
6505 2 4 0 11 258.92 293.47 63.30 o
6505 1 9 0 6 258.92 293.47 63.30 o
6506 2 -7 1 15 427.84 517.87 81.66 o
6506 1 14 -1 -6 427.84 517.87 81.66 o
6507 2 -7 1 14 598.34 526.71 73.06 o
6507 1 13 -1 -6 598.34 526.71 73.06 o
6508 2 -7 1 13 355.55 456.91 75.82 o
6508 1 12 -1 -6 355.55 456.91 75.82 o
6509 2 -6 1 8 4420.54 4534.50 178.91 o
6509 1 8 -1 -6 4420.54 4534.50 178.91 o
6510 2 6 1 -7 6558.09 6345.24 244.72 o
6510 1 -7 -1 6 6558.09 6345.24 244.72 o
6511 2 -6 1 7 6558.09 6980.32 278.31 o
6511 1 7 -1 -6 6558.09 6980.32 278.31 o
6512 2 -6 1 7 6558.09 6984.92 247.24 o
6512 1 7 -1 -6 6558.09 6984.92 247.24 o
6513 2 6 1 -7 6558.09 6340.76 243.68 o
6513 1 -7 -1 6 6558.09 6340.76 243.68 o
6514 2 6 -1 -7 6006.06 6460.66 248.96 o
6514 1 -7 1 6 6006.06 6460.66 248.96 o
6515 2 -6 -1 7 6006.06 7054.85 250.86 o
6515 1 7 1 -6 6006.06 7054.85 250.86 o
6516 2 -6 1 6 937.01 952.18 48.56 o
6516 1 6 -1 -6 937.01 952.18 48.56 o
6517 2 -6 1 6 937.01 938.31 56.05 o
6517 1 6 -1 -6 937.01 938.31 56.05 o
6518 2 -6 1 6 937.01 1025.18 54.40 o
6518 1 6 -1 -6 937.01 1025.18 54.40 o
6519 2 6 1 -6 937.01 818.77 51.94 o
6519 1 -6 -1 6 937.01 818.77 51.94 o
6520 2 6 1 -6 937.01 890.67 51.76 o
6520 1 -6 -1 6 937.01 890.67 51.76 o
6521 2 -6 -1 6 937.66 975.70 53.84 o
6521 1 6 1 -6 937.66 975.70 53.84 o
6522 2 6 -1 -6 937.65 873.97 52.80 o
6522 1 -6 1 6 937.65 873.97 52.80 o
6523 2 6 -1 -6 937.65 957.16 55.32 o
6523 1 -6 1 6 937.65 957.16 55.32 o
6524 2 -6 1 5 6333.27 6447.65 229.62 o
6524 1 5 -1 -6 6333.27 6447.65 229.62 o
6525 2 -6 1 5 6333.27 6392.15 227.16 o
6525 1 5 -1 -6 6333.27 6392.15 227.16 o
6526 2 -6 1 5 6333.27 6213.12 253.75 o
6526 1 5 -1 -6 6333.27 6213.12 253.75 o
6527 2 6 1 -5 6333.27 6136.49 227.90 o
6527 1 -5 -1 6 6333.27 6136.49 227.90 o
6528 2 6 1 -5 6333.27 6201.33 225.57 o
6528 1 -5 -1 6 6333.27 6201.33 225.57 o
6529 2 6 -1 -5 6028.66 6057.17 227.90 o
6529 1 -5 1 6 6028.66 6057.17 227.90 o
6530 2 -6 -1 5 6028.66 6515.49 230.17 o
6530 1 5 1 -6 6028.66 6515.49 230.17 o
6531 2 6 -1 -5 6028.66 6299.93 230.48 o
6531 1 -5 1 6 6028.66 6299.93 230.48 o
6532 2 5 1 2 13094.90 13465.30 501.42 o
6532 1 1 -1 6 13094.90 13465.30 501.42 o
6533 2 5 1 2 13094.90 12598.90 622.55 o
6533 1 1 -1 6 13094.90 12598.90 622.55 o
6534 2 5 1 2 13094.90 13338.40 528.55 o
6534 1 1 -1 6 13094.90 13338.40 528.55 o
6535 2 5 -1 2 12992.20 13999.20 527.82 o
6535 1 1 1 6 12992.20 13999.20 527.82 o
6536 2 5 1 3 5606.12 5405.46 227.90 o
6536 1 2 -1 6 5606.12 5405.46 227.90 o
6537 2 5 1 3 5606.12 4872.97 286.10 o
6537 1 2 -1 6 5606.12 4872.97 286.10 o
6538 2 -5 1 -3 5606.11 5598.98 196.83 o
6538 1 -2 -1 -6 5606.11 5598.98 196.83 o
6539 2 5 1 3 5606.12 5698.74 217.89 o
6539 1 2 -1 6 5606.12 5698.74 217.89 o
6540 2 5 -1 3 5459.51 5912.28 227.78 o
6540 1 2 1 6 5459.51 5912.28 227.78 o
6541 2 5 1 4 789.75 818.96 58.14 o
6541 1 3 -1 6 789.75 818.96 58.14 o
6542 2 5 1 4 789.75 494.54 77.05 o
6542 1 3 -1 6 789.75 494.54 77.05 o
6543 2 4 1 10 1474.46 1663.70 132.55 o
6543 1 8 -1 6 1474.46 1663.70 132.55 o
6544 2 4 1 10 1474.46 1784.83 161.10 o
6544 1 8 -1 6 1474.46 1784.83 161.10 o
6545 2 4 1 11 1490.94 1540.72 147.78 o
6545 1 9 -1 6 1490.94 1540.72 147.78 o
6546 2 4 1 11 1490.94 1433.04 114.93 o
6546 1 9 -1 6 1490.94 1433.04 114.93 o
6547 2 4 -1 11 1476.60 1692.74 132.18 o
6547 1 9 1 6 1476.60 1692.74 132.18 o
6548 2 4 -1 11 1476.60 1532.93 149.07 o
6548 1 9 1 6 1476.60 1532.93 149.07 o
6549 2 -7 2 15 981.67 872.80 91.42 o
6549 1 14 -2 -6 981.67 872.80 91.42 o
6550 2 -7 2 14 207.70 158.59 59.00 <
6550 1 13 -2 -6 207.70 158.59 59.00 <
6551 2 -7 2 13 419.85 423.20 71.71 o
6551 1 12 -2 -6 419.85 423.20 71.71 o
6552 2 -7 2 13 419.85 502.40 75.52 o
6552 1 12 -2 -6 419.85 502.40 75.52 o
6553 2 -6 2 8 4379.81 4138.99 164.48 o
6553 1 8 -2 -6 4379.81 4138.99 164.48 o
6554 2 6 2 -8 4379.81 4103.56 165.22 o
6554 1 -8 -2 6 4379.81 4103.56 165.22 o
6555 2 6 2 -7 4803.25 4745.33 183.70 o
6555 1 -7 -2 6 4803.25 4745.33 183.70 o
6556 2 6 2 -7 4803.25 4758.90 185.60 o
6556 1 -7 -2 6 4803.25 4758.90 185.60 o
6557 2 -6 2 7 4803.25 4961.08 185.29 o
6557 1 7 -2 -6 4803.25 4961.08 185.29 o
6558 2 -6 2 7 4803.25 4846.88 205.68 o
6558 1 7 -2 -6 4803.25 4846.88 205.68 o
6559 2 6 -2 -7 4861.19 4658.58 188.67 o
6559 1 -7 2 6 4861.19 4658.58 188.67 o
6560 2 -6 -2 7 4861.19 5209.91 191.12 o
6560 1 7 2 -6 4861.19 5209.91 191.12 o
6561 2 -6 2 6 17313.10 17742.20 601.49 o
6561 1 6 -2 -6 17313.10 17742.20 601.49 o
6562 2 -6 2 6 17313.10 19086.20 644.22 o
6562 1 6 -2 -6 17313.10 19086.20 644.22 o
6563 2 -6 2 6 17313.10 17133.30 697.39 o
6563 1 6 -2 -6 17313.10 17133.30 697.39 o
6564 2 6 2 -6 17313.10 17038.40 599.22 o
6564 1 -6 -2 6 17313.10 17038.40 599.22 o
6565 2 6 2 -6 17313.10 17231.90 589.89 o
6565 1 -6 -2 6 17313.10 17231.90 589.89 o
6566 2 -6 2 6 17313.10 18045.50 592.47 o
6566 1 6 -2 -6 17313.10 18045.50 592.47 o
6567 2 6 2 -6 17313.10 15744.40 675.35 o
6567 1 -6 -2 6 17313.10 15744.40 675.35 o
6568 2 -6 -2 6 17503.30 18134.10 579.82 o
6568 1 6 2 -6 17503.30 18134.10 579.82 o
6569 2 6 -2 -6 17503.30 16358.90 578.78 o
6569 1 -6 2 6 17503.30 16358.90 578.78 o
6570 2 6 -2 -6 17503.30 15657.10 566.19 o
6570 1 -6 2 6 17503.30 15657.10 566.19 o
6571 2 6 2 -5 1536.72 1512.79 68.21 o
6571 1 -5 -2 6 1536.72 1512.79 68.21 o
6572 2 6 2 -5 1536.72 1471.04 72.57 o
6572 1 -5 -2 6 1536.72 1471.04 72.57 o
6573 2 -6 2 5 1536.72 1542.32 77.73 o
6573 1 5 -2 -6 1536.72 1542.32 77.73 o
6574 2 -6 2 5 1536.72 1510.03 71.83 o
6574 1 5 -2 -6 1536.72 1510.03 71.83 o
6575 2 -6 2 5 1536.72 1290.47 64.28 o
6575 1 5 -2 -6 1536.72 1290.47 64.28 o
6576 2 6 -2 -5 1492.86 1607.52 76.99 o
6576 1 -5 2 6 1492.86 1607.52 76.99 o
6577 2 6 -2 -5 1492.86 1363.84 72.63 o
6577 1 -5 2 6 1492.86 1363.84 72.63 o
6578 2 -6 -2 5 1492.86 1787.72 78.22 o
6578 1 5 2 -6 1492.86 1787.72 78.22 o
6579 2 6 -2 -4 1746.67 1847.58 86.57 o
6579 1 -4 2 6 1746.67 1847.58 86.57 o
6580 2 -5 2 -2 3496.93 3385.05 134.52 o
6580 1 -1 -2 -6 3496.93 3385.05 134.52 o
6581 2 5 2 2 3496.94 3403.34 146.74 o
6581 1 1 -2 6 3496.94 3403.34 146.74 o
6582 2 5 2 2 3496.94 3490.96 147.72 o
6582 1 1 -2 6 3496.94 3490.96 147.72 o
6583 2 -5 2 -2 3496.93 3257.04 122.24 o
6583 1 -1 -2 -6 3496.93 3257.04 122.24 o
6584 2 -5 2 -2 3496.93 3508.33 128.56 o
6584 1 -1 -2 -6 3496.93 3508.33 128.56 o
6585 2 5 -2 2 3546.50 3840.67 151.40 o
6585 1 1 2 6 3546.50 3840.67 151.40 o
6586 2 -5 2 -3 5119.46 5078.28 177.49 o
6586 1 -2 -2 -6 5119.46 5078.28 177.49 o
6587 2 -5 2 -3 5119.46 5170.25 186.89 o
6587 1 -2 -2 -6 5119.46 5170.25 186.89 o
6588 2 5 2 3 5119.46 5083.25 216.36 o
6588 1 2 -2 6 5119.46 5083.25 216.36 o
6589 2 5 2 3 5119.46 5035.36 207.95 o
6589 1 2 -2 6 5119.46 5035.36 207.95 o
6590 2 4 2 9 205.35 18.42 85.40 <
6590 1 7 -2 6 205.35 18.42 85.40 <
6591 2 4 2 9 205.35 132.37 125.92 <
6591 1 7 -2 6 205.35 132.37 125.92 <
6592 2 4 2 10 2522.91 2405.42 158.95 o
6592 1 8 -2 6 2522.91 2405.42 158.95 o
6593 2 4 2 10 2522.91 2670.47 198.00 o
6593 1 8 -2 6 2522.91 2670.47 198.00 o
6594 2 -4 2 -11 751.80 576.69 70.48 o
6594 1 -9 -2 -6 751.80 576.69 70.48 o
6595 2 4 2 11 751.80 853.03 120.40 o
6595 1 9 -2 6 751.80 853.03 120.40 o
6596 2 4 2 11 751.80 760.69 86.14 o
6596 1 9 -2 6 751.80 760.69 86.14 o
6597 2 4 -2 11 821.80 735.89 103.70 o
6597 1 9 2 6 821.80 735.89 103.70 o
6598 2 4 -2 11 821.80 836.88 89.21 o
6598 1 9 2 6 821.80 836.88 89.21 o
6599 2 -7 3 15 64.41 122.73 66.31 <
6599 1 14 -3 -6 64.41 122.73 66.31 <
6600 2 -7 3 14 45.05 103.33 57.04 <
6600 1 13 -3 -6 45.05 103.33 57.04 <
6601 2 -7 3 13 260.07 239.50 66.18 o
6601 1 12 -3 -6 260.07 239.50 66.18 o
6602 2 -7 3 13 260.07 264.31 70.36 o
6602 1 12 -3 -6 260.07 264.31 70.36 o
6603 2 7 3 -13 260.07 386.55 80.86 o
6603 1 -12 -3 6 260.07 386.55 80.86 o
6604 2 6 3 -7 1402.91 1665.79 75.64 o
6604 1 -7 -3 6 1402.91 1665.79 75.64 o
6605 2 -6 3 7 1402.90 1533.72 74.23 o
6605 1 7 -3 -6 1402.90 1533.72 74.23 o
6606 2 6 3 -7 1402.91 1282.37 101.79 o
6606 1 -7 -3 6 1402.91 1282.37 101.79 o
6607 2 -6 3 7 1402.90 1526.85 79.20 o
6607 1 7 -3 -6 1402.90 1526.85 79.20 o
6608 2 6 3 -7 1402.91 1558.53 80.98 o
6608 1 -7 -3 6 1402.91 1558.53 80.98 o
6609 2 6 -3 -7 1599.40 868.01 54.83 o
6609 1 -7 3 6 1599.40 868.01 54.83 o
6610 2 -6 3 6 1971.69 1954.84 88.23 o
6610 1 6 -3 -6 1971.69 1954.84 88.23 o
6611 2 -6 3 6 1971.69 2152.96 83.38 o
6611 1 6 -3 -6 1971.69 2152.96 83.38 o
6612 2 -6 3 6 1971.69 1880.06 89.09 o
6612 1 6 -3 -6 1971.69 1880.06 89.09 o
6613 2 6 3 -6 1971.69 1939.98 83.01 o
6613 1 -6 -3 6 1971.69 1939.98 83.01 o
6614 2 6 3 -6 1971.69 1864.52 85.89 o
6614 1 -6 -3 6 1971.69 1864.52 85.89 o
6615 2 6 3 -6 1971.69 1871.28 107.75 o
6615 1 -6 -3 6 1971.69 1871.28 107.75 o
6616 2 -6 3 6 1971.69 1969.70 86.38 o
6616 1 6 -3 -6 1971.69 1969.70 86.38 o
6617 2 6 -3 -6 1961.91 1885.83 84.36 o
6617 1 -6 3 6 1961.91 1885.83 84.36 o
6618 2 6 -3 -6 1961.91 1807.86 83.81 o
6618 1 -6 3 6 1961.91 1807.86 83.81 o
6619 2 -6 3 5 834.69 969.07 55.69 o
6619 1 5 -3 -6 834.69 969.07 55.69 o
6620 2 -6 3 5 834.69 897.05 54.27 o
6620 1 5 -3 -6 834.69 897.05 54.27 o
6621 2 -6 3 5 834.69 743.50 43.35 o
6621 1 5 -3 -6 834.69 743.50 43.35 o
6622 2 6 3 -5 834.69 911.60 72.39 o
6622 1 -5 -3 6 834.69 911.60 72.39 o
6623 2 -6 3 5 834.69 843.58 59.55 o
6623 1 5 -3 -6 834.69 843.58 59.55 o
6624 2 6 3 -5 834.69 773.09 53.91 o
6624 1 -5 -3 6 834.69 773.09 53.91 o
6625 2 6 -3 -5 855.93 483.06 43.84 o
6625 1 -5 3 6 855.93 483.06 43.84 o
6626 2 6 -3 -5 855.93 746.02 47.21 o
6626 1 -5 3 6 855.93 746.02 47.21 o
6627 2 6 -3 -4 671.86 85.83 26.65 o
6627 1 -4 3 6 671.86 85.83 26.65 o
6628 2 5 3 2 983.56 976.87 54.95 o
6628 1 1 -3 6 983.56 976.87 54.95 o
6629 2 5 3 2 983.56 726.80 78.83 o
6629 1 1 -3 6 983.56 726.80 78.83 o
6630 2 -5 3 -2 983.56 997.56 43.84 o
6630 1 -1 -3 -6 983.56 997.56 43.84 o
6631 2 -5 3 -2 983.56 939.11 58.69 o
6631 1 -1 -3 -6 983.56 939.11 58.69 o
6632 2 -5 3 -2 983.56 941.75 49.91 o
6632 1 -1 -3 -6 983.56 941.75 49.91 o
6633 2 5 3 2 983.56 915.59 62.99 o
6633 1 1 -3 6 983.56 915.59 62.99 o
6634 2 5 -3 2 1008.43 1246.27 55.44 o
6634 1 1 3 6 1008.43 1246.27 55.44 o
6635 2 -5 3 -3 1853.92 1717.17 67.66 o
6635 1 -2 -3 -6 1853.92 1717.17 67.66 o
6636 2 -5 3 -3 1853.92 1812.40 77.67 o
6636 1 -2 -3 -6 1853.92 1812.40 77.67 o
6637 2 5 3 3 1853.92 1809.94 89.33 o
6637 1 2 -3 6 1853.92 1809.94 89.33 o
6638 2 5 3 3 1853.92 1724.85 90.99 o
6638 1 2 -3 6 1853.92 1724.85 90.99 o
6639 2 4 3 9 2999.39 3525.22 241.59 o
6639 1 7 -3 6 2999.39 3525.22 241.59 o
6640 2 4 3 9 2999.39 3209.40 186.95 o
6640 1 7 -3 6 2999.39 3209.40 186.95 o
6641 2 4 3 10 431.17 544.15 123.90 o
6641 1 8 -3 6 431.17 544.15 123.90 o
6642 2 4 3 10 431.17 558.58 93.44 o
6642 1 8 -3 6 431.17 558.58 93.44 o
6643 2 4 3 11 1908.52 2031.03 140.04 o
6643 1 9 -3 6 1908.52 2031.03 140.04 o
6644 2 4 3 11 1908.52 2239.10 174.79 o
6644 1 9 -3 6 1908.52 2239.10 174.79 o
6645 2 -4 3 -11 1908.52 1752.42 126.90 o
6645 1 -9 -3 -6 1908.52 1752.42 126.90 o
6646 2 4 -3 11 1887.20 2374.05 195.12 o
6646 1 9 3 6 1887.20 2374.05 195.12 o
6647 2 4 -3 11 1887.20 1672.91 132.12 o
6647 1 9 3 6 1887.20 1672.91 132.12 o
6648 2 -7 4 14 295.64 361.68 67.54 o
6648 1 13 -4 -6 295.64 361.68 67.54 o
6649 2 7 4 -13 636.18 580.74 71.71 o
6649 1 -12 -4 6 636.18 580.74 71.71 o
6650 2 -7 4 13 636.18 618.81 74.90 o
6650 1 12 -4 -6 636.18 618.81 74.90 o
6651 2 7 4 -13 636.18 770.76 98.29 o
6651 1 -12 -4 6 636.18 770.76 98.29 o
6652 2 -7 4 13 636.18 545.81 82.09 o
6652 1 12 -4 -6 636.18 545.81 82.09 o
6653 2 -6 4 8 3092.39 3253.29 148.52 o
6653 1 8 -4 -6 3092.39 3253.29 148.52 o
6654 2 6 4 -8 3092.38 2673.96 169.70 o
6654 1 -8 -4 6 3092.38 2673.96 169.70 o
6655 2 6 4 -8 3092.38 3167.16 128.26 o
6655 1 -8 -4 6 3092.38 3167.16 128.26 o
6656 2 -6 4 8 3092.39 3186.68 143.24 o
6656 1 8 -4 -6 3092.39 3186.68 143.24 o
6657 2 -6 4 8 3092.39 3186.13 130.10 o
6657 1 8 -4 -6 3092.39 3186.13 130.10 o
6658 2 6 4 -7 1584.89 1441.08 99.71 o
6658 1 -7 -4 6 1584.89 1441.08 99.71 o
6659 2 -6 4 7 1584.89 1435.12 77.54 o
6659 1 7 -4 -6 1584.89 1435.12 77.54 o
6660 2 6 4 -7 1584.89 1472.02 70.30 o
6660 1 -7 -4 6 1584.89 1472.02 70.30 o
6661 2 6 4 -7 1584.89 1507.63 81.29 o
6661 1 -7 -4 6 1584.89 1507.63 81.29 o
6662 2 -6 4 7 1584.89 1434.51 70.73 o
6662 1 7 -4 -6 1584.89 1434.51 70.73 o
6663 2 -6 4 6 2796.84 2811.06 112.54 o
6663 1 6 -4 -6 2796.84 2811.06 112.54 o
6664 2 -6 4 6 2796.84 2705.09 108.98 o
6664 1 6 -4 -6 2796.84 2705.09 108.98 o
6665 2 -6 4 6 2796.84 2729.77 114.81 o
6665 1 6 -4 -6 2796.84 2729.77 114.81 o
6666 2 -6 4 6 2796.84 2573.03 112.78 o
6666 1 6 -4 -6 2796.84 2573.03 112.78 o
6667 2 6 4 -6 2796.84 2494.38 108.98 o
6667 1 -6 -4 6 2796.84 2494.38 108.98 o
6668 2 6 4 -6 2796.84 2786.75 136.18 o
6668 1 -6 -4 6 2796.84 2786.75 136.18 o
6669 2 -6 4 6 2796.84 2641.24 120.89 o
6669 1 6 -4 -6 2796.84 2641.24 120.89 o
6670 2 6 -4 -6 2698.51 2856.74 120.46 o
6670 1 -6 4 6 2698.51 2856.74 120.46 o
6671 2 -6 4 5 1163.68 1209.19 62.07 o
6671 1 5 -4 -6 1163.68 1209.19 62.07 o
6672 2 -6 4 5 1163.68 1160.32 68.82 o
6672 1 5 -4 -6 1163.68 1160.32 68.82 o
6673 2 -6 4 5 1163.68 967.72 57.59 o
6673 1 5 -4 -6 1163.68 967.72 57.59 o
6674 2 6 4 -5 1163.68 1179.72 83.01 o
6674 1 -5 -4 6 1163.68 1179.72 83.01 o
6675 2 6 4 -5 1163.68 1172.72 63.73 o
6675 1 -5 -4 6 1163.68 1172.72 63.73 o
6676 2 -6 4 5 1163.68 1249.22 66.68 o
6676 1 5 -4 -6 1163.68 1249.22 66.68 o
6677 2 6 -4 -5 1149.87 1171.18 67.47 o
6677 1 -5 4 6 1149.87 1171.18 67.47 o
6678 2 6 -4 -4 1160.52 1055.58 69.07 o
6678 1 -4 4 6 1160.52 1055.58 69.07 o
6679 2 5 4 1 755.95 773.65 79.38 o
6679 1 0 -4 6 755.95 773.65 79.38 o
6680 2 5 4 2 2464.02 2145.84 142.25 o
6680 1 1 -4 6 2464.02 2145.84 142.25 o
6681 2 -5 4 -2 2464.02 2423.84 103.02 o
6681 1 -1 -4 -6 2464.02 2423.84 103.02 o
6682 2 -5 4 -2 2464.02 2314.43 90.56 o
6682 1 -1 -4 -6 2464.02 2314.43 90.56 o
6683 2 5 4 2 2464.02 2317.62 114.07 o
6683 1 1 -4 6 2464.02 2317.62 114.07 o
6684 2 5 4 2 2464.02 2388.23 110.14 o
6684 1 1 -4 6 2464.02 2388.23 110.14 o
6685 2 -5 4 -2 2464.02 2407.88 94.00 o
6685 1 -1 -4 -6 2464.02 2407.88 94.00 o
6686 2 5 4 3 5257.90 5065.63 212.06 o
6686 1 2 -4 6 5257.90 5065.63 212.06 o
6687 2 -5 4 -3 5257.90 4961.44 177.99 o
6687 1 -2 -4 -6 5257.90 4961.44 177.99 o
6688 2 -5 4 -3 5257.90 4978.70 184.80 o
6688 1 -2 -4 -6 5257.90 4978.70 184.80 o
6689 2 5 4 3 5257.90 5109.65 217.22 o
6689 1 2 -4 6 5257.90 5109.65 217.22 o
6690 2 5 4 4 305.46 116.10 58.14 <
6690 1 3 -4 6 305.46 116.10 58.14 <
6691 2 4 4 9 18.02 -2.33 130.96 <
6691 1 7 -4 6 18.02 -2.33 130.96 <
6692 2 4 4 10 518.18 629.86 97.93 o
6692 1 8 -4 6 518.18 629.86 97.93 o
6693 2 4 4 10 518.18 607.14 135.19 o
6693 1 8 -4 6 518.18 607.14 135.19 o
6694 2 -7 5 14 2857.14 3014.28 164.11 o
6694 1 13 -5 -6 2857.14 3014.28 164.11 o
6695 2 -7 5 13 225.84 167.37 69.68 <
6695 1 12 -5 -6 225.84 167.37 69.68 <
6696 2 -7 5 13 225.84 197.51 73.31 <
6696 1 12 -5 -6 225.84 197.51 73.31 <
6697 2 -6 5 8 2138.64 2064.24 111.49 o
6697 1 8 -5 -6 2138.64 2064.24 111.49 o
6698 2 -6 5 8 2138.64 2246.34 111.37 o
6698 1 8 -5 -6 2138.64 2246.34 111.37 o
6699 2 6 5 -8 2138.64 2057.18 89.58 o
6699 1 -8 -5 6 2138.64 2057.18 89.58 o
6700 2 6 5 -8 2138.64 2114.71 136.30 o
6700 1 -8 -5 6 2138.64 2114.71 136.30 o
6701 2 -6 5 7 6628.34 6319.58 287.70 o
6701 1 7 -5 -6 6628.34 6319.58 287.70 o
6702 2 -6 5 7 6628.34 7028.08 258.48 o
6702 1 7 -5 -6 6628.34 7028.08 258.48 o
6703 2 -6 5 7 6628.34 7070.02 245.46 o
6703 1 7 -5 -6 6628.34 7070.02 245.46 o
6704 2 6 5 -7 6628.34 6797.66 290.28 o
6704 1 -7 -5 6 6628.34 6797.66 290.28 o
6705 2 6 5 -7 6628.34 6826.27 250.19 o
6705 1 -7 -5 6 6628.34 6826.27 250.19 o
6706 2 6 5 -6 2011.90 1945.20 110.21 o
6706 1 -6 -5 6 2011.90 1945.20 110.21 o
6707 2 -6 5 6 2011.90 2076.89 93.32 o
6707 1 6 -5 -6 2011.90 2076.89 93.32 o
6708 2 -6 5 6 2011.90 1978.72 93.57 o
6708 1 6 -5 -6 2011.90 1978.72 93.57 o
6709 2 -6 5 6 2011.90 2116.68 94.98 o
6709 1 6 -5 -6 2011.90 2116.68 94.98 o
6710 2 -6 5 6 2011.90 2126.19 85.71 o
6710 1 6 -5 -6 2011.90 2126.19 85.71 o
6711 2 -6 5 6 2011.90 1974.36 98.36 o
6711 1 6 -5 -6 2011.90 1974.36 98.36 o
6712 2 6 5 -6 2011.90 1997.75 89.33 o
6712 1 -6 -5 6 2011.90 1997.75 89.33 o
6713 2 6 5 -5 965.21 924.31 57.04 o
6713 1 -5 -5 6 965.21 924.31 57.04 o
6714 2 -6 5 5 965.21 744.11 57.65 o
6714 1 5 -5 -6 965.21 744.11 57.65 o
6715 2 -6 5 5 965.21 960.72 63.05 o
6715 1 5 -5 -6 965.21 960.72 63.05 o
6716 2 6 5 -5 965.21 970.11 76.07 o
6716 1 -5 -5 6 965.21 970.11 76.07 o
6717 2 -6 5 5 965.21 892.14 62.69 o
6717 1 5 -5 -6 965.21 892.14 62.69 o
6718 2 -6 5 5 965.21 765.85 45.80 o
6718 1 5 -5 -6 965.21 765.85 45.80 o
6719 2 6 -5 -4 9740.03 9763.44 351.18 o
6719 1 -4 5 6 9740.03 9763.44 351.18 o
6720 2 5 5 1 2467.50 2537.97 152.88 o
6720 1 0 -5 6 2467.50 2537.97 152.88 o
6721 2 -5 5 -2 16827.90 16513.00 572.09 o
6721 1 -1 -5 -6 16827.90 16513.00 572.09 o
6722 2 -5 5 -2 16827.90 16394.80 566.62 o
6722 1 -1 -5 -6 16827.90 16394.80 566.62 o
6723 2 -5 5 -2 16827.90 16732.90 565.82 o
6723 1 -1 -5 -6 16827.90 16732.90 565.82 o
6724 2 5 5 2 16827.90 17009.20 669.70 o
6724 1 1 -5 6 16827.90 17009.20 669.70 o
6725 2 5 5 2 16827.90 16212.40 775.55 o
6725 1 1 -5 6 16827.90 16212.40 775.55 o
6726 2 5 5 2 16827.90 16209.10 636.67 o
6726 1 1 -5 6 16827.90 16209.10 636.67 o
6727 2 5 5 3 2145.11 2032.07 106.71 o
6727 1 2 -5 6 2145.11 2032.07 106.71 o
6728 2 5 5 3 2145.11 2067.19 101.86 o
6728 1 2 -5 6 2145.11 2067.19 101.86 o
6729 2 -5 5 -3 2145.11 1917.14 90.19 o
6729 1 -2 -5 -6 2145.11 1917.14 90.19 o
6730 2 -5 5 -3 2145.11 1990.08 78.71 o
6730 1 -2 -5 -6 2145.11 1990.08 78.71 o
6731 2 -5 5 -3 2145.11 1984.00 84.48 o
6731 1 -2 -5 -6 2145.11 1984.00 84.48 o
6732 2 5 5 3 2145.11 1605.74 130.34 o
6732 1 2 -5 6 2145.11 1605.74 130.34 o
6733 2 5 5 4 1256.01 1294.28 81.72 o
6733 1 3 -5 6 1256.01 1294.28 81.72 o
6734 2 5 5 4 1256.01 824.05 101.00 o
6734 1 3 -5 6 1256.01 824.05 101.00 o
6735 2 4 5 9 1151.72 1352.79 175.53 o
6735 1 7 -5 6 1151.72 1352.79 175.53 o
6736 2 -4 5 -10 251.61 144.52 91.79 <
6736 1 -8 -5 -6 251.61 144.52 91.79 <
6737 2 4 5 10 251.61 253.38 88.47 <
6737 1 8 -5 6 251.61 253.38 88.47 <
6738 2 4 5 10 251.61 326.81 136.11 <
6738 1 8 -5 6 251.61 326.81 136.11 <
6739 2 -7 6 13 1384.50 1436.78 104.99 o
6739 1 12 -6 -6 1384.50 1436.78 104.99 o
6740 2 -7 6 13 1384.50 1492.84 115.06 o
6740 1 12 -6 -6 1384.50 1492.84 115.06 o
6741 2 7 6 -12 467.58 354.56 107.69 o
6741 1 -11 -6 6 467.58 354.56 107.69 o
6742 2 -6 6 8 2360.39 2162.48 122.42 o
6742 1 8 -6 -6 2360.39 2162.48 122.42 o
6743 2 6 6 -8 2360.39 2548.84 143.60 o
6743 1 -8 -6 6 2360.39 2548.84 143.60 o
6744 2 -6 6 8 2360.39 2357.65 119.48 o
6744 1 8 -6 -6 2360.39 2357.65 119.48 o
6745 2 -6 6 7 927.91 991.85 72.57 o
6745 1 7 -6 -6 927.91 991.85 72.57 o
6746 2 -6 6 7 927.91 948.44 49.85 o
6746 1 7 -6 -6 927.91 948.44 49.85 o
6747 2 -6 6 7 927.91 856.65 64.96 o
6747 1 7 -6 -6 927.91 856.65 64.96 o
6748 2 6 6 -7 927.91 922.10 87.49 o
6748 1 -7 -6 6 927.91 922.10 87.49 o
6749 2 6 6 -7 927.91 891.16 65.08 o
6749 1 -7 -6 6 927.91 891.16 65.08 o
6750 2 -6 6 6 212.18 299.30 35.06 o
6750 1 6 -6 -6 212.18 299.30 35.06 o
6751 2 -6 6 6 212.18 225.32 30.39 o
6751 1 6 -6 -6 212.18 225.32 30.39 o
6752 2 6 6 -6 212.18 229.37 41.81 o
6752 1 -6 -6 6 212.18 229.37 41.81 o
6753 2 6 6 -6 212.18 321.35 35.06 o
6753 1 -6 -6 6 212.18 321.35 35.06 o
6754 2 -6 6 6 212.18 231.77 32.42 o
6754 1 6 -6 -6 212.18 231.77 32.42 o
6755 2 -6 6 6 212.18 217.16 29.35 o
6755 1 6 -6 -6 212.18 217.16 29.35 o
6756 2 -6 6 6 212.18 232.44 21.30 o
6756 1 6 -6 -6 212.18 232.44 21.30 o
6757 2 -6 6 5 1687.53 1806.14 92.83 o
6757 1 5 -6 -6 1687.53 1806.14 92.83 o
6758 2 -6 6 5 1687.53 1705.76 87.00 o
6758 1 5 -6 -6 1687.53 1705.76 87.00 o
6759 2 -6 6 5 1687.53 1680.09 83.62 o
6759 1 5 -6 -6 1687.53 1680.09 83.62 o
6760 2 6 6 -5 1687.53 1599.72 77.24 o
6760 1 -5 -6 6 1687.53 1599.72 77.24 o
6761 2 -6 6 5 1687.53 1452.25 67.04 o
6761 1 5 -6 -6 1687.53 1452.25 67.04 o
6762 2 6 6 -5 1687.53 1677.57 103.45 o
6762 1 -5 -6 6 1687.53 1677.57 103.45 o
6763 2 -5 6 -1 5294.01 4907.29 223.97 o
6763 1 0 -6 -6 5294.01 4907.29 223.97 o
6764 2 -5 6 -1 5294.01 4915.83 184.68 o
6764 1 0 -6 -6 5294.01 4915.83 184.68 o
6765 2 -5 6 -2 1209.27 1214.53 66.18 o
6765 1 -1 -6 -6 1209.27 1214.53 66.18 o
6766 2 -5 6 -2 1209.27 1247.99 101.61 o
6766 1 -1 -6 -6 1209.27 1247.99 101.61 o
6767 2 -5 6 -2 1209.27 1168.91 58.45 o
6767 1 -1 -6 -6 1209.27 1168.91 58.45 o
6768 2 5 6 2 1209.28 1257.01 75.70 o
6768 1 1 -6 6 1209.28 1257.01 75.70 o
6769 2 5 6 2 1209.28 1237.61 82.64 o
6769 1 1 -6 6 1209.28 1237.61 82.64 o
6770 2 -5 6 -2 1209.27 1204.34 58.57 o
6770 1 -1 -6 -6 1209.27 1204.34 58.57 o
6771 2 5 6 3 1353.48 1403.50 90.68 o
6771 1 2 -6 6 1353.48 1403.50 90.68 o
6772 2 -5 6 -3 1353.48 1267.45 62.44 o
6772 1 -2 -6 -6 1353.48 1267.45 62.44 o
6773 2 -5 6 -3 1353.48 1329.65 71.16 o
6773 1 -2 -6 -6 1353.48 1329.65 71.16 o
6774 2 5 6 3 1353.48 1281.51 80.86 o
6774 1 2 -6 6 1353.48 1281.51 80.86 o
6775 2 -5 6 -3 1353.48 1230.55 59.25 o
6775 1 -2 -6 -6 1353.48 1230.55 59.25 o
6776 2 -5 6 -3 1353.48 1352.61 102.41 o
6776 1 -2 -6 -6 1353.48 1352.61 102.41 o
6777 2 5 6 4 1172.55 719.07 91.42 o
6777 1 3 -6 6 1172.55 719.07 91.42 o
6778 2 -5 6 -4 1172.54 1063.00 108.49 o
6778 1 -3 -6 -6 1172.54 1063.00 108.49 o
6779 2 5 6 4 1172.55 1067.24 79.26 o
6779 1 3 -6 6 1172.55 1067.24 79.26 o
6780 2 4 6 9 85.68 16.70 139.86 <
6780 1 7 -6 6 85.68 16.70 139.86 <
6781 2 -7 7 13 235.85 68.27 76.13 <
6781 1 12 -7 -6 235.85 68.27 76.13 <
6782 2 -7 7 13 235.85 280.27 80.49 o
6782 1 12 -7 -6 235.85 280.27 80.49 o
6783 2 -6 7 8 2589.48 2634.30 142.68 o
6783 1 8 -7 -6 2589.48 2634.30 142.68 o
6784 2 -6 7 8 2589.48 2807.87 134.82 o
6784 1 8 -7 -6 2589.48 2807.87 134.82 o
6785 2 6 7 -7 1747.83 1778.45 112.29 o
6785 1 -7 -7 6 1747.83 1778.45 112.29 o
6786 2 6 7 -7 1747.83 1726.69 89.09 o
6786 1 -7 -7 6 1747.83 1726.69 89.09 o
6787 2 -6 7 7 1747.83 1665.97 94.06 o
6787 1 7 -7 -6 1747.83 1665.97 94.06 o
6788 2 -6 7 7 1747.83 1544.16 95.29 o
6788 1 7 -7 -6 1747.83 1544.16 95.29 o
6789 2 6 7 -6 234.99 260.38 35.18 o
6789 1 -6 -7 6 234.99 260.38 35.18 o
6790 2 -6 7 6 234.99 279.11 36.65 o
6790 1 6 -7 -6 234.99 279.11 36.65 o
6791 2 6 7 -6 234.99 213.35 41.93 o
6791 1 -6 -7 6 234.99 213.35 41.93 o
6792 2 -6 7 6 234.99 328.16 40.21 o
6792 1 6 -7 -6 234.99 328.16 40.21 o
6793 2 -6 7 6 234.99 244.91 34.44 o
6793 1 6 -7 -6 234.99 244.91 34.44 o
6794 2 -6 7 5 1644.88 1526.79 57.59 o
6794 1 5 -7 -6 1644.88 1526.79 57.59 o
6795 2 -6 7 5 1644.88 1540.11 84.11 o
6795 1 5 -7 -6 1644.88 1540.11 84.11 o
6796 2 6 7 -5 1644.88 1544.96 75.58 o
6796 1 -5 -7 6 1644.88 1544.96 75.58 o
6797 2 -6 7 5 1644.88 1495.29 56.67 o
6797 1 5 -7 -6 1644.88 1495.29 56.67 o
6798 2 6 7 -5 1644.88 1417.32 101.30 o
6798 1 -5 -7 6 1644.88 1417.32 101.30 o
6799 2 -6 7 5 1644.88 1782.38 93.14 o
6799 1 5 -7 -6 1644.88 1782.38 93.14 o
6800 2 -6 7 5 1644.88 1652.77 96.08 o
6800 1 5 -7 -6 1644.88 1652.77 96.08 o
6801 2 -6 7 4 599.66 518.67 75.82 o
6801 1 4 -7 -6 599.66 518.67 75.82 o
6802 2 -5 7 -1 224.80 200.82 32.79 o
6802 1 0 -7 -6 224.80 200.82 32.79 o
6803 2 -5 7 -1 224.80 153.55 39.35 o
6803 1 0 -7 -6 224.80 153.55 39.35 o
6804 2 -5 7 -1 224.80 253.99 82.45 o
6804 1 0 -7 -6 224.80 253.99 82.45 o
6805 2 5 7 2 792.68 745.34 62.93 o
6805 1 1 -7 6 792.68 745.34 62.93 o
6806 2 -5 7 -2 792.69 779.23 45.19 o
6806 1 -1 -7 -6 792.69 779.23 45.19 o
6807 2 -5 7 -2 792.69 717.78 47.83 o
6807 1 -1 -7 -6 792.69 717.78 47.83 o
6808 2 5 7 2 792.68 834.18 74.53 o
6808 1 1 -7 6 792.68 834.18 74.53 o
6809 2 -5 7 -2 792.69 763.46 50.47 o
6809 1 -1 -7 -6 792.69 763.46 50.47 o
6810 2 -5 7 -2 792.69 753.20 90.01 o
6810 1 -1 -7 -6 792.69 753.20 90.01 o
6811 2 5 7 3 3670.11 3731.07 173.75 o
6811 1 2 -7 6 3670.11 3731.07 173.75 o
6812 2 -5 7 -3 3670.11 3570.22 143.97 o
6812 1 -2 -7 -6 3670.11 3570.22 143.97 o
6813 2 -5 7 -3 3670.11 3640.45 140.29 o
6813 1 -2 -7 -6 3670.11 3640.45 140.29 o
6814 2 5 7 3 3670.11 3646.90 173.01 o
6814 1 2 -7 6 3670.11 3646.90 173.01 o
6815 2 -5 7 -3 3670.11 3521.96 138.94 o
6815 1 -2 -7 -6 3670.11 3521.96 138.94 o
6816 2 -5 7 -3 3670.11 3770.86 187.38 o
6816 1 -2 -7 -6 3670.11 3770.86 187.38 o
6817 2 5 7 4 1315.03 1300.05 106.03 o
6817 1 3 -7 6 1315.03 1300.05 106.03 o
6818 2 5 7 4 1315.03 1295.57 95.41 o
6818 1 3 -7 6 1315.03 1295.57 95.41 o
6819 2 -5 7 -4 1315.03 1277.58 72.20 o
6819 1 -3 -7 -6 1315.03 1277.58 72.20 o
6820 2 -5 7 -4 1315.03 1187.58 121.44 o
6820 1 -3 -7 -6 1315.03 1187.58 121.44 o
6821 2 -6 8 8 2763.45 2589.79 136.60 o
6821 1 8 -8 -6 2763.45 2589.79 136.60 o
6822 2 -6 8 8 2763.45 2832.55 148.70 o
6822 1 8 -8 -6 2763.45 2832.55 148.70 o
6823 2 6 8 -7 889.16 930.88 68.39 o
6823 1 -7 -8 6 889.16 930.88 68.39 o
6824 2 6 8 -7 889.16 860.52 87.73 o
6824 1 -7 -8 6 889.16 860.52 87.73 o
6825 2 -6 8 7 889.16 896.44 76.62 o
6825 1 7 -8 -6 889.16 896.44 76.62 o
6826 2 -6 8 6 4119.36 4382.36 184.06 o
6826 1 6 -8 -6 4119.36 4382.36 184.06 o
6827 2 -6 8 6 4119.36 4270.87 167.92 o
6827 1 6 -8 -6 4119.36 4270.87 167.92 o
6828 2 6 8 -6 4119.36 4047.51 193.40 o
6828 1 -6 -8 6 4119.36 4047.51 193.40 o
6829 2 -6 8 6 4119.36 4068.69 169.64 o
6829 1 6 -8 -6 4119.36 4068.69 169.64 o
6830 2 6 8 -6 4119.36 4092.39 158.46 o
6830 1 -6 -8 6 4119.36 4092.39 158.46 o
6831 2 6 8 -5 1749.78 1821.92 83.87 o
6831 1 -5 -8 6 1749.78 1821.92 83.87 o
6832 2 -6 8 5 1749.79 1730.01 95.10 o
6832 1 5 -8 -6 1749.79 1730.01 95.10 o
6833 2 6 8 -5 1749.78 1840.03 113.46 o
6833 1 -5 -8 6 1749.78 1840.03 113.46 o
6834 2 -6 8 5 1749.79 1942.31 98.97 o
6834 1 5 -8 -6 1749.79 1942.31 98.97 o
6835 2 -6 8 5 1749.79 1830.33 112.60 o
6835 1 5 -8 -6 1749.79 1830.33 112.60 o
6836 2 -6 8 4 430.47 535.37 85.40 o
6836 1 4 -8 -6 430.47 535.37 85.40 o
6837 2 -5 8 -1 2557.44 2422.86 151.34 o
6837 1 0 -8 -6 2557.44 2422.86 151.34 o
6838 2 5 8 1 2557.44 2673.10 145.63 o
6838 1 0 -8 6 2557.44 2673.10 145.63 o
6839 2 -5 8 -1 2557.44 2635.41 97.25 o
6839 1 0 -8 -6 2557.44 2635.41 97.25 o
6840 2 -5 8 -2 538.97 397.41 78.40 o
6840 1 -1 -8 -6 538.97 397.41 78.40 o
6841 2 -5 8 -2 538.97 453.65 34.32 o
6841 1 -1 -8 -6 538.97 453.65 34.32 o
6842 2 5 8 2 538.98 521.62 73.92 o
6842 1 1 -8 6 538.98 521.62 73.92 o
6843 2 -5 8 -2 538.97 488.77 43.84 o
6843 1 -1 -8 -6 538.97 488.77 43.84 o
6844 2 -5 8 -2 538.97 508.30 34.69 o
6844 1 -1 -8 -6 538.97 508.30 34.69 o
6845 2 -5 8 -3 2168.32 2214.17 91.66 o
6845 1 -2 -8 -6 2168.32 2214.17 91.66 o
6846 2 -5 8 -3 2168.32 2145.90 95.10 o
6846 1 -2 -8 -6 2168.32 2145.90 95.10 o
6847 2 5 8 3 2168.31 2285.82 131.63 o
6847 1 2 -8 6 2168.31 2285.82 131.63 o
6848 2 -5 8 -3 2168.32 2249.29 147.23 o
6848 1 -2 -8 -6 2168.32 2249.29 147.23 o
6849 2 5 8 3 2168.31 2306.76 124.88 o
6849 1 2 -8 6 2168.31 2306.76 124.88 o
6850 2 -5 8 -3 2168.32 2163.52 95.84 o
6850 1 -2 -8 -6 2168.32 2163.52 95.84 o
6851 2 5 8 4 2811.57 2839.12 150.79 o
6851 1 3 -8 6 2811.57 2839.12 150.79 o
6852 2 -5 8 -4 2811.57 2643.02 113.52 o
6852 1 -3 -8 -6 2811.57 2643.02 113.52 o
6853 2 -5 8 -4 2811.57 2680.17 118.56 o
6853 1 -3 -8 -6 2811.57 2680.17 118.56 o
6854 2 -5 8 -4 2811.57 2714.30 174.85 o
6854 1 -3 -8 -6 2811.57 2714.30 174.85 o
6855 2 -5 8 -5 1860.30 1662.41 86.63 o
6855 1 -4 -8 -6 1860.30 1662.41 86.63 o
6856 2 -6 9 8 1166.23 1156.63 95.72 o
6856 1 8 -9 -6 1166.23 1156.63 95.72 o
6857 2 6 9 -7 472.29 502.58 80.18 o
6857 1 -7 -9 6 472.29 502.58 80.18 o
6858 2 6 9 -7 472.29 503.20 56.73 o
6858 1 -7 -9 6 472.29 503.20 56.73 o
6859 2 -6 9 7 472.29 399.19 67.66 o
6859 1 7 -9 -6 472.29 399.19 67.66 o
6860 2 6 9 -6 374.33 388.14 54.34 o
6860 1 -6 -9 6 374.33 388.14 54.34 o
6861 2 6 9 -6 374.33 364.32 35.36 o
6861 1 -6 -9 6 374.33 364.32 35.36 o
6862 2 -6 9 6 374.33 330.62 42.79 o
6862 1 6 -9 -6 374.33 330.62 42.79 o
6863 2 -6 9 6 374.33 408.96 53.91 o
6863 1 6 -9 -6 374.33 408.96 53.91 o
6864 2 -6 9 5 707.11 703.72 86.45 o
6864 1 5 -9 -6 707.11 703.72 86.45 o
6865 2 6 9 -5 707.11 767.75 50.90 o
6865 1 -5 -9 6 707.11 767.75 50.90 o
6866 2 -6 9 5 707.11 715.75 66.55 o
6866 1 5 -9 -6 707.11 715.75 66.55 o
6867 2 6 9 -5 707.11 628.51 83.07 o
6867 1 -5 -9 6 707.11 628.51 83.07 o
6868 2 -6 9 4 783.01 681.86 71.03 o
6868 1 4 -9 -6 783.01 681.86 71.03 o
6869 2 6 9 -4 783.00 866.05 47.40 o
6869 1 -4 -9 6 783.00 866.05 47.40 o
6870 2 -6 9 4 783.01 864.57 101.06 o
6870 1 4 -9 -6 783.01 864.57 101.06 o
6871 2 5 9 1 567.51 624.95 95.04 o
6871 1 0 -9 6 567.51 624.95 95.04 o
6872 2 -5 9 -1 567.51 448.92 98.36 o
6872 1 0 -9 -6 567.51 448.92 98.36 o
6873 2 -5 9 -2 1675.18 1524.27 117.33 o
6873 1 -1 -9 -6 1675.18 1524.27 117.33 o
6874 2 -5 9 -2 1675.18 1519.48 80.43 o
6874 1 -1 -9 -6 1675.18 1519.48 80.43 o
6875 2 5 9 2 1675.17 1777.40 115.55 o
6875 1 1 -9 6 1675.17 1777.40 115.55 o
6876 2 5 9 3 1269.24 1319.64 105.72 o
6876 1 2 -9 6 1269.24 1319.64 105.72 o
6877 2 -5 9 -3 1269.24 1158.04 113.77 o
6877 1 -2 -9 -6 1269.24 1158.04 113.77 o
6878 2 -5 9 -3 1269.24 1259.22 69.75 o
6878 1 -2 -9 -6 1269.24 1259.22 69.75 o
6879 2 -5 9 -4 329.92 275.30 32.11 o
6879 1 -3 -9 -6 329.92 275.30 32.11 o
6880 2 5 9 4 329.92 202.05 74.60 <
6880 1 3 -9 6 329.92 202.05 74.60 <
6881 2 -5 9 -4 329.92 276.96 111.80 <
6881 1 -3 -9 -6 329.92 276.96 111.80 <
6882 2 -5 9 -4 329.92 184.62 27.44 o
6882 1 -3 -9 -6 329.92 184.62 27.44 o
6883 2 6 10 -8 698.76 829.76 102.16 o
6883 1 -8 -10 6 698.76 829.76 102.16 o
6884 2 -6 10 8 698.76 696.47 89.02 o
6884 1 8 -10 -6 698.76 696.47 89.02 o
6885 2 6 10 -7 292.16 274.13 72.63 o
6885 1 -7 -10 6 292.16 274.13 72.63 o
6886 2 6 10 -7 292.16 337.31 54.83 o
6886 1 -7 -10 6 292.16 337.31 54.83 o
6887 2 -6 10 7 292.16 289.54 67.60 o
6887 1 7 -10 -6 292.16 289.54 67.60 o
6888 2 -6 10 6 18.44 6.57 26.89 <
6888 1 6 -10 -6 18.44 6.57 26.89 <
6889 2 6 10 -6 18.44 20.38 34.26 <
6889 1 -6 -10 6 18.44 20.38 34.26 <
6890 2 6 10 -6 18.44 20.51 20.14 <
6890 1 -6 -10 6 18.44 20.51 20.14 <
6891 2 -6 10 5 655.54 763.33 96.51 o
6891 1 5 -10 -6 655.54 763.33 96.51 o
6892 2 6 10 -5 655.54 604.26 87.49 o
6892 1 -5 -10 6 655.54 604.26 87.49 o
6893 2 6 10 -5 655.54 759.71 45.56 o
6893 1 -5 -10 6 655.54 759.71 45.56 o
6894 2 -6 10 5 655.54 612.54 69.87 o
6894 1 5 -10 -6 655.54 612.54 69.87 o
6895 2 6 10 -4 1431.63 1389.81 120.70 o
6895 1 -4 -10 6 1431.63 1389.81 120.70 o
6896 2 -6 10 4 1431.63 1534.34 129.05 o
6896 1 4 -10 -6 1431.63 1534.34 129.05 o
6897 2 -6 10 4 1431.63 1336.58 91.91 o
6897 1 4 -10 -6 1431.63 1336.58 91.91 o
6898 2 -5 10 -1 3124.20 3146.16 193.27 o
6898 1 0 -10 -6 3124.20 3146.16 193.27 o
6899 2 5 10 1 3124.19 3492.80 184.99 o
6899 1 0 -10 6 3124.19 3492.80 184.99 o
6900 2 -5 10 -1 3124.20 3087.22 141.82 o
6900 1 0 -10 -6 3124.20 3087.22 141.82 o
6901 2 -5 10 -2 643.01 596.95 94.00 o
6901 1 -1 -10 -6 643.01 596.95 94.00 o
6902 2 -5 10 -2 643.01 612.73 56.42 o
6902 1 -1 -10 -6 643.01 612.73 56.42 o
6903 2 5 10 2 643.02 785.62 93.63 o
6903 1 1 -10 6 643.02 785.62 93.63 o
6904 2 -5 10 -3 866.29 776.47 101.55 o
6904 1 -2 -10 -6 866.29 776.47 101.55 o
6905 2 -5 10 -4 643.27 548.45 121.19 o
6905 1 -3 -10 -6 643.27 548.45 121.19 o
6906 2 6 11 -8 907.72 1087.69 81.10 o
6906 1 -8 -11 6 907.72 1087.69 81.10 o
6907 2 -6 11 8 907.72 991.72 105.23 o
6907 1 8 -11 -6 907.72 991.72 105.23 o
6908 2 6 11 -7 1087.80 966.18 99.52 o
6908 1 -7 -11 6 1087.80 966.18 99.52 o
6909 2 6 11 -7 1087.80 1147.61 69.13 o
6909 1 -7 -11 6 1087.80 1147.61 69.13 o
6910 2 -6 11 7 1087.80 917.99 91.17 o
6910 1 7 -11 -6 1087.80 917.99 91.17 o
6911 2 -6 11 6 564.83 579.82 59.43 o
6911 1 6 -11 -6 564.83 579.82 59.43 o
6912 2 6 11 -6 564.83 646.31 38.00 o
6912 1 -6 -11 6 564.83 646.31 38.00 o
6913 2 6 11 -6 564.83 569.87 68.09 o
6913 1 -6 -11 6 564.83 569.87 68.09 o
6914 2 -6 11 5 142.03 159.08 64.53 <
6914 1 5 -11 -6 142.03 159.08 64.53 <
6915 2 6 11 -5 142.03 226.06 79.38 <
6915 1 -5 -11 6 142.03 226.06 79.38 <
6916 2 -6 11 4 2012.00 1903.69 115.42 o
6916 1 4 -11 -6 2012.00 1903.69 115.42 o
6917 2 6 11 -4 2012.01 1897.74 138.51 o
6917 1 -4 -11 6 2012.01 1897.74 138.51 o
6918 2 -6 11 4 2012.00 2192.75 157.48 o
6918 1 4 -11 -6 2012.00 2192.75 157.48 o
6919 2 5 11 1 421.82 535.68 107.50 o
6919 1 0 -11 6 421.82 535.68 107.50 o
6920 2 -5 11 -1 421.83 371.63 65.14 o
6920 1 0 -11 -6 421.83 371.63 65.14 o
6921 2 -5 11 -1 421.83 473.79 119.97 o
6921 1 0 -11 -6 421.83 473.79 119.97 o
6922 2 -5 11 -2 3061.69 2902.23 130.77 o
6922 1 -1 -11 -6 3061.69 2902.23 130.77 o
6923 2 -5 11 -2 3061.69 3046.94 184.49 o
6923 1 -1 -11 -6 3061.69 3046.94 184.49 o
6924 2 -5 11 -3 701.34 609.04 102.65 o
6924 1 -2 -11 -6 701.34 609.04 102.65 o
6925 2 -5 11 -4 553.61 654.72 143.30 o
6925 1 -3 -11 -6 553.61 654.72 143.30 o
6926 2 -6 12 6 1348.21 1420.76 95.65 o
6926 1 6 -12 -6 1348.21 1420.76 95.65 o
6927 2 6 12 -6 1348.21 1389.75 104.80 o
6927 1 -6 -12 6 1348.21 1389.75 104.80 o
6928 2 6 12 -5 221.26 215.19 84.36 <
6928 1 -5 -12 6 221.26 215.19 84.36 <
6929 2 -6 12 5 221.26 170.68 70.18 <
6929 1 5 -12 -6 221.26 170.68 70.18 <
6930 2 -6 12 4 229.40 201.68 128.68 <
6930 1 4 -12 -6 229.40 201.68 128.68 <
6931 2 6 12 -4 229.40 243.49 102.78 <
6931 1 -4 -12 6 229.40 243.49 102.78 <
6932 2 -6 12 4 229.40 119.91 75.33 <
6932 1 4 -12 -6 229.40 119.91 75.33 <
6933 2 -5 12 0 319.49 300.90 137.04 <
6933 1 1 -12 -6 319.49 300.90 137.04 <
6934 2 -5 12 -1 119.16 125.74 123.59 <
6934 1 0 -12 -6 119.16 125.74 123.59 <
6935 2 -5 12 -1 119.16 117.02 61.89 <
6935 1 0 -12 -6 119.16 117.02 61.89 <
6936 2 -5 12 -2 398.67 433.02 59.00 o
6936 1 -1 -12 -6 398.67 433.02 59.00 o
6937 2 -5 12 -2 398.67 353.21 109.10 o
6937 1 -1 -12 -6 398.67 353.21 109.10 o
6938 2 -8 0 15 1439.12 1585.73 114.44 o
6938 1 14 0 -7 1439.12 1585.73 114.44 o
6939 2 -8 0 14 138.56 166.87 83.01 <
6939 1 13 0 -7 138.56 166.87 83.01 <
6940 2 7 0 -8 1821.59 1796.50 95.96 o
6940 1 -8 0 7 1821.59 1796.50 95.96 o
6941 2 7 0 -8 1821.59 1897.37 95.78 o
6941 1 -8 0 7 1821.59 1897.37 95.78 o
6942 2 7 0 -7 11163.80 10995.00 387.96 o
6942 1 -7 0 7 11163.80 10995.00 387.96 o
6943 2 7 0 -7 11163.80 10958.50 393.61 o
6943 1 -7 0 7 11163.80 10958.50 393.61 o
6944 2 -7 0 7 11163.80 11333.50 394.59 o
6944 1 7 0 -7 11163.80 11333.50 394.59 o
6945 2 -7 0 6 1600.97 1742.10 85.28 o
6945 1 6 0 -7 1600.97 1742.10 85.28 o
6946 2 7 0 -6 1600.97 1598.80 81.90 o
6946 1 -6 0 7 1600.97 1598.80 81.90 o
6947 2 7 0 -6 1600.97 1647.92 86.08 o
6947 1 -6 0 7 1600.97 1647.92 86.08 o
6948 2 7 0 -5 13736.80 14109.30 492.76 o
6948 1 -5 0 7 13736.80 14109.30 492.76 o
6949 2 6 0 1 109.38 179.15 35.06 o
6949 1 0 0 7 109.38 179.15 35.06 o
6950 2 6 0 1 109.38 149.13 21.80 o
6950 1 0 0 7 109.38 149.13 21.80 o
6951 2 6 0 2 4017.55 4554.94 187.56 o
6951 1 1 0 7 4017.55 4554.94 187.56 o
6952 2 6 0 2 4017.55 4320.84 180.87 o
6952 1 1 0 7 4017.55 4320.84 180.87 o
6953 2 5 0 9 539.92 627.59 130.34 o
6953 1 7 0 7 539.92 627.59 130.34 o
6954 2 5 0 9 539.92 580.86 90.99 o
6954 1 7 0 7 539.92 580.86 90.99 o
6955 2 5 0 10 706.33 709.86 78.71 o
6955 1 8 0 7 706.33 709.86 78.71 o
6956 2 5 0 10 706.33 727.35 104.19 o
6956 1 8 0 7 706.33 727.35 104.19 o
6957 2 -8 1 15 4151.42 4394.27 219.49 o
6957 1 14 -1 -7 4151.42 4394.27 219.49 o
6958 2 -8 1 14 563.34 714.28 87.92 o
6958 1 13 -1 -7 563.34 714.28 87.92 o
6959 2 7 1 -9 1873.36 1929.60 103.94 o
6959 1 -9 -1 7 1873.36 1929.60 103.94 o
6960 2 -7 1 9 1873.35 2032.20 105.48 o
6960 1 9 -1 -7 1873.35 2032.20 105.48 o
6961 2 7 1 -8 2828.65 2799.03 123.53 o
6961 1 -8 -1 7 2828.65 2799.03 123.53 o
6962 2 -7 1 8 2828.65 2870.25 128.01 o
6962 1 8 -1 -7 2828.65 2870.25 128.01 o
6963 2 7 1 -8 2828.65 2754.02 125.61 o
6963 1 -8 -1 7 2828.65 2754.02 125.61 o
6964 2 7 -1 -8 2740.41 2750.52 123.10 o
6964 1 -8 1 7 2740.41 2750.52 123.10 o
6965 2 7 1 -7 857.05 776.59 50.90 o
6965 1 -7 -1 7 857.05 776.59 50.90 o
6966 2 -7 1 7 857.06 800.72 51.51 o
6966 1 7 -1 -7 857.06 800.72 51.51 o
6967 2 -7 1 7 857.06 805.27 44.14 o
6967 1 7 -1 -7 857.06 805.27 44.14 o
6968 2 7 1 -7 857.05 716.12 51.76 o
6968 1 -7 -1 7 857.05 716.12 51.76 o
6969 2 -7 -1 7 820.25 955.99 57.90 o
6969 1 7 1 -7 820.25 955.99 57.90 o
6970 2 7 -1 -7 820.25 917.86 56.30 o
6970 1 -7 1 7 820.25 917.86 56.30 o
6971 2 7 -1 -7 820.25 902.95 57.83 o
6971 1 -7 1 7 820.25 902.95 57.83 o
6972 2 -7 1 6 7155.04 7988.62 281.25 o
6972 1 6 -1 -7 7155.04 7988.62 281.25 o
6973 2 -7 1 6 7155.04 7796.20 311.21 o
6973 1 6 -1 -7 7155.04 7796.20 311.21 o
6974 2 7 1 -6 7155.03 7397.62 276.40 o
6974 1 -6 -1 7 7155.03 7397.62 276.40 o
6975 2 7 1 -6 7155.03 7621.84 279.41 o
6975 1 -6 -1 7 7155.03 7621.84 279.41 o
6976 2 -7 -1 6 7774.14 7978.98 275.73 o
6976 1 6 1 -7 7774.14 7978.98 275.73 o
6977 2 7 -1 -6 7774.15 7335.80 273.95 o
6977 1 -6 1 7 7774.15 7335.80 273.95 o
6978 2 7 -1 -6 7774.15 7184.46 271.12 o
6978 1 -6 1 7 7774.15 7184.46 271.12 o
6979 2 7 1 -5 3038.51 2890.51 118.74 o
6979 1 -5 -1 7 3038.51 2890.51 118.74 o
6980 2 7 1 -5 3038.51 2807.87 120.89 o
6980 1 -5 -1 7 3038.51 2807.87 120.89 o
6981 2 7 -1 -5 2925.32 3227.02 136.18 o
6981 1 -5 1 7 2925.32 3227.02 136.18 o
6982 2 6 1 1 1425.15 1421.62 66.86 o
6982 1 0 -1 7 1425.15 1421.62 66.86 o
6983 2 6 1 1 1425.15 1397.55 75.70 o
6983 1 0 -1 7 1425.15 1397.55 75.70 o
6984 2 6 -1 1 1466.43 1654.06 79.63 o
6984 1 0 1 7 1466.43 1654.06 79.63 o
6985 2 6 1 2 3849.97 3957.81 166.69 o
6985 1 1 -1 7 3849.97 3957.81 166.69 o
6986 2 6 1 2 3849.97 4346.50 170.07 o
6986 1 1 -1 7 3849.97 4346.50 170.07 o
6987 2 6 1 2 3849.97 3478.00 210.65 o
6987 1 1 -1 7 3849.97 3478.00 210.65 o
6988 2 6 -1 2 3760.75 4104.36 166.44 o
6988 1 1 1 7 3760.75 4104.36 166.44 o
6989 2 6 1 3 449.83 479.93 73.43 o
6989 1 2 -1 7 449.83 479.93 73.43 o
6990 2 5 1 8 1130.33 1258.12 158.34 o
6990 1 6 -1 7 1130.33 1258.12 158.34 o
6991 2 5 1 9 312.76 420.32 120.58 o
6991 1 7 -1 7 312.76 420.32 120.58 o
6992 2 5 1 9 312.76 310.17 77.42 o
6992 1 7 -1 7 312.76 310.17 77.42 o
6993 2 5 -1 9 334.35 201.81 85.77 <
6993 1 7 1 7 334.35 201.81 85.77 <
6994 2 5 1 10 652.66 786.85 132.00 o
6994 1 8 -1 7 652.66 786.85 132.00 o
6995 2 5 1 10 652.66 785.99 84.73 o
6995 1 8 -1 7 652.66 785.99 84.73 o
6996 2 5 -1 10 670.92 654.05 102.84 o
6996 1 8 1 7 670.92 654.05 102.84 o
6997 2 5 -1 10 670.92 705.93 81.04 o
6997 1 8 1 7 670.92 705.93 81.04 o
6998 2 -8 2 15 526.43 474.40 73.06 o
6998 1 14 -2 -7 526.43 474.40 73.06 o
6999 2 -8 2 14 816.50 876.73 85.83 o
6999 1 13 -2 -7 816.50 876.73 85.83 o
7000 2 -7 2 9 4218.70 4442.53 193.76 o
7000 1 9 -2 -7 4218.70 4442.53 193.76 o
7001 2 7 2 -9 4218.70 4237.22 174.43 o
7001 1 -9 -2 7 4218.70 4237.22 174.43 o
7002 2 7 2 -8 949.04 1062.51 65.32 o
7002 1 -8 -2 7 949.04 1062.51 65.32 o
7003 2 7 2 -8 949.04 1022.48 72.57 o
7003 1 -8 -2 7 949.04 1022.48 72.57 o
7004 2 -7 2 8 949.04 933.46 59.74 o
7004 1 8 -2 -7 949.04 933.46 59.74 o
7005 2 7 -2 -8 852.44 944.45 68.70 o
7005 1 -8 2 7 852.44 944.45 68.70 o
7006 2 -7 2 7 7077.41 7131.04 287.21 o
7006 1 7 -2 -7 7077.41 7131.04 287.21 o
7007 2 7 2 -7 7077.42 6763.77 297.09 o
7007 1 -7 -2 7 7077.42 6763.77 297.09 o
7008 2 7 2 -7 7077.42 7043.86 255.04 o
7008 1 -7 -2 7 7077.42 7043.86 255.04 o
7009 2 7 2 -7 7077.42 6637.97 252.83 o
7009 1 -7 -2 7 7077.42 6637.97 252.83 o
7010 2 -7 2 7 7077.41 7356.49 258.11 o
7010 1 7 -2 -7 7077.41 7356.49 258.11 o
7011 2 7 -2 -7 7213.07 6577.81 245.28 o
7011 1 -7 2 7 7213.07 6577.81 245.28 o
7012 2 7 2 -6 3906.80 3532.03 145.75 o
7012 1 -6 -2 7 3906.80 3532.03 145.75 o
7013 2 -7 2 6 3906.81 4026.26 149.74 o
7013 1 6 -2 -7 3906.81 4026.26 149.74 o
7014 2 -7 2 6 3906.81 3420.47 152.14 o
7014 1 6 -2 -7 3906.81 3420.47 152.14 o
7015 2 7 2 -6 3906.80 3727.58 144.52 o
7015 1 -6 -2 7 3906.80 3727.58 144.52 o
7016 2 7 2 -5 3961.07 3626.09 173.93 o
7016 1 -5 -2 7 3961.07 3626.09 173.93 o
7017 2 7 2 -5 3961.07 3565.49 146.00 o
7017 1 -5 -2 7 3961.07 3565.49 146.00 o
7018 2 7 -2 -5 3540.32 4205.91 167.73 o
7018 1 -5 2 7 3540.32 4205.91 167.73 o
7019 2 6 2 0 4478.63 5412.33 268.36 o
7019 1 -1 -2 7 4478.63 5412.33 268.36 o
7020 2 6 2 1 3080.26 2865.95 128.50 o
7020 1 0 -2 7 3080.26 2865.95 128.50 o
7021 2 6 2 1 3080.26 3012.44 135.19 o
7021 1 0 -2 7 3080.26 3012.44 135.19 o
7022 2 6 2 1 3080.26 3402.85 173.87 o
7022 1 0 -2 7 3080.26 3402.85 173.87 o
7023 2 -6 2 -1 3080.26 2734.81 120.89 o
7023 1 0 -2 -7 3080.26 2734.81 120.89 o
7024 2 6 -2 1 2963.93 3415.32 141.33 o
7024 1 0 2 7 2963.93 3415.32 141.33 o
7025 2 6 2 2 5748.81 6183.46 251.66 o
7025 1 1 -2 7 5748.81 6183.46 251.66 o
7026 2 6 2 2 5748.81 5830.44 243.49 o
7026 1 1 -2 7 5748.81 5830.44 243.49 o
7027 2 6 2 2 5748.81 6171.92 314.65 o
7027 1 1 -2 7 5748.81 6171.92 314.65 o
7028 2 -6 2 -2 5748.81 5848.30 216.60 o
7028 1 -1 -2 -7 5748.81 5848.30 216.60 o
7029 2 6 -2 2 5768.28 6495.72 250.99 o
7029 1 1 2 7 5768.28 6495.72 250.99 o
7030 2 6 2 3 10353.70 10603.60 434.74 o
7030 1 2 -2 7 10353.70 10603.60 434.74 o
7031 2 5 2 8 841.93 1122.80 165.83 o
7031 1 6 -2 7 841.93 1122.80 165.83 o
7032 2 5 2 9 213.08 259.33 130.77 <
7032 1 7 -2 7 213.08 259.33 130.77 <
7033 2 5 2 9 213.08 239.20 82.64 <
7033 1 7 -2 7 213.08 239.20 82.64 <
7034 2 5 2 10 1242.48 1377.53 150.11 o
7034 1 8 -2 7 1242.48 1377.53 150.11 o
7035 2 5 2 10 1242.48 1207.35 101.43 o
7035 1 8 -2 7 1242.48 1207.35 101.43 o
7036 2 5 -2 10 1191.31 1327.74 141.52 o
7036 1 8 2 7 1191.31 1327.74 141.52 o
7037 2 5 -2 10 1191.31 1068.47 97.01 o
7037 1 8 2 7 1191.31 1068.47 97.01 o
7038 2 8 3 -14 622.87 787.22 102.04 o
7038 1 -13 -3 7 622.87 787.22 102.04 o
7039 2 -8 3 14 622.87 689.72 81.84 o
7039 1 13 -3 -7 622.87 689.72 81.84 o
7040 2 -7 3 9 3934.17 3903.78 175.78 o
7040 1 9 -3 -7 3934.17 3903.78 175.78 o
7041 2 7 3 -9 3934.17 3839.56 158.09 o
7041 1 -9 -3 7 3934.17 3839.56 158.09 o
7042 2 7 3 -8 5199.15 4630.09 234.72 o
7042 1 -8 -3 7 5199.15 4630.09 234.72 o
7043 2 7 3 -8 5199.15 5132.49 196.96 o
7043 1 -8 -3 7 5199.15 5132.49 196.96 o
7044 2 -7 3 8 5199.16 5161.35 194.56 o
7044 1 8 -3 -7 5199.16 5161.35 194.56 o
7045 2 7 3 -8 5199.15 5135.75 191.92 o
7045 1 -8 -3 7 5199.15 5135.75 191.92 o
7046 2 -7 3 8 5199.16 4992.76 215.01 o
7046 1 8 -3 -7 5199.16 4992.76 215.01 o
7047 2 7 3 -7 2249.63 1740.57 118.92 o
7047 1 -7 -3 7 2249.63 1740.57 118.92 o
7048 2 -7 3 7 2249.63 2218.29 99.71 o
7048 1 7 -3 -7 2249.63 2218.29 99.71 o
7049 2 7 3 -7 2249.63 2194.03 92.46 o
7049 1 -7 -3 7 2249.63 2194.03 92.46 o
7050 2 7 3 -7 2249.63 2199.50 97.25 o
7050 1 -7 -3 7 2249.63 2199.50 97.25 o
7051 2 -7 3 7 2249.63 2401.49 98.05 o
7051 1 7 -3 -7 2249.63 2401.49 98.05 o
7052 2 7 -3 -7 2279.09 1972.89 93.32 o
7052 1 -7 3 7 2279.09 1972.89 93.32 o
7053 2 7 3 -6 1778.16 1523.59 106.52 o
7053 1 -6 -3 7 1778.16 1523.59 106.52 o
7054 2 -7 3 6 1778.16 1768.62 83.50 o
7054 1 6 -3 -7 1778.16 1768.62 83.50 o
7055 2 7 3 -6 1778.16 1683.35 84.23 o
7055 1 -6 -3 7 1778.16 1683.35 84.23 o
7056 2 -7 3 6 1778.16 1572.10 77.36 o
7056 1 6 -3 -7 1778.16 1572.10 77.36 o
7057 2 -7 3 6 1778.16 1847.03 81.17 o
7057 1 6 -3 -7 1778.16 1847.03 81.17 o
7058 2 7 -3 -6 1560.40 1648.17 84.54 o
7058 1 -6 3 7 1560.40 1648.17 84.54 o
7059 2 7 3 -5 2853.79 2807.75 120.03 o
7059 1 -5 -3 7 2853.79 2807.75 120.03 o
7060 2 7 -3 -5 2605.43 2762.01 122.85 o
7060 1 -5 3 7 2605.43 2762.01 122.85 o
7061 2 6 3 1 5534.45 5573.99 234.35 o
7061 1 0 -3 7 5534.45 5573.99 234.35 o
7062 2 6 3 1 5534.45 5901.35 233.55 o
7062 1 0 -3 7 5534.45 5901.35 233.55 o
7063 2 -6 3 -1 5534.45 5469.74 209.60 o
7063 1 0 -3 -7 5534.45 5469.74 209.60 o
7064 2 -6 3 -1 5534.45 5300.23 199.35 o
7064 1 0 -3 -7 5534.45 5300.23 199.35 o
7065 2 6 3 1 5534.45 5918.48 288.74 o
7065 1 0 -3 7 5534.45 5918.48 288.74 o
7066 2 6 -3 1 5562.72 5942.42 233.18 o
7066 1 0 3 7 5562.72 5942.42 233.18 o
7067 2 6 3 2 2067.09 2209.81 103.33 o
7067 1 1 -3 7 2067.09 2209.81 103.33 o
7068 2 6 3 2 2067.09 2052.21 143.67 o
7068 1 1 -3 7 2067.09 2052.21 143.67 o
7069 2 -6 3 -2 2067.09 2197.66 92.09 o
7069 1 -1 -3 -7 2067.09 2197.66 92.09 o
7070 2 6 3 2 2067.09 2246.96 109.22 o
7070 1 1 -3 7 2067.09 2246.96 109.22 o
7071 2 -6 3 -2 2067.09 2077.20 83.74 o
7071 1 -1 -3 -7 2067.09 2077.20 83.74 o
7072 2 6 3 3 3547.41 1860.84 136.60 o
7072 1 2 -3 7 3547.41 1860.84 136.60 o
7073 2 5 3 8 1595.08 1929.54 195.05 o
7073 1 6 -3 7 1595.08 1929.54 195.05 o
7074 2 5 3 9 603.70 557.47 87.12 o
7074 1 7 -3 7 603.70 557.47 87.12 o
7075 2 5 3 9 603.70 754.00 145.69 o
7075 1 7 -3 7 603.70 754.00 145.69 o
7076 2 5 3 10 1122.29 1013.76 94.06 o
7076 1 8 -3 7 1122.29 1013.76 94.06 o
7077 2 5 3 10 1122.29 1257.01 148.70 o
7077 1 8 -3 7 1122.29 1257.01 148.70 o
7078 2 -5 3 -10 1122.29 953.11 97.80 o
7078 1 -8 -3 -7 1122.29 953.11 97.80 o
7079 2 5 -3 10 1079.04 1033.17 95.84 o
7079 1 8 3 7 1079.04 1033.17 95.84 o
7080 2 -7 4 9 1801.40 1667.01 95.04 o
7080 1 9 -4 -7 1801.40 1667.01 95.04 o
7081 2 7 4 -9 1801.41 1709.75 84.79 o
7081 1 -9 -4 7 1801.41 1709.75 84.79 o
7082 2 -7 4 8 950.40 964.40 65.32 o
7082 1 8 -4 -7 950.40 964.40 65.32 o
7083 2 7 4 -8 950.39 895.09 70.73 o
7083 1 -8 -4 7 950.39 895.09 70.73 o
7084 2 -7 4 8 950.40 1079.58 63.24 o
7084 1 8 -4 -7 950.40 1079.58 63.24 o
7085 2 7 4 -8 950.39 918.79 57.47 o
7085 1 -8 -4 7 950.39 918.79 57.47 o
7086 2 7 4 -8 950.39 649.44 91.54 o
7086 1 -8 -4 7 950.39 649.44 91.54 o
7087 2 7 4 -7 9142.22 8502.44 374.21 o
7087 1 -7 -4 7 9142.22 8502.44 374.21 o
7088 2 7 4 -7 9142.22 8713.70 317.60 o
7088 1 -7 -4 7 9142.22 8713.70 317.60 o
7089 2 -7 4 7 9142.22 9730.04 323.37 o
7089 1 7 -4 -7 9142.22 9730.04 323.37 o
7090 2 -7 4 7 9142.22 8856.14 367.88 o
7090 1 7 -4 -7 9142.22 8856.14 367.88 o
7091 2 -7 4 7 9142.22 8954.25 331.35 o
7091 1 7 -4 -7 9142.22 8954.25 331.35 o
7092 2 7 4 -6 1040.54 1017.26 65.88 o
7092 1 -6 -4 7 1040.54 1017.26 65.88 o
7093 2 -7 4 6 1040.54 1033.72 61.83 o
7093 1 6 -4 -7 1040.54 1033.72 61.83 o
7094 2 -7 4 6 1040.54 1114.33 62.19 o
7094 1 6 -4 -7 1040.54 1114.33 62.19 o
7095 2 -7 4 6 1040.54 902.33 53.60 o
7095 1 6 -4 -7 1040.54 902.33 53.60 o
7096 2 7 4 -6 1040.54 1095.54 87.43 o
7096 1 -6 -4 7 1040.54 1095.54 87.43 o
7097 2 -7 4 5 8140.35 8604.23 333.13 o
7097 1 5 -4 -7 8140.35 8604.23 333.13 o
7098 2 7 4 -5 8140.36 8174.16 302.07 o
7098 1 -5 -4 7 8140.36 8174.16 302.07 o
7099 2 -7 4 5 8140.35 8938.04 309.07 o
7099 1 5 -4 -7 8140.35 8938.04 309.07 o
7100 2 7 -4 -5 8534.07 7915.86 292.18 o
7100 1 -5 4 7 8534.07 7915.86 292.18 o
7101 2 -6 4 -1 4524.68 4576.25 170.68 o
7101 1 0 -4 -7 4524.68 4576.25 170.68 o
7102 2 -6 4 -1 4524.68 4578.46 178.17 o
7102 1 0 -4 -7 4524.68 4578.46 178.17 o
7103 2 6 4 1 4524.67 4609.95 198.49 o
7103 1 0 -4 7 4524.67 4609.95 198.49 o
7104 2 6 4 1 4524.67 5013.81 246.87 o
7104 1 0 -4 7 4524.67 5013.81 246.87 o
7105 2 -6 4 -1 4524.68 4361.42 168.04 o
7105 1 0 -4 -7 4524.68 4361.42 168.04 o
7106 2 6 4 1 4524.67 4716.72 201.44 o
7106 1 0 -4 7 4524.67 4716.72 201.44 o
7107 2 -6 4 -2 690.54 644.04 43.22 o
7107 1 -1 -4 -7 690.54 644.04 43.22 o
7108 2 6 4 2 690.54 720.42 50.90 o
7108 1 1 -4 7 690.54 720.42 50.90 o
7109 2 6 4 2 690.54 551.95 70.97 o
7109 1 1 -4 7 690.54 551.95 70.97 o
7110 2 -6 4 -2 690.54 684.68 38.68 o
7110 1 -1 -4 -7 690.54 684.68 38.68 o
7111 2 6 4 2 690.54 654.78 60.60 o
7111 1 1 -4 7 690.54 654.78 60.60 o
7112 2 6 4 3 714.14 239.69 64.40 o
7112 1 2 -4 7 714.14 239.69 64.40 o
7113 2 5 4 8 937.80 1216.68 177.13 o
7113 1 6 -4 7 937.80 1216.68 177.13 o
7114 2 5 4 9 64.43 41.20 74.04 <
7114 1 7 -4 7 64.43 41.20 74.04 <
7115 2 5 4 9 64.43 60.60 120.33 <
7115 1 7 -4 7 64.43 60.60 120.33 <
7116 2 -7 5 9 1061.48 924.62 90.74 o
7116 1 9 -5 -7 1061.48 924.62 90.74 o
7117 2 -7 5 9 1061.48 1098.74 66.80 o
7117 1 9 -5 -7 1061.48 1098.74 66.80 o
7118 2 7 5 -9 1061.48 938.92 58.76 o
7118 1 -9 -5 7 1061.48 938.92 58.76 o
7119 2 -7 5 9 1061.48 939.91 72.39 o
7119 1 9 -5 -7 1061.48 939.91 72.39 o
7120 2 7 5 -9 1061.48 492.39 108.18 o
7120 1 -9 -5 7 1061.48 492.39 108.18 o
7121 2 7 5 -8 2129.73 2165.98 105.29 o
7121 1 -8 -5 7 2129.73 2165.98 105.29 o
7122 2 -7 5 8 2129.73 2005.12 112.78 o
7122 1 8 -5 -7 2129.73 2005.12 112.78 o
7123 2 -7 5 8 2129.73 1996.03 104.50 o
7123 1 8 -5 -7 2129.73 1996.03 104.50 o
7124 2 7 5 -8 2129.73 1924.26 133.04 o
7124 1 -8 -5 7 2129.73 1924.26 133.04 o
7125 2 -7 5 8 2129.73 2070.51 93.14 o
7125 1 8 -5 -7 2129.73 2070.51 93.14 o
7126 2 -7 5 7 2949.81 3079.61 139.98 o
7126 1 7 -5 -7 2949.81 3079.61 139.98 o
7127 2 7 5 -7 2949.81 2997.03 126.97 o
7127 1 -7 -5 7 2949.81 2997.03 126.97 o
7128 2 7 5 -7 2949.81 3148.49 160.43 o
7128 1 -7 -5 7 2949.81 3148.49 160.43 o
7129 2 -7 5 7 2949.81 2976.58 135.56 o
7129 1 7 -5 -7 2949.81 2976.58 135.56 o
7130 2 -7 5 7 2949.81 3119.45 123.53 o
7130 1 7 -5 -7 2949.81 3119.45 123.53 o
7131 2 -7 5 6 6517.20 6465.02 237.85 o
7131 1 6 -5 -7 6517.20 6465.02 237.85 o
7132 2 -7 5 6 6517.20 6750.08 258.29 o
7132 1 6 -5 -7 6517.20 6750.08 258.29 o
7133 2 7 5 -6 6517.20 6014.50 235.64 o
7133 1 -6 -5 7 6517.20 6014.50 235.64 o
7134 2 7 5 -6 6517.20 6608.38 283.89 o
7134 1 -6 -5 7 6517.20 6608.38 283.89 o
7135 2 -7 5 6 6517.20 6646.51 250.37 o
7135 1 6 -5 -7 6517.20 6646.51 250.37 o
7136 2 7 5 -5 5658.51 5402.69 205.98 o
7136 1 -5 -5 7 5658.51 5402.69 205.98 o
7137 2 -7 5 5 5658.52 5626.11 207.82 o
7137 1 5 -5 -7 5658.52 5626.11 207.82 o
7138 2 -7 5 5 5658.52 5628.14 229.50 o
7138 1 5 -5 -7 5658.52 5628.14 229.50 o
7139 2 -6 5 -1 1260.44 903.01 88.78 o
7139 1 0 -5 -7 1260.44 903.01 88.78 o
7140 2 -6 5 -1 1260.44 1248.11 58.88 o
7140 1 0 -5 -7 1260.44 1248.11 58.88 o
7141 2 -6 5 -1 1260.44 1288.14 59.62 o
7141 1 0 -5 -7 1260.44 1288.14 59.62 o
7142 2 6 5 1 1260.44 1224.04 99.28 o
7142 1 0 -5 7 1260.44 1224.04 99.28 o
7143 2 6 5 1 1260.44 1217.29 69.56 o
7143 1 0 -5 7 1260.44 1217.29 69.56 o
7144 2 6 5 1 1260.44 1181.80 81.47 o
7144 1 0 -5 7 1260.44 1181.80 81.47 o
7145 2 -6 5 -1 1260.44 1161.91 66.37 o
7145 1 0 -5 -7 1260.44 1161.91 66.37 o
7146 2 -6 5 -2 3126.86 3149.66 124.94 o
7146 1 -1 -5 -7 3126.86 3149.66 124.94 o
7147 2 6 5 2 3126.86 3176.24 153.74 o
7147 1 1 -5 7 3126.86 3176.24 153.74 o
7148 2 6 5 2 3126.86 3092.07 191.06 o
7148 1 1 -5 7 3126.86 3092.07 191.06 o
7149 2 -6 5 -2 3126.86 3224.68 122.97 o
7149 1 -1 -5 -7 3126.86 3224.68 122.97 o
7150 2 6 5 2 3126.86 3337.16 149.62 o
7150 1 1 -5 7 3126.86 3337.16 149.62 o
7151 2 6 5 3 916.52 496.75 84.91 o
7151 1 2 -5 7 916.52 496.75 84.91 o
7152 2 6 5 3 916.52 829.58 66.06 o
7152 1 2 -5 7 916.52 829.58 66.06 o
7153 2 5 5 8 489.30 522.48 150.60 o
7153 1 6 -5 7 489.30 522.48 150.60 o
7154 2 5 5 9 1404.06 1421.68 117.94 o
7154 1 7 -5 7 1404.06 1421.68 117.94 o
7155 2 5 5 9 1404.06 1528.32 183.94 o
7155 1 7 -5 7 1404.06 1528.32 183.94 o
7156 2 -5 5 -9 1404.06 1196.91 127.40 o
7156 1 -7 -5 -7 1404.06 1196.91 127.40 o
7157 2 7 6 -10 842.66 432.65 110.02 o
7157 1 -10 -6 7 842.66 432.65 110.02 o
7158 2 -7 6 9 793.86 844.07 74.23 o
7158 1 9 -6 -7 793.86 844.07 74.23 o
7159 2 -7 6 9 793.86 889.07 55.75 o
7159 1 9 -6 -7 793.86 889.07 55.75 o
7160 2 -7 6 9 793.86 822.58 87.92 o
7160 1 9 -6 -7 793.86 822.58 87.92 o
7161 2 7 6 -9 793.85 727.84 111.62 o
7161 1 -9 -6 7 793.85 727.84 111.62 o
7162 2 -7 6 8 1366.51 1323.87 82.64 o
7162 1 8 -6 -7 1366.51 1323.87 82.64 o
7163 2 -7 6 8 1366.51 1274.27 65.08 o
7163 1 8 -6 -7 1366.51 1274.27 65.08 o
7164 2 -7 6 8 1366.51 1331.73 91.60 o
7164 1 8 -6 -7 1366.51 1331.73 91.60 o
7165 2 7 6 -8 1366.51 1332.47 83.19 o
7165 1 -8 -6 7 1366.51 1332.47 83.19 o
7166 2 7 6 -8 1366.51 1296.74 112.78 o
7166 1 -8 -6 7 1366.51 1296.74 112.78 o
7167 2 7 6 -7 5712.76 5545.25 214.52 o
7167 1 -7 -6 7 5712.76 5545.25 214.52 o
7168 2 7 6 -7 5712.76 5806.43 258.23 o
7168 1 -7 -6 7 5712.76 5806.43 258.23 o
7169 2 -7 6 7 5712.77 5757.19 248.53 o
7169 1 7 -6 -7 5712.77 5757.19 248.53 o
7170 2 -7 6 7 5712.77 6119.73 228.39 o
7170 1 7 -6 -7 5712.77 6119.73 228.39 o
7171 2 -7 6 7 5712.77 5656.81 208.93 o
7171 1 7 -6 -7 5712.77 5656.81 208.93 o
7172 2 -7 6 6 726.05 748.04 50.04 o
7172 1 6 -6 -7 726.05 748.04 50.04 o
7173 2 -7 6 6 726.05 866.54 66.49 o
7173 1 6 -6 -7 726.05 866.54 66.49 o
7174 2 -7 6 6 726.05 796.91 66.92 o
7174 1 6 -6 -7 726.05 796.91 66.92 o
7175 2 7 6 -6 726.05 755.66 58.63 o
7175 1 -6 -6 7 726.05 755.66 58.63 o
7176 2 7 6 -6 726.05 726.37 84.23 o
7176 1 -6 -6 7 726.05 726.37 84.23 o
7177 2 -7 6 5 8756.46 8808.56 348.79 o
7177 1 5 -6 -7 8756.46 8808.56 348.79 o
7178 2 7 6 -5 8756.46 8777.18 309.43 o
7178 1 -5 -6 7 8756.46 8777.18 309.43 o
7179 2 6 6 0 2098.69 2170.89 120.46 o
7179 1 -1 -6 7 2098.69 2170.89 120.46 o
7180 2 -6 6 0 2098.69 2082.48 94.55 o
7180 1 1 -6 -7 2098.69 2082.48 94.55 o
7181 2 -6 6 0 2098.69 1937.22 134.40 o
7181 1 1 -6 -7 2098.69 1937.22 134.40 o
7182 2 -6 6 -1 644.61 470.54 76.99 o
7182 1 0 -6 -7 644.61 470.54 76.99 o
7183 2 6 6 1 644.61 601.68 66.25 o
7183 1 0 -6 7 644.61 601.68 66.25 o
7184 2 -6 6 -1 644.61 549.55 38.50 o
7184 1 0 -6 -7 644.61 549.55 38.50 o
7185 2 -6 6 -1 644.61 648.89 44.76 o
7185 1 0 -6 -7 644.61 648.89 44.76 o
7186 2 -6 6 -1 644.61 523.77 48.44 o
7186 1 0 -6 -7 644.61 523.77 48.44 o
7187 2 6 6 2 821.98 940.21 65.88 o
7187 1 1 -6 7 821.98 940.21 65.88 o
7188 2 6 6 2 821.98 869.61 76.07 o
7188 1 1 -6 7 821.98 869.61 76.07 o
7189 2 -6 6 -2 821.98 858.56 90.56 o
7189 1 -1 -6 -7 821.98 858.56 90.56 o
7190 2 -6 6 -2 821.98 802.62 48.63 o
7190 1 -1 -6 -7 821.98 802.62 48.63 o
7191 2 -6 6 -2 821.98 937.51 60.41 o
7191 1 -1 -6 -7 821.98 937.51 60.41 o
7192 2 -6 6 -2 821.98 832.34 50.65 o
7192 1 -1 -6 -7 821.98 832.34 50.65 o
7193 2 6 6 3 525.57 460.47 80.86 o
7193 1 2 -6 7 525.57 460.47 80.86 o
7194 2 6 6 3 525.57 628.94 65.39 o
7194 1 2 -6 7 525.57 628.94 65.39 o
7195 2 5 6 8 552.03 336.08 174.73 <
7195 1 6 -6 7 552.03 336.08 174.73 <
7196 2 -5 6 -8 552.03 423.08 122.91 o
7196 1 -6 -6 -7 552.03 423.08 122.91 o
7197 2 5 6 9 102.54 86.69 82.02 <
7197 1 7 -6 7 102.54 86.69 82.02 <
7198 2 -5 6 -9 102.54 -37.02 92.22 <
7198 1 -7 -6 -7 102.54 -37.02 92.22 <
7199 2 5 6 9 102.54 -43.59 144.96 <
7199 1 7 -6 7 102.54 -43.59 144.96 <
7200 2 7 7 -9 1655.93 1819.40 140.23 o
7200 1 -9 -7 7 1655.93 1819.40 140.23 o
7201 2 -7 7 9 1655.93 1556.38 106.95 o
7201 1 9 -7 -7 1655.93 1556.38 106.95 o
7202 2 -7 7 9 1655.93 1859.43 116.04 o
7202 1 9 -7 -7 1655.93 1859.43 116.04 o
7203 2 -7 7 8 1597.48 1558.16 59.92 o
7203 1 8 -7 -7 1597.48 1558.16 59.92 o
7204 2 -7 7 8 1597.48 1390.86 91.91 o
7204 1 8 -7 -7 1597.48 1390.86 91.91 o
7205 2 -7 7 8 1597.48 1585.97 100.38 o
7205 1 8 -7 -7 1597.48 1585.97 100.38 o
7206 2 7 7 -8 1597.48 1709.13 123.96 o
7206 1 -8 -7 7 1597.48 1709.13 123.96 o
7207 2 7 7 -8 1597.48 1495.66 89.88 o
7207 1 -8 -7 7 1597.48 1495.66 89.88 o
7208 2 -7 7 7 72.79 87.98 13.63 o
7208 1 7 -7 -7 72.79 87.98 13.63 o
7209 2 -7 7 7 72.79 44.82 28.30 <
7209 1 7 -7 -7 72.79 44.82 28.30 <
7210 2 7 7 -7 72.79 147.53 36.59 o
7210 1 -7 -7 7 72.79 147.53 36.59 o
7211 2 -7 7 7 72.79 89.88 12.46 o
7211 1 7 -7 -7 72.79 89.88 12.46 o
7212 2 7 7 -7 72.79 61.70 37.88 <
7212 1 -7 -7 7 72.79 61.70 37.88 <
7213 2 7 7 -6 1456.75 1564.61 110.94 o
7213 1 -6 -7 7 1456.75 1564.61 110.94 o
7214 2 -7 7 6 1456.75 1605.74 63.48 o
7214 1 6 -7 -7 1456.75 1605.74 63.48 o
7215 2 -7 7 6 1456.75 1581.86 94.49 o
7215 1 6 -7 -7 1456.75 1581.86 94.49 o
7216 2 -7 7 6 1456.75 1512.30 66.61 o
7216 1 6 -7 -7 1456.75 1512.30 66.61 o
7217 2 7 7 -6 1456.75 1543.92 83.13 o
7217 1 -6 -7 7 1456.75 1543.92 83.13 o
7218 2 -7 7 6 1456.75 1544.41 93.51 o
7218 1 6 -7 -7 1456.75 1544.41 93.51 o
7219 2 -6 7 0 190.54 241.22 43.47 o
7219 1 1 -7 -7 190.54 241.22 43.47 o
7220 2 -6 7 0 190.54 265.60 85.95 o
7220 1 1 -7 -7 190.54 265.60 85.95 o
7221 2 -6 7 0 190.54 217.34 31.99 o
7221 1 1 -7 -7 190.54 217.34 31.99 o
7222 2 -6 7 0 190.54 185.05 38.31 o
7222 1 1 -7 -7 190.54 185.05 38.31 o
7223 2 -6 7 -1 2065.67 1976.51 89.58 o
7223 1 0 -7 -7 2065.67 1976.51 89.58 o
7224 2 -6 7 -1 2065.67 1843.22 81.84 o
7224 1 0 -7 -7 2065.67 1843.22 81.84 o
7225 2 -6 7 -1 2065.67 1906.70 87.24 o
7225 1 0 -7 -7 2065.67 1906.70 87.24 o
7226 2 -6 7 -1 2065.67 1961.78 127.58 o
7226 1 0 -7 -7 2065.67 1961.78 127.58 o
7227 2 6 7 1 2065.67 2196.61 120.21 o
7227 1 0 -7 7 2065.67 2196.61 120.21 o
7228 2 -6 7 -2 1467.18 1306.07 66.12 o
7228 1 -1 -7 -7 1467.18 1306.07 66.12 o
7229 2 6 7 2 1467.18 1431.07 100.07 o
7229 1 1 -7 7 1467.18 1431.07 100.07 o
7230 2 -6 7 -2 1467.18 1351.01 112.05 o
7230 1 -1 -7 -7 1467.18 1351.01 112.05 o
7231 2 -6 7 -2 1467.18 1310.61 71.89 o
7231 1 -1 -7 -7 1467.18 1310.61 71.89 o
7232 2 6 7 2 1467.18 1432.91 86.81 o
7232 1 1 -7 7 1467.18 1432.91 86.81 o
7233 2 -6 7 -2 1467.18 1378.09 68.15 o
7233 1 -1 -7 -7 1467.18 1378.09 68.15 o
7234 2 -6 7 -3 508.00 511.49 102.47 o
7234 1 -2 -7 -7 508.00 511.49 102.47 o
7235 2 -6 7 -3 508.00 417.98 49.73 o
7235 1 -2 -7 -7 508.00 417.98 49.73 o
7236 2 6 7 3 508.00 465.81 86.63 o
7236 1 2 -7 7 508.00 465.81 86.63 o
7237 2 6 7 3 508.00 522.11 68.21 o
7237 1 2 -7 7 508.00 522.11 68.21 o
7238 2 -5 7 -8 77.41 -0.37 111.19 <
7238 1 -6 -7 -7 77.41 -0.37 111.19 <
7239 2 -7 8 9 2586.83 2626.08 146.61 o
7239 1 9 -8 -7 2586.83 2626.08 146.61 o
7240 2 7 8 -9 2586.83 2759.43 169.08 o
7240 1 -9 -8 7 2586.83 2759.43 169.08 o
7241 2 -7 8 9 2586.83 2522.32 142.25 o
7241 1 9 -8 -7 2586.83 2522.32 142.25 o
7242 2 -7 8 8 410.65 412.27 74.78 o
7242 1 8 -8 -7 410.65 412.27 74.78 o
7243 2 7 8 -8 410.65 587.80 63.85 o
7243 1 -8 -8 7 410.65 587.80 63.85 o
7244 2 7 8 -8 410.65 386.61 86.08 o
7244 1 -8 -8 7 410.65 386.61 86.08 o
7245 2 7 8 -7 3873.19 3792.41 153.24 o
7245 1 -7 -8 7 3873.19 3792.41 153.24 o
7246 2 7 8 -7 3873.19 3953.14 190.57 o
7246 1 -7 -8 7 3873.19 3953.14 190.57 o
7247 2 -7 8 7 3873.20 3838.82 167.49 o
7247 1 7 -8 -7 3873.20 3838.82 167.49 o
7248 2 7 8 -6 662.96 653.13 59.43 o
7248 1 -6 -8 7 662.96 653.13 59.43 o
7249 2 7 8 -6 662.96 681.31 87.92 o
7249 1 -6 -8 7 662.96 681.31 87.92 o
7250 2 -7 8 6 662.96 568.40 69.07 o
7250 1 6 -8 -7 662.96 568.40 69.07 o
7251 2 -7 8 5 135.55 125.55 78.28 <
7251 1 5 -8 -7 135.55 125.55 78.28 <
7252 2 -6 8 0 5373.80 5290.16 188.24 o
7252 1 1 -8 -7 5373.80 5290.16 188.24 o
7253 2 -6 8 0 5373.80 5160.30 202.30 o
7253 1 1 -8 -7 5373.80 5160.30 202.30 o
7254 2 -6 8 0 5373.80 5183.45 192.23 o
7254 1 1 -8 -7 5373.80 5183.45 192.23 o
7255 2 6 8 0 5373.80 5575.15 245.03 o
7255 1 -1 -8 7 5373.80 5575.15 245.03 o
7256 2 -6 8 -1 187.71 152.75 29.72 o
7256 1 0 -8 -7 187.71 152.75 29.72 o
7257 2 -6 8 -1 187.71 209.18 31.62 o
7257 1 0 -8 -7 187.71 209.18 31.62 o
7258 2 -6 8 -1 187.71 161.16 76.50 <
7258 1 0 -8 -7 187.71 161.16 76.50 <
7259 2 -6 8 -1 187.71 222.38 40.52 o
7259 1 0 -8 -7 187.71 222.38 40.52 o
7260 2 6 8 1 187.71 174.67 66.80 <
7260 1 0 -8 7 187.71 174.67 66.80 <
7261 2 -6 8 -2 3635.81 3489.67 140.96 o
7261 1 -1 -8 -7 3635.81 3489.67 140.96 o
7262 2 -6 8 -2 3635.81 3646.96 141.39 o
7262 1 -1 -8 -7 3635.81 3646.96 141.39 o
7263 2 6 8 2 3635.82 3797.14 184.37 o
7263 1 1 -8 7 3635.82 3797.14 184.37 o
7264 2 -6 8 -2 3635.81 3378.36 134.40 o
7264 1 -1 -8 -7 3635.81 3378.36 134.40 o
7265 2 -6 8 -2 3635.81 3407.95 191.31 o
7265 1 -1 -8 -7 3635.81 3407.95 191.31 o
7266 2 -6 8 -3 6622.90 6857.71 312.07 o
7266 1 -2 -8 -7 6622.90 6857.71 312.07 o
7267 2 6 8 3 6622.90 6790.05 294.45 o
7267 1 2 -8 7 6622.90 6790.05 294.45 o
7268 2 6 8 3 6622.90 6636.07 295.13 o
7268 1 2 -8 7 6622.90 6636.07 295.13 o
7269 2 -6 8 -3 6622.90 6092.84 237.05 o
7269 1 -2 -8 -7 6622.90 6092.84 237.05 o
7270 2 -6 8 -3 6622.90 6523.59 244.85 o
7270 1 -2 -8 -7 6622.90 6523.59 244.85 o
7271 2 7 9 -9 445.23 366.16 100.14 o
7271 1 -9 -9 7 445.23 366.16 100.14 o
7272 2 -7 9 9 445.23 267.38 88.04 o
7272 1 9 -9 -7 445.23 267.38 88.04 o
7273 2 7 9 -8 629.81 617.21 65.57 o
7273 1 -8 -9 7 629.81 617.21 65.57 o
7274 2 7 9 -8 629.81 712.99 96.27 o
7274 1 -8 -9 7 629.81 712.99 96.27 o
7275 2 -7 9 8 629.81 732.14 86.94 o
7275 1 8 -9 -7 629.81 732.14 86.94 o
7276 2 7 9 -7 433.85 406.56 62.07 o
7276 1 -7 -9 7 433.85 406.56 62.07 o
7277 2 -7 9 7 433.85 392.81 51.02 o
7277 1 7 -9 -7 433.85 392.81 51.02 o
7278 2 7 9 -7 433.85 443.71 42.12 o
7278 1 -7 -9 7 433.85 443.71 42.12 o
7279 2 7 9 -6 749.99 617.40 93.32 o
7279 1 -6 -9 7 749.99 617.40 93.32 o
7280 2 7 9 -6 749.99 813.68 61.40 o
7280 1 -6 -9 7 749.99 813.68 61.40 o
7281 2 -7 9 6 749.99 735.40 77.97 o
7281 1 6 -9 -7 749.99 735.40 77.97 o
7282 2 -7 9 5 777.08 777.09 106.15 o
7282 1 5 -9 -7 777.08 777.09 106.15 o
7283 2 7 9 -5 777.08 714.28 58.20 o
7283 1 -5 -9 7 777.08 714.28 58.20 o
7284 2 -7 9 5 777.08 695.12 78.22 o
7284 1 5 -9 -7 777.08 695.12 78.22 o
7285 2 -6 9 0 324.33 361.19 55.50 o
7285 1 1 -9 -7 324.33 361.19 55.50 o
7286 2 6 9 0 324.33 399.81 91.23 o
7286 1 -1 -9 7 324.33 399.81 91.23 o
7287 2 -6 9 0 324.33 245.21 73.06 o
7287 1 1 -9 -7 324.33 245.21 73.06 o
7288 2 -6 9 -1 946.78 900.18 61.15 o
7288 1 0 -9 -7 946.78 900.18 61.15 o
7289 2 6 9 1 946.78 952.43 95.96 o
7289 1 0 -9 7 946.78 952.43 95.96 o
7290 2 -6 9 -1 946.78 790.72 94.98 o
7290 1 0 -9 -7 946.78 790.72 94.98 o
7291 2 -6 9 -2 392.75 406.87 47.64 o
7291 1 -1 -9 -7 392.75 406.87 47.64 o
7292 2 -6 9 -2 392.75 345.96 88.96 o
7292 1 -1 -9 -7 392.75 345.96 88.96 o
7293 2 6 9 2 392.75 433.94 82.76 o
7293 1 1 -9 7 392.75 433.94 82.76 o
7294 2 -6 9 -3 476.05 408.59 125.06 o
7294 1 -2 -9 -7 476.05 408.59 125.06 o
7295 2 6 9 3 476.05 500.62 100.69 o
7295 1 2 -9 7 476.05 500.62 100.69 o
7296 2 -6 9 -3 476.05 488.95 46.48 o
7296 1 -2 -9 -7 476.05 488.95 46.48 o
7297 2 7 10 -9 402.04 438.98 104.00 o
7297 1 -9 -10 7 402.04 438.98 104.00 o
7298 2 -7 10 9 402.04 235.39 90.31 <
7298 1 9 -10 -7 402.04 235.39 90.31 <
7299 2 7 10 -8 777.71 869.36 71.65 o
7299 1 -8 -10 7 777.71 869.36 71.65 o
7300 2 -7 10 8 777.70 777.21 91.48 o
7300 1 8 -10 -7 777.70 777.21 91.48 o
7301 2 7 10 -8 777.71 768.18 98.85 o
7301 1 -8 -10 7 777.71 768.18 98.85 o
7302 2 7 10 -7 2218.00 2418.99 105.48 o
7302 1 -7 -10 7 2218.00 2418.99 105.48 o
7303 2 7 10 -7 2218.00 2388.78 143.18 o
7303 1 -7 -10 7 2218.00 2388.78 143.18 o
7304 2 -7 10 7 2218.00 2540.86 127.46 o
7304 1 7 -10 -7 2218.00 2540.86 127.46 o
7305 2 -7 10 6 222.86 248.16 66.37 o
7305 1 6 -10 -7 222.86 248.16 66.37 o
7306 2 7 10 -6 222.86 187.44 43.16 o
7306 1 -6 -10 7 222.86 187.44 43.16 o
7307 2 7 10 -6 222.86 261.73 82.58 o
7307 1 -6 -10 7 222.86 261.73 82.58 o
7308 2 6 10 0 1271.26 1424.19 123.10 o
7308 1 -1 -10 7 1271.26 1424.19 123.10 o
7309 2 -6 10 0 1271.26 1251.73 82.39 o
7309 1 1 -10 -7 1271.26 1251.73 82.39 o
7310 2 -6 10 0 1271.26 845.17 105.17 o
7310 1 1 -10 -7 1271.26 845.17 105.17 o
7311 2 -6 10 -1 1221.92 1118.01 110.33 o
7311 1 0 -10 -7 1221.92 1118.01 110.33 o
7312 2 6 10 1 1221.93 1284.15 109.35 o
7312 1 0 -10 7 1221.93 1284.15 109.35 o
7313 2 -6 10 -1 1221.92 1108.56 71.34 o
7313 1 0 -10 -7 1221.92 1108.56 71.34 o
7314 2 -6 10 -2 1063.73 1059.93 118.86 o
7314 1 -1 -10 -7 1063.73 1059.93 118.86 o
7315 2 6 10 2 1063.73 1115.01 106.83 o
7315 1 1 -10 7 1063.73 1115.01 106.83 o
7316 2 -6 10 -3 196.77 81.04 121.69 <
7316 1 -2 -10 -7 196.77 81.04 121.69 <
7317 2 7 11 -8 231.80 204.45 89.21 <
7317 1 -8 -11 7 231.80 204.45 89.21 <
7318 2 7 11 -7 920.98 916.94 53.84 o
7318 1 -7 -11 7 920.98 916.94 53.84 o
7319 2 -7 11 7 920.99 1082.65 82.21 o
7319 1 7 -11 -7 920.99 1082.65 82.21 o
7320 2 7 11 -7 920.98 939.48 95.84 o
7320 1 -7 -11 7 920.98 939.48 95.84 o
7321 2 -7 11 6 937.33 844.74 86.51 o
7321 1 6 -11 -7 937.33 844.74 86.51 o
7322 2 7 11 -6 937.33 827.06 105.17 o
7322 1 -6 -11 7 937.33 827.06 105.17 o
7323 2 -6 11 1 2061.88 1999.84 171.60 o
7323 1 2 -11 -7 2061.88 1999.84 171.60 o
7324 2 -6 11 0 698.74 600.02 101.06 o
7324 1 1 -11 -7 698.74 600.02 101.06 o
7325 2 6 11 0 698.74 791.57 114.01 o
7325 1 -1 -11 7 698.74 791.57 114.01 o
7326 2 -6 11 0 698.74 642.38 75.09 o
7326 1 1 -11 -7 698.74 642.38 75.09 o
7327 2 -6 11 -1 678.28 706.05 64.34 o
7327 1 0 -11 -7 678.28 706.05 64.34 o
7328 2 6 11 1 678.28 713.36 100.75 o
7328 1 0 -11 7 678.28 713.36 100.75 o
7329 2 -6 11 -1 678.28 659.14 107.63 o
7329 1 0 -11 -7 678.28 659.14 107.63 o
7330 2 -6 11 -2 386.71 373.53 120.76 o
7330 1 -1 -11 -7 386.71 373.53 120.76 o
7331 2 -6 12 1 154.61 155.58 145.20 <
7331 1 2 -12 -7 154.61 155.58 145.20 <
7332 2 6 12 0 358.12 493.19 116.47 o
7332 1 -1 -12 7 358.12 493.19 116.47 o
7333 2 -6 12 0 358.11 407.54 69.25 o
7333 1 1 -12 -7 358.11 407.54 69.25 o
7334 2 8 0 -9 437.25 533.84 60.66 o
7334 1 -9 0 8 437.25 533.84 60.66 o
7335 2 -8 0 8 10707.20 10272.70 419.70 o
7335 1 8 0 -8 10707.20 10272.70 419.70 o
7336 2 8 0 -8 10707.20 10527.40 375.07 o
7336 1 -8 0 8 10707.20 10527.40 375.07 o
7337 2 8 0 -7 1170.21 1167.50 72.32 o
7337 1 -7 0 8 1170.21 1167.50 72.32 o
7338 2 -8 0 7 1170.21 1115.74 54.64 o
7338 1 7 0 -8 1170.21 1115.74 54.64 o
7339 2 8 0 -7 1170.21 1021.68 73.37 o
7339 1 -7 0 8 1170.21 1021.68 73.37 o
7340 2 8 0 -6 4400.26 4145.37 167.73 o
7340 1 -6 0 8 4400.26 4145.37 167.73 o
7341 2 8 0 -6 4400.26 4198.60 170.01 o
7341 1 -6 0 8 4400.26 4198.60 170.01 o
7342 2 -7 0 0 1184.13 1066.07 62.19 o
7342 1 1 0 -8 1184.13 1066.07 62.19 o
7343 2 7 0 0 1184.13 1266.78 70.97 o
7343 1 -1 0 8 1184.13 1266.78 70.97 o
7344 2 7 0 0 1184.13 1157.49 51.76 o
7344 1 -1 0 8 1184.13 1157.49 51.76 o
7345 2 7 0 1 5596.63 6129.19 250.92 o
7345 1 0 0 8 5596.63 6129.19 250.92 o
7346 2 7 0 1 5596.63 6332.59 255.04 o
7346 1 0 0 8 5596.63 6332.59 255.04 o
7347 2 6 0 8 7894.14 7336.53 415.89 o
7347 1 6 0 8 7894.14 7336.53 415.89 o
7348 2 6 0 8 7894.14 8140.88 345.96 o
7348 1 6 0 8 7894.14 8140.88 345.96 o
7349 2 6 0 9 341.09 375.62 57.10 o
7349 1 7 0 8 341.09 375.62 57.10 o
7350 2 6 0 9 341.09 408.65 99.22 o
7350 1 7 0 8 341.09 408.65 99.22 o
7351 2 8 1 -10 1199.22 1470.36 94.55 o
7351 1 -10 -1 8 1199.22 1470.36 94.55 o
7352 2 -8 1 10 1199.22 1482.28 87.73 o
7352 1 10 -1 -8 1199.22 1482.28 87.73 o
7353 2 -8 1 9 3215.80 3735.25 160.12 o
7353 1 9 -1 -8 3215.80 3735.25 160.12 o
7354 2 8 1 -9 3215.81 3398.86 151.59 o
7354 1 -9 -1 8 3215.81 3398.86 151.59 o
7355 2 8 1 -8 112.35 91.30 23.76 o
7355 1 -8 -1 8 112.35 91.30 23.76 o
7356 2 8 1 -8 112.35 61.83 35.86 <
7356 1 -8 -1 8 112.35 61.83 35.86 <
7357 2 -8 1 8 112.34 83.31 15.66 o
7357 1 8 -1 -8 112.34 83.31 15.66 o
7358 2 8 -1 -8 98.55 177.25 31.00 o
7358 1 -8 1 8 98.55 177.25 31.00 o
7359 2 8 1 -7 2020.35 2072.16 98.48 o
7359 1 -7 -1 8 2020.35 2072.16 98.48 o
7360 2 8 1 -7 2020.35 2027.65 101.61 o
7360 1 -7 -1 8 2020.35 2027.65 101.61 o
7361 2 -8 1 7 2020.34 1909.28 87.00 o
7361 1 7 -1 -8 2020.34 1909.28 87.00 o
7362 2 8 -1 -7 2082.81 1944.65 98.23 o
7362 1 -7 1 8 2082.81 1944.65 98.23 o
7363 2 8 1 -6 2929.20 2848.88 125.06 o
7363 1 -6 -1 8 2929.20 2848.88 125.06 o
7364 2 8 1 -6 2929.20 2861.34 128.93 o
7364 1 -6 -1 8 2929.20 2861.34 128.93 o
7365 2 8 -1 -6 3007.18 2788.22 131.14 o
7365 1 -6 1 8 3007.18 2788.22 131.14 o
7366 2 8 -1 -6 3007.18 2941.96 128.87 o
7366 1 -6 1 8 3007.18 2941.96 128.87 o
7367 2 7 -1 -1 2293.76 2156.34 106.64 o
7367 1 -2 1 8 2293.76 2156.34 106.64 o
7368 2 7 1 0 3016.39 2888.30 118.43 o
7368 1 -1 -1 8 3016.39 2888.30 118.43 o
7369 2 -7 1 0 3016.39 2665.43 117.14 o
7369 1 1 -1 -8 3016.39 2665.43 117.14 o
7370 2 7 1 0 3016.39 2872.21 130.16 o
7370 1 -1 -1 8 3016.39 2872.21 130.16 o
7371 2 7 -1 0 2900.55 3484.94 151.03 o
7371 1 -1 1 8 2900.55 3484.94 151.03 o
7372 2 7 -1 0 2900.55 3507.90 142.87 o
7372 1 -1 1 8 2900.55 3507.90 142.87 o
7373 2 7 1 1 2356.92 2618.28 150.48 o
7373 1 0 -1 8 2356.92 2618.28 150.48 o
7374 2 7 1 1 2356.92 2510.96 118.56 o
7374 1 0 -1 8 2356.92 2510.96 118.56 o
7375 2 7 1 1 2356.92 2446.98 110.21 o
7375 1 0 -1 8 2356.92 2446.98 110.21 o
7376 2 7 -1 1 2327.86 2530.54 112.35 o
7376 1 0 1 8 2327.86 2530.54 112.35 o
7377 2 7 -1 1 2327.86 2465.40 108.18 o
7377 1 0 1 8 2327.86 2465.40 108.18 o
7378 2 7 -1 2 1515.53 1695.69 84.91 o
7378 1 1 1 8 1515.53 1695.69 84.91 o
7379 2 6 1 7 1023.16 1560.19 185.48 o
7379 1 5 -1 8 1023.16 1560.19 185.48 o
7380 2 6 1 8 3876.81 3827.59 196.22 o
7380 1 6 -1 8 3876.81 3827.59 196.22 o
7381 2 6 1 8 3876.81 4131.25 259.40 o
7381 1 6 -1 8 3876.81 4131.25 259.40 o
7382 2 6 -1 8 3836.61 4323.60 269.47 o
7382 1 6 1 8 3836.61 4323.60 269.47 o
7383 2 6 -1 8 3836.61 4296.71 215.56 o
7383 1 6 1 8 3836.61 4296.71 215.56 o
7384 2 6 1 9 787.36 970.85 133.23 o
7384 1 7 -1 8 787.36 970.85 133.23 o
7385 2 6 1 9 787.36 732.94 77.91 o
7385 1 7 -1 8 787.36 732.94 77.91 o
7386 2 6 -1 9 777.27 922.04 87.49 o
7386 1 7 1 8 777.27 922.04 87.49 o
7387 2 6 -1 9 777.27 957.90 117.51 o
7387 1 7 1 8 777.27 957.90 117.51 o
7388 2 8 2 -10 4042.18 3642.73 161.35 o
7388 1 -10 -2 8 4042.18 3642.73 161.35 o
7389 2 -8 2 10 4042.18 3921.22 173.63 o
7389 1 10 -2 -8 4042.18 3921.22 173.63 o
7390 2 8 2 -9 1413.82 1523.66 84.30 o
7390 1 -9 -2 8 1413.82 1523.66 84.30 o
7391 2 -8 2 9 1413.82 1507.39 79.38 o
7391 1 9 -2 -8 1413.82 1507.39 79.38 o
7392 2 8 2 -8 523.96 615.74 48.50 o
7392 1 -8 -2 8 523.96 615.74 48.50 o
7393 2 8 2 -8 523.96 697.46 69.75 o
7393 1 -8 -2 8 523.96 697.46 69.75 o
7394 2 8 2 -8 523.96 591.42 53.35 o
7394 1 -8 -2 8 523.96 591.42 53.35 o
7395 2 -8 2 8 523.96 628.14 39.91 o
7395 1 8 -2 -8 523.96 628.14 39.91 o
7396 2 8 2 -7 1034.81 1155.90 70.18 o
7396 1 -7 -2 8 1034.81 1155.90 70.18 o
7397 2 8 2 -7 1034.81 1198.93 76.81 o
7397 1 -7 -2 8 1034.81 1198.93 76.81 o
7398 2 -8 2 7 1034.82 1165.23 57.71 o
7398 1 7 -2 -8 1034.82 1165.23 57.71 o
7399 2 8 -2 -7 1150.09 1130.66 74.84 o
7399 1 -7 2 8 1150.09 1130.66 74.84 o
7400 2 8 2 -6 2938.79 2575.36 146.31 o
7400 1 -6 -2 8 2938.79 2575.36 146.31 o
7401 2 8 2 -6 2938.79 2902.91 125.43 o
7401 1 -6 -2 8 2938.79 2902.91 125.43 o
7402 2 8 -2 -6 3122.15 3210.07 143.05 o
7402 1 -6 2 8 3122.15 3210.07 143.05 o
7403 2 7 2 -1 1759.05 2020.10 121.19 o
7403 1 -2 -2 8 1759.05 2020.10 121.19 o
7404 2 7 2 0 2613.28 2726.58 150.30 o
7404 1 -1 -2 8 2613.28 2726.58 150.30 o
7405 2 7 2 0 2613.28 2572.05 114.32 o
7405 1 -1 -2 8 2613.28 2572.05 114.32 o
7406 2 7 2 0 2613.28 2704.05 127.58 o
7406 1 -1 -2 8 2613.28 2704.05 127.58 o
7407 2 7 -2 0 2491.73 2765.14 123.16 o
7407 1 -1 2 8 2491.73 2765.14 123.16 o
7408 2 7 2 1 3797.96 3804.50 161.90 o
7408 1 0 -2 8 3797.96 3804.50 161.90 o
7409 2 7 2 1 3797.96 3916.00 208.07 o
7409 1 0 -2 8 3797.96 3916.00 208.07 o
7410 2 7 2 1 3797.96 3636.03 165.46 o
7410 1 0 -2 8 3797.96 3636.03 165.46 o
7411 2 7 -2 1 3667.27 4130.52 170.13 o
7411 1 0 2 8 3667.27 4130.52 170.13 o
7412 2 7 2 2 1028.86 1048.15 108.98 o
7412 1 1 -2 8 1028.86 1048.15 108.98 o
7413 2 6 2 7 1055.80 1273.04 162.94 o
7413 1 5 -2 8 1055.80 1273.04 162.94 o
7414 2 6 2 8 37.05 36.04 66.49 <
7414 1 6 -2 8 37.05 36.04 66.49 <
7415 2 6 2 8 37.05 62.26 96.64 <
7415 1 6 -2 8 37.05 62.26 96.64 <
7416 2 6 2 9 252.94 251.85 50.28 o
7416 1 7 -2 8 252.94 251.85 50.28 o
7417 2 6 2 9 252.94 261.24 116.16 <
7417 1 7 -2 8 252.94 261.24 116.16 <
7418 2 6 -2 9 244.90 211.51 77.79 <
7418 1 7 2 8 244.90 211.51 77.79 <
7419 2 6 -2 9 244.90 264.37 54.58 o
7419 1 7 2 8 244.90 264.37 54.58 o
7420 2 -9 3 14 1633.49 1714.78 120.46 o
7420 1 13 -3 -8 1633.49 1714.78 120.46 o
7421 2 9 3 -14 1633.49 1925.18 146.61 o
7421 1 -13 -3 8 1633.49 1925.18 146.61 o
7422 2 -8 3 10 3045.70 3239.79 152.63 o
7422 1 10 -3 -8 3045.70 3239.79 152.63 o
7423 2 8 3 -10 3045.70 2972.16 138.51 o
7423 1 -10 -3 8 3045.70 2972.16 138.51 o
7424 2 8 3 -10 3045.70 3635.17 188.85 o
7424 1 -10 -3 8 3045.70 3635.17 188.85 o
7425 2 -8 3 9 973.59 949.24 61.21 o
7425 1 9 -3 -8 973.59 949.24 61.21 o
7426 2 8 3 -9 973.59 1043.42 99.22 o
7426 1 -9 -3 8 973.59 1043.42 99.22 o
7427 2 8 3 -9 973.59 969.68 66.80 o
7427 1 -9 -3 8 973.59 969.68 66.80 o
7428 2 8 3 -9 973.59 1003.88 78.95 o
7428 1 -9 -3 8 973.59 1003.88 78.95 o
7429 2 8 3 -8 2212.85 2247.14 96.76 o
7429 1 -8 -3 8 2212.85 2247.14 96.76 o
7430 2 8 3 -8 2212.85 2128.34 102.16 o
7430 1 -8 -3 8 2212.85 2128.34 102.16 o
7431 2 8 3 -8 2212.85 2118.52 131.02 o
7431 1 -8 -3 8 2212.85 2118.52 131.02 o
7432 2 -8 3 8 2212.86 2208.28 100.26 o
7432 1 8 -3 -8 2212.86 2208.28 100.26 o
7433 2 -8 3 7 4916.65 5374.57 204.20 o
7433 1 7 -3 -8 4916.65 5374.57 204.20 o
7434 2 8 3 -7 4916.64 4079.99 222.07 o
7434 1 -7 -3 8 4916.64 4079.99 222.07 o
7435 2 8 3 -7 4916.64 4914.48 189.47 o
7435 1 -7 -3 8 4916.64 4914.48 189.47 o
7436 2 8 3 -6 2843.31 2792.34 125.80 o
7436 1 -6 -3 8 2843.31 2792.34 125.80 o
7437 2 8 3 -6 2843.31 2887.38 159.57 o
7437 1 -6 -3 8 2843.31 2887.38 159.57 o
7438 2 7 3 0 20961.60 21819.10 891.53 o
7438 1 -1 -3 8 20961.60 21819.10 891.53 o
7439 2 7 3 0 20961.60 23159.30 1025.74 o
7439 1 -1 -3 8 20961.60 23159.30 1025.74 o
7440 2 7 3 0 20961.60 22128.20 853.34 o
7440 1 -1 -3 8 20961.60 22128.20 853.34 o
7441 2 7 3 1 970.01 962.56 54.52 o
7441 1 0 -3 8 970.01 962.56 54.52 o
7442 2 7 3 1 970.01 946.29 83.99 o
7442 1 0 -3 8 970.01 946.29 83.99 o
7443 2 -7 3 -1 970.02 865.74 46.84 o
7443 1 0 -3 -8 970.02 865.74 46.84 o
7444 2 7 3 1 970.01 940.15 70.18 o
7444 1 0 -3 8 970.01 940.15 70.18 o
7445 2 7 -3 1 865.64 972.63 57.47 o
7445 1 0 3 8 865.64 972.63 57.47 o
7446 2 -7 3 -2 1826.27 1654.00 74.29 o
7446 1 -1 -3 -8 1826.27 1654.00 74.29 o
7447 2 7 3 2 1826.27 2032.01 148.02 o
7447 1 1 -3 8 1826.27 2032.01 148.02 o
7448 2 -7 3 -2 1826.27 1777.83 85.16 o
7448 1 -1 -3 -8 1826.27 1777.83 85.16 o
7449 2 6 3 7 1898.80 2263.35 210.71 o
7449 1 5 -3 8 1898.80 2263.35 210.71 o
7450 2 6 3 8 356.45 405.15 76.68 o
7450 1 6 -3 8 356.45 405.15 76.68 o
7451 2 6 3 8 356.45 362.48 103.64 o
7451 1 6 -3 8 356.45 362.48 103.64 o
7452 2 6 3 9 379.67 378.14 57.28 o
7452 1 7 -3 8 379.67 378.14 57.28 o
7453 2 6 3 9 379.67 326.87 119.97 <
7453 1 7 -3 8 379.67 326.87 119.97 <
7454 2 6 -3 9 369.51 287.27 55.62 o
7454 1 7 3 8 369.51 287.27 55.62 o
7455 2 -9 4 14 984.73 1023.53 103.76 o
7455 1 13 -4 -8 984.73 1023.53 103.76 o
7456 2 9 4 -14 984.74 1345.98 136.24 o
7456 1 -13 -4 8 984.74 1345.98 136.24 o
7457 2 8 4 -10 1848.64 1876.13 146.37 o
7457 1 -10 -4 8 1848.64 1876.13 146.37 o
7458 2 8 4 -10 1848.64 1846.97 97.74 o
7458 1 -10 -4 8 1848.64 1846.97 97.74 o
7459 2 -8 4 10 1848.65 1934.64 104.62 o
7459 1 10 -4 -8 1848.65 1934.64 104.62 o
7460 2 8 4 -9 825.30 391.34 87.67 o
7460 1 -9 -4 8 825.30 391.34 87.67 o
7461 2 8 4 -9 825.30 807.11 73.80 o
7461 1 -9 -4 8 825.30 807.11 73.80 o
7462 2 -8 4 9 825.31 761.80 55.13 o
7462 1 9 -4 -8 825.31 761.80 55.13 o
7463 2 8 4 -9 825.30 733.98 55.93 o
7463 1 -9 -4 8 825.30 733.98 55.93 o
7464 2 8 4 -8 5317.79 3897.89 216.91 o
7464 1 -8 -4 8 5317.79 3897.89 216.91 o
7465 2 -8 4 8 5317.79 4162.62 189.28 o
7465 1 8 -4 -8 5317.79 4162.62 189.28 o
7466 2 -8 4 8 5317.79 4945.05 196.22 o
7466 1 8 -4 -8 5317.79 4945.05 196.22 o
7467 2 8 4 -8 5317.79 5035.00 181.79 o
7467 1 -8 -4 8 5317.79 5035.00 181.79 o
7468 2 8 4 -7 640.40 552.01 58.20 o
7468 1 -7 -4 8 640.40 552.01 58.20 o
7469 2 8 4 -7 640.40 535.98 84.36 o
7469 1 -7 -4 8 640.40 535.98 84.36 o
7470 2 -8 4 7 640.40 600.82 43.10 o
7470 1 7 -4 -8 640.40 600.82 43.10 o
7471 2 -8 4 6 2227.62 2246.04 109.16 o
7471 1 6 -4 -8 2227.62 2246.04 109.16 o
7472 2 8 4 -6 2227.61 2008.74 104.62 o
7472 1 -6 -4 8 2227.61 2008.74 104.62 o
7473 2 8 4 -6 2227.61 2158.43 137.10 o
7473 1 -6 -4 8 2227.61 2158.43 137.10 o
7474 2 7 4 -2 1380.20 1311.29 73.74 o
7474 1 -3 -4 8 1380.20 1311.29 73.74 o
7475 2 7 4 -1 764.44 768.37 55.13 o
7475 1 -2 -4 8 764.44 768.37 55.13 o
7476 2 7 4 -1 764.44 736.87 72.08 o
7476 1 -2 -4 8 764.44 736.87 72.08 o
7477 2 -7 4 1 764.44 704.82 52.12 o
7477 1 2 -4 -8 764.44 704.82 52.12 o
7478 2 7 4 -1 764.44 677.01 71.71 o
7478 1 -2 -4 8 764.44 677.01 71.71 o
7479 2 -7 4 0 1560.84 1342.17 65.75 o
7479 1 1 -4 -8 1560.84 1342.17 65.75 o
7480 2 7 4 0 1560.85 1435.61 89.82 o
7480 1 -1 -4 8 1560.85 1435.61 89.82 o
7481 2 7 4 0 1560.85 1547.91 102.16 o
7481 1 -1 -4 8 1560.85 1547.91 102.16 o
7482 2 -7 4 -1 457.45 428.91 34.38 o
7482 1 0 -4 -8 457.45 428.91 34.38 o
7483 2 7 4 1 457.45 470.72 65.57 o
7483 1 0 -4 8 457.45 470.72 65.57 o
7484 2 7 4 1 457.45 392.32 38.99 o
7484 1 0 -4 8 457.45 392.32 38.99 o
7485 2 7 4 1 457.45 414.79 57.96 o
7485 1 0 -4 8 457.45 414.79 57.96 o
7486 2 -7 4 -1 457.45 437.75 39.54 o
7486 1 0 -4 -8 457.45 437.75 39.54 o
7487 2 6 4 7 1065.88 964.28 157.97 o
7487 1 5 -4 8 1065.88 964.28 157.97 o
7488 2 6 4 8 1491.55 1566.45 114.93 o
7488 1 6 -4 8 1491.55 1566.45 114.93 o
7489 2 6 4 8 1491.55 1609.92 166.51 o
7489 1 6 -4 8 1491.55 1609.92 166.51 o
7490 2 6 4 9 20.19 40.83 37.39 <
7490 1 7 -4 8 20.19 40.83 37.39 <
7491 2 6 4 9 20.19 33.64 115.49 <
7491 1 7 -4 8 20.19 33.64 115.49 <
7492 2 -6 4 -9 20.19 41.14 47.64 <
7492 1 -7 -4 -8 20.19 41.14 47.64 <
7493 2 -8 5 10 478.17 444.38 86.57 o
7493 1 10 -5 -8 478.17 444.38 86.57 o
7494 2 8 5 -10 478.17 471.58 51.51 o
7494 1 -10 -5 8 478.17 471.58 51.51 o
7495 2 8 5 -10 478.17 177.25 104.07 <
7495 1 -10 -5 8 478.17 177.25 104.07 <
7496 2 8 5 -9 740.41 741.17 74.17 o
7496 1 -9 -5 8 740.41 741.17 74.17 o
7497 2 -8 5 9 740.42 627.77 79.57 o
7497 1 9 -5 -8 740.42 627.77 79.57 o
7498 2 -8 5 9 740.42 727.23 59.19 o
7498 1 9 -5 -8 740.42 727.23 59.19 o
7499 2 8 5 -8 1167.64 964.96 101.73 o
7499 1 -8 -5 8 1167.64 964.96 101.73 o
7500 2 8 5 -8 1167.64 1059.20 67.17 o
7500 1 -8 -5 8 1167.64 1059.20 67.17 o
7501 2 -8 5 8 1167.64 1125.44 62.62 o
7501 1 8 -5 -8 1167.64 1125.44 62.62 o
7502 2 -8 5 8 1167.64 1162.28 64.71 o
7502 1 8 -5 -8 1167.64 1162.28 64.71 o
7503 2 -8 5 8 1167.64 1163.32 81.78 o
7503 1 8 -5 -8 1167.64 1163.32 81.78 o
7504 2 8 5 -7 1952.57 2051.35 135.19 o
7504 1 -7 -5 8 1952.57 2051.35 135.19 o
7505 2 -8 5 7 1952.57 1857.22 114.38 o
7505 1 7 -5 -8 1952.57 1857.22 114.38 o
7506 2 -8 5 7 1952.57 2244.99 97.99 o
7506 1 7 -5 -8 1952.57 2244.99 97.99 o
7507 2 8 5 -7 1952.57 2012.43 101.36 o
7507 1 -7 -5 8 1952.57 2012.43 101.36 o
7508 2 8 5 -6 3248.10 3167.40 138.02 o
7508 1 -6 -5 8 3248.10 3167.40 138.02 o
7509 2 -8 5 6 3248.10 3275.09 148.70 o
7509 1 6 -5 -8 3248.10 3275.09 148.70 o
7510 2 -8 5 6 3248.10 3302.59 153.61 o
7510 1 6 -5 -8 3248.10 3302.59 153.61 o
7511 2 8 5 -6 3248.10 3328.99 176.45 o
7511 1 -6 -5 8 3248.10 3328.99 176.45 o
7512 2 -8 5 6 3248.10 3199.45 135.75 o
7512 1 6 -5 -8 3248.10 3199.45 135.75 o
7513 2 7 5 -1 2887.88 3064.56 119.23 o
7513 1 -2 -5 8 2887.88 3064.56 119.23 o
7514 2 -7 5 1 2887.88 2831.14 119.84 o
7514 1 2 -5 -8 2887.88 2831.14 119.84 o
7515 2 7 5 -1 2887.88 2932.99 149.68 o
7515 1 -2 -5 8 2887.88 2932.99 149.68 o
7516 2 7 5 0 590.91 549.18 72.51 o
7516 1 -1 -5 8 590.91 549.18 72.51 o
7517 2 -7 5 0 590.92 583.81 42.18 o
7517 1 1 -5 -8 590.92 583.81 42.18 o
7518 2 7 5 0 590.91 502.28 62.99 o
7518 1 -1 -5 8 590.91 502.28 62.99 o
7519 2 -7 5 0 590.92 586.45 43.90 o
7519 1 1 -5 -8 590.92 586.45 43.90 o
7520 2 7 5 1 2369.40 2320.20 114.56 o
7520 1 0 -5 8 2369.40 2320.20 114.56 o
7521 2 -7 5 -1 2369.41 2219.88 97.37 o
7521 1 0 -5 -8 2369.41 2219.88 97.37 o
7522 2 7 5 1 2369.40 2541.17 150.91 o
7522 1 0 -5 8 2369.40 2541.17 150.91 o
7523 2 -7 5 -1 2369.41 2294.72 97.62 o
7523 1 0 -5 -8 2369.41 2294.72 97.62 o
7524 2 7 5 1 2369.40 2495.24 128.93 o
7524 1 0 -5 8 2369.40 2495.24 128.93 o
7525 2 6 5 7 437.78 170.80 113.71 <
7525 1 5 -5 8 437.78 170.80 113.71 <
7526 2 6 5 8 2327.64 2119.32 197.33 o
7526 1 6 -5 8 2327.64 2119.32 197.33 o
7527 2 6 5 8 2327.64 2201.53 139.68 o
7527 1 6 -5 8 2327.64 2201.53 139.68 o
7528 2 -8 6 10 823.18 857.64 59.86 o
7528 1 10 -6 -8 823.18 857.64 59.86 o
7529 2 -8 6 10 823.18 762.35 97.74 o
7529 1 10 -6 -8 823.18 762.35 97.74 o
7530 2 -8 6 9 626.52 677.87 83.68 o
7530 1 9 -6 -8 626.52 677.87 83.68 o
7531 2 8 6 -9 626.52 715.93 73.74 o
7531 1 -9 -6 8 626.52 715.93 73.74 o
7532 2 -8 6 9 626.52 673.02 52.86 o
7532 1 9 -6 -8 626.52 673.02 52.86 o
7533 2 8 6 -9 626.52 471.89 97.86 o
7533 1 -9 -6 8 626.52 471.89 97.86 o
7534 2 -8 6 8 3743.73 3692.76 168.47 o
7534 1 8 -6 -8 3743.73 3692.76 168.47 o
7535 2 8 6 -8 3743.73 3638.92 197.57 o
7535 1 -8 -6 8 3743.73 3638.92 197.57 o
7536 2 8 6 -8 3743.73 3710.08 153.43 o
7536 1 -8 -6 8 3743.73 3710.08 153.43 o
7537 2 -8 6 8 3743.73 3777.61 145.88 o
7537 1 8 -6 -8 3743.73 3777.61 145.88 o
7538 2 -8 6 8 3743.73 3787.68 167.49 o
7538 1 8 -6 -8 3743.73 3787.68 167.49 o
7539 2 -8 6 7 806.35 825.59 79.75 o
7539 1 7 -6 -8 806.35 825.59 79.75 o
7540 2 -8 6 7 806.35 823.62 57.53 o
7540 1 7 -6 -8 806.35 823.62 57.53 o
7541 2 8 6 -7 806.35 803.36 66.18 o
7541 1 -7 -6 8 806.35 803.36 66.18 o
7542 2 8 6 -7 806.35 833.26 99.40 o
7542 1 -7 -6 8 806.35 833.26 99.40 o
7543 2 -8 6 6 1715.03 1779.74 88.47 o
7543 1 6 -6 -8 1715.03 1779.74 88.47 o
7544 2 8 6 -6 1715.03 1717.48 96.15 o
7544 1 -6 -6 8 1715.03 1717.48 96.15 o
7545 2 8 6 -6 1715.03 1705.69 130.04 o
7545 1 -6 -6 8 1715.03 1705.69 130.04 o
7546 2 -8 6 6 1715.03 1624.96 106.34 o
7546 1 6 -6 -8 1715.03 1624.96 106.34 o
7547 2 -8 6 6 1715.03 1923.59 105.48 o
7547 1 6 -6 -8 1715.03 1923.59 105.48 o
7548 2 -7 6 2 112.11 48.75 83.01 <
7548 1 3 -6 -8 112.11 48.75 83.01 <
7549 2 -7 6 1 650.74 765.05 59.68 o
7549 1 2 -6 -8 650.74 765.05 59.68 o
7550 2 7 6 -1 650.74 759.83 84.11 o
7550 1 -2 -6 8 650.74 759.83 84.11 o
7551 2 -7 6 1 650.74 691.68 105.36 o
7551 1 2 -6 -8 650.74 691.68 105.36 o
7552 2 -7 6 0 516.08 496.45 39.11 o
7552 1 1 -6 -8 516.08 496.45 39.11 o
7553 2 -7 6 0 516.08 543.23 49.61 o
7553 1 1 -6 -8 516.08 543.23 49.61 o
7554 2 -7 6 0 516.08 461.14 79.57 o
7554 1 1 -6 -8 516.08 461.14 79.57 o
7555 2 -7 6 0 516.08 555.63 44.27 o
7555 1 1 -6 -8 516.08 555.63 44.27 o
7556 2 7 6 0 516.08 579.51 70.61 o
7556 1 -1 -6 8 516.08 579.51 70.61 o
7557 2 -7 6 -1 969.06 880.54 51.14 o
7557 1 0 -6 -8 969.06 880.54 51.14 o
7558 2 -7 6 -1 969.06 869.55 51.27 o
7558 1 0 -6 -8 969.06 869.55 51.27 o
7559 2 -7 6 -1 969.06 701.51 98.36 o
7559 1 0 -6 -8 969.06 701.51 98.36 o
7560 2 7 6 1 969.05 876.24 80.43 o
7560 1 0 -6 8 969.05 876.24 80.43 o
7561 2 7 6 2 1397.79 1424.26 136.97 o
7561 1 1 -6 8 1397.79 1424.26 136.97 o
7562 2 -7 6 -2 1397.80 1342.29 69.07 o
7562 1 -1 -6 -8 1397.80 1342.29 69.07 o
7563 2 -7 6 -2 1397.80 1321.42 71.96 o
7563 1 -1 -6 -8 1397.80 1321.42 71.96 o
7564 2 6 6 7 708.70 54.70 107.57 <
7564 1 5 -6 8 708.70 54.70 107.57 <
7565 2 6 6 8 2993.47 2841.76 161.35 o
7565 1 6 -6 8 2993.47 2841.76 161.35 o
7566 2 6 6 8 2993.47 2768.33 240.92 o
7566 1 6 -6 8 2993.47 2768.33 240.92 o
7567 2 -6 6 -8 2993.47 2578.25 178.66 o
7567 1 -6 -6 -8 2993.47 2578.25 178.66 o
7568 2 -8 7 10 1785.91 1809.58 72.57 o
7568 1 10 -7 -8 1785.91 1809.58 72.57 o
7569 2 8 7 -10 1785.91 1342.11 153.55 o
7569 1 -10 -7 8 1785.91 1342.11 153.55 o
7570 2 -8 7 10 1785.91 1777.83 129.12 o
7570 1 10 -7 -8 1785.91 1777.83 129.12 o
7571 2 -8 7 9 1401.60 1392.70 106.09 o
7571 1 9 -7 -8 1401.60 1392.70 106.09 o
7572 2 8 7 -9 1401.60 1210.97 128.32 o
7572 1 -9 -7 8 1401.60 1210.97 128.32 o
7573 2 -8 7 9 1401.60 1419.65 62.99 o
7573 1 9 -7 -8 1401.60 1419.65 62.99 o
7574 2 8 7 -9 1401.60 1497.38 93.81 o
7574 1 -9 -7 8 1401.60 1497.38 93.81 o
7575 2 -8 7 8 327.46 321.04 48.87 o
7575 1 8 -7 -8 327.46 321.04 48.87 o
7576 2 8 7 -8 327.46 372.30 67.41 o
7576 1 -8 -7 8 327.46 372.30 67.41 o
7577 2 -8 7 8 327.46 321.47 30.39 o
7577 1 8 -7 -8 327.46 321.47 30.39 o
7578 2 8 7 -8 327.46 350.69 45.62 o
7578 1 -8 -7 8 327.46 350.69 45.62 o
7579 2 8 7 -7 2620.44 2629.58 155.33 o
7579 1 -7 -7 8 2620.44 2629.58 155.33 o
7580 2 -8 7 7 2620.44 2506.91 132.86 o
7580 1 7 -7 -8 2620.44 2506.91 132.86 o
7581 2 8 7 -7 2620.44 2666.84 118.06 o
7581 1 -7 -7 8 2620.44 2666.84 118.06 o
7582 2 -8 7 7 2620.44 2428.32 102.41 o
7582 1 7 -7 -8 2620.44 2428.32 102.41 o
7583 2 -8 7 6 2034.24 1956.19 90.31 o
7583 1 6 -7 -8 2034.24 1956.19 90.31 o
7584 2 8 7 -6 2034.24 1978.23 141.09 o
7584 1 -6 -7 8 2034.24 1978.23 141.09 o
7585 2 -8 7 6 2034.24 2037.35 118.49 o
7585 1 6 -7 -8 2034.24 2037.35 118.49 o
7586 2 -7 7 2 1605.37 1324.49 121.13 o
7586 1 3 -7 -8 1605.37 1324.49 121.13 o
7587 2 -7 7 1 162.39 130.65 46.66 <
7587 1 2 -7 -8 162.39 130.65 46.66 <
7588 2 -7 7 1 162.39 139.74 44.76 o
7588 1 2 -7 -8 162.39 139.74 44.76 o
7589 2 -7 7 1 162.39 118.86 33.95 o
7589 1 2 -7 -8 162.39 118.86 33.95 o
7590 2 -7 7 1 162.39 25.05 98.29 <
7590 1 2 -7 -8 162.39 25.05 98.29 <
7591 2 7 7 -1 162.39 169.70 73.61 <
7591 1 -2 -7 8 162.39 169.70 73.61 <
7592 2 -7 7 0 9447.79 8486.84 386.92 o
7592 1 1 -7 -8 9447.79 8486.84 386.92 o
7593 2 7 7 0 9447.80 9452.41 382.86 o
7593 1 -1 -7 8 9447.80 9452.41 382.86 o
7594 2 -7 7 0 9447.79 9393.04 330.31 o
7594 1 1 -7 -8 9447.79 9393.04 330.31 o
7595 2 -7 7 0 9447.79 9335.64 330.62 o
7595 1 1 -7 -8 9447.79 9335.64 330.62 o
7596 2 -7 7 0 9447.79 9110.38 321.71 o
7596 1 1 -7 -8 9447.79 9110.38 321.71 o
7597 2 -7 7 -1 870.47 700.71 94.79 o
7597 1 0 -7 -8 870.47 700.71 94.79 o
7598 2 -7 7 -1 870.47 797.71 53.17 o
7598 1 0 -7 -8 870.47 797.71 53.17 o
7599 2 7 7 1 870.47 810.30 85.77 o
7599 1 0 -7 8 870.47 810.30 85.77 o
7600 2 -7 7 -1 870.47 781.08 48.87 o
7600 1 0 -7 -8 870.47 781.08 48.87 o
7601 2 7 7 2 259.53 214.46 83.93 <
7601 1 1 -7 8 259.53 214.46 83.93 <
7602 2 -7 7 -2 259.53 152.14 124.39 <
7602 1 -1 -7 -8 259.53 152.14 124.39 <
7603 2 -7 7 -2 259.53 172.52 44.63 o
7603 1 -1 -7 -8 259.53 172.52 44.63 o
7604 2 8 8 -10 1421.34 1267.27 140.84 o
7604 1 -10 -8 8 1421.34 1267.27 140.84 o
7605 2 -8 8 10 1421.34 1362.98 121.56 o
7605 1 10 -8 -8 1421.34 1362.98 121.56 o
7606 2 8 8 -9 368.83 339.33 65.45 o
7606 1 -9 -8 8 368.83 339.33 65.45 o
7607 2 8 8 -9 368.83 280.45 99.89 <
7607 1 -9 -8 8 368.83 280.45 99.89 <
7608 2 -8 8 9 368.83 281.93 82.82 o
7608 1 9 -8 -8 368.83 281.93 82.82 o
7609 2 -8 8 8 203.40 179.83 44.45 o
7609 1 8 -8 -8 203.40 179.83 44.45 o
7610 2 8 8 -8 203.40 185.23 57.34 o
7610 1 -8 -8 8 203.40 185.23 57.34 o
7611 2 8 8 -8 203.40 211.14 35.30 o
7611 1 -8 -8 8 203.40 211.14 35.30 o
7612 2 8 8 -7 580.94 651.41 64.04 o
7612 1 -7 -8 8 580.94 651.41 64.04 o
7613 2 -8 8 7 580.94 536.60 77.73 o
7613 1 7 -8 -8 580.94 536.60 77.73 o
7614 2 8 8 -7 580.94 655.28 97.62 o
7614 1 -7 -8 8 580.94 655.28 97.62 o
7615 2 -7 8 1 1404.04 1500.39 67.78 o
7615 1 2 -8 -8 1404.04 1500.39 67.78 o
7616 2 -7 8 1 1404.04 1562.40 132.98 o
7616 1 2 -8 -8 1404.04 1562.40 132.98 o
7617 2 -7 8 1 1404.04 1264.87 81.17 o
7617 1 2 -8 -8 1404.04 1264.87 81.17 o
7618 2 -7 8 1 1404.04 1438.07 73.80 o
7618 1 2 -8 -8 1404.04 1438.07 73.80 o
7619 2 7 8 -1 1404.04 1440.89 116.41 o
7619 1 -2 -8 8 1404.04 1440.89 116.41 o
7620 2 -7 8 0 2063.13 2023.23 89.58 o
7620 1 1 -8 -8 2063.13 2023.23 89.58 o
7621 2 -7 8 0 2063.13 1864.46 138.02 o
7621 1 1 -8 -8 2063.13 1864.46 138.02 o
7622 2 -7 8 0 2063.13 1951.40 93.57 o
7622 1 1 -8 -8 2063.13 1951.40 93.57 o
7623 2 7 8 0 2063.13 2039.75 126.90 o
7623 1 -1 -8 8 2063.13 2039.75 126.90 o
7624 2 -7 8 0 2063.13 1927.70 83.13 o
7624 1 1 -8 -8 2063.13 1927.70 83.13 o
7625 2 7 8 1 1127.97 1197.34 101.92 o
7625 1 0 -8 8 1127.97 1197.34 101.92 o
7626 2 -7 8 -1 1127.97 1035.81 61.76 o
7626 1 0 -8 -8 1127.97 1035.81 61.76 o
7627 2 -7 8 -1 1127.97 1107.45 65.39 o
7627 1 0 -8 -8 1127.97 1107.45 65.39 o
7628 2 -7 8 -1 1127.97 1038.57 112.66 o
7628 1 0 -8 -8 1127.97 1038.57 112.66 o
7629 2 -7 8 -1 1127.97 1061.10 58.69 o
7629 1 0 -8 -8 1127.97 1061.10 58.69 o
7630 2 -7 8 -2 294.32 96.58 119.91 <
7630 1 -1 -8 -8 294.32 96.58 119.91 <
7631 2 7 8 2 294.32 326.99 93.87 o
7631 1 1 -8 8 294.32 326.99 93.87 o
7632 2 -7 8 -2 294.32 258.54 47.89 o
7632 1 -1 -8 -8 294.32 258.54 47.89 o
7633 2 8 9 -10 981.46 987.12 138.32 o
7633 1 -10 -9 8 981.46 987.12 138.32 o
7634 2 -8 9 10 981.45 892.75 118.62 o
7634 1 10 -9 -8 981.45 892.75 118.62 o
7635 2 -8 9 9 1183.70 1195.43 110.21 o
7635 1 9 -9 -8 1183.70 1195.43 110.21 o
7636 2 8 9 -9 1183.69 1072.27 83.44 o
7636 1 -9 -9 8 1183.69 1072.27 83.44 o
7637 2 8 9 -9 1183.69 1194.15 127.09 o
7637 1 -9 -9 8 1183.69 1194.15 127.09 o
7638 2 -8 9 8 507.22 479.50 60.90 o
7638 1 8 -9 -8 507.22 479.50 60.90 o
7639 2 8 9 -8 507.22 585.35 55.32 o
7639 1 -8 -9 8 507.22 585.35 55.32 o
7640 2 8 9 -8 507.22 523.83 78.34 o
7640 1 -8 -9 8 507.22 523.83 78.34 o
7641 2 8 9 -7 1021.51 1029.42 115.36 o
7641 1 -7 -9 8 1021.51 1029.42 115.36 o
7642 2 -8 9 7 1021.51 962.74 93.38 o
7642 1 7 -9 -8 1021.51 962.74 93.38 o
7643 2 8 9 -7 1021.51 1118.57 73.74 o
7643 1 -7 -9 8 1021.51 1118.57 73.74 o
7644 2 -8 9 6 1438.59 1342.05 104.80 o
7644 1 6 -9 -8 1438.59 1342.05 104.80 o
7645 2 8 9 -5 724.26 670.01 59.43 o
7645 1 -5 -9 8 724.26 670.01 59.43 o
7646 2 -7 9 1 493.72 524.87 102.78 o
7646 1 2 -9 -8 493.72 524.87 102.78 o
7647 2 7 9 -1 493.72 540.53 95.96 o
7647 1 -2 -9 8 493.72 540.53 95.96 o
7648 2 -7 9 1 493.72 417.80 58.63 o
7648 1 2 -9 -8 493.72 417.80 58.63 o
7649 2 7 9 0 2982.45 3116.26 165.65 o
7649 1 -1 -9 8 2982.45 3116.26 165.65 o
7650 2 -7 9 0 2982.44 2745.67 171.23 o
7650 1 1 -9 -8 2982.44 2745.67 171.23 o
7651 2 -7 9 0 2982.44 2704.23 123.90 o
7651 1 1 -9 -8 2982.44 2704.23 123.90 o
7652 2 -7 9 -1 656.93 642.75 55.75 o
7652 1 0 -9 -8 656.93 642.75 55.75 o
7653 2 -7 9 -1 656.93 466.18 95.35 o
7653 1 0 -9 -8 656.93 466.18 95.35 o
7654 2 -7 9 -1 656.93 635.81 39.97 o
7654 1 0 -9 -8 656.93 635.81 39.97 o
7655 2 -7 9 -1 656.93 602.66 39.23 o
7655 1 0 -9 -8 656.93 602.66 39.23 o
7656 2 7 9 1 656.93 615.00 91.91 o
7656 1 0 -9 8 656.93 615.00 91.91 o
7657 2 7 9 2 402.77 368.07 102.71 o
7657 1 1 -9 8 402.77 368.07 102.71 o
7658 2 -7 9 -2 402.77 378.38 45.06 o
7658 1 -1 -9 -8 402.77 378.38 45.06 o
7659 2 -7 9 -2 402.77 114.13 119.42 <
7659 1 -1 -9 -8 402.77 114.13 119.42 <
7660 2 8 10 -9 254.22 148.15 96.33 <
7660 1 -9 -10 8 254.22 148.15 96.33 <
7661 2 8 10 -9 254.22 342.16 67.29 o
7661 1 -9 -10 8 254.22 342.16 67.29 o
7662 2 -8 10 9 254.22 205.68 88.66 <
7662 1 9 -10 -8 254.22 205.68 88.66 <
7663 2 -8 10 8 3729.19 4160.48 187.20 o
7663 1 8 -10 -8 3729.19 4160.48 187.20 o
7664 2 8 10 -8 3729.20 3884.99 211.45 o
7664 1 -8 -10 8 3729.20 3884.99 211.45 o
7665 2 8 10 -8 3729.20 3943.75 159.26 o
7665 1 -8 -10 8 3729.20 3943.75 159.26 o
7666 2 8 10 -7 542.35 519.22 105.85 o
7666 1 -7 -10 8 542.35 519.22 105.85 o
7667 2 8 10 -7 542.35 628.38 59.55 o
7667 1 -7 -10 8 542.35 628.38 59.55 o
7668 2 -8 10 7 542.35 431.43 81.47 o
7668 1 7 -10 -8 542.35 431.43 81.47 o
7669 2 -8 10 6 672.92 549.98 87.43 o
7669 1 6 -10 -8 672.92 549.98 87.43 o
7670 2 8 10 -6 672.92 578.41 117.63 o
7670 1 -6 -10 8 672.92 578.41 117.63 o
7671 2 8 10 -6 672.92 583.14 56.05 o
7671 1 -6 -10 8 672.92 583.14 56.05 o
7672 2 -7 10 2 270.49 462.12 121.75 o
7672 1 3 -10 -8 270.49 462.12 121.75 o
7673 2 -7 10 1 343.12 218.08 59.74 o
7673 1 2 -10 -8 343.12 218.08 59.74 o
7674 2 7 10 -1 343.12 420.19 100.57 o
7674 1 -2 -10 8 343.12 420.19 100.57 o
7675 2 -7 10 1 343.12 171.66 79.45 <
7675 1 2 -10 -8 343.12 171.66 79.45 <
7676 2 -7 10 0 416.08 306.61 70.85 o
7676 1 1 -10 -8 416.08 306.61 70.85 o
7677 2 -7 10 0 416.08 333.19 54.09 o
7677 1 1 -10 -8 416.08 333.19 54.09 o
7678 2 7 10 0 416.09 389.80 84.73 o
7678 1 -1 -10 8 416.09 389.80 84.73 o
7679 2 -7 10 -1 313.16 310.54 108.36 <
7679 1 0 -10 -8 313.16 310.54 108.36 <
7680 2 -7 10 -1 313.16 354.07 51.08 o
7680 1 0 -10 -8 313.16 354.07 51.08 o
7681 2 7 10 1 313.16 351.67 87.37 o
7681 1 0 -10 8 313.16 351.67 87.37 o
7682 2 -7 10 -2 863.31 536.41 141.33 o
7682 1 -1 -10 -8 863.31 536.41 141.33 o
7683 2 7 10 2 863.30 788.75 119.35 o
7683 1 1 -10 8 863.30 788.75 119.35 o
7684 2 8 11 -7 335.17 274.87 98.48 <
7684 1 -7 -11 8 335.17 274.87 98.48 <
7685 2 -8 11 6 1238.58 1265.36 107.81 o
7685 1 6 -11 -8 1238.58 1265.36 107.81 o
7686 2 8 11 -6 1238.58 1102.17 137.53 o
7686 1 -6 -11 8 1238.58 1102.17 137.53 o
7687 2 -7 11 2 1968.34 2654.56 198.49 o
7687 1 3 -11 -8 1968.34 2654.56 198.49 o
7688 2 7 11 -1 805.51 778.01 119.42 o
7688 1 -2 -11 8 805.51 778.01 119.42 o
7689 2 -7 11 1 805.51 796.49 79.08 o
7689 1 2 -11 -8 805.51 796.49 79.08 o
7690 2 -7 11 1 805.51 1051.58 132.74 o
7690 1 2 -11 -8 805.51 1051.58 132.74 o
7691 2 -7 11 0 81.44 134.70 51.20 <
7691 1 1 -11 -8 81.44 134.70 51.20 <
7692 2 7 11 0 81.44 102.22 82.70 <
7692 1 -1 -11 8 81.44 102.22 82.70 <
7693 2 -7 11 0 81.44 78.16 57.47 <
7693 1 1 -11 -8 81.44 78.16 57.47 <
7694 2 -7 11 -1 310.96 128.68 108.92 <
7694 1 0 -11 -8 310.96 128.68 108.92 <
7695 2 7 11 1 310.96 363.15 94.43 o
7695 1 0 -11 8 310.96 363.15 94.43 o
7696 2 9 0 -9 4543.95 4585.89 184.31 o
7696 1 -9 0 9 4543.95 4585.89 184.31 o
7697 2 9 0 -8 728.62 821.29 68.95 o
7697 1 -8 0 9 728.62 821.29 68.95 o
7698 2 9 0 -7 1547.24 1640.18 95.41 o
7698 1 -7 0 9 1547.24 1640.18 95.41 o
7699 2 8 0 -3 1085.30 924.80 73.61 o
7699 1 -4 0 9 1085.30 924.80 73.61 o
7700 2 8 0 -2 18737.00 19116.10 729.99 o
7700 1 -3 0 9 18737.00 19116.10 729.99 o
7701 2 8 0 -2 18737.00 18834.80 646.50 o
7701 1 -3 0 9 18737.00 18834.80 646.50 o
7702 2 8 0 -1 350.38 379.42 46.35 o
7702 1 -2 0 9 350.38 379.42 46.35 o
7703 2 8 0 -1 350.38 348.85 48.50 o
7703 1 -2 0 9 350.38 348.85 48.50 o
7704 2 8 0 0 531.97 685.73 59.12 o
7704 1 -1 0 9 531.97 685.73 59.12 o
7705 2 8 0 1 22082.00 23238.60 880.23 o
7705 1 0 0 9 22082.00 23238.60 880.23 o
7706 2 7 0 7 441.97 551.03 113.28 o
7706 1 5 0 9 441.97 551.03 113.28 o
7707 2 7 0 8 285.06 382.49 95.90 o
7707 1 6 0 9 285.06 382.49 95.90 o
7708 2 9 1 -10 1901.98 1983.94 105.91 o
7708 1 -10 -1 9 1901.98 1983.94 105.91 o
7709 2 9 1 -9 443.56 392.56 40.95 o
7709 1 -9 -1 9 443.56 392.56 40.95 o
7710 2 9 1 -8 3527.14 3310.33 142.50 o
7710 1 -8 -1 9 3527.14 3310.33 142.50 o
7711 2 9 -1 -8 3204.74 3501.64 153.80 o
7711 1 -8 1 9 3204.74 3501.64 153.80 o
7712 2 9 1 -7 2122.01 2078.18 112.60 o
7712 1 -7 -1 9 2122.01 2078.18 112.60 o
7713 2 9 1 -7 2122.01 2190.35 106.64 o
7713 1 -7 -1 9 2122.01 2190.35 106.64 o
7714 2 9 -1 -7 2140.38 2161.99 113.77 o
7714 1 -7 1 9 2140.38 2161.99 113.77 o
7715 2 8 -1 -3 3478.12 3486.35 147.72 o
7715 1 -4 1 9 3478.12 3486.35 147.72 o
7716 2 8 1 -2 3265.68 3277.18 168.29 o
7716 1 -3 -1 9 3265.68 3277.18 168.29 o
7717 2 8 1 -2 3265.68 3185.08 154.47 o
7717 1 -3 -1 9 3265.68 3185.08 154.47 o
7718 2 8 1 -2 3265.68 3163.96 137.83 o
7718 1 -3 -1 9 3265.68 3163.96 137.83 o
7719 2 8 -1 -2 3046.19 3543.70 150.73 o
7719 1 -3 1 9 3046.19 3543.70 150.73 o
7720 2 8 1 -1 803.84 889.50 61.76 o
7720 1 -2 -1 9 803.84 889.50 61.76 o
7721 2 8 1 -1 803.84 897.48 66.92 o
7721 1 -2 -1 9 803.84 897.48 66.92 o
7722 2 8 -1 -1 813.60 830.56 64.59 o
7722 1 -2 1 9 813.60 830.56 64.59 o
7723 2 8 -1 -1 813.60 811.59 63.11 o
7723 1 -2 1 9 813.60 811.59 63.11 o
7724 2 8 1 0 2226.20 2531.34 124.57 o
7724 1 -1 -1 9 2226.20 2531.34 124.57 o
7725 2 8 -1 0 2516.24 2245.18 107.75 o
7725 1 -1 1 9 2516.24 2245.18 107.75 o
7726 2 8 1 1 2200.26 2180.47 114.13 o
7726 1 0 -1 9 2200.26 2180.47 114.13 o
7727 2 8 -1 1 2143.45 2327.02 114.44 o
7727 1 0 1 9 2143.45 2327.02 114.44 o
7728 2 7 1 6 448.81 735.58 147.16 o
7728 1 4 -1 9 448.81 735.58 147.16 o
7729 2 7 1 7 283.30 481.71 108.43 o
7729 1 5 -1 9 283.30 481.71 108.43 o
7730 2 7 -1 7 287.88 431.73 101.79 o
7730 1 5 1 9 287.88 431.73 101.79 o
7731 2 7 1 8 789.08 986.14 137.04 o
7731 1 6 -1 9 789.08 986.14 137.04 o
7732 2 7 -1 8 767.13 1050.54 136.97 o
7732 1 6 1 9 767.13 1050.54 136.97 o
7733 2 9 2 -11 1174.58 1067.36 87.18 o
7733 1 -11 -2 9 1174.58 1067.36 87.18 o
7734 2 9 2 -10 3301.69 3602.02 156.56 o
7734 1 -10 -2 9 3301.69 3602.02 156.56 o
7735 2 9 2 -9 22.35 6.75 18.36 <
7735 1 -9 -2 9 22.35 6.75 18.36 <
7736 2 9 2 -9 22.35 35.06 48.87 <
7736 1 -9 -2 9 22.35 35.06 48.87 <
7737 2 9 2 -8 2375.05 2172.55 113.09 o
7737 1 -8 -2 9 2375.05 2172.55 113.09 o
7738 2 9 2 -8 2375.05 2311.61 106.71 o
7738 1 -8 -2 9 2375.05 2311.61 106.71 o
7739 2 9 2 -7 5257.76 5222.68 248.28 o
7739 1 -7 -2 9 5257.76 5222.68 248.28 o
7740 2 9 2 -7 5257.76 5373.96 210.34 o
7740 1 -7 -2 9 5257.76 5373.96 210.34 o
7741 2 8 2 -3 3307.36 3160.40 136.18 o
7741 1 -4 -2 9 3307.36 3160.40 136.18 o
7742 2 8 2 -2 2342.31 2062.03 117.33 o
7742 1 -3 -2 9 2342.31 2062.03 117.33 o
7743 2 8 2 -2 2342.31 2100.34 103.02 o
7743 1 -3 -2 9 2342.31 2100.34 103.02 o
7744 2 8 2 -2 2342.31 2151.79 121.62 o
7744 1 -3 -2 9 2342.31 2151.79 121.62 o
7745 2 8 2 -1 2709.55 2964.92 158.89 o
7745 1 -2 -2 9 2709.55 2964.92 158.89 o
7746 2 8 2 -1 2709.55 2816.77 121.81 o
7746 1 -2 -2 9 2709.55 2816.77 121.81 o
7747 2 8 2 -1 2709.55 2786.75 138.57 o
7747 1 -2 -2 9 2709.55 2786.75 138.57 o
7748 2 8 -2 -1 2609.45 2819.72 130.96 o
7748 1 -2 2 9 2609.45 2819.72 130.96 o
7749 2 8 2 0 3880.95 3982.61 178.60 o
7749 1 -1 -2 9 3880.95 3982.61 178.60 o
7750 2 8 2 0 3880.95 3954.12 209.24 o
7750 1 -1 -2 9 3880.95 3954.12 209.24 o
7751 2 8 -2 0 3827.52 4396.85 186.09 o
7751 1 -1 2 9 3827.52 4396.85 186.09 o
7752 2 8 2 1 811.84 792.43 92.83 o
7752 1 0 -2 9 811.84 792.43 92.83 o
7753 2 8 2 1 811.84 796.67 74.78 o
7753 1 0 -2 9 811.84 796.67 74.78 o
7754 2 8 -2 1 663.61 983.80 65.63 o
7754 1 0 2 9 663.61 983.80 65.63 o
7755 2 7 2 6 191.40 361.01 125.31 <
7755 1 4 -2 9 191.40 361.01 125.31 <
7756 2 7 2 7 147.57 258.41 98.85 <
7756 1 5 -2 9 147.57 258.41 98.85 <
7757 2 7 2 8 222.04 212.61 111.31 <
7757 1 6 -2 9 222.04 212.61 111.31 <
7758 2 7 -2 8 221.47 298.93 98.85 o
7758 1 6 2 9 221.47 298.93 98.85 o
7759 2 9 3 -11 360.15 436.52 66.55 o
7759 1 -11 -3 9 360.15 436.52 66.55 o
7760 2 9 3 -11 360.15 707.09 105.85 o
7760 1 -11 -3 9 360.15 707.09 105.85 o
7761 2 9 3 -10 813.68 1025.86 105.05 o
7761 1 -10 -3 9 813.68 1025.86 105.05 o
7762 2 9 3 -10 813.68 823.19 67.29 o
7762 1 -10 -3 9 813.68 823.19 67.29 o
7763 2 9 3 -9 2108.93 1989.03 103.27 o
7763 1 -9 -3 9 2108.93 1989.03 103.27 o
7764 2 9 3 -9 2108.93 2186.73 131.02 o
7764 1 -9 -3 9 2108.93 2186.73 131.02 o
7765 2 9 3 -9 2108.93 2086.41 96.15 o
7765 1 -9 -3 9 2108.93 2086.41 96.15 o
7766 2 9 3 -8 768.68 739.70 69.93 o
7766 1 -8 -3 9 768.68 739.70 69.93 o
7767 2 9 3 -8 768.68 602.29 85.28 o
7767 1 -8 -3 9 768.68 602.29 85.28 o
7768 2 9 3 -7 3364.61 3257.71 141.95 o
7768 1 -7 -3 9 3364.61 3257.71 141.95 o
7769 2 9 3 -7 3364.61 2850.60 171.79 o
7769 1 -7 -3 9 3364.61 2850.60 171.79 o
7770 2 8 3 -3 1381.12 1346.28 80.92 o
7770 1 -4 -3 9 1381.12 1346.28 80.92 o
7771 2 8 3 -2 797.31 846.22 72.32 o
7771 1 -3 -3 9 797.31 846.22 72.32 o
7772 2 8 3 -2 797.31 752.34 62.38 o
7772 1 -3 -3 9 797.31 752.34 62.38 o
7773 2 8 3 -2 797.31 804.04 75.95 o
7773 1 -3 -3 9 797.31 804.04 75.95 o
7774 2 8 3 -1 7540.49 8044.61 326.81 o
7774 1 -2 -3 9 7540.49 8044.61 326.81 o
7775 2 8 3 -1 7540.49 7834.39 379.73 o
7775 1 -2 -3 9 7540.49 7834.39 379.73 o
7776 2 8 3 -1 7540.49 7789.82 283.22 o
7776 1 -2 -3 9 7540.49 7789.82 283.22 o
7777 2 8 3 0 1350.71 1370.66 90.07 o
7777 1 -1 -3 9 1350.71 1370.66 90.07 o
7778 2 8 3 0 1350.71 1509.29 105.72 o
7778 1 -1 -3 9 1350.71 1509.29 105.72 o
7779 2 8 -3 0 1325.33 1441.57 79.08 o
7779 1 -1 3 9 1325.33 1441.57 79.08 o
7780 2 -8 3 -1 1733.28 1728.47 79.32 o
7780 1 0 -3 -9 1733.28 1728.47 79.32 o
7781 2 8 3 1 1733.28 1867.96 136.36 o
7781 1 0 -3 9 1733.28 1867.96 136.36 o
7782 2 8 3 1 1733.28 1772.06 109.59 o
7782 1 0 -3 9 1733.28 1772.06 109.59 o
7783 2 7 3 6 3205.70 3139.47 242.27 o
7783 1 4 -3 9 3205.70 3139.47 242.27 o
7784 2 7 3 7 573.91 614.94 118.06 o
7784 1 5 -3 9 573.91 614.94 118.06 o
7785 2 7 3 8 450.14 498.47 135.19 o
7785 1 6 -3 9 450.14 498.47 135.19 o
7786 2 9 4 -11 944.19 1167.50 124.14 o
7786 1 -11 -4 9 944.19 1167.50 124.14 o
7787 2 9 4 -11 944.19 1012.66 76.38 o
7787 1 -11 -4 9 944.19 1012.66 76.38 o
7788 2 9 4 -10 2073.24 2224.24 148.27 o
7788 1 -10 -4 9 2073.24 2224.24 148.27 o
7789 2 9 4 -10 2073.24 2032.69 100.07 o
7789 1 -10 -4 9 2073.24 2032.69 100.07 o
7790 2 9 4 -9 870.78 716.36 83.25 o
7790 1 -9 -4 9 870.78 716.36 83.25 o
7791 2 -9 4 9 870.78 832.46 74.90 o
7791 1 9 -4 -9 870.78 832.46 74.90 o
7792 2 9 4 -9 870.78 763.89 62.44 o
7792 1 -9 -4 9 870.78 763.89 62.44 o
7793 2 9 4 -8 1110.08 850.70 105.79 o
7793 1 -8 -4 9 1110.08 850.70 105.79 o
7794 2 9 4 -8 1110.08 1327.93 83.38 o
7794 1 -8 -4 9 1110.08 1327.93 83.38 o
7795 2 9 4 -7 2892.51 2977.44 132.86 o
7795 1 -7 -4 9 2892.51 2977.44 132.86 o
7796 2 9 4 -7 2892.51 2665.55 168.29 o
7796 1 -7 -4 9 2892.51 2665.55 168.29 o
7797 2 8 4 -2 429.27 411.60 53.91 o
7797 1 -3 -4 9 429.27 411.60 53.91 o
7798 2 8 4 -2 429.27 434.44 69.56 o
7798 1 -3 -4 9 429.27 434.44 69.56 o
7799 2 8 4 -2 429.27 435.91 64.83 o
7799 1 -3 -4 9 429.27 435.91 64.83 o
7800 2 -8 4 1 1823.84 1841.44 86.45 o
7800 1 2 -4 -9 1823.84 1841.44 86.45 o
7801 2 8 4 -1 1823.84 1873.98 117.76 o
7801 1 -2 -4 9 1823.84 1873.98 117.76 o
7802 2 8 4 -1 1823.84 1864.03 90.50 o
7802 1 -2 -4 9 1823.84 1864.03 90.50 o
7803 2 8 4 -1 1823.84 1973.26 113.09 o
7803 1 -2 -4 9 1823.84 1973.26 113.09 o
7804 2 -8 4 0 2354.81 2368.71 103.39 o
7804 1 1 -4 -9 2354.81 2368.71 103.39 o
7805 2 8 4 0 2354.81 2639.64 132.98 o
7805 1 -1 -4 9 2354.81 2639.64 132.98 o
7806 2 8 4 0 2354.81 2522.56 151.83 o
7806 1 -1 -4 9 2354.81 2522.56 151.83 o
7807 2 8 4 1 3416.13 3725.55 211.14 o
7807 1 0 -4 9 3416.13 3725.55 211.14 o
7808 2 -8 4 -1 3416.13 3275.33 138.63 o
7808 1 0 -4 -9 3416.13 3275.33 138.63 o
7809 2 8 4 1 3416.13 3366.32 168.71 o
7809 1 0 -4 9 3416.13 3366.32 168.71 o
7810 2 -8 4 -1 3416.13 3313.22 132.68 o
7810 1 0 -4 -9 3416.13 3313.22 132.68 o
7811 2 7 4 6 22.79 114.75 127.46 <
7811 1 4 -4 9 22.79 114.75 127.46 <
7812 2 7 4 7 69.85 89.15 114.50 <
7812 1 5 -4 9 69.85 89.15 114.50 <
7813 2 -7 4 -8 24.67 -13.02 48.38 <
7813 1 -6 -4 -9 24.67 -13.02 48.38 <
7814 2 7 4 8 24.67 -47.21 106.28 <
7814 1 6 -4 9 24.67 -47.21 106.28 <
7815 2 9 5 -11 705.06 799.31 122.67 o
7815 1 -11 -5 9 705.06 799.31 122.67 o
7816 2 -9 5 11 705.06 656.50 96.70 o
7816 1 11 -5 -9 705.06 656.50 96.70 o
7817 2 -9 5 10 1908.08 2050.80 125.43 o
7817 1 10 -5 -9 1908.08 2050.80 125.43 o
7818 2 9 5 -10 1908.08 2054.85 114.44 o
7818 1 -10 -5 9 1908.08 2054.85 114.44 o
7819 2 9 5 -10 1908.08 1569.76 140.10 o
7819 1 -10 -5 9 1908.08 1569.76 140.10 o
7820 2 9 5 -9 1619.77 997.31 110.94 o
7820 1 -9 -5 9 1619.77 997.31 110.94 o
7821 2 9 5 -9 1619.77 1550.98 83.99 o
7821 1 -9 -5 9 1619.77 1550.98 83.99 o
7822 2 -9 5 9 1619.76 1384.29 97.99 o
7822 1 9 -5 -9 1619.76 1384.29 97.99 o
7823 2 9 5 -8 782.18 580.13 101.55 o
7823 1 -8 -5 9 782.18 580.13 101.55 o
7824 2 9 5 -8 782.18 780.58 70.24 o
7824 1 -8 -5 9 782.18 780.58 70.24 o
7825 2 -9 5 8 782.18 375.25 78.59 o
7825 1 8 -5 -9 782.18 375.25 78.59 o
7826 2 9 5 -7 819.03 826.08 115.30 o
7826 1 -7 -5 9 819.03 826.08 115.30 o
7827 2 9 5 -7 819.03 942.36 80.06 o
7827 1 -7 -5 9 819.03 942.36 80.06 o
7828 2 8 5 -3 1402.82 1319.21 80.31 o
7828 1 -4 -5 9 1402.82 1319.21 80.31 o
7829 2 8 5 -2 1711.67 1936.79 120.64 o
7829 1 -3 -5 9 1711.67 1936.79 120.64 o
7830 2 -8 5 2 1711.66 1745.23 92.83 o
7830 1 3 -5 -9 1711.66 1745.23 92.83 o
7831 2 8 5 -2 1711.67 1919.53 92.09 o
7831 1 -3 -5 9 1711.67 1919.53 92.09 o
7832 2 8 5 -1 388.23 415.89 66.12 o
7832 1 -2 -5 9 388.23 415.89 66.12 o
7833 2 -8 5 1 388.23 421.42 41.87 o
7833 1 2 -5 -9 388.23 421.42 41.87 o
7834 2 8 5 0 2284.96 2395.60 134.15 o
7834 1 -1 -5 9 2284.96 2395.60 134.15 o
7835 2 -8 5 0 2284.96 2361.52 103.33 o
7835 1 1 -5 -9 2284.96 2361.52 103.33 o
7836 2 -8 5 0 2284.96 2371.84 104.07 o
7836 1 1 -5 -9 2284.96 2371.84 104.07 o
7837 2 8 5 0 2284.96 2561.18 152.02 o
7837 1 -1 -5 9 2284.96 2561.18 152.02 o
7838 2 8 5 1 2639.61 2856.80 178.17 o
7838 1 0 -5 9 2639.61 2856.80 178.17 o
7839 2 -8 5 -1 2639.61 2573.03 110.51 o
7839 1 0 -5 -9 2639.61 2573.03 110.51 o
7840 2 8 5 1 2639.61 2477.87 145.75 o
7840 1 0 -5 9 2639.61 2477.87 145.75 o
7841 2 7 5 6 1209.60 319.63 106.21 o
7841 1 4 -5 9 1209.60 319.63 106.21 o
7842 2 7 5 7 1264.71 839.03 135.56 o
7842 1 5 -5 9 1264.71 839.03 135.56 o
7843 2 9 6 -11 682.37 337.55 112.05 o
7843 1 -11 -6 9 682.37 337.55 112.05 o
7844 2 -9 6 11 682.36 472.75 103.70 o
7844 1 11 -6 -9 682.36 472.75 103.70 o
7845 2 -9 6 10 718.74 588.60 88.41 o
7845 1 10 -6 -9 718.74 588.60 88.41 o
7846 2 9 6 -10 718.74 723.36 81.90 o
7846 1 -10 -6 9 718.74 723.36 81.90 o
7847 2 9 6 -9 3263.71 3141.49 131.57 o
7847 1 -9 -6 9 3263.71 3141.49 131.57 o
7848 2 -9 6 9 3263.70 2912.24 150.11 o
7848 1 9 -6 -9 3263.70 2912.24 150.11 o
7849 2 9 6 -9 3263.71 2388.97 169.02 o
7849 1 -9 -6 9 3263.71 2388.97 169.02 o
7850 2 -9 6 8 899.72 531.75 85.03 o
7850 1 8 -6 -9 899.72 531.75 85.03 o
7851 2 9 6 -8 899.72 935.85 76.13 o
7851 1 -8 -6 9 899.72 935.85 76.13 o
7852 2 9 6 -8 899.72 687.57 111.74 o
7852 1 -8 -6 9 899.72 687.57 111.74 o
7853 2 -9 6 7 1287.24 944.20 102.41 o
7853 1 7 -6 -9 1287.24 944.20 102.41 o
7854 2 9 6 -7 1287.24 1229.75 128.44 o
7854 1 -7 -6 9 1287.24 1229.75 128.44 o
7855 2 -8 6 3 572.26 560.36 103.08 o
7855 1 4 -6 -9 572.26 560.36 103.08 o
7856 2 -8 6 2 3871.01 4009.44 205.06 o
7856 1 3 -6 -9 3871.01 4009.44 205.06 o
7857 2 -8 6 2 3871.01 3658.93 149.01 o
7857 1 3 -6 -9 3871.01 3658.93 149.01 o
7858 2 -8 6 2 3871.01 3801.43 159.08 o
7858 1 3 -6 -9 3871.01 3801.43 159.08 o
7859 2 8 6 -2 3871.01 4068.14 194.62 o
7859 1 -3 -6 9 3871.01 4068.14 194.62 o
7860 2 8 6 -2 3871.01 4054.88 154.23 o
7860 1 -3 -6 9 3871.01 4054.88 154.23 o
7861 2 -8 6 1 847.11 858.43 49.85 o
7861 1 2 -6 -9 847.11 858.43 49.85 o
7862 2 8 6 -1 847.11 811.28 81.53 o
7862 1 -2 -6 9 847.11 811.28 81.53 o
7863 2 -8 6 1 847.11 687.69 95.22 o
7863 1 2 -6 -9 847.11 687.69 95.22 o
7864 2 -8 6 1 847.11 716.43 55.26 o
7864 1 2 -6 -9 847.11 716.43 55.26 o
7865 2 -8 6 0 1067.57 634.77 97.37 o
7865 1 1 -6 -9 1067.57 634.77 97.37 o
7866 2 -8 6 0 1067.57 1005.72 55.32 o
7866 1 1 -6 -9 1067.57 1005.72 55.32 o
7867 2 -8 6 0 1067.57 919.28 57.71 o
7867 1 1 -6 -9 1067.57 919.28 57.71 o
7868 2 8 6 0 1067.58 1062.82 88.04 o
7868 1 -1 -6 9 1067.58 1062.82 88.04 o
7869 2 -8 6 -1 6295.03 5687.94 221.15 o
7869 1 0 -6 -9 6295.03 5687.94 221.15 o
7870 2 8 6 1 6295.04 6468.58 273.70 o
7870 1 0 -6 9 6295.04 6468.58 273.70 o
7871 2 -8 6 -1 6295.03 5877.10 222.19 o
7871 1 0 -6 -9 6295.03 5877.10 222.19 o
7872 2 -7 6 -7 131.88 63.36 118.86 <
7872 1 -5 -6 -9 131.88 63.36 118.86 <
7873 2 9 7 -11 880.83 -161.72 98.79 <
7873 1 -11 -7 9 880.83 -161.72 98.79 <
7874 2 -9 7 11 880.83 689.90 103.14 o
7874 1 11 -7 -9 880.83 689.90 103.14 o
7875 2 -9 7 10 1365.12 1205.75 110.88 o
7875 1 10 -7 -9 1365.12 1205.75 110.88 o
7876 2 -9 7 10 1365.12 1267.64 64.96 o
7876 1 10 -7 -9 1365.12 1267.64 64.96 o
7877 2 9 7 -10 1365.12 1395.71 95.72 o
7877 1 -10 -7 9 1365.12 1395.71 95.72 o
7878 2 9 7 -9 67.75 70.54 42.61 <
7878 1 -9 -7 9 67.75 70.54 42.61 <
7879 2 -9 7 9 67.75 54.34 42.42 <
7879 1 9 -7 -9 67.75 54.34 42.42 <
7880 2 9 7 -9 67.75 55.56 56.05 <
7880 1 -9 -7 9 67.75 55.56 56.05 <
7881 2 -9 7 9 67.75 44.82 18.60 <
7881 1 9 -7 -9 67.75 44.82 18.60 <
7882 2 -9 7 8 1021.63 962.13 102.10 o
7882 1 8 -7 -9 1021.63 962.13 102.10 o
7883 2 -9 7 8 1021.63 995.90 60.78 o
7883 1 8 -7 -9 1021.63 995.90 60.78 o
7884 2 9 7 -8 1021.64 1066.50 81.35 o
7884 1 -8 -7 9 1021.64 1066.50 81.35 o
7885 2 9 7 -8 1021.64 853.58 124.69 o
7885 1 -8 -7 9 1021.64 853.58 124.69 o
7886 2 -9 7 7 2876.52 2948.96 159.69 o
7886 1 7 -7 -9 2876.52 2948.96 159.69 o
7887 2 -9 7 7 2876.52 3039.88 128.56 o
7887 1 7 -7 -9 2876.52 3039.88 128.56 o
7888 2 9 7 -7 2876.52 2986.16 188.98 o
7888 1 -7 -7 9 2876.52 2986.16 188.98 o
7889 2 -8 7 2 701.03 748.54 112.11 o
7889 1 3 -7 -9 701.03 748.54 112.11 o
7890 2 -8 7 2 701.03 678.30 49.42 o
7890 1 3 -7 -9 701.03 678.30 49.42 o
7891 2 8 7 -2 701.03 589.40 88.23 o
7891 1 -3 -7 9 701.03 589.40 88.23 o
7892 2 -8 7 2 701.03 561.83 61.27 o
7892 1 3 -7 -9 701.03 561.83 61.27 o
7893 2 -8 7 2 701.03 656.81 58.39 o
7893 1 3 -7 -9 701.03 656.81 58.39 o
7894 2 -8 7 1 588.90 531.44 41.81 o
7894 1 2 -7 -9 588.90 531.44 41.81 o
7895 2 8 7 -1 588.90 563.80 79.14 o
7895 1 -2 -7 9 588.90 563.80 79.14 o
7896 2 -8 7 1 588.90 434.62 88.72 o
7896 1 2 -7 -9 588.90 434.62 88.72 o
7897 2 -8 7 1 588.90 472.50 47.95 o
7897 1 2 -7 -9 588.90 472.50 47.95 o
7898 2 8 7 0 613.03 560.05 83.38 o
7898 1 -1 -7 9 613.03 560.05 83.38 o
7899 2 -8 7 0 613.03 528.31 43.10 o
7899 1 1 -7 -9 613.03 528.31 43.10 o
7900 2 -8 7 0 613.03 321.65 89.76 o
7900 1 1 -7 -9 613.03 321.65 89.76 o
7901 2 -8 7 0 613.03 592.10 51.39 o
7901 1 1 -7 -9 613.03 592.10 51.39 o
7902 2 -8 7 -1 204.41 148.64 44.76 o
7902 1 0 -7 -9 204.41 148.64 44.76 o
7903 2 -8 7 -1 204.41 -58.14 124.14 <
7903 1 0 -7 -9 204.41 -58.14 124.14 <
7904 2 8 7 1 204.41 182.47 87.86 <
7904 1 0 -7 9 204.41 182.47 87.86 <
7905 2 -8 7 -1 204.41 175.90 48.87 o
7905 1 0 -7 -9 204.41 175.90 48.87 o
7906 2 -7 7 -6 3408.50 2850.91 204.32 o
7906 1 -4 -7 -9 3408.50 2850.91 204.32 o
7907 2 9 8 -11 355.49 411.60 86.38 o
7907 1 -11 -8 9 355.49 411.60 86.38 o
7908 2 9 8 -11 355.49 40.58 115.79 <
7908 1 -11 -8 9 355.49 40.58 115.79 <
7909 2 -9 8 11 355.49 40.34 97.43 <
7909 1 11 -8 -9 355.49 40.34 97.43 <
7910 2 9 8 -10 2781.42 2171.69 183.33 o
7910 1 -10 -8 9 2781.42 2171.69 183.33 o
7911 2 -9 8 10 2781.43 2776.25 165.71 o
7911 1 10 -8 -9 2781.43 2776.25 165.71 o
7912 2 9 8 -10 2781.42 2987.02 138.63 o
7912 1 -10 -8 9 2781.42 2987.02 138.63 o
7913 2 -9 8 9 397.64 239.63 55.01 o
7913 1 9 -8 -9 397.64 239.63 55.01 o
7914 2 9 8 -9 397.64 437.69 79.26 o
7914 1 -9 -8 9 397.64 437.69 79.26 o
7915 2 9 8 -9 397.64 410.12 54.76 o
7915 1 -9 -8 9 397.64 410.12 54.76 o
7916 2 9 8 -8 673.21 697.95 72.45 o
7916 1 -8 -8 9 673.21 697.95 72.45 o
7917 2 9 8 -8 673.21 730.42 115.24 o
7917 1 -8 -8 9 673.21 730.42 115.24 o
7918 2 -9 8 8 673.21 495.22 91.42 o
7918 1 8 -8 -9 673.21 495.22 91.42 o
7919 2 9 8 -7 2950.51 3140.88 196.59 o
7919 1 -7 -8 9 2950.51 3140.88 196.59 o
7920 2 -9 8 7 2950.51 2909.29 162.21 o
7920 1 7 -8 -9 2950.51 2909.29 162.21 o
7921 2 -8 8 2 518.23 509.15 52.31 o
7921 1 3 -8 -9 518.23 509.15 52.31 o
7922 2 -8 8 2 518.23 543.84 105.48 o
7922 1 3 -8 -9 518.23 543.84 105.48 o
7923 2 8 8 -2 518.23 503.32 94.18 o
7923 1 -3 -8 9 518.23 503.32 94.18 o
7924 2 -8 8 2 518.23 465.75 60.97 o
7924 1 3 -8 -9 518.23 465.75 60.97 o
7925 2 -8 8 2 518.23 415.10 42.06 o
7925 1 3 -8 -9 518.23 415.10 42.06 o
7926 2 8 8 -1 241.07 164.48 75.52 <
7926 1 -2 -8 9 241.07 164.48 75.52 <
7927 2 -8 8 1 241.07 210.10 34.87 o
7927 1 2 -8 -9 241.07 210.10 34.87 o
7928 2 -8 8 1 241.07 248.35 41.32 o
7928 1 2 -8 -9 241.07 248.35 41.32 o
7929 2 -8 8 1 241.07 242.02 44.45 o
7929 1 2 -8 -9 241.07 242.02 44.45 o
7930 2 -8 8 1 241.07 222.50 90.62 <
7930 1 2 -8 -9 241.07 222.50 90.62 <
7931 2 -8 8 0 926.40 923.94 62.50 o
7931 1 1 -8 -9 926.40 923.94 62.50 o
7932 2 -8 8 0 926.40 720.54 111.37 o
7932 1 1 -8 -9 926.40 720.54 111.37 o
7933 2 -8 8 0 926.40 911.60 55.99 o
7933 1 1 -8 -9 926.40 911.60 55.99 o
7934 2 -8 8 0 926.40 991.29 64.40 o
7934 1 1 -8 -9 926.40 991.29 64.40 o
7935 2 8 8 0 926.40 1014.99 100.07 o
7935 1 -1 -8 9 926.40 1014.99 100.07 o
7936 2 -8 8 -1 665.57 511.49 51.57 o
7936 1 0 -8 -9 665.57 511.49 51.57 o
7937 2 -8 8 -1 665.57 175.29 130.10 <
7937 1 0 -8 -9 665.57 175.29 130.10 <
7938 2 8 8 1 665.57 759.77 107.44 o
7938 1 0 -8 9 665.57 759.77 107.44 o
7939 2 9 9 -10 285.00 203.83 113.40 <
7939 1 -10 -9 9 285.00 203.83 113.40 <
7940 2 -9 9 9 344.36 327.24 59.92 o
7940 1 9 -9 -9 344.36 327.24 59.92 o
7941 2 9 9 -9 344.36 377.15 45.74 o
7941 1 -9 -9 9 344.36 377.15 45.74 o
7942 2 9 9 -9 344.36 372.86 80.37 o
7942 1 -9 -9 9 344.36 372.86 80.37 o
7943 2 9 9 -8 738.18 848.98 77.05 o
7943 1 -8 -9 9 738.18 848.98 77.05 o
7944 2 -9 9 8 738.18 679.16 95.35 o
7944 1 8 -9 -9 738.18 679.16 95.35 o
7945 2 9 9 -8 738.18 642.87 119.23 o
7945 1 -8 -9 9 738.18 642.87 119.23 o
7946 2 -9 9 7 379.27 405.64 92.89 o
7946 1 7 -9 -9 379.27 405.64 92.89 o
7947 2 9 9 -7 379.27 345.96 121.19 <
7947 1 -7 -9 9 379.27 345.96 121.19 <
7948 2 8 9 -2 891.91 870.10 110.33 o
7948 1 -3 -9 9 891.91 870.10 110.33 o
7949 2 -8 9 2 891.91 856.78 74.96 o
7949 1 3 -9 -9 891.91 856.78 74.96 o
7950 2 -8 9 2 891.91 907.00 114.63 o
7950 1 3 -9 -9 891.91 907.00 114.63 o
7951 2 -8 9 1 530.08 505.90 33.95 o
7951 1 2 -9 -9 530.08 505.90 33.95 o
7952 2 -8 9 1 530.08 639.25 58.51 o
7952 1 2 -9 -9 530.08 639.25 58.51 o
7953 2 -8 9 1 530.08 597.87 90.74 o
7953 1 2 -9 -9 530.08 597.87 90.74 o
7954 2 8 9 -1 530.08 553.17 90.44 o
7954 1 -2 -9 9 530.08 553.17 90.44 o
7955 2 -8 9 0 502.50 496.08 40.46 o
7955 1 1 -9 -9 502.50 496.08 40.46 o
7956 2 -8 9 0 502.50 452.67 53.54 o
7956 1 1 -9 -9 502.50 452.67 53.54 o
7957 2 -8 9 0 502.50 413.68 107.44 o
7957 1 1 -9 -9 502.50 413.68 107.44 o
7958 2 8 9 0 502.50 557.47 92.34 o
7958 1 -1 -9 9 502.50 557.47 92.34 o
7959 2 -8 9 -1 467.78 288.99 135.99 <
7959 1 0 -9 -9 467.78 288.99 135.99 <
7960 2 8 9 1 467.77 456.42 109.04 o
7960 1 0 -9 9 467.77 456.42 109.04 o
7961 2 9 10 -8 362.90 428.85 115.42 o
7961 1 -8 -10 9 362.90 428.85 115.42 o
7962 2 -9 10 8 362.90 355.79 91.97 o
7962 1 8 -10 -9 362.90 355.79 91.97 o
7963 2 9 10 -8 362.90 533.71 63.18 o
7963 1 -8 -10 9 362.90 533.71 63.18 o
7964 2 9 10 -7 440.64 459.30 61.27 o
7964 1 -7 -10 9 440.64 459.30 61.27 o
7965 2 -9 10 7 440.64 363.28 99.58 o
7965 1 7 -10 -9 440.64 363.28 99.58 o
7966 2 9 10 -7 440.64 425.04 123.83 o
7966 1 -7 -10 9 440.64 425.04 123.83 o
7967 2 -8 10 3 276.51 337.92 121.38 <
7967 1 4 -10 -9 276.51 337.92 121.38 <
7968 2 -8 10 2 2105.33 2128.22 115.42 o
7968 1 3 -10 -9 2105.33 2128.22 115.42 o
7969 2 8 10 -2 2105.33 2130.37 159.51 o
7969 1 -3 -10 9 2105.33 2130.37 159.51 o
7970 2 -8 10 2 2105.33 2357.59 167.37 o
7970 1 3 -10 -9 2105.33 2357.59 167.37 o
7971 2 -8 10 1 312.67 379.12 92.65 o
7971 1 2 -10 -9 312.67 379.12 92.65 o
7972 2 8 10 -1 312.67 472.81 94.92 o
7972 1 -2 -10 9 312.67 472.81 94.92 o
7973 2 -8 10 1 312.67 310.85 53.72 o
7973 1 2 -10 -9 312.67 310.85 53.72 o
7974 2 -8 10 0 449.48 440.76 58.26 o
7974 1 1 -10 -9 449.48 440.76 58.26 o
7975 2 8 10 0 449.48 650.12 99.77 o
7975 1 -1 -10 9 449.48 650.12 99.77 o
7976 2 -8 10 0 449.48 361.56 115.61 o
7976 1 1 -10 -9 449.48 361.56 115.61 o
7977 2 -8 10 -1 3810.11 2849.62 230.29 o
7977 1 0 -10 -9 3810.11 2849.62 230.29 o
7978 2 8 10 1 3810.11 4061.63 206.84 o
7978 1 0 -10 9 3810.11 4061.63 206.84 o
7979 2 -8 11 3 309.70 357.38 131.39 <
7979 1 4 -11 -9 309.70 357.38 131.39 <
7980 2 -8 11 2 475.45 748.84 137.96 o
7980 1 3 -11 -9 475.45 748.84 137.96 o
7981 2 -8 11 2 475.45 338.47 70.91 o
7981 1 3 -11 -9 475.45 338.47 70.91 o
7982 2 8 11 -2 475.45 512.84 113.28 o
7982 1 -3 -11 9 475.45 512.84 113.28 o
7983 2 8 11 -1 123.14 247.49 94.00 <
7983 1 -2 -11 9 123.14 247.49 94.00 <
7984 2 10 0 -9 1256.66 1154.30 83.13 o
7984 1 -9 0 10 1256.66 1154.30 83.13 o
7985 2 10 0 -8 531.74 495.83 72.69 o
7985 1 -8 0 10 531.74 495.83 72.69 o
7986 2 9 0 -3 1035.15 1134.90 81.72 o
7986 1 -4 0 10 1035.15 1134.90 81.72 o
7987 2 9 0 -3 1035.15 1065.71 86.14 o
7987 1 -4 0 10 1035.15 1065.71 86.14 o
7988 2 9 0 -2 891.93 999.64 69.38 o
7988 1 -3 0 10 891.93 999.64 69.38 o
7989 2 9 0 -2 891.93 881.70 71.96 o
7989 1 -3 0 10 891.93 881.70 71.96 o
7990 2 9 0 -1 576.48 619.17 62.50 o
7990 1 -2 0 10 576.48 619.17 62.50 o
7991 2 9 0 -1 576.48 589.15 62.01 o
7991 1 -2 0 10 576.48 589.15 62.01 o
7992 2 9 0 0 1431.36 1435.98 95.04 o
7992 1 -1 0 10 1431.36 1435.98 95.04 o
7993 2 8 0 6 23.75 143.30 91.85 <
7993 1 4 0 10 23.75 143.30 91.85 <
7994 2 8 0 7 505.86 553.24 103.02 o
7994 1 5 0 10 505.86 553.24 103.02 o
7995 2 10 1 -10 585.07 518.24 59.19 o
7995 1 -10 -1 10 585.07 518.24 59.19 o
7996 2 10 1 -10 585.07 518.42 48.75 o
7996 1 -10 -1 10 585.07 518.42 48.75 o
7997 2 10 1 -9 2511.84 2704.23 130.22 o
7997 1 -9 -1 10 2511.84 2704.23 130.22 o
7998 2 9 1 -3 4171.86 4011.65 205.00 o
7998 1 -4 -1 10 4171.86 4011.65 205.00 o
7999 2 9 1 -3 4171.86 4156.12 172.28 o
7999 1 -4 -1 10 4171.86 4156.12 172.28 o
8000 2 9 1 -3 4171.86 4230.71 194.32 o
8000 1 -4 -1 10 4171.86 4230.71 194.32 o
8001 2 9 1 -2 4401.21 5182.96 224.40 o
8001 1 -3 -1 10 4401.21 5182.96 224.40 o
8002 2 9 1 -2 4401.21 4979.86 250.86 o
8002 1 -3 -1 10 4401.21 4979.86 250.86 o
8003 2 9 1 -2 4401.21 5027.87 200.95 o
8003 1 -3 -1 10 4401.21 5027.87 200.95 o
8004 2 9 -1 -2 4513.16 4232.80 188.67 o
8004 1 -3 1 10 4513.16 4232.80 188.67 o
8005 2 9 1 -1 2818.98 2843.48 160.18 o
8005 1 -2 -1 10 2818.98 2843.48 160.18 o
8006 2 9 1 -1 2818.98 2944.41 132.31 o
8006 1 -2 -1 10 2818.98 2944.41 132.31 o
8007 2 9 1 -1 2818.98 2880.01 141.76 o
8007 1 -2 -1 10 2818.98 2880.01 141.76 o
8008 2 9 -1 -1 2803.26 2752.31 132.86 o
8008 1 -2 1 10 2803.26 2752.31 132.86 o
8009 2 9 1 0 1166.18 1250.02 93.57 o
8009 1 -1 -1 10 1166.18 1250.02 93.57 o
8010 2 9 1 0 1166.18 1517.02 117.14 o
8010 1 -1 -1 10 1166.18 1517.02 117.14 o
8011 2 9 -1 0 1141.57 975.95 77.42 o
8011 1 -1 1 10 1141.57 975.95 77.42 o
8012 2 8 1 5 625.98 982.02 166.44 o
8012 1 3 -1 10 625.98 982.02 166.44 o
8013 2 8 1 6 1631.04 1731.91 158.40 o
8013 1 4 -1 10 1631.04 1731.91 158.40 o
8014 2 8 -1 6 1735.30 1681.38 160.00 o
8014 1 4 1 10 1735.30 1681.38 160.00 o
8015 2 8 1 7 650.92 678.67 117.94 o
8015 1 5 -1 10 650.92 678.67 117.94 o
8016 2 8 -1 7 672.37 714.65 114.20 o
8016 1 5 1 10 672.37 714.65 114.20 o
8017 2 10 2 -12 741.32 847.93 88.90 o
8017 1 -12 -2 10 741.32 847.93 88.90 o
8018 2 10 2 -11 2603.86 2688.82 129.67 o
8018 1 -11 -2 10 2603.86 2688.82 129.67 o
8019 2 10 2 -10 690.29 698.07 78.46 o
8019 1 -10 -2 10 690.29 698.07 78.46 o
8020 2 10 2 -10 690.29 709.49 61.03 o
8020 1 -10 -2 10 690.29 709.49 61.03 o
8021 2 10 2 -9 2610.11 2587.09 152.26 o
8021 1 -9 -2 10 2610.11 2587.09 152.26 o
8022 2 10 2 -9 2610.11 2651.19 126.11 o
8022 1 -9 -2 10 2610.11 2651.19 126.11 o
8023 2 10 2 -8 2933.28 2980.82 173.50 o
8023 1 -8 -2 10 2933.28 2980.82 173.50 o
8024 2 9 2 -3 1232.11 1292.56 100.93 o
8024 1 -4 -2 10 1232.11 1292.56 100.93 o
8025 2 9 2 -3 1232.11 1369.00 88.41 o
8025 1 -4 -2 10 1232.11 1369.00 88.41 o
8026 2 9 2 -3 1232.11 1332.16 85.89 o
8026 1 -4 -2 10 1232.11 1332.16 85.89 o
8027 2 9 2 -2 1003.14 1034.52 76.50 o
8027 1 -3 -2 10 1003.14 1034.52 76.50 o
8028 2 9 2 -2 1003.14 943.28 80.06 o
8028 1 -3 -2 10 1003.14 943.28 80.06 o
8029 2 9 2 -2 1003.14 1145.34 74.78 o
8029 1 -3 -2 10 1003.14 1145.34 74.78 o
8030 2 9 2 -1 3685.05 3957.38 208.56 o
8030 1 -2 -2 10 3685.05 3957.38 208.56 o
8031 2 9 2 -1 3685.05 4020.98 185.29 o
8031 1 -2 -2 10 3685.05 4020.98 185.29 o
8032 2 9 -2 -1 3898.18 3582.07 161.59 o
8032 1 -2 2 10 3898.18 3582.07 161.59 o
8033 2 9 2 0 311.51 486.99 79.69 o
8033 1 -1 -2 10 311.51 486.99 79.69 o
8034 2 9 2 0 311.51 452.24 72.82 o
8034 1 -1 -2 10 311.51 452.24 72.82 o
8035 2 9 -2 0 420.85 384.58 59.74 o
8035 1 -1 2 10 420.85 384.58 59.74 o
8036 2 8 2 5 3084.78 3378.73 248.16 o
8036 1 3 -2 10 3084.78 3378.73 248.16 o
8037 2 8 2 6 2348.11 2429.00 189.04 o
8037 1 4 -2 10 2348.11 2429.00 189.04 o
8038 2 8 2 7 1364.84 1727.73 174.98 o
8038 1 5 -2 10 1364.84 1727.73 174.98 o
8039 2 8 -2 7 1412.93 1999.16 205.18 o
8039 1 5 2 10 1412.93 1999.16 205.18 o
8040 2 10 3 -12 919.97 847.32 83.74 o
8040 1 -12 -3 10 919.97 847.32 83.74 o
8041 2 10 3 -12 919.97 1079.09 121.13 o
8041 1 -12 -3 10 919.97 1079.09 121.13 o
8042 2 10 3 -11 255.75 212.24 58.20 o
8042 1 -11 -3 10 255.75 212.24 58.20 o
8043 2 10 3 -11 255.75 357.81 87.43 o
8043 1 -11 -3 10 255.75 357.81 87.43 o
8044 2 10 3 -10 1451.88 1608.26 115.49 o
8044 1 -10 -3 10 1451.88 1608.26 115.49 o
8045 2 10 3 -10 1451.88 1458.52 82.52 o
8045 1 -10 -3 10 1451.88 1458.52 82.52 o
8046 2 10 3 -9 1122.60 1052.20 106.34 o
8046 1 -9 -3 10 1122.60 1052.20 106.34 o
8047 2 10 3 -8 3904.89 3940.93 171.85 o
8047 1 -8 -3 10 3904.89 3940.93 171.85 o
8048 2 10 3 -8 3904.89 3929.38 213.29 o
8048 1 -8 -3 10 3904.89 3929.38 213.29 o
8049 2 9 3 -3 6599.20 7110.05 333.56 o
8049 1 -4 -3 10 6599.20 7110.05 333.56 o
8050 2 9 3 -3 6599.20 6867.16 258.97 o
8050 1 -4 -3 10 6599.20 6867.16 258.97 o
8051 2 9 3 -3 6599.20 6784.28 298.20 o
8051 1 -4 -3 10 6599.20 6784.28 298.20 o
8052 2 9 3 -2 715.75 737.98 66.86 o
8052 1 -3 -3 10 715.75 737.98 66.86 o
8053 2 9 3 -2 715.75 866.17 78.65 o
8053 1 -3 -3 10 715.75 866.17 78.65 o
8054 2 9 3 -2 715.75 751.73 61.21 o
8054 1 -3 -3 10 715.75 751.73 61.21 o
8055 2 9 3 -1 678.62 688.86 71.16 o
8055 1 -2 -3 10 678.62 688.86 71.16 o
8056 2 9 3 -1 678.62 646.25 69.32 o
8056 1 -2 -3 10 678.62 646.25 69.32 o
8057 2 9 -3 -1 632.52 662.52 60.60 o
8057 1 -2 3 10 632.52 662.52 60.60 o
8058 2 9 3 0 1199.06 1174.19 105.60 o
8058 1 -1 -3 10 1199.06 1174.19 105.60 o
8059 2 9 3 0 1199.06 1260.15 98.48 o
8059 1 -1 -3 10 1199.06 1260.15 98.48 o
8060 2 8 3 5 2122.57 2548.29 218.57 o
8060 1 3 -3 10 2122.57 2548.29 218.57 o
8061 2 8 3 6 587.30 629.43 116.10 o
8061 1 4 -3 10 587.30 629.43 116.10 o
8062 2 8 3 7 1134.77 1211.15 155.95 o
8062 1 5 -3 10 1134.77 1211.15 155.95 o
8063 2 10 4 -12 442.31 666.14 117.94 o
8063 1 -12 -4 10 442.31 666.14 117.94 o
8064 2 -10 4 12 442.31 542.61 104.80 o
8064 1 12 -4 -10 442.31 542.61 104.80 o
8065 2 10 4 -11 1773.30 1885.34 142.32 o
8065 1 -11 -4 10 1773.30 1885.34 142.32 o
8066 2 -10 4 10 951.37 1021.75 85.03 o
8066 1 10 -4 -10 951.37 1021.75 85.03 o
8067 2 10 4 -10 951.37 995.16 101.24 o
8067 1 -10 -4 10 951.37 995.16 101.24 o
8068 2 10 4 -9 1345.32 1302.69 93.87 o
8068 1 -9 -4 10 1345.32 1302.69 93.87 o
8069 2 10 4 -9 1345.32 1136.68 117.69 o
8069 1 -9 -4 10 1345.32 1136.68 117.69 o
8070 2 10 4 -8 1255.76 1288.26 94.61 o
8070 1 -8 -4 10 1255.76 1288.26 94.61 o
8071 2 10 4 -8 1255.76 1041.64 123.28 o
8071 1 -8 -4 10 1255.76 1041.64 123.28 o
8072 2 9 4 -3 883.60 976.80 94.79 o
8072 1 -4 -4 10 883.60 976.80 94.79 o
8073 2 9 4 -3 883.60 937.14 73.49 o
8073 1 -4 -4 10 883.60 937.14 73.49 o
8074 2 9 4 -2 522.19 512.59 71.46 o
8074 1 -3 -4 10 522.19 512.59 71.46 o
8075 2 9 4 -2 522.19 541.39 62.62 o
8075 1 -3 -4 10 522.19 541.39 62.62 o
8076 2 9 4 -2 522.19 511.24 54.64 o
8076 1 -3 -4 10 522.19 511.24 54.64 o
8077 2 9 4 -1 28.56 28.30 50.96 <
8077 1 -2 -4 10 28.56 28.30 50.96 <
8078 2 -9 4 1 28.56 -38.68 34.14 <
8078 1 2 -4 -10 28.56 -38.68 34.14 <
8079 2 9 4 -1 28.56 29.59 52.37 <
8079 1 -2 -4 10 28.56 29.59 52.37 <
8080 2 -9 4 0 1735.07 1647.31 83.44 o
8080 1 1 -4 -10 1735.07 1647.31 83.44 o
8081 2 9 4 0 1735.07 1745.60 120.46 o
8081 1 -1 -4 10 1735.07 1745.60 120.46 o
8082 2 9 4 0 1735.07 1930.46 136.85 o
8082 1 -1 -4 10 1735.07 1930.46 136.85 o
8083 2 8 4 5 3197.48 3259.37 244.91 o
8083 1 3 -4 10 3197.48 3259.37 244.91 o
8084 2 8 4 6 445.41 438.49 127.15 o
8084 1 4 -4 10 445.41 438.49 127.15 o
8085 2 10 5 -12 759.28 1055.76 133.23 o
8085 1 -12 -5 10 759.28 1055.76 133.23 o
8086 2 -10 5 12 759.28 854.81 116.04 o
8086 1 12 -5 -10 759.28 854.81 116.04 o
8087 2 10 5 -11 1730.18 2073.27 161.65 o
8087 1 -11 -5 10 1730.18 2073.27 161.65 o
8088 2 -10 5 11 1730.18 2037.78 131.94 o
8088 1 11 -5 -10 1730.18 2037.78 131.94 o
8089 2 10 5 -10 1888.18 1794.96 147.90 o
8089 1 -10 -5 10 1888.18 1794.96 147.90 o
8090 2 -10 5 10 1888.18 2086.22 122.06 o
8090 1 10 -5 -10 1888.18 2086.22 122.06 o
8091 2 10 5 -9 2174.24 2209.81 116.04 o
8091 1 -9 -5 10 2174.24 2209.81 116.04 o
8092 2 -10 5 9 2174.24 1907.75 132.06 o
8092 1 9 -5 -10 2174.24 1907.75 132.06 o
8093 2 10 5 -9 2174.24 1682.49 149.74 o
8093 1 -9 -5 10 2174.24 1682.49 149.74 o
8094 2 10 5 -8 803.38 913.44 84.54 o
8094 1 -8 -5 10 803.38 913.44 84.54 o
8095 2 -10 5 8 803.38 132.74 87.37 <
8095 1 8 -5 -10 803.38 132.74 87.37 <
8096 2 10 5 -8 803.38 476.25 110.76 o
8096 1 -8 -5 10 803.38 476.25 110.76 o
8097 2 9 5 -3 6114.86 6365.62 235.94 o
8097 1 -4 -5 10 6114.86 6365.62 235.94 o
8098 2 -9 5 3 6114.86 6214.65 244.23 o
8098 1 4 -5 -10 6114.86 6214.65 244.23 o
8099 2 9 5 -3 6114.86 6278.50 282.60 o
8099 1 -4 -5 10 6114.86 6278.50 282.60 o
8100 2 -9 5 2 2688.28 2867.97 125.19 o
8100 1 3 -5 -10 2688.28 2867.97 125.19 o
8101 2 9 5 -2 2688.28 2760.66 153.80 o
8101 1 -3 -5 10 2688.28 2760.66 153.80 o
8102 2 -9 5 2 2688.28 2870.25 161.96 o
8102 1 3 -5 -10 2688.28 2870.25 161.96 o
8103 2 9 5 -2 2688.28 2780.92 122.67 o
8103 1 -3 -5 10 2688.28 2780.92 122.67 o
8104 2 -9 5 1 2369.30 2148.30 102.41 o
8104 1 2 -5 -10 2369.30 2148.30 102.41 o
8105 2 9 5 -1 2369.30 2524.47 148.58 o
8105 1 -2 -5 10 2369.30 2524.47 148.58 o
8106 2 9 5 -1 2369.30 2257.76 134.33 o
8106 1 -2 -5 10 2369.30 2257.76 134.33 o
8107 2 -9 5 1 2369.30 2339.85 101.98 o
8107 1 2 -5 -10 2369.30 2339.85 101.98 o
8108 2 9 5 0 2085.84 2294.60 137.34 o
8108 1 -1 -5 10 2085.84 2294.60 137.34 o
8109 2 -9 5 0 2085.84 2046.07 99.15 o
8109 1 1 -5 -10 2085.84 2046.07 99.15 o
8110 2 9 5 0 2085.84 2042.57 148.27 o
8110 1 -1 -5 10 2085.84 2042.57 148.27 o
8111 2 -9 5 0 2085.84 1966.87 96.33 o
8111 1 1 -5 -10 2085.84 1966.87 96.33 o
8112 2 8 5 5 713.51 782.12 178.72 o
8112 1 3 -5 10 713.51 782.12 178.72 o
8113 2 8 5 6 334.87 214.70 107.69 <
8113 1 4 -5 10 334.87 214.70 107.69 <
8114 2 -10 6 12 192.63 132.25 103.21 <
8114 1 12 -6 -10 192.63 132.25 103.21 <
8115 2 10 6 -12 192.63 529.35 120.64 o
8115 1 -12 -6 10 192.63 529.35 120.64 o
8116 2 -10 6 11 1020.44 1077.43 112.42 o
8116 1 11 -6 -10 1020.44 1077.43 112.42 o
8117 2 10 6 -11 1020.44 839.95 122.48 o
8117 1 -11 -6 10 1020.44 839.95 122.48 o
8118 2 10 6 -10 1023.88 581.23 94.24 o
8118 1 -10 -6 10 1023.88 581.23 94.24 o
8119 2 10 6 -10 1023.88 878.88 71.83 o
8119 1 -10 -6 10 1023.88 878.88 71.83 o
8120 2 -10 6 10 1023.88 957.77 87.00 o
8120 1 10 -6 -10 1023.88 957.77 87.00 o
8121 2 -10 6 9 565.61 86.45 84.11 <
8121 1 9 -6 -10 565.61 86.45 84.11 <
8122 2 10 6 -9 565.61 194.93 98.85 <
8122 1 -9 -6 10 565.61 194.93 98.85 <
8123 2 10 6 -8 647.79 349.28 122.79 <
8123 1 -8 -6 10 647.79 349.28 122.79 <
8124 2 -10 6 8 647.79 -187.01 89.94 <
8124 1 8 -6 -10 647.79 -187.01 89.94 <
8125 2 9 6 -4 1756.83 1881.29 103.64 o
8125 1 -5 -6 10 1756.83 1881.29 103.64 o
8126 2 -9 6 4 1756.83 1922.85 137.40 o
8126 1 5 -6 -10 1756.83 1922.85 137.40 o
8127 2 9 6 -3 996.07 980.98 73.00 o
8127 1 -4 -6 10 996.07 980.98 73.00 o
8128 2 9 6 -3 996.07 1039.43 107.75 o
8128 1 -4 -6 10 996.07 1039.43 107.75 o
8129 2 -9 6 3 996.07 913.44 79.14 o
8129 1 4 -6 -10 996.07 913.44 79.14 o
8130 2 -9 6 3 996.07 1082.65 115.55 o
8130 1 4 -6 -10 996.07 1082.65 115.55 o
8131 2 -9 6 2 474.44 501.48 88.96 o
8131 1 3 -6 -10 474.44 501.48 88.96 o
8132 2 9 6 -2 474.44 446.47 79.08 o
8132 1 -3 -6 10 474.44 446.47 79.08 o
8133 2 -9 6 2 474.44 448.49 43.16 o
8133 1 3 -6 -10 474.44 448.49 43.16 o
8134 2 -9 6 2 474.44 446.90 52.86 o
8134 1 3 -6 -10 474.44 446.90 52.86 o
8135 2 9 6 -1 246.70 215.62 73.80 <
8135 1 -2 -6 10 246.70 215.62 73.80 <
8136 2 -9 6 1 246.70 219.74 38.80 o
8136 1 2 -6 -10 246.70 219.74 38.80 o
8137 2 -9 6 1 246.70 235.70 42.12 o
8137 1 2 -6 -10 246.70 235.70 42.12 o
8138 2 -9 6 1 246.70 292.98 90.56 o
8138 1 2 -6 -10 246.70 292.98 90.56 o
8139 2 9 6 0 2153.85 2296.07 147.10 o
8139 1 -1 -6 10 2153.85 2296.07 147.10 o
8140 2 -9 6 0 2153.85 2074.56 99.09 o
8140 1 1 -6 -10 2153.85 2074.56 99.09 o
8141 2 -9 6 0 2153.85 2021.39 100.14 o
8141 1 1 -6 -10 2153.85 2021.39 100.14 o
8142 2 8 6 5 1607.57 1301.77 209.73 o
8142 1 3 -6 10 1607.57 1301.77 209.73 o
8143 2 10 7 -11 556.14 115.73 107.44 <
8143 1 -11 -7 10 556.14 115.73 107.44 <
8144 2 -10 7 11 556.14 492.95 95.35 o
8144 1 11 -7 -10 556.14 492.95 95.35 o
8145 2 10 7 -10 8.72 18.17 30.45 <
8145 1 -10 -7 10 8.72 18.17 30.45 <
8146 2 -10 7 10 8.72 13.26 18.85 <
8146 1 10 -7 -10 8.72 13.26 18.85 <
8147 2 10 7 -10 8.72 -108.85 46.78 <
8147 1 -10 -7 10 8.72 -108.85 46.78 <
8148 2 -10 7 10 8.72 -19.83 41.56 <
8148 1 10 -7 -10 8.72 -19.83 41.56 <
8149 2 -10 7 9 949.02 487.48 100.32 o
8149 1 9 -7 -10 949.02 487.48 100.32 o
8150 2 10 7 -9 949.02 674.12 123.16 o
8150 1 -9 -7 10 949.02 674.12 123.16 o
8151 2 10 7 -8 1234.63 1190.28 156.13 o
8151 1 -8 -7 10 1234.63 1190.28 156.13 o
8152 2 -9 7 3 1638.81 1555.09 78.59 o
8152 1 4 -7 -10 1638.81 1555.09 78.59 o
8153 2 9 7 -3 1638.81 1725.77 87.92 o
8153 1 -4 -7 10 1638.81 1725.77 87.92 o
8154 2 9 7 -3 1638.81 1641.60 130.53 o
8154 1 -4 -7 10 1638.81 1641.60 130.53 o
8155 2 -9 7 3 1638.81 1505.67 96.08 o
8155 1 4 -7 -10 1638.81 1505.67 96.08 o
8156 2 -9 7 3 1638.81 1765.12 135.01 o
8156 1 4 -7 -10 1638.81 1765.12 135.01 o
8157 2 -9 7 2 1322.46 1480.13 121.56 o
8157 1 3 -7 -10 1322.46 1480.13 121.56 o
8158 2 -9 7 2 1322.46 1278.01 79.02 o
8158 1 3 -7 -10 1322.46 1278.01 79.02 o
8159 2 9 7 -2 1322.46 1479.14 115.42 o
8159 1 -3 -7 10 1322.46 1479.14 115.42 o
8160 2 -9 7 2 1322.46 1305.09 69.32 o
8160 1 3 -7 -10 1322.46 1305.09 69.32 o
8161 2 9 7 -1 496.18 444.57 83.62 o
8161 1 -2 -7 10 496.18 444.57 83.62 o
8162 2 -9 7 1 496.18 453.04 50.04 o
8162 1 2 -7 -10 496.18 453.04 50.04 o
8163 2 -9 7 1 496.18 554.16 46.23 o
8163 1 2 -7 -10 496.18 554.16 46.23 o
8164 2 -9 7 1 496.18 485.58 97.86 o
8164 1 2 -7 -10 496.18 485.58 97.86 o
8165 2 -9 7 0 73.55 25.11 52.19 <
8165 1 1 -7 -10 73.55 25.11 52.19 <
8166 2 -9 7 0 73.55 20.51 45.19 <
8166 1 1 -7 -10 73.55 20.51 45.19 <
8167 2 9 7 0 73.54 1.72 91.48 <
8167 1 -1 -7 10 73.54 1.72 91.48 <
8168 2 -9 7 0 73.55 -144.96 125.61 <
8168 1 1 -7 -10 73.55 -144.96 125.61 <
8169 2 -8 7 -5 414.77 119.97 162.70 <
8169 1 -3 -7 -10 414.77 119.97 162.70 <
8170 2 -10 8 10 257.58 166.14 53.60 o
8170 1 10 -8 -10 257.58 166.14 53.60 o
8171 2 10 8 -10 257.58 312.57 44.94 o
8171 1 -10 -8 10 257.58 312.57 44.94 o
8172 2 10 8 -10 257.58 27.93 62.50 <
8172 1 -10 -8 10 257.58 27.93 62.50 <
8173 2 -10 8 9 2113.07 1474.17 132.12 o
8173 1 9 -8 -10 2113.07 1474.17 132.12 o
8174 2 10 8 -9 2113.06 1865.26 164.23 o
8174 1 -9 -8 10 2113.06 1865.26 164.23 o
8175 2 10 8 -9 2113.06 2164.38 114.07 o
8175 1 -9 -8 10 2113.06 2164.38 114.07 o
8176 2 10 8 -8 1223.12 1061.35 159.08 o
8176 1 -8 -8 10 1223.12 1061.35 159.08 o
8177 2 10 8 -8 1223.12 1401.17 102.78 o
8177 1 -8 -8 10 1223.12 1401.17 102.78 o
8178 2 -9 8 3 1025.10 983.07 84.30 o
8178 1 4 -8 -10 1025.10 983.07 84.30 o
8179 2 -9 8 3 1025.10 959.55 61.15 o
8179 1 4 -8 -10 1025.10 959.55 61.15 o
8180 2 -9 8 3 1025.10 999.15 68.82 o
8180 1 4 -8 -10 1025.10 999.15 68.82 o
8181 2 -9 8 3 1025.10 1315.28 125.12 o
8181 1 4 -8 -10 1025.10 1315.28 125.12 o
8182 2 9 8 -3 1025.10 958.69 117.51 o
8182 1 -4 -8 10 1025.10 958.69 117.51 o
8183 2 -9 8 2 599.61 627.77 47.83 o
8183 1 3 -8 -10 599.61 627.77 47.83 o
8184 2 -9 8 2 599.61 601.00 60.78 o
8184 1 3 -8 -10 599.61 601.00 60.78 o
8185 2 -9 8 2 599.61 800.66 103.08 o
8185 1 3 -8 -10 599.61 800.66 103.08 o
8186 2 9 8 -2 599.61 660.62 92.28 o
8186 1 -3 -8 10 599.61 660.62 92.28 o
8187 2 -9 8 1 3933.56 3758.76 159.32 o
8187 1 2 -8 -10 3933.56 3758.76 159.32 o
8188 2 -9 8 1 3933.56 4108.35 220.23 o
8188 1 2 -8 -10 3933.56 4108.35 220.23 o
8189 2 -9 8 1 3933.56 3640.45 148.58 o
8189 1 2 -8 -10 3933.56 3640.45 148.58 o
8190 2 9 8 -1 3933.56 4121.67 204.82 o
8190 1 -2 -8 10 3933.56 4121.67 204.82 o
8191 2 9 8 0 936.84 1001.24 120.64 o
8191 1 -1 -8 10 936.84 1001.24 120.64 o
8192 2 -9 8 0 936.85 785.50 147.10 o
8192 1 1 -8 -10 936.85 785.50 147.10 o
8193 2 9 8 1 186.00 159.32 108.49 <
8193 1 0 -8 10 186.00 159.32 108.49 <
8194 2 10 9 -9 491.44 367.51 124.82 <
8194 1 -9 -9 10 491.44 367.51 124.82 <
8195 2 10 9 -8 552.28 376.05 140.72 <
8195 1 -8 -9 10 552.28 376.05 140.72 <
8196 2 -10 9 8 552.28 280.09 105.60 <
8196 1 8 -9 -10 552.28 280.09 105.60 <
8197 2 10 9 -8 552.28 620.16 83.07 o
8197 1 -8 -9 10 552.28 620.16 83.07 o
8198 2 9 9 -3 1600.97 1652.03 142.13 o
8198 1 -4 -9 10 1600.97 1652.03 142.13 o
8199 2 -9 9 3 1600.97 1441.63 100.07 o
8199 1 4 -9 -10 1600.97 1441.63 100.07 o
8200 2 -9 9 3 1600.97 1774.83 141.70 o
8200 1 4 -9 -10 1600.97 1774.83 141.70 o
8201 2 -9 9 2 1675.67 1668.06 95.41 o
8201 1 3 -9 -10 1675.67 1668.06 95.41 o
8202 2 -9 9 2 1675.67 1706.61 132.12 o
8202 1 3 -9 -10 1675.67 1706.61 132.12 o
8203 2 9 9 -2 1675.67 1868.64 138.14 o
8203 1 -3 -9 10 1675.67 1868.64 138.14 o
8204 2 -9 9 1 350.78 315.51 112.23 <
8204 1 2 -9 -10 350.78 315.51 112.23 <
8205 2 -9 9 1 350.78 308.14 51.20 o
8205 1 2 -9 -10 350.78 308.14 51.20 o
8206 2 9 9 -1 350.77 354.80 93.94 o
8206 1 -2 -9 10 350.77 354.80 93.94 o
8207 2 9 9 0 421.97 235.08 111.07 <
8207 1 -1 -9 10 421.97 235.08 111.07 <
8208 2 -9 9 0 421.97 294.52 141.82 <
8208 1 1 -9 -10 421.97 294.52 141.82 <
8209 2 9 10 -3 432.10 442.66 120.58 o
8209 1 -4 -10 10 432.10 442.66 120.58 o
8210 2 -9 10 3 432.10 429.22 74.47 o
8210 1 4 -10 -10 432.10 429.22 74.47 o
8211 2 -9 10 3 432.10 569.38 120.89 o
8211 1 4 -10 -10 432.10 569.38 120.89 o
8212 2 -9 10 2 439.31 475.14 94.18 o
8212 1 3 -10 -10 439.31 475.14 94.18 o
8213 2 9 10 -2 439.31 395.57 96.27 o
8213 1 -3 -10 10 439.31 395.57 96.27 o
8214 2 -9 10 2 439.31 348.11 59.74 o
8214 1 3 -10 -10 439.31 348.11 59.74 o
8215 2 9 10 -1 573.63 576.20 105.54 o
8215 1 -2 -10 10 573.63 576.20 105.54 o
8216 2 -9 10 1 573.63 698.01 124.14 o
8216 1 2 -10 -10 573.63 698.01 124.14 o
8217 2 -9 10 1 573.63 515.72 62.13 o
8217 1 2 -10 -10 573.63 515.72 62.13 o
8218 2 10 0 -4 561.80 530.40 80.12 o
8218 1 -5 0 11 561.80 530.40 80.12 o
8219 2 10 0 -4 561.80 566.07 57.65 o
8219 1 -5 0 11 561.80 566.07 57.65 o
8220 2 10 0 -3 131.66 69.19 54.09 <
8220 1 -4 0 11 131.66 69.19 54.09 <
8221 2 10 0 -2 367.95 353.76 62.44 o
8221 1 -3 0 11 367.95 353.76 62.44 o
8222 2 10 0 -1 2011.47 1883.62 115.24 o
8222 1 -2 0 11 2011.47 1883.62 115.24 o
8223 2 9 0 5 3390.35 4443.26 286.72 o
8223 1 3 0 11 3390.35 4443.26 286.72 o
8224 2 9 0 6 219.87 465.32 102.22 o
8224 1 4 0 11 219.87 465.32 102.22 o
8225 2 11 1 -11 76.85 101.12 48.01 <
8225 1 -11 -1 11 76.85 101.12 48.01 <
8226 2 11 1 -10 1521.23 1447.83 95.53 o
8226 1 -10 -1 11 1521.23 1447.83 95.53 o
8227 2 10 1 -4 2238.43 2202.20 133.78 o
8227 1 -5 -1 11 2238.43 2202.20 133.78 o
8228 2 10 1 -4 2238.43 2196.55 117.57 o
8228 1 -5 -1 11 2238.43 2196.55 117.57 o
8229 2 10 1 -3 484.01 562.75 73.12 o
8229 1 -4 -1 11 484.01 562.75 73.12 o
8230 2 10 1 -3 484.01 463.17 63.05 o
8230 1 -4 -1 11 484.01 463.17 63.05 o
8231 2 10 1 -3 484.01 562.02 57.96 o
8231 1 -4 -1 11 484.01 562.02 57.96 o
8232 2 10 -1 -3 537.70 481.10 61.95 o
8232 1 -4 1 11 537.70 481.10 61.95 o
8233 2 10 1 -2 1678.08 1827.32 111.31 o
8233 1 -3 -1 11 1678.08 1827.32 111.31 o
8234 2 10 1 -2 1678.08 1742.16 111.31 o
8234 1 -3 -1 11 1678.08 1742.16 111.31 o
8235 2 10 1 -2 1678.08 1844.75 100.75 o
8235 1 -3 -1 11 1678.08 1844.75 100.75 o
8236 2 10 -1 -2 1686.38 1773.97 104.31 o
8236 1 -3 1 11 1686.38 1773.97 104.31 o
8237 2 10 1 -1 779.71 957.65 91.17 o
8237 1 -2 -1 11 779.71 957.65 91.17 o
8238 2 10 1 -1 779.71 907.55 93.20 o
8238 1 -2 -1 11 779.71 907.55 93.20 o
8239 2 10 -1 -1 790.44 869.12 83.93 o
8239 1 -2 1 11 790.44 869.12 83.93 o
8240 2 9 1 4 2604.62 3225.36 236.37 o
8240 1 2 -1 11 2604.62 3225.36 236.37 o
8241 2 9 1 5 808.10 1158.97 157.66 o
8241 1 3 -1 11 808.10 1158.97 157.66 o
8242 2 9 1 6 1519.19 1713.06 166.63 o
8242 1 4 -1 11 1519.19 1713.06 166.63 o
8243 2 9 -1 6 1486.72 1732.46 167.06 o
8243 1 4 1 11 1486.72 1732.46 167.06 o
8244 2 11 2 -13 1209.74 1634.72 144.89 o
8244 1 -13 -2 11 1209.74 1634.72 144.89 o
8245 2 11 2 -12 1453.36 1443.78 98.79 o
8245 1 -12 -2 11 1453.36 1443.78 98.79 o
8246 2 11 2 -12 1453.36 1405.04 122.18 o
8246 1 -12 -2 11 1453.36 1405.04 122.18 o
8247 2 11 2 -11 264.83 244.97 37.82 o
8247 1 -11 -2 11 264.83 244.97 37.82 o
8248 2 11 2 -11 264.83 279.53 59.12 o
8248 1 -11 -2 11 264.83 279.53 59.12 o
8249 2 11 2 -10 3336.40 3837.47 205.74 o
8249 1 -10 -2 11 3336.40 3837.47 205.74 o
8250 2 11 2 -9 1004.43 1161.18 119.72 o
8250 1 -9 -2 11 1004.43 1161.18 119.72 o
8251 2 10 2 -4 4989.54 4804.21 199.29 o
8251 1 -5 -2 11 4989.54 4804.21 199.29 o
8252 2 10 2 -4 4989.54 4968.44 232.93 o
8252 1 -5 -2 11 4989.54 4968.44 232.93 o
8253 2 10 2 -3 234.49 261.24 47.89 o
8253 1 -4 -2 11 234.49 261.24 47.89 o
8254 2 10 2 -3 234.49 266.64 56.30 o
8254 1 -4 -2 11 234.49 266.64 56.30 o
8255 2 10 2 -3 234.49 237.36 63.79 o
8255 1 -4 -2 11 234.49 237.36 63.79 o
8256 2 10 2 -2 7721.59 8055.78 338.17 o
8256 1 -3 -2 11 7721.59 8055.78 338.17 o
8257 2 10 2 -2 7721.59 7976.58 298.01 o
8257 1 -3 -2 11 7721.59 7976.58 298.01 o
8258 2 10 2 -2 7721.59 8029.57 386.67 o
8258 1 -3 -2 11 7721.59 8029.57 386.67 o
8259 2 10 -2 -2 7726.72 8187.78 336.76 o
8259 1 -3 2 11 7726.72 8187.78 336.76 o
8260 2 10 2 -1 4626.15 4903.30 232.87 o
8260 1 -2 -2 11 4626.15 4903.30 232.87 o
8261 2 10 2 -1 4626.15 5309.56 271.18 o
8261 1 -2 -2 11 4626.15 5309.56 271.18 o
8262 2 10 -2 -1 4542.00 5126.90 225.81 o
8262 1 -2 2 11 4542.00 5126.90 225.81 o
8263 2 9 2 4 483.88 660.62 146.37 o
8263 1 2 -2 11 483.88 660.62 146.37 o
8264 2 9 2 5 1375.52 1614.83 179.46 o
8264 1 3 -2 11 1375.52 1614.83 179.46 o
8265 2 9 2 6 750.66 665.28 125.49 o
8265 1 4 -2 11 750.66 665.28 125.49 o
8266 2 9 -2 6 677.52 819.69 118.06 o
8266 1 4 2 11 677.52 819.69 118.06 o
8267 2 11 3 -13 595.00 923.51 124.76 o
8267 1 -13 -3 11 595.00 923.51 124.76 o
8268 2 11 3 -12 379.66 503.81 99.09 o
8268 1 -12 -3 11 379.66 503.81 99.09 o
8269 2 11 3 -11 1608.28 1688.13 124.14 o
8269 1 -11 -3 11 1608.28 1688.13 124.14 o
8270 2 11 3 -10 277.50 452.92 100.87 o
8270 1 -10 -3 11 277.50 452.92 100.87 o
8271 2 11 3 -9 474.13 565.27 105.42 o
8271 1 -9 -3 11 474.13 565.27 105.42 o
8272 2 10 3 -4 713.15 596.95 71.28 o
8272 1 -5 -3 11 713.15 596.95 71.28 o
8273 2 10 3 -4 713.15 765.23 91.30 o
8273 1 -5 -3 11 713.15 765.23 91.30 o
8274 2 10 3 -3 4849.24 4865.85 239.26 o
8274 1 -4 -3 11 4849.24 4865.85 239.26 o
8275 2 10 3 -3 4849.24 4554.51 191.00 o
8275 1 -4 -3 11 4849.24 4554.51 191.00 o
8276 2 10 3 -3 4849.24 4772.28 220.96 o
8276 1 -4 -3 11 4849.24 4772.28 220.96 o
8277 2 10 3 -2 2573.24 2887.07 149.38 o
8277 1 -3 -3 11 2573.24 2887.07 149.38 o
8278 2 10 3 -2 2573.24 2604.59 152.57 o
8278 1 -3 -3 11 2573.24 2604.59 152.57 o
8279 2 10 3 -2 2573.24 2674.64 125.31 o
8279 1 -3 -3 11 2573.24 2674.64 125.31 o
8280 2 10 -3 -2 2632.47 2619.51 135.68 o
8280 1 -3 3 11 2632.47 2619.51 135.68 o
8281 2 10 3 -1 162.18 229.25 79.63 <
8281 1 -2 -3 11 162.18 229.25 79.63 <
8282 2 10 3 -1 162.18 160.30 70.30 <
8282 1 -2 -3 11 162.18 160.30 70.30 <
8283 2 9 3 4 599.55 573.31 146.43 o
8283 1 2 -3 11 599.55 573.31 146.43 o
8284 2 9 3 5 796.74 907.49 152.38 o
8284 1 3 -3 11 796.74 907.49 152.38 o
8285 2 9 3 6 1873.67 2062.77 187.56 o
8285 1 4 -3 11 1873.67 2062.77 187.56 o
8286 2 11 4 -12 752.98 1060.06 119.29 o
8286 1 -12 -4 11 752.98 1060.06 119.29 o
8287 2 -11 4 11 15.26 -2.03 36.59 <
8287 1 11 -4 -11 15.26 -2.03 36.59 <
8288 2 11 4 -11 15.26 48.69 50.10 <
8288 1 -11 -4 11 15.26 48.69 50.10 <
8289 2 11 4 -10 1961.82 2222.46 155.58 o
8289 1 -10 -4 11 1961.82 2222.46 155.58 o
8290 2 11 4 -9 1042.07 912.40 129.24 o
8290 1 -9 -4 11 1042.07 912.40 129.24 o
8291 2 10 4 -4 720.46 793.97 99.95 o
8291 1 -5 -4 11 720.46 793.97 99.95 o
8292 2 10 4 -4 720.46 851.31 77.60 o
8292 1 -5 -4 11 720.46 851.31 77.60 o
8293 2 10 4 -3 703.59 802.69 66.80 o
8293 1 -4 -4 11 703.59 802.69 66.80 o
8294 2 10 4 -3 703.59 763.46 88.96 o
8294 1 -4 -4 11 703.59 763.46 88.96 o
8295 2 -10 4 2 5777.82 5524.26 228.82 o
8295 1 3 -4 -11 5777.82 5524.26 228.82 o
8296 2 10 4 -2 5777.82 6219.81 231.40 o
8296 1 -3 -4 11 5777.82 6219.81 231.40 o
8297 2 10 4 -2 5777.82 6083.08 269.83 o
8297 1 -3 -4 11 5777.82 6083.08 269.83 o
8298 2 10 4 -2 5777.82 6128.88 301.33 o
8298 1 -3 -4 11 5777.82 6128.88 301.33 o
8299 2 10 4 -1 887.86 979.94 101.61 o
8299 1 -2 -4 11 887.86 979.94 101.61 o
8300 2 -10 4 1 887.86 843.45 66.80 o
8300 1 2 -4 -11 887.86 843.45 66.80 o
8301 2 10 4 -1 887.86 977.48 95.90 o
8301 1 -2 -4 11 887.86 977.48 95.90 o
8302 2 9 4 4 473.98 574.48 160.98 o
8302 1 2 -4 11 473.98 574.48 160.98 o
8303 2 9 4 5 233.45 250.13 142.56 <
8303 1 3 -4 11 233.45 250.13 142.56 <
8304 2 -11 5 12 231.18 199.04 85.71 <
8304 1 12 -5 -11 231.18 199.04 85.71 <
8305 2 11 5 -12 231.18 481.04 106.21 o
8305 1 -12 -5 11 231.18 481.04 106.21 o
8306 2 -11 5 11 395.74 448.07 62.81 o
8306 1 11 -5 -11 395.74 448.07 62.81 o
8307 2 11 5 -11 395.74 421.42 78.28 o
8307 1 -11 -5 11 395.74 421.42 78.28 o
8308 2 -11 5 10 1595.93 2013.90 136.36 o
8308 1 10 -5 -11 1595.93 2013.90 136.36 o
8309 2 11 5 -10 1595.93 1742.47 154.84 o
8309 1 -10 -5 11 1595.93 1742.47 154.84 o
8310 2 11 5 -9 622.89 511.12 119.66 o
8310 1 -9 -5 11 622.89 511.12 119.66 o
8311 2 -11 5 9 622.89 633.60 108.18 o
8311 1 9 -5 -11 622.89 633.60 108.18 o
8312 2 11 5 -9 622.89 592.22 91.23 o
8312 1 -9 -5 11 622.89 592.22 91.23 o
8313 2 -10 5 4 300.36 120.15 73.12 <
8313 1 5 -5 -11 300.36 120.15 73.12 <
8314 2 10 5 -4 300.36 265.54 63.79 o
8314 1 -5 -5 11 300.36 265.54 63.79 o
8315 2 10 5 -4 300.36 368.68 95.22 o
8315 1 -5 -5 11 300.36 368.68 95.22 o
8316 2 10 5 -3 1471.91 1541.28 87.00 o
8316 1 -4 -5 11 1471.91 1541.28 87.00 o
8317 2 -10 5 3 1471.91 1450.96 91.73 o
8317 1 4 -5 -11 1471.91 1450.96 91.73 o
8318 2 10 5 -3 1471.91 1553.68 117.63 o
8318 1 -4 -5 11 1471.91 1553.68 117.63 o
8319 2 10 5 -2 4723.30 4648.88 219.86 o
8319 1 -3 -5 11 4723.30 4648.88 219.86 o
8320 2 -10 5 2 4723.31 4405.44 182.04 o
8320 1 3 -5 -11 4723.31 4405.44 182.04 o
8321 2 10 5 -1 558.55 628.69 98.11 o
8321 1 -2 -5 11 558.55 628.69 98.11 o
8322 2 10 5 -1 558.55 561.09 91.97 o
8322 1 -2 -5 11 558.55 561.09 91.97 o
8323 2 -10 5 1 558.55 536.11 61.09 o
8323 1 2 -5 -11 558.55 536.11 61.09 o
8324 2 9 5 4 2550.29 2748.93 231.15 o
8324 1 2 -5 11 2550.29 2748.93 231.15 o
8325 2 9 5 5 616.01 757.74 158.71 o
8325 1 3 -5 11 616.01 757.74 158.71 o
8326 2 -11 6 11 1170.73 1250.14 106.83 o
8326 1 11 -6 -11 1170.73 1250.14 106.83 o
8327 2 11 6 -11 1170.73 1130.23 123.59 o
8327 1 -11 -6 11 1170.73 1130.23 123.59 o
8328 2 -11 6 10 1582.30 1656.09 125.86 o
8328 1 10 -6 -11 1582.30 1656.09 125.86 o
8329 2 11 6 -10 1582.30 1405.22 144.03 o
8329 1 -10 -6 11 1582.30 1405.22 144.03 o
8330 2 11 6 -9 583.58 146.00 123.77 <
8330 1 -9 -6 11 583.58 146.00 123.77 <
8331 2 -11 6 9 583.58 287.95 106.40 <
8331 1 9 -6 -11 583.58 287.95 106.40 <
8332 2 10 6 -4 652.98 535.12 107.01 o
8332 1 -5 -6 11 652.98 535.12 107.01 o
8333 2 -10 6 4 652.98 568.46 100.75 o
8333 1 5 -6 -11 652.98 568.46 100.75 o
8334 2 10 6 -4 652.98 642.87 71.40 o
8334 1 -5 -6 11 652.98 642.87 71.40 o
8335 2 -10 6 4 652.98 479.87 81.23 o
8335 1 5 -6 -11 652.98 479.87 81.23 o
8336 2 -10 6 3 197.83 146.98 54.58 <
8336 1 4 -6 -11 197.83 146.98 54.58 <
8337 2 10 6 -3 197.83 129.61 76.62 <
8337 1 -4 -6 11 197.83 129.61 76.62 <
8338 2 10 6 -3 197.83 153.37 49.91 o
8338 1 -4 -6 11 197.83 153.37 49.91 o
8339 2 -10 6 3 197.83 177.25 87.06 <
8339 1 4 -6 -11 197.83 177.25 87.06 <
8340 2 10 6 -2 907.09 905.65 95.90 o
8340 1 -3 -6 11 907.09 905.65 95.90 o
8341 2 -10 6 2 907.09 1059.93 74.53 o
8341 1 3 -6 -11 907.09 1059.93 74.53 o
8342 2 -10 6 2 907.09 896.87 61.40 o
8342 1 3 -6 -11 907.09 896.87 61.40 o
8343 2 -10 6 2 907.09 993.87 111.37 o
8343 1 3 -6 -11 907.09 993.87 111.37 o
8344 2 10 6 -1 981.19 959.18 113.03 o
8344 1 -2 -6 11 981.19 959.18 113.03 o
8345 2 -10 6 1 981.19 826.57 64.34 o
8345 1 2 -6 -11 981.19 826.57 64.34 o
8346 2 -10 6 1 981.19 830.38 69.19 o
8346 1 2 -6 -11 981.19 830.38 69.19 o
8347 2 9 6 4 668.36 421.54 167.24 <
8347 1 2 -6 11 668.36 421.54 167.24 <
8348 2 9 6 4 668.36 538.13 110.45 o
8348 1 2 -6 11 668.36 538.13 110.45 o
8349 2 11 7 -11 95.41 73.55 60.90 <
8349 1 -11 -7 11 95.41 73.55 60.90 <
8350 2 11 7 -10 591.18 725.82 85.03 o
8350 1 -10 -7 11 591.18 725.82 85.03 o
8351 2 11 7 -10 591.18 295.19 117.57 <
8351 1 -10 -7 11 591.18 295.19 117.57 <
8352 2 -11 7 10 591.18 605.79 110.02 o
8352 1 10 -7 -11 591.18 605.79 110.02 o
8353 2 11 7 -9 934.90 574.23 140.23 o
8353 1 -9 -7 11 934.90 574.23 140.23 o
8354 2 -11 7 9 934.90 76.68 95.22 <
8354 1 9 -7 -11 934.90 76.68 95.22 <
8355 2 -11 7 8 1182.51 -216.05 87.24 <
8355 1 8 -7 -11 1182.51 -216.05 87.24 <
8356 2 10 7 -4 1716.71 1799.32 146.86 o
8356 1 -5 -7 11 1716.71 1799.32 146.86 o
8357 2 -10 7 4 1716.71 1816.27 140.10 o
8357 1 5 -7 -11 1716.71 1816.27 140.10 o
8358 2 10 7 -4 1716.71 1828.67 101.24 o
8358 1 -5 -7 11 1716.71 1828.67 101.24 o
8359 2 -10 7 4 1716.71 1664.93 114.32 o
8359 1 5 -7 -11 1716.71 1664.93 114.32 o
8360 2 -10 7 4 1716.71 1775.38 90.56 o
8360 1 5 -7 -11 1716.71 1775.38 90.56 o
8361 2 -10 7 3 3177.54 3210.99 132.92 o
8361 1 4 -7 -11 3177.54 3210.99 132.92 o
8362 2 -10 7 3 3177.54 3009.37 145.38 o
8362 1 4 -7 -11 3177.54 3009.37 145.38 o
8363 2 10 7 -3 3177.54 3295.29 185.11 o
8363 1 -4 -7 11 3177.54 3295.29 185.11 o
8364 2 -10 7 3 3177.54 3508.09 183.82 o
8364 1 4 -7 -11 3177.54 3508.09 183.82 o
8365 2 -10 7 2 406.17 355.79 44.76 o
8365 1 3 -7 -11 406.17 355.79 44.76 o
8366 2 -10 7 2 406.17 312.01 94.92 o
8366 1 3 -7 -11 406.17 312.01 94.92 o
8367 2 -10 7 2 406.17 364.51 56.79 o
8367 1 3 -7 -11 406.17 364.51 56.79 o
8368 2 10 7 -2 406.17 341.73 82.02 o
8368 1 -3 -7 11 406.17 341.73 82.02 o
8369 2 -10 7 1 379.38 482.08 139.68 o
8369 1 2 -7 -11 379.38 482.08 139.68 o
8370 2 -10 7 1 379.38 370.83 54.89 o
8370 1 2 -7 -11 379.38 370.83 54.89 o
8371 2 10 7 -1 379.38 432.78 101.36 o
8371 1 -2 -7 11 379.38 432.78 101.36 o
8372 2 -10 7 1 379.38 346.39 59.92 o
8372 1 2 -7 -11 379.38 346.39 59.92 o
8373 2 11 8 -9 449.04 590.63 85.95 o
8373 1 -9 -8 11 449.04 590.63 85.95 o
8374 2 11 8 -9 449.04 60.35 139.55 <
8374 1 -9 -8 11 449.04 60.35 139.55 <
8375 2 10 8 -4 2779.73 2883.69 124.69 o
8375 1 -5 -8 11 2779.73 2883.69 124.69 o
8376 2 10 8 -4 2779.73 2846.24 186.34 o
8376 1 -5 -8 11 2779.73 2846.24 186.34 o
8377 2 -10 8 4 2779.73 2628.16 147.29 o
8377 1 5 -8 -11 2779.73 2628.16 147.29 o
8378 2 10 8 -3 221.21 151.89 89.09 <
8378 1 -4 -8 11 221.21 151.89 89.09 <
8379 2 -10 8 3 221.21 301.27 90.99 o
8379 1 4 -8 -11 221.21 301.27 90.99 o
8380 2 -10 8 3 221.21 232.63 57.71 o
8380 1 4 -8 -11 221.21 232.63 57.71 o
8381 2 -10 8 2 2638.79 2667.89 171.35 o
8381 1 3 -8 -11 2638.79 2667.89 171.35 o
8382 2 -10 8 2 2638.79 2576.35 125.43 o
8382 1 3 -8 -11 2638.79 2576.35 125.43 o
8383 2 10 8 -2 2638.79 2778.40 170.37 o
8383 1 -3 -8 11 2638.79 2778.40 170.37 o
8384 2 10 8 -1 3116.38 3228.74 195.98 o
8384 1 -2 -8 11 3116.38 3228.74 195.98 o
8385 2 -10 8 1 3116.38 3144.99 221.58 o
8385 1 2 -8 -11 3116.38 3144.99 221.58 o
8386 2 10 9 -4 867.20 926.15 136.48 o
8386 1 -5 -9 11 867.20 926.15 136.48 o
8387 2 -10 9 4 867.20 742.95 95.22 o
8387 1 5 -9 -11 867.20 742.95 95.22 o
8388 2 -10 9 3 772.34 646.13 71.22 o
8388 1 4 -9 -11 772.34 646.13 71.22 o
8389 2 10 9 -3 772.34 808.77 111.43 o
8389 1 -4 -9 11 772.34 808.77 111.43 o
8390 2 -10 9 3 772.34 875.75 97.99 o
8390 1 4 -9 -11 772.34 875.75 97.99 o
8391 2 10 9 -2 1164.72 1113.10 123.65 o
8391 1 -3 -9 11 1164.72 1113.10 123.65 o
8392 2 -10 9 2 1164.72 1123.23 79.63 o
8392 1 3 -9 -11 1164.72 1123.23 79.63 o
8393 2 -10 9 2 1164.72 1198.63 130.59 o
8393 1 3 -9 -11 1164.72 1198.63 130.59 o
8394 2 -10 9 1 58.77 -4.30 130.28 <
8394 1 2 -9 -11 58.77 -4.30 130.28 <
8395 2 10 9 -1 58.77 46.72 107.38 <
8395 1 -2 -9 11 58.77 46.72 107.38 <
8396 2 12 0 -12 1117.49 1213.42 115.06 o
8396 1 -12 0 12 1117.49 1213.42 115.06 o
8397 2 11 0 -5 4214.68 4062.55 205.18 o
8397 1 -6 0 12 4214.68 4062.55 205.18 o
8398 2 11 0 -4 313.56 296.54 63.30 o
8398 1 -5 0 12 313.56 296.54 63.30 o
8399 2 11 0 -3 1444.69 1518.99 101.49 o
8399 1 -4 0 12 1444.69 1518.99 101.49 o
8400 2 11 0 -3 1444.69 1451.70 105.48 o
8400 1 -4 0 12 1444.69 1451.70 105.48 o
8401 2 11 0 -2 6189.00 6583.64 296.17 o
8401 1 -3 0 12 6189.00 6583.64 296.17 o
8402 2 11 0 -2 6189.00 6995.60 340.75 o
8402 1 -3 0 12 6189.00 6995.60 340.75 o
8403 2 10 0 3 2523.27 2874.30 210.59 o
8403 1 1 0 12 2523.27 2874.30 210.59 o
8404 2 10 0 4 24.33 23.08 115.67 <
8404 1 2 0 12 24.33 23.08 115.67 <
8405 2 10 0 5 1570.53 1871.28 169.21 o
8405 1 3 0 12 1570.53 1871.28 169.21 o
8406 2 12 1 -12 296.83 293.90 61.33 o
8406 1 -12 -1 12 296.83 293.90 61.33 o
8407 2 12 1 -10 1123.72 1099.96 120.03 o
8407 1 -10 -1 12 1123.72 1099.96 120.03 o
8408 2 11 1 -5 1535.56 1466.07 118.62 o
8408 1 -6 -1 12 1535.56 1466.07 118.62 o
8409 2 11 -1 -5 1501.02 1665.17 122.06 o
8409 1 -6 1 12 1501.02 1665.17 122.06 o
8410 2 11 1 -4 2065.19 2032.69 126.66 o
8410 1 -5 -1 12 2065.19 2032.69 126.66 o
8411 2 11 -1 -4 2066.68 2180.10 128.01 o
8411 1 -5 1 12 2066.68 2180.10 128.01 o
8412 2 11 1 -3 1778.82 1830.14 114.50 o
8412 1 -4 -1 12 1778.82 1830.14 114.50 o
8413 2 11 1 -3 1778.82 1806.69 119.42 o
8413 1 -4 -1 12 1778.82 1806.69 119.42 o
8414 2 11 -1 -3 1759.34 1878.15 117.02 o
8414 1 -4 1 12 1759.34 1878.15 117.02 o
8415 2 11 1 -2 43.47 7.49 65.32 <
8415 1 -3 -1 12 43.47 7.49 65.32 <
8416 2 11 1 -2 43.47 39.29 72.69 <
8416 1 -3 -1 12 43.47 39.29 72.69 <
8417 2 11 -1 -2 56.12 105.91 76.13 <
8417 1 -3 1 12 56.12 105.91 76.13 <
8418 2 10 1 4 116.00 220.10 116.96 <
8418 1 2 -1 12 116.00 220.10 116.96 <
8419 2 10 1 5 723.91 767.26 128.50 o
8419 1 3 -1 12 723.91 767.26 128.50 o
8420 2 10 -1 5 752.08 943.16 117.20 o
8420 1 3 1 12 752.08 943.16 117.20 o
8421 2 12 2 -13 322.24 437.57 101.12 o
8421 1 -13 -2 12 322.24 437.57 101.12 o
8422 2 12 2 -12 213.30 194.13 56.67 o
8422 1 -12 -2 12 213.30 194.13 56.67 o
8423 2 12 2 -11 990.03 1188.44 118.74 o
8423 1 -11 -2 12 990.03 1188.44 118.74 o
8424 2 12 2 -10 1135.04 1161.54 127.70 o
8424 1 -10 -2 12 1135.04 1161.54 127.70 o
8425 2 11 2 -5 659.29 550.53 92.28 o
8425 1 -6 -2 12 659.29 550.53 92.28 o
8426 2 11 2 -4 307.24 322.82 72.02 o
8426 1 -5 -2 12 307.24 322.82 72.02 o
8427 2 11 2 -4 307.24 414.11 57.04 o
8427 1 -5 -2 12 307.24 414.11 57.04 o
8428 2 11 -2 -4 349.79 201.01 64.53 o
8428 1 -5 2 12 349.79 201.01 64.53 o
8429 2 11 2 -3 203.21 153.37 48.26 o
8429 1 -4 -2 12 203.21 153.37 48.26 o
8430 2 11 2 -3 203.21 96.08 66.43 <
8430 1 -4 -2 12 203.21 96.08 66.43 <
8431 2 11 2 -3 203.21 224.77 51.94 o
8431 1 -4 -2 12 203.21 224.77 51.94 o
8432 2 11 -2 -3 184.84 201.26 61.27 o
8432 1 -4 2 12 184.84 201.26 61.27 o
8433 2 11 2 -2 887.04 879.19 98.66 o
8433 1 -3 -2 12 887.04 879.19 98.66 o
8434 2 11 2 -2 887.04 797.47 84.42 o
8434 1 -3 -2 12 887.04 797.47 84.42 o
8435 2 11 -2 -2 819.67 1078.41 91.91 o
8435 1 -3 2 12 819.67 1078.41 91.91 o
8436 2 10 2 4 202.52 263.20 134.15 <
8436 1 2 -2 12 202.52 263.20 134.15 <
8437 2 10 2 5 76.14 32.79 101.18 <
8437 1 3 -2 12 76.14 32.79 101.18 <
8438 2 10 -2 5 63.80 21.67 69.38 <
8438 1 3 2 12 63.80 21.67 69.38 <
8439 2 12 3 -12 1409.15 1489.83 123.90 o
8439 1 -12 -3 12 1409.15 1489.83 123.90 o
8440 2 -12 3 12 1409.15 1567.61 106.34 o
8440 1 12 -3 -12 1409.15 1567.61 106.34 o
8441 2 12 3 -11 248.87 352.29 96.45 o
8441 1 -11 -3 12 248.87 352.29 96.45 o
8442 2 12 3 -10 785.42 956.36 128.44 o
8442 1 -10 -3 12 785.42 956.36 128.44 o
8443 2 11 3 -5 7671.59 7251.13 278.43 o
8443 1 -6 -3 12 7671.59 7251.13 278.43 o
8444 2 11 3 -5 7671.59 7108.33 326.07 o
8444 1 -6 -3 12 7671.59 7108.33 326.07 o
8445 2 11 3 -4 472.28 526.71 59.43 o
8445 1 -5 -3 12 472.28 526.71 59.43 o
8446 2 11 3 -4 472.28 381.94 77.85 o
8446 1 -5 -3 12 472.28 381.94 77.85 o
8447 2 11 3 -3 762.81 805.27 66.80 o
8447 1 -4 -3 12 762.81 805.27 66.80 o
8448 2 11 3 -3 762.81 835.72 93.20 o
8448 1 -4 -3 12 762.81 835.72 93.20 o
8449 2 11 -3 -3 734.22 693.22 76.81 o
8449 1 -4 3 12 734.22 693.22 76.81 o
8450 2 11 3 -2 2215.59 2306.02 150.60 o
8450 1 -3 -3 12 2215.59 2306.02 150.60 o
8451 2 11 3 -2 2215.59 2541.90 152.14 o
8451 1 -3 -3 12 2215.59 2541.90 152.14 o
8452 2 11 -3 -2 2239.31 2213.19 128.87 o
8452 1 -3 3 12 2239.31 2213.19 128.87 o
8453 2 10 3 4 131.52 253.32 127.70 <
8453 1 2 -3 12 131.52 253.32 127.70 <
8454 2 -12 4 12 1402.00 1529.61 102.10 o
8454 1 12 -4 -12 1402.00 1529.61 102.10 o
8455 2 12 4 -12 1402.00 1613.91 131.88 o
8455 1 -12 -4 12 1402.00 1613.91 131.88 o
8456 2 12 4 -11 750.44 938.80 122.73 o
8456 1 -11 -4 12 750.44 938.80 122.73 o
8457 2 12 4 -10 467.57 696.72 130.16 o
8457 1 -10 -4 12 467.57 696.72 130.16 o
8458 2 11 4 -5 105.91 86.08 65.57 <
8458 1 -6 -4 12 105.91 86.08 65.57 <
8459 2 11 4 -5 105.91 -19.59 88.04 <
8459 1 -6 -4 12 105.91 -19.59 88.04 <
8460 2 11 4 -4 237.55 163.80 48.75 o
8460 1 -5 -4 12 237.55 163.80 48.75 o
8461 2 11 4 -4 237.55 231.65 81.41 <
8461 1 -5 -4 12 237.55 231.65 81.41 <
8462 2 11 4 -3 215.29 185.78 55.87 o
8462 1 -4 -4 12 215.29 185.78 55.87 o
8463 2 11 4 -3 215.29 161.41 75.46 <
8463 1 -4 -4 12 215.29 161.41 75.46 <
8464 2 -11 4 2 53.39 -52.37 58.45 <
8464 1 3 -4 -12 53.39 -52.37 58.45 <
8465 2 11 4 -2 53.39 66.55 84.73 <
8465 1 -3 -4 12 53.39 66.55 84.73 <
8466 2 11 4 -2 53.39 88.59 73.61 <
8466 1 -3 -4 12 53.39 88.59 73.61 <
8467 2 10 4 4 311.09 285.86 127.21 <
8467 1 2 -4 12 311.09 285.86 127.21 <
8468 2 -12 5 11 244.79 380.41 92.34 o
8468 1 11 -5 -12 244.79 380.41 92.34 o
8469 2 12 5 -11 244.79 384.89 112.91 o
8469 1 -11 -5 12 244.79 384.89 112.91 o
8470 2 12 5 -10 860.77 1035.62 144.59 o
8470 1 -10 -5 12 860.77 1035.62 144.59 o
8471 2 -12 5 10 860.77 1280.16 127.52 o
8471 1 10 -5 -12 860.77 1280.16 127.52 o
8472 2 11 5 -5 1811.85 1885.03 151.03 o
8472 1 -6 -5 12 1811.85 1885.03 151.03 o
8473 2 11 5 -5 1811.85 1856.54 112.48 o
8473 1 -6 -5 12 1811.85 1856.54 112.48 o
8474 2 -11 5 4 789.01 541.02 76.68 o
8474 1 5 -5 -12 789.01 541.02 76.68 o
8475 2 11 5 -4 789.01 798.76 71.10 o
8475 1 -5 -5 12 789.01 798.76 71.10 o
8476 2 11 5 -4 789.01 750.01 100.20 o
8476 1 -5 -5 12 789.01 750.01 100.20 o
8477 2 11 5 -3 389.99 504.36 63.36 o
8477 1 -4 -5 12 389.99 504.36 63.36 o
8478 2 11 5 -3 389.99 412.46 88.84 o
8478 1 -4 -5 12 389.99 412.46 88.84 o
8479 2 -11 5 3 389.99 356.03 60.60 o
8479 1 4 -5 -12 389.99 356.03 60.60 o
8480 2 11 5 -2 176.25 184.74 97.62 <
8480 1 -3 -5 12 176.25 184.74 97.62 <
8481 2 -11 5 2 176.25 94.98 59.68 <
8481 1 3 -5 -12 176.25 94.98 59.68 <
8482 2 12 6 -10 227.63 72.82 119.72 <
8482 1 -10 -6 12 227.63 72.82 119.72 <
8483 2 -12 6 10 227.63 426.27 110.08 o
8483 1 10 -6 -12 227.63 426.27 110.08 o
8484 2 11 6 -5 1164.21 1101.44 87.73 o
8484 1 -6 -6 12 1164.21 1101.44 87.73 o
8485 2 11 6 -5 1164.21 997.43 127.33 o
8485 1 -6 -6 12 1164.21 997.43 127.33 o
8486 2 -11 6 5 1164.21 593.45 96.82 o
8486 1 6 -6 -12 1164.21 593.45 96.82 o
8487 2 -11 6 4 233.39 274.75 90.87 o
8487 1 5 -6 -12 233.39 274.75 90.87 o
8488 2 -11 6 4 233.39 96.82 65.32 <
8488 1 5 -6 -12 233.39 96.82 65.32 <
8489 2 11 6 -4 233.39 277.69 87.18 o
8489 1 -5 -6 12 233.39 277.69 87.18 o
8490 2 11 6 -4 233.39 330.55 59.92 o
8490 1 -5 -6 12 233.39 330.55 59.92 o
8491 2 -11 6 3 970.29 950.41 77.48 o
8491 1 4 -6 -12 970.29 950.41 77.48 o
8492 2 11 6 -3 970.29 1018.43 111.62 o
8492 1 -4 -6 12 970.29 1018.43 111.62 o
8493 2 -11 6 3 970.29 1007.26 119.17 o
8493 1 4 -6 -12 970.29 1007.26 119.17 o
8494 2 -11 6 2 1827.89 1699.49 101.06 o
8494 1 3 -6 -12 1827.89 1699.49 101.06 o
8495 2 11 6 -2 1827.89 1639.69 138.32 o
8495 1 -3 -6 12 1827.89 1639.69 138.32 o
8496 2 -11 7 6 2736.65 1675.00 143.73 o
8496 1 7 -7 -12 2736.65 1675.00 143.73 o
8497 2 11 7 -5 1518.39 1540.85 143.11 o
8497 1 -6 -7 12 1518.39 1540.85 143.11 o
8498 2 -11 7 5 1518.39 1199.06 121.32 o
8498 1 6 -7 -12 1518.39 1199.06 121.32 o
8499 2 11 7 -5 1518.39 1541.34 96.88 o
8499 1 -6 -7 12 1518.39 1541.34 96.88 o
8500 2 11 7 -4 253.89 252.70 91.48 <
8500 1 -5 -7 12 253.89 252.70 91.48 <
8501 2 11 7 -4 253.89 144.10 52.55 <
8501 1 -5 -7 12 253.89 144.10 52.55 <
8502 2 -11 7 4 253.89 202.11 64.59 o
8502 1 5 -7 -12 253.89 202.11 64.59 o
8503 2 -11 7 3 1517.65 1497.13 96.02 o
8503 1 4 -7 -12 1517.65 1497.13 96.02 o
8504 2 11 7 -3 1517.66 1468.58 124.33 o
8504 1 -4 -7 12 1517.66 1468.58 124.33 o
8505 2 -11 7 3 1517.65 1565.96 132.55 o
8505 1 4 -7 -12 1517.65 1565.96 132.55 o
8506 2 11 7 -2 259.32 285.55 107.20 <
8506 1 -3 -7 12 259.32 285.55 107.20 <
8507 2 -11 7 2 259.32 254.12 127.52 <
8507 1 3 -7 -12 259.32 254.12 127.52 <
8508 2 -11 7 2 259.32 177.25 64.53 <
8508 1 3 -7 -12 259.32 177.25 64.53 <
8509 2 -11 8 5 509.68 350.20 93.01 o
8509 1 6 -8 -12 509.68 350.20 93.01 o
8510 2 11 8 -5 509.68 419.33 66.31 o
8510 1 -6 -8 12 509.68 419.33 66.31 o
8511 2 11 8 -5 509.68 481.28 120.40 o
8511 1 -6 -8 12 509.68 481.28 120.40 o
8512 2 -11 8 4 170.35 113.34 65.02 <
8512 1 5 -8 -12 170.35 113.34 65.02 <
8513 2 11 8 -4 170.35 111.07 99.34 <
8513 1 -5 -8 12 170.35 111.07 99.34 <
8514 2 -11 8 3 381.56 341.97 101.92 o
8514 1 4 -8 -12 381.56 341.97 101.92 o
8515 2 -11 8 3 381.56 233.00 62.01 o
8515 1 4 -8 -12 381.56 233.00 62.01 o
8516 2 11 8 -3 381.56 320.67 96.58 o
8516 1 -4 -8 12 381.56 320.67 96.58 o
8517 2 -11 8 2 192.99 87.86 132.74 <
8517 1 3 -8 -12 192.99 87.86 132.74 <
8518 2 11 8 -2 192.99 176.14 108.73 <
8518 1 -3 -8 12 192.99 176.14 108.73 <
8519 2 12 0 -6 181.93 315.64 94.18 o
8519 1 -7 0 13 181.93 315.64 94.18 o
8520 2 12 0 -5 1071.45 1171.55 104.50 o
8520 1 -6 0 13 1071.45 1171.55 104.50 o
8521 2 12 0 -4 3642.64 3734.39 191.86 o
8521 1 -5 0 13 3642.64 3734.39 191.86 o
8522 2 12 0 -3 43.17 5.65 79.57 <
8522 1 -4 0 13 43.17 5.65 79.57 <
8523 2 11 0 2 211.22 227.96 122.85 <
8523 1 0 0 13 211.22 227.96 122.85 <
8524 2 11 0 3 90.80 84.73 122.79 <
8524 1 1 0 13 90.80 84.73 122.79 <
8525 2 13 1 -12 272.96 438.61 106.64 o
8525 1 -12 -1 13 272.96 438.61 106.64 o
8526 2 13 1 -11 648.68 751.91 121.56 o
8526 1 -11 -1 13 648.68 751.91 121.56 o
8527 2 12 1 -6 346.33 297.34 98.60 o
8527 1 -7 -1 13 346.33 297.34 98.60 o
8528 2 12 -1 -6 338.05 474.22 95.10 o
8528 1 -7 1 13 338.05 474.22 95.10 o
8529 2 12 1 -5 5537.66 5679.53 266.03 o
8529 1 -6 -1 13 5537.66 5679.53 266.03 o
8530 2 12 -1 -5 5682.39 5157.11 243.74 o
8530 1 -6 1 13 5682.39 5157.11 243.74 o
8531 2 12 1 -4 550.37 577.12 87.06 o
8531 1 -5 -1 13 550.37 577.12 87.06 o
8532 2 12 -1 -4 520.85 496.26 80.92 o
8532 1 -5 1 13 520.85 496.26 80.92 o
8533 2 12 1 -3 271.32 145.88 82.45 <
8533 1 -4 -1 13 271.32 145.88 82.45 <
8534 2 12 -1 -3 282.39 331.48 83.50 o
8534 1 -4 1 13 282.39 331.48 83.50 o
8535 2 11 1 3 1111.01 1265.86 148.09 o
8535 1 1 -1 13 1111.01 1265.86 148.09 o
8536 2 13 2 -12 420.05 619.24 109.59 o
8536 1 -12 -2 13 420.05 619.24 109.59 o
8537 2 13 2 -11 995.68 1027.46 137.10 o
8537 1 -11 -2 13 995.68 1027.46 137.10 o
8538 2 12 2 -6 392.58 347.87 102.71 o
8538 1 -7 -2 13 392.58 347.87 102.71 o
8539 2 12 2 -5 327.77 290.89 82.09 o
8539 1 -6 -2 13 327.77 290.89 82.09 o
8540 2 12 -2 -5 353.08 347.32 76.19 o
8540 1 -6 2 13 353.08 347.32 76.19 o
8541 2 12 2 -4 648.20 521.86 86.45 o
8541 1 -5 -2 13 648.20 521.86 86.45 o
8542 2 12 -2 -4 577.52 722.81 87.98 o
8542 1 -5 2 13 577.52 722.81 87.98 o
8543 2 12 2 -3 500.50 537.34 98.23 o
8543 1 -4 -2 13 500.50 537.34 98.23 o
8544 2 12 -2 -3 562.21 490.98 85.89 o
8544 1 -4 2 13 562.21 490.98 85.89 o
8545 2 11 2 3 1917.29 2100.10 177.93 o
8545 1 1 -2 13 1917.29 2100.10 177.93 o
8546 2 13 3 -11 784.51 906.94 129.61 o
8546 1 -11 -3 13 784.51 906.94 129.61 o
8547 2 12 3 -6 258.63 291.94 97.86 <
8547 1 -7 -3 13 258.63 291.94 97.86 <
8548 2 12 3 -5 629.40 534.39 88.23 o
8548 1 -6 -3 13 629.40 534.39 88.23 o
8549 2 12 3 -4 4749.60 4873.89 242.33 o
8549 1 -5 -3 13 4749.60 4873.89 242.33 o
8550 2 12 -3 -4 4816.14 5360.33 248.59 o
8550 1 -5 3 13 4816.14 5360.33 248.59 o
8551 2 12 3 -3 986.98 913.38 109.78 o
8551 1 -4 -3 13 986.98 913.38 109.78 o
8552 2 12 -3 -3 997.94 912.16 98.11 o
8552 1 -4 3 13 997.94 912.16 98.11 o
8553 2 11 3 3 681.64 709.98 135.81 o
8553 1 1 -3 13 681.64 709.98 135.81 o
8554 2 12 4 -6 691.41 682.41 112.05 o
8554 1 -7 -4 13 691.41 682.41 112.05 o
8555 2 12 4 -5 170.76 48.99 83.38 <
8555 1 -6 -4 13 170.76 48.99 83.38 <
8556 2 12 4 -5 170.76 131.88 51.51 <
8556 1 -6 -4 13 170.76 131.88 51.51 <
8557 2 12 4 -4 3923.07 4133.40 216.17 o
8557 1 -5 -4 13 3923.07 4133.40 216.17 o
8558 2 12 4 -4 3923.07 4075.50 180.38 o
8558 1 -5 -4 13 3923.07 4075.50 180.38 o
8559 2 -12 4 3 506.92 295.13 75.33 o
8559 1 4 -4 -13 506.92 295.13 75.33 o
8560 2 12 4 -3 506.92 508.91 104.07 o
8560 1 -4 -4 13 506.92 508.91 104.07 o
8561 2 12 5 -6 317.98 354.07 77.17 o
8561 1 -7 -5 13 317.98 354.07 77.17 o
8562 2 12 5 -6 317.98 145.57 108.85 <
8562 1 -7 -5 13 317.98 145.57 108.85 <
8563 2 -12 5 6 317.98 141.39 92.71 <
8563 1 7 -5 -13 317.98 141.39 92.71 <
8564 2 12 5 -5 3372.75 2960.13 177.13 o
8564 1 -6 -5 13 3372.75 2960.13 177.13 o
8565 2 12 5 -5 3372.75 2972.10 140.10 o
8565 1 -6 -5 13 3372.75 2972.10 140.10 o
8566 2 -12 5 5 3372.76 2603.42 147.16 o
8566 1 6 -5 -13 3372.76 2603.42 147.16 o
8567 2 12 5 -4 552.59 398.70 67.54 o
8567 1 -5 -5 13 552.59 398.70 67.54 o
8568 2 12 5 -4 552.59 486.93 95.47 o
8568 1 -5 -5 13 552.59 486.93 95.47 o
8569 2 -12 5 4 552.60 324.91 71.83 o
8569 1 5 -5 -13 552.60 324.91 71.83 o
8570 2 -12 5 3 853.59 667.74 83.07 o
8570 1 4 -5 -13 853.59 667.74 83.07 o
8571 2 12 5 -3 853.59 960.10 119.17 o
8571 1 -4 -5 13 853.59 960.10 119.17 o
8572 2 12 6 -6 1291.74 1310.55 99.71 o
8572 1 -7 -6 13 1291.74 1310.55 99.71 o
8573 2 12 6 -6 1291.74 1329.03 145.75 o
8573 1 -7 -6 13 1291.74 1329.03 145.75 o
8574 2 12 6 -5 455.25 446.84 66.43 o
8574 1 -6 -6 13 455.25 446.84 66.43 o
8575 2 12 6 -5 455.25 395.76 98.42 o
8575 1 -6 -6 13 455.25 395.76 98.42 o
8576 2 -12 6 5 455.25 126.66 73.31 <
8576 1 6 -6 -13 455.25 126.66 73.31 <
8577 2 -12 6 4 2177.14 1904.19 118.68 o
8577 1 5 -6 -13 2177.14 1904.19 118.68 o
8578 2 12 6 -4 2177.14 2205.95 154.23 o
8578 1 -5 -6 13 2177.14 2205.95 154.23 o
8579 2 -12 6 3 1121.36 1045.20 94.67 o
8579 1 4 -6 -13 1121.36 1045.20 94.67 o
8580 2 -12 6 3 1121.36 1233.01 143.11 o
8580 1 4 -6 -13 1121.36 1233.01 143.11 o
8581 2 12 6 -3 1121.36 942.55 127.46 o
8581 1 -4 -6 13 1121.36 942.55 127.46 o
8582 2 -12 7 7 794.26 -52.37 104.19 <
8582 1 8 -7 -13 794.26 -52.37 104.19 <
8583 2 12 7 -6 199.52 65.69 113.58 <
8583 1 -7 -7 13 199.52 65.69 113.58 <
8584 2 12 7 -6 199.52 142.44 70.24 <
8584 1 -7 -7 13 199.52 142.44 70.24 <
8585 2 12 7 -5 1901.83 1992.17 159.75 o
8585 1 -6 -7 13 1901.83 1992.17 159.75 o
8586 2 -12 7 5 1901.83 1841.38 125.25 o
8586 1 6 -7 -13 1901.83 1841.38 125.25 o
8587 2 12 7 -5 1901.83 1944.83 108.12 o
8587 1 -6 -7 13 1901.83 1944.83 108.12 o
8588 2 -12 7 4 716.71 606.28 79.38 o
8588 1 5 -7 -13 716.71 606.28 79.38 o
8589 2 12 7 -4 716.71 578.29 107.93 o
8589 1 -5 -7 13 716.71 578.29 107.93 o
8590 2 -12 7 3 159.52 141.46 71.34 <
8590 1 4 -7 -13 159.52 141.46 71.34 <
8591 2 12 7 -3 159.52 95.41 107.20 <
8591 1 -4 -7 13 159.52 95.41 107.20 <
8592 2 -12 7 3 159.52 185.29 125.25 <
8592 1 4 -7 -13 159.52 185.29 125.25 <
8593 2 13 0 -7 167.43 314.04 104.19 o
8593 1 -8 0 14 167.43 314.04 104.19 o
8594 2 13 0 -6 74.89 60.90 74.23 <
8594 1 -7 0 14 74.89 60.90 74.23 <
8595 2 13 0 -5 356.23 316.43 83.81 o
8595 1 -6 0 14 356.23 316.43 83.81 o
8596 2 13 0 -4 947.56 1068.41 116.16 o
8596 1 -5 0 14 947.56 1068.41 116.16 o
8597 2 13 1 -8 2309.50 2643.02 184.00 o
8597 1 -9 -1 14 2309.50 2643.02 184.00 o
8598 2 13 1 -7 499.63 526.22 110.08 o
8598 1 -8 -1 14 499.63 526.22 110.08 o
8599 2 13 -1 -7 471.29 539.73 107.87 o
8599 1 -8 1 14 471.29 539.73 107.87 o
8600 2 13 1 -6 503.98 420.07 90.87 o
8600 1 -7 -1 14 503.98 420.07 90.87 o
8601 2 13 -1 -6 511.38 558.64 92.77 o
8601 1 -7 1 14 511.38 558.64 92.77 o
8602 2 13 1 -5 220.27 331.17 86.14 o
8602 1 -6 -1 14 220.27 331.17 86.14 o
8603 2 13 -1 -5 252.87 201.75 78.77 <
8603 1 -6 1 14 252.87 201.75 78.77 <
8604 2 13 1 -4 500.95 471.03 100.75 o
8604 1 -5 -1 14 500.95 471.03 100.75 o
8605 2 13 -1 -4 469.83 452.42 98.66 o
8605 1 -5 1 14 469.83 452.42 98.66 o
8606 2 13 2 -8 1077.37 1045.26 138.51 o
8606 1 -9 -2 14 1077.37 1045.26 138.51 o
8607 2 13 2 -7 754.85 848.61 124.20 o
8607 1 -8 -2 14 754.85 848.61 124.20 o
8608 2 13 2 -6 183.42 228.02 88.66 <
8608 1 -7 -2 14 183.42 228.02 88.66 <
8609 2 13 -2 -6 202.35 157.54 81.96 <
8609 1 -7 2 14 202.35 157.54 81.96 <
8610 2 13 2 -5 1185.41 1092.84 109.96 o
8610 1 -6 -2 14 1185.41 1092.84 109.96 o
8611 2 13 -2 -5 1120.92 1231.60 111.31 o
8611 1 -6 2 14 1120.92 1231.60 111.31 o
8612 2 13 2 -4 3402.99 3293.39 194.99 o
8612 1 -5 -2 14 3402.99 3293.39 194.99 o
8613 2 13 -2 -4 3419.02 3742.62 201.38 o
8613 1 -5 2 14 3419.02 3742.62 201.38 o
8614 2 13 3 -8 1408.03 1766.84 167.92 o
8614 1 -9 -3 14 1408.03 1766.84 167.92 o
8615 2 13 3 -7 827.39 861.75 122.55 o
8615 1 -8 -3 14 827.39 861.75 122.55 o
8616 2 13 3 -6 43.36 68.03 79.81 <
8616 1 -7 -3 14 43.36 68.03 79.81 <
8617 2 13 3 -5 186.49 97.99 83.44 <
8617 1 -6 -3 14 186.49 97.99 83.44 <
8618 2 13 -3 -5 226.76 165.15 75.03 <
8618 1 -6 3 14 226.76 165.15 75.03 <
8619 2 13 3 -4 102.15 131.76 101.24 <
8619 1 -5 -3 14 102.15 131.76 101.24 <
8620 2 13 4 -8 661.86 705.62 141.82 o
8620 1 -9 -4 14 661.86 705.62 141.82 o
8621 2 13 4 -7 464.06 421.17 121.07 o
8621 1 -8 -4 14 464.06 421.17 121.07 o
8622 2 13 4 -6 355.33 325.70 96.33 o
8622 1 -7 -4 14 355.33 325.70 96.33 o
8623 2 13 4 -5 835.18 925.60 115.12 o
8623 1 -6 -4 14 835.18 925.60 115.12 o
8624 2 13 -4 -5 846.34 1077.86 108.67 o
8624 1 -6 4 14 846.34 1077.86 108.67 o
8625 2 -13 4 4 732.71 437.75 85.65 o
8625 1 5 -4 -14 732.71 437.75 85.65 o
8626 2 13 4 -4 732.71 667.19 114.44 o
8626 1 -5 -4 14 732.71 667.19 114.44 o
8627 2 13 5 -7 756.68 691.44 131.63 o
8627 1 -8 -5 14 756.68 691.44 131.63 o
8628 2 -13 5 7 756.68 915.10 109.96 o
8628 1 8 -5 -14 756.68 915.10 109.96 o
8629 2 -13 5 6 2805.12 2697.11 150.91 o
8629 1 7 -5 -14 2805.12 2697.11 150.91 o
8630 2 13 5 -6 2805.12 2563.02 178.48 o
8630 1 -7 -5 14 2805.12 2563.02 178.48 o
8631 2 -13 5 5 56.36 -5.53 68.76 <
8631 1 6 -5 -14 56.36 -5.53 68.76 <
8632 2 13 5 -5 56.36 65.63 60.66 <
8632 1 -6 -5 14 56.36 65.63 60.66 <
8633 2 13 5 -5 56.36 34.81 89.51 <
8633 1 -6 -5 14 56.36 34.81 89.51 <
8634 2 -13 5 4 299.75 86.26 80.49 <
8634 1 5 -5 -14 299.75 86.26 80.49 <
8635 2 13 5 -4 299.75 266.09 107.20 <
8635 1 -5 -5 14 299.75 266.09 107.20 <
8636 2 14 0 -8 1626.25 1750.14 155.27 o
8636 1 -9 0 15 1626.25 1750.14 155.27 o
8637 2 14 0 -7 1277.38 1389.20 127.70 o
8637 1 -8 0 15 1277.38 1389.20 127.70 o
8638 2 14 0 -6 765.12 799.31 106.89 o
8638 1 -7 0 15 765.12 799.31 106.89 o
8639 2 14 0 -5 618.69 646.19 113.28 o
8639 1 -6 0 15 618.69 646.19 113.28 o
8640 2 14 1 -8 482.42 596.89 122.42 o
8640 1 -9 -1 15 482.42 596.89 122.42 o
8641 2 14 -1 -8 595.24 564.10 120.95 o
8641 1 -9 1 15 595.24 564.10 120.95 o
8642 2 14 1 -7 4396.37 4263.07 230.42 o
8642 1 -8 -1 15 4396.37 4263.07 230.42 o
8643 2 14 -1 -7 4090.98 5036.16 252.46 o
8643 1 -8 1 15 4090.98 5036.16 252.46 o
8644 2 14 1 -6 638.62 658.22 103.33 o
8644 1 -7 -1 15 638.62 658.22 103.33 o
8645 2 14 -1 -6 581.57 844.80 106.64 o
8645 1 -7 1 15 581.57 844.80 106.64 o
8646 2 14 1 -5 313.69 369.05 106.71 o
8646 1 -6 -1 15 313.69 369.05 106.71 o
8647 2 14 -1 -5 384.83 516.83 111.49 o
8647 1 -6 1 15 384.83 516.83 111.49 o
8648 2 14 2 -8 773.80 907.55 134.82 o
8648 1 -9 -2 15 773.80 907.55 134.82 o
8649 2 14 -2 -8 830.94 901.90 135.87 o
8649 1 -9 2 15 830.94 901.90 135.87 o
8650 2 14 2 -7 592.59 642.51 104.74 o
8650 1 -8 -2 15 592.59 642.51 104.74 o
8651 2 14 -2 -7 582.53 772.11 106.28 o
8651 1 -8 2 15 582.53 772.11 106.28 o
8652 2 14 2 -6 817.58 755.29 110.21 o
8652 1 -7 -2 15 817.58 755.29 110.21 o
8653 2 14 -2 -6 834.76 959.12 108.30 o
8653 1 -7 2 15 834.76 959.12 108.30 o
8654 2 14 2 -5 1598.16 1456.24 141.15 o
8654 1 -6 -2 15 1598.16 1456.24 141.15 o
8655 2 14 -2 -5 1491.86 1647.06 140.72 o
8655 1 -6 2 15 1491.86 1647.06 140.72 o
8656 2 14 3 -7 681.65 876.12 118.80 o
8656 1 -8 -3 15 681.65 876.12 118.80 o
8657 2 14 -3 -7 720.91 799.37 107.75 o
8657 1 -8 3 15 720.91 799.37 107.75 o
8658 2 14 3 -6 46.65 159.69 93.38 <
8658 1 -7 -3 15 46.65 159.69 93.38 <
8659 2 14 -3 -6 40.27 101.00 82.82 <
8659 1 -7 3 15 40.27 101.00 82.82 <
8660 2 14 3 -5 1533.48 1383.67 140.29 o
8660 1 -6 -3 15 1533.48 1383.67 140.29 o
