#------------------------------------------------------------------------------
#$Date: 2021-04-28 10:38:16 +0300 (Wed, 28 Apr 2021) $
#$Revision: 264623 $
#$URL: file:///home/coder/svn-repositories/cod/cif/1/56/21/1562190.cif $
#------------------------------------------------------------------------------
#
# This file is available in the Crystallography Open Database (COD),
# http://www.crystallography.net/
#
# All data on this site have been placed in the public domain by the
# contributors.
#
data_1562190
loop_
_publ_author_name
'Moetakef, Pouya'
'Larson, Amber M.'
'Hodges, Brenna C.'
'Zavalij, Peter'
'Gaskell, Karen J.'
'Piccoli, Philip M.'
'Rodriguez, Efrain E.'
_publ_section_title
;
 Synthesis and crystal chemistry of microporous titanates K (Ti,M)8O16
 where M=Sc--Ni
;
_journal_name_full               'Journal of Solid State Chemistry'
_journal_page_first              45
_journal_page_last               53
_journal_paper_doi               10.1016/j.jssc.2014.08.012
_journal_volume                  220
_journal_year                    2014
_chemical_formula_moiety         'K1.60, Ti6.40 V1.60 O16'
_chemical_formula_sum            'K1.6 O16 Ti6.4 V1.6'
_chemical_formula_weight         706.62
_chemical_name_common            'Potassium titanium vanadium oxide'
_chemical_name_systematic
;
Potassium titanium vanadium oxide
;
_space_group_crystal_system      tetragonal
_space_group_IT_number           87
_space_group_name_Hall           '-I 4'
_space_group_name_H-M_alt        'I 4/m'
_symmetry_cell_setting           tetragonal
_symmetry_space_group_name_H-M   'I 4/m'
_atom_sites_solution_hydrogens   .
_atom_sites_solution_primary     direct
_atom_sites_solution_secondary   difmap
_cell_angle_alpha                90
_cell_angle_beta                 90
_cell_angle_gamma                90
_cell_formula_units_Z            1
_cell_length_a                   10.1539(8)
_cell_length_b                   10.1539(8)
_cell_length_c                   2.9684(2)
_cell_measurement_reflns_used    2081
_cell_measurement_temperature    149(2)
_cell_measurement_theta_max      32.1
_cell_measurement_theta_min      2.8
_cell_volume                     306.05(4)
_computing_cell_refinement       Apex2
_computing_data_collection       'Apex2 (Bruker, 2010)'
_computing_data_reduction        'Apex2, Saint'
_computing_molecular_graphics    'XSHEL (Bruker, 2004)'
_computing_publication_material  'Apex2, SHELXL-2014, Platon (Spek, 1990)'
_computing_structure_refinement  'ShelXL-2014 (Sheldrick, 2014)'
_computing_structure_solution    'ShelXS-97 (Sheldrick, 2008)'
_diffrn_ambient_temperature      149(2)
_diffrn_detector                 'CCD area detector'
_diffrn_detector_area_resol_mean 8.333
_diffrn_measured_fraction_theta_full 1.000
_diffrn_measured_fraction_theta_max 1.000
_diffrn_measurement_device_type  'Bruker Smart Apex II CCD'
_diffrn_measurement_method       '\f and \w scans'
_diffrn_measurement_specimen_support 'MiTeGen loop'
_diffrn_orient_matrix_type       standard
_diffrn_orient_matrix_UB_11      -0.0150257
_diffrn_orient_matrix_UB_12      0.0919567
_diffrn_orient_matrix_UB_13      0.1091547
_diffrn_orient_matrix_UB_21      0.0833179
_diffrn_orient_matrix_UB_22      0.0288597
_diffrn_orient_matrix_UB_23      -0.1500823
_diffrn_orient_matrix_UB_31      -0.0502978
_diffrn_orient_matrix_UB_32      0.0203046
_diffrn_orient_matrix_UB_33      -0.2811534
_diffrn_radiation_monochromator  graphite
_diffrn_radiation_type           MoK\a
_diffrn_radiation_wavelength     0.71073
_diffrn_reflns_av_R_equivalents  0.0155
_diffrn_reflns_av_unetI/netI     0.0079
_diffrn_reflns_Laue_measured_fraction_full 1.000
_diffrn_reflns_Laue_measured_fraction_max 1.000
_diffrn_reflns_limit_h_max       14
_diffrn_reflns_limit_h_min       -14
_diffrn_reflns_limit_k_max       14
_diffrn_reflns_limit_k_min       -14
_diffrn_reflns_limit_l_max       4
_diffrn_reflns_limit_l_min       -4
_diffrn_reflns_number            2772
_diffrn_reflns_point_group_measured_fraction_full 1.000
_diffrn_reflns_point_group_measured_fraction_max 1.000
_diffrn_reflns_theta_full        30.000
_diffrn_reflns_theta_max         31.454
_diffrn_reflns_theta_min         2.837
_diffrn_source                   'sealed tube'
_exptl_absorpt_coefficient_mu    5.759
_exptl_absorpt_correction_T_max  0.772
_exptl_absorpt_correction_T_min  0.587
_exptl_absorpt_correction_type   multi-scan
_exptl_absorpt_process_details   'SADABS (Sheldrick, 2008)'
_exptl_crystal_colour            black
_exptl_crystal_density_diffrn    3.834
_exptl_crystal_density_method    'not measured'
_exptl_crystal_description       needle
_exptl_crystal_F_000             336
_exptl_crystal_size_max          0.17
_exptl_crystal_size_mid          0.055
_exptl_crystal_size_min          0.045
_refine_diff_density_max         0.408
_refine_diff_density_min         -0.308
_refine_diff_density_rms         0.087
_refine_ls_extinction_coef       .
_refine_ls_extinction_method     none
_refine_ls_goodness_of_fit_ref   1.000
_refine_ls_hydrogen_treatment    undef
_refine_ls_matrix_type           full
_refine_ls_number_parameters     28
_refine_ls_number_reflns         302
_refine_ls_number_restraints     19
_refine_ls_restrained_S_all      0.995
_refine_ls_R_factor_all          0.0140
_refine_ls_R_factor_gt           0.0136
_refine_ls_shift/su_max          0.000
_refine_ls_shift/su_mean         0.000
_refine_ls_structure_factor_coef Fsqd
_refine_ls_weighting_details
'w=1/[\s^2^(Fo^2^)+(0.0100P)^2^+1.4400P] where P=(Fo^2^+2Fc^2^)/3'
_refine_ls_weighting_scheme      calc
_refine_ls_wR_factor_gt          0.0358
_refine_ls_wR_factor_ref         0.0360
_reflns_Friedel_coverage         0.000
_reflns_Friedel_fraction_full    .
_reflns_Friedel_fraction_max     .
_reflns_number_gt                294
_reflns_number_total             302
_reflns_threshold_expression     'I > 2\s(I)'
_cod_data_source_file            JSSC-2014-220-45-2.cif
_cod_data_source_block           2556
_cod_depositor_comments
;
The following automatic conversions were performed:

data item '_symmetry_cell_setting' value 'Tetragonal' was changed to
'tetragonal' in accordance with the built-in table derived from the
CIF Core dictionary named 'cif_core.dic' version 2.4.5 last updated
on 2014-11-21.

Automatic conversion script
Id: cif_fix_values 8369 2020-08-20 11:38:08Z andrius 
;
_cod_original_cell_volume        306.05(5)
_cod_original_sg_symbol_H-M      I4/m
_cod_original_formula_sum        'K1.60 O16 Ti6.40 V1.60'
_cod_database_code               1562190
_shelx_space_group_comment
;
The symmetry employed for this shelxl refinement is uniquely defined
by the following loop, which should always be used as a source of
symmetry information in preference to the above space-group names.
They are only intended as comments.
;
_shelx_estimated_absorpt_t_min   0.441
_shelx_estimated_absorpt_t_max   0.782
_shelxl_version_number           2014-3
_shelx_res_file
;
TITL as in I4/m
CELL 0.71073  10.1539  10.1539   2.9684  90.000  90.000  90.000
ZERR    1.00   0.0008   0.0008   0.0002   0.000   0.000   0.000
LATT  2
SYMM -X, -Y, Z
SYMM -Y, X, Z
SYMM Y, -X, Z
SFAC O  K  Ti V
UNIT 16 1.6 6.4 1.6
OMIT  -2.00  63.00
L.S. 9
ACTA 60
BOND
FMAP 2
PLAN 20
SIZE 0.045 0.055 0.17
TEMP -123.940
sump 0 .0000001 1 2 1 3 1 4 -0.5 5
WGHT    0.010000    1.440000
FVAR       0.20894   0.05365   0.04516   0.00122   0.20007
MOLE 1
simu .01 K1 K2
isor .01 K1 K2
eadp K2 K3
K1    2    0.500000    0.500000    0.225838    21.00000    0.01005    0.01005 =
         0.04962    0.00000    0.00000    0.00000
K2    2    0.500000    0.500000    0.000000    31.00000    0.01807    0.01807 =
         0.04814    0.00000    0.00000    0.00000
K3    2    0.500000    0.500000    0.500000    41.00000    0.01807    0.01807 =
         0.04814    0.00000    0.00000    0.00000
eadp Ti1 V1
exyz Ti1 V1
TI1   3    0.166902    0.350053    0.000000   -50.50000    0.00610    0.00564 =
         0.00497    0.00000    0.00000    0.00090
V1    4    0.166902    0.350053    0.000000    50.50000    0.00610    0.00564 =
         0.00497    0.00000    0.00000    0.00090
O1    1    0.166298    0.539692    0.000000    10.50000    0.00822    0.00495 =
         0.00602    0.00000    0.00000    0.00016
O2    1    0.295967    0.344330    0.500000    10.50000    0.00620    0.00519 =
         0.00573    0.00000    0.00000    0.00044
HKLF 4

REM  as in I4/m
REM R1 =  0.0136 for     294 Fo > 4sig(Fo)  and  0.0140 for all     302 data
REM     28 parameters refined using     19 restraints

END

WGHT      0.0233      0.2425

REM Highest difference peak  0.408,  deepest hole -0.308,  1-sigma level  0.087
Q1    1   0.5225  0.6325  0.5000  10.50000  0.05    0.41
Q2    1   0.3147  0.2864  0.5000  10.50000  0.05    0.31
Q3    1   0.1555  0.4962  0.0000  10.50000  0.05    0.26
Q4    1   0.2629  0.3712  0.3181  11.00000  0.05    0.26
Q5    1   0.1219  0.5624 -0.1738  11.00000  0.05    0.23
Q6    1   0.1918  0.5811 -0.1833  11.00000  0.05    0.22
Q7    1   0.2500  0.2500  0.7500  10.50000  0.05    0.17
Q8    1   0.1938  0.6042  0.0000  10.50000  0.05    0.17
Q9    1   0.2179  0.5342 -0.1128  11.00000  0.05    0.14
Q10   1   0.5000  0.5000  0.6209  10.25000  0.05    0.13
Q11   1   0.2731  0.5968 -0.2050  11.00000  0.05    0.12
Q12   1   0.2490  0.3258  0.0000  10.50000  0.05    0.11
Q13   1   0.3074  0.5969  0.0000  10.50000  0.05    0.10
Q14   1   0.2823  0.5455  0.0000  10.50000  0.05    0.10
Q15   1   0.4049  0.4329  0.3370  11.00000  0.05    0.10
Q16   1   0.3743  0.3187  0.6705  11.00000  0.05    0.09
Q17   1   0.5428  0.4937  0.1218  11.00000  0.05    0.09
Q18   1   0.3928  0.4061  0.6245  11.00000  0.05    0.08
Q19   1   0.5889  0.4075  0.0000  10.50000  0.05    0.08
Q20   1   0.2906  0.5368 -0.3157  11.00000  0.05    0.07
;
_shelx_res_checksum              37137
_shelx_hkl_file
;
   1   1   0   75.25    0.99
   1   1   0   73.66    1.11
   1  -1   0   74.29    1.00
   1  -1   0   74.55    0.99
  -1  -1   0   74.49    0.99
  -1  -1   0   70.54    1.12
  -1   1   0   73.84    1.10
  -1   1   0   72.32    1.09
   2   0   0  168.06    2.48
  -2   0   0  175.57    2.50
   0  -2   0  175.24    2.23
   0  -2   0  172.26    2.53
   0   2   0  171.62    2.35
   0   2   0  174.99    2.42
   0   2   0  173.56    2.51
  -2   0   0  176.09    2.33
  -2   0   0  175.57    2.22
   2   2   0   75.24    1.24
   2   2   0   74.20    1.06
  -2   2   0   75.68    1.22
  -2  -2   0   75.91    1.29
  -2  -2   0   75.59    1.12
   2  -2   0   76.47    1.08
   2  -2   0   75.40    1.12
  -1   3   0  606.24    8.37
  -1   3   0  590.48    8.03
   1  -3   0  617.55    7.44
   3   1   0  609.21    8.52
   3   1   0  582.46    8.21
  -3  -1   0  608.33    7.42
  -3  -1   0  605.86    7.95
  -3  -1   0  612.33    8.71
   1  -3   0  599.24    8.40
   1  -3   0  610.65    8.01
  -3   1   0  234.53    3.30
   1   3   0  238.95    3.46
  -3   1   0  240.90    3.07
  -1  -3   0  233.59    3.08
  -1  -3   0  240.28    3.52
  -3   1   0  237.67    3.43
   1   3   0  242.25    3.25
   1   3   0  226.40    3.34
   3  -1   0  238.07    3.33
  -3  -3   0   49.60    1.02
   3  -3   0   45.84    0.86
  -3   3   0   47.29    0.94
   3   3   0   46.09    1.07
   3   3   0   48.90    0.75
   3   3   0   48.83    0.96
  -3  -3   0   47.62    0.87
   3  -3   0   48.43    0.77
   2  -4   0  182.02    2.54
   4   2   0  181.23    2.95
   4   2   0  184.67    2.80
  -4  -2   0  184.73    2.53
  -4  -2   0  183.29    2.42
  -4  -2   0  176.92    2.87
  -2   4   0  184.07    2.85
  -2   4   0  181.77    2.81
   2  -4   0  183.32    2.41
   0   4   0  213.85    3.07
   0  -4   0  210.36    2.84
  -4   0   0  209.21    3.16
  -4   0   0  208.76    2.82
   4   0   0  210.21    3.17
  -4   0   0  212.84    2.92
   0  -4   0  210.76    3.21
   0   4   0  213.50    3.17
   0   4   0  206.14    2.95
  -4   2   0   51.74    1.04
   2   4   0   49.46    1.01
   4  -2   0   50.64    0.94
  -4   2   0   51.47    0.92
  -4   2   0   51.26    0.99
   2   4   0   52.42    0.90
  -2  -4   0   49.86    1.07
   2   4   0   51.03    1.08
   4   4   0   71.85    1.56
   4   4   0   73.63    1.40
   4  -4   0   72.99    1.12
   4  -4   0   70.65    1.27
  -4  -4   0   74.22    1.49
  -4   4   0   72.01    1.38
   4   4   0   72.83    1.10
  -4  -4   0   72.99    1.28
  -5  -3   0   62.15    1.33
   3  -5   0   61.61    1.16
   5   3   0   61.54    1.23
  -5  -3   0   64.52    1.16
  -3   5   0   61.33    1.37
  -3   5   0   60.91    1.25
  -5  -3   0   61.11    0.91
  -5  -1   0  114.60    1.64
  -1   5   0  110.57    1.94
  -5  -1   0  110.88    1.72
   5   1   0  110.82    2.03
  -1   5   0  114.41    1.92
   1  -5   0  110.47    1.74
   1  -5   0  111.82    1.94
  -1   5   0  111.31    1.62
  -5  -1   0  109.67    1.93
   5  -1   0  119.89    2.01
   1   5   0  119.04    1.96
   1   5   0  121.65    2.05
  -5   1   0  119.39    1.82
  -1  -5   0  117.59    1.84
   1   5   0  121.44    1.93
  -5   1   0  120.56    2.01
  -5   1   0  118.59    1.92
  -1  -5   0  120.78    2.10
  -5   3   0    2.44    0.20
   3   5   0    2.92    0.23
  -3  -5   0    3.20    0.23
   3   5   0    2.81    0.18
  -5   3   0    2.70    0.29
   3   5   0    3.45    0.30
  -5   3   0    2.96    0.22
  -3  -5   0    2.97    0.26
  -5  -5   0   10.59    0.52
   5   5   0   10.65    0.29
  -5   5   0   10.87    0.46
   5   5   0   11.09    0.57
  -5  -5   0   10.52    0.44
   5   5   0   11.39    0.48
   5  -5   0   10.95    0.30
   5  -5   0   10.69    0.43
  -5   5   0   10.63    0.54
   6   4   0  118.27    2.40
  -4   6   0  123.19    2.35
  -4   6   0  121.96    2.21
  -6  -4   0  123.09    2.31
   4  -6   0  122.30    2.02
  -6  -4   0  121.53    2.00
  -6  -2   0    0.08    0.08
   2  -6   0    0.19    0.09
  -6  -2   0    0.10    0.09
   6   2   0    0.34    0.15
  -2   6   0    0.60    0.16
  -2   6   0    0.15    0.09
  -6  -2   0    0.14    0.06
  -6   0   0  899.11   11.85
   0   6   0  871.50   12.00
  -6   0   0  901.85   11.24
   6   0   0  887.25   12.33
   0   6   0  923.35   12.71
   0   6   0  922.78   12.09
   0  -6   0  917.98   12.77
   0  -6   0  914.73   11.28
  -6   0   0  905.77   13.19
   2   6   0   80.32    1.42
  -2  -6   0   77.86    1.62
   2   6   0   80.39    1.57
  -6   2   0   79.23    1.52
   6  -2   0   78.82    1.48
  -6   2   0   79.02    1.41
  -2  -6   0   78.86    1.43
  -6   2   0   76.97    1.52
   2   6   0   81.00    1.57
  -4  -6   0    5.24    0.31
   4   6   0    6.69    0.43
  -6   4   0    5.59    0.32
  -6   4   0    5.38    0.38
   6  -4   0    5.14    0.31
   6  -4   0    5.39    0.26
  -4  -6   0    5.00    0.36
   4   6   0    5.54    0.25
  -6   4   0    5.50    0.33
   4   6   0    5.19    0.33
  -6  -6   0  291.14    4.21
   6   6   0  294.10    4.83
  -6   6   0  288.07    4.71
   6  -6   0  295.65    4.21
  -6  -6   0  292.01    4.84
  -6   6   0  294.12    4.66
   5  -7   0   85.94    1.65
  -7  -5   0   85.51    1.90
  -7  -5   0   83.63    1.63
  -5   7   0   83.59    1.78
  -5   7   0   85.60    1.94
  -3   7   0  171.96    3.01
  -7  -3   0  172.82    3.00
   7   3   0  169.51    3.11
  -3   7   0  164.19    2.91
   3  -7   0  172.30    2.67
  -7  -3   0  167.21    2.62
   7   1   0  146.19    2.65
  -1   7   0  143.50    2.52
   1  -7   0  140.37    2.28
  -7  -1   0  139.39    2.25
  -7  -1   0  145.59    2.16
   1  -7   0  140.81    2.53
  -7  -1   0  143.82    2.52
  -1   7   0  142.13    2.11
  -1   7   0  144.21    2.52
   7  -1   0    0.48    0.15
  -7   1   0    0.89    0.17
  -7   1   0    0.68    0.15
   1   7   0    0.22    0.11
   1   7   0    0.46    0.14
  -7   1   0    0.46    0.12
   1   7   0    0.74    0.15
  -1  -7   0    0.50    0.16
   3   7   0  308.72    4.32
   3   7   0  299.15    4.73
  -7   3   0  300.11    4.70
  -3  -7   0  306.65    4.27
   3   7   0  297.94    4.66
  -7   3   0  301.66    4.22
  -3  -7   0  301.75    4.84
  -7   3   0  290.98    4.55
   7  -3   0  298.91    4.43
   7  -5   0   98.00    1.81
  -7   5   0   98.89    1.98
  -5  -7   0   94.92    2.10
   5   7   0   99.24    2.12
  -7   5   0   98.23    2.08
  -5  -7   0   97.97    1.82
  -7  -7   0   47.28    1.41
  -7   7   0   47.84    1.42
   7  -7   0   48.77    1.21
  -7   7   0   47.77    1.28
   7   7   0   47.45    1.45
  -7  -7   0   47.77    1.21
  -8  -6   0   18.19    0.81
  -6   8   0   17.34    0.73
   6  -8   0   16.95    0.68
  -8  -6   0   17.65    0.69
  -6   8   0   16.23    0.81
   8   6   0   16.56    0.85
  -8  -4   0    5.09    0.40
  -4   8   0    4.94    0.36
  -8  -4   0    4.77    0.34
   4  -8   0    4.31    0.32
  -4   8   0    4.54    0.47
   8   4   0    4.48    0.50
  -2   8   0   36.92    1.02
   2  -8   0   35.84    0.95
  -8  -2   0   33.90    1.02
  -8  -2   0   35.82    0.93
  -2   8   0   36.98    1.10
   8   2   0   35.96    1.15
   0  -8   0    6.90    0.39
  -8   0   0    6.01    0.36
   0   8   0    6.74    0.41
  -8   0   0    6.92    0.34
   0   8   0    6.84    0.40
   8   0   0    7.31    0.45
  -8   0   0    6.42    0.39
  -8   2   0    1.31    0.20
  -8   2   0    1.10    0.20
   2   8   0    0.91    0.18
   2   8   0    0.81    0.18
   2   8   0    0.73    0.17
  -2  -8   0    0.45    0.14
  -8   2   0    1.12    0.21
   8  -2   0    0.75    0.18
   8  -4   0   78.59    1.54
  -4  -8   0   80.62    1.64
  -8   4   0   80.67    1.74
   4   8   0   80.49    1.48
  -8   4   0   78.42    1.59
   4   8   0   83.09    1.83
  -4  -8   0   79.15    1.85
  -8   4   0   79.30    1.78
  -8   6   0   11.94    0.67
  -8   6   0   11.56    0.59
   6   8   0   12.89    0.70
   8  -6   0   12.18    0.57
  -6  -8   0   12.50    0.58
  -8   8   0    0.10    0.16
  -8   8   0    0.07    0.12
   8   8   0    0.62    0.24
   8  -8   0   -0.03    0.11
  -8  -8   0    0.04    0.12
  -7   9   0  259.12    4.50
  -7   9   0  250.02    4.60
   7  -9   0  257.32    4.08
  -9  -7   0  268.71    4.74
   9   7   0  264.03    4.75
  -9  -7   0  254.97    4.06
  -9  -5   0    1.55    0.25
  -5   9   0    1.75    0.29
  -5   9   0    1.80    0.33
   9   5   0    2.39    0.40
   5  -9   0    0.96    0.22
  -9  -5   0    1.45    0.29
  -9  -3   0   89.41    1.99
   3  -9   0   88.99    1.81
  -3   9   0   91.04    2.05
  -9  -3   0   88.60    1.77
   9   3   0   86.12    2.10
  -3   9   0   89.94    1.94
  -1   9   0  350.82    5.45
  -1   9   0  345.64    5.60
  -9  -1   0  355.55    5.66
   1  -9   0  362.96    5.08
   9   1   0  349.93    5.61
  -9  -1   0  370.29    5.03
   1   9   0   27.21    0.91
   1   9   0   27.14    0.86
  -1  -9   0   27.56    0.85
  -9   1   0   25.72    0.81
   9  -1   0   26.70    0.91
  -9   1   0   25.26    0.87
  -9   1   0   27.30    0.81
   9  -3   0   75.31    1.61
   3   9   0   77.00    1.56
  -9   3   0   76.78    1.70
   3   9   0   77.58    1.69
  -9   3   0   76.00    1.74
  -9   3   0   74.16    1.58
  -3  -9   0   75.45    1.62
  -9   5   0   78.47    1.83
   9  -5   0   83.74    1.73
  -5  -9   0   77.53    1.71
  -9   5   0   77.87    1.87
   5   9   0   81.26    1.92
   9  -7   0   50.40    1.35
  -9   7   0   52.04    1.56
   7   9   0   51.77    1.59
  -7  -9   0   52.31    1.39
  -9   7   0   51.76    1.48
  -9   9   0   59.18    1.81
   9   9   0   61.75    1.86
  -9   9   0   61.71    1.74
  -9  -9   0   60.10    1.59
   9  -9   0   61.11    1.59
   8 -10   0    6.04    0.55
  10   8   0    6.78    0.70
  -8  10   0    5.77    0.49
  -8  10   0    6.27    0.67
 -10  -8   0    6.23    0.56
 -10  -6   0    8.96    0.63
 -10  -6   0    9.91    0.56
  -6  10   0    8.64    0.64
  -6  10   0   10.51    0.63
  10   6   0    9.47    0.69
   6 -10   0    9.72    0.57
  10   4   0  115.42    2.65
  -4  10   0  116.81    2.46
  -4  10   0  115.15    2.58
 -10  -4   0  119.54    2.55
   4 -10   0  116.23    2.28
 -10  -4   0  120.78    2.27
 -10  -2   0    6.75    0.48
 -10  -2   0    5.12    0.38
  10   2   0    4.69    0.51
  -2  10   0    5.42    0.44
  -2  10   0    6.63    0.47
   2 -10   0    6.23    0.42
   0  10   0  119.25    2.45
  10   0   0  119.62    2.48
 -10   0   0  119.93    2.45
 -10   0   0  119.52    2.19
   0 -10   0  117.03    2.24
   0  10   0  120.23    2.37
 -10   2   0  152.65    2.95
   2  10   0  157.91    2.77
 -10   2   0  156.67    2.69
  -2 -10   0  154.59    2.73
  10  -2   0  155.57    2.86
  -4 -10   0    2.63    0.34
   4  10   0    3.10    0.39
 -10   4   0    3.02    0.38
 -10   4   0    3.17    0.36
 -10   4   0    3.23    0.40
 -10   6   0  123.90    2.63
  -6 -10   0  120.71    2.42
   6  10   0  122.54    2.67
  10  -6   0  125.58    2.41
 -10   6   0  123.69    2.63
  10  -8   0   67.01    1.70
 -10   8   0   70.38    1.95
   8  10   0   69.68    1.96
  -8 -10   0   66.43    1.71
 -10   8   0   67.79    1.83
  10  10   0   27.12    1.25
  10 -10   0   27.47    1.08
 -10  10   0   26.24    1.15
 -10 -10   0   25.62    1.05
 -10  10   0   26.95    1.24
 -11  -9   0    3.65    0.48
  -9  11   0    3.27    0.48
  11   9   0    3.31    0.54
   9 -11   0    3.19    0.45
  -9  11   0    3.78    0.56
  -7  11   0   14.21    0.79
   7 -11   0   13.99    0.74
  -7  11   0   13.14    0.85
  11   7   0   13.82    0.88
 -11  -7   0   13.06    0.70
   5 -11   0   11.49    0.64
  -5  11   0   12.81    0.72
 -11  -5   0   10.90    0.61
  -5  11   0   11.51    0.75
 -11  -5   0   12.46    0.73
  11   5   0   12.51    0.79
  -3  11   0    0.85    0.25
  11   3   0    1.08    0.28
   3 -11   0    0.86    0.22
 -11  -3   0    0.60    0.21
 -11  -3   0    1.02    0.23
  -3  11   0    0.67    0.22
 -11  -1   0    3.82    0.44
  11   1   0    4.07    0.50
   1 -11   0    3.30    0.38
  -1  11   0    4.39    0.48
  -1  11   0    4.02    0.44
 -11  -1   0    3.26    0.37
  -1 -11   0   29.07    1.00
   1  11   0   30.39    1.02
 -11   1   0   30.83    0.98
  11  -1   0   31.39    1.09
 -11   1   0   29.28    1.06
 -11   3   0    4.19    0.46
 -11   3   0    4.65    0.45
  -3 -11   0    4.00    0.44
  11  -5   0   15.56    0.74
  -5 -11   0   17.62    0.79
 -11   5   0   16.17    0.80
 -11   5   0   17.35    0.82
   7  11   0   39.64    1.39
 -11   7   0   39.63    1.36
 -11   7   0   38.28    1.37
  -7 -11   0   39.88    1.28
  11  -7   0   39.82    1.26
  11  -9   0   17.65    0.87
   9  11   0   17.37    0.98
 -11   9   0   16.68    0.96
  -9 -11   0   16.14    0.85
  12   8   0   36.66    1.54
  -8  12   0   39.00    1.54
   8 -12   0   39.75    1.36
 -12  -8   0   40.32    1.33
 -12  -6   0   20.65    0.90
  -6  12   0   20.87    1.07
  12   6   0   21.10    1.10
  -6  12   0   22.45    1.02
   6 -12   0   19.56    0.89
   4 -12   0   26.15    1.00
 -12  -4   0   25.40    0.96
  12   4   0   25.57    1.18
 -12  -4   0   24.45    1.07
  -4  12   0   26.07    1.13
  12   2   0   21.04    1.02
   2 -12   0   20.84    0.86
 -12  -2   0   19.45    0.82
  -2  12   0   21.12    0.96
 -12  -2   0   22.00    0.96
   0 -12   0   81.39    1.89
   0  12   0   79.88    1.95
 -12   0   0   78.51    1.81
  12   0   0   82.32    2.06
 -12   0   0   80.63    2.04
  12  -2   0   13.30    0.71
  -2 -12   0   13.17    0.70
 -12   2   0   13.55    0.74
 -12   2   0   14.10    0.69
  -4 -12   0    5.19    0.52
 -12   4   0    4.95    0.53
 -12   4   0    6.39    0.48
  12  -6   0   38.39    1.25
  -6 -12   0   35.98    1.25
 -12   6   0   37.61    1.35
  -8 -12   0    8.03    0.61
  12  -8   0    7.79    0.60
 -12   8   0    7.48    0.63
 -12   8   0    7.91    0.66
   7 -13   0   27.87    1.14
 -13  -7   0   27.08    1.09
 -13  -5   0   34.16    1.20
   5 -13   0   36.74    1.26
  -5  13   0   33.43    1.40
  13   5   0   36.33    1.49
 -13  -3   0   42.01    1.47
   3 -13   0   42.88    1.34
  13   3   0   41.23    1.54
  -3  13   0   40.10    1.46
 -13  -3   0   40.81    1.30
 -13  -1   0   46.23    1.52
  13   1   0   43.19    1.52
  -1  13   0   43.76    1.46
   1 -13   0   45.52    1.40
 -13  -1   0   48.97    1.39
  -1 -13   0    2.66    0.39
 -13   1   0    3.41    0.47
  13  -1   0    2.95    0.44
 -13   3   0   64.21    1.68
  -3 -13   0   61.65    1.71
 -13   3   0   64.89    1.84
  13  -5   0   29.09    1.11
 -13   5   0   30.65    1.23
  -5 -13   0   29.94    1.16
  13  -7   0    9.18    0.65
 -13   7   0    8.75    0.69
  -7 -13   0    8.54    0.65
   4 -14   0    0.22    0.20
  -4  14   0    0.44    0.28
 -14  -4   0    0.42    0.22
  14   4   0    0.17    0.24
   2 -14   0    2.56    0.40
 -14  -2   0    2.90    0.43
  -2  14   0    1.97    0.40
 -14  -2   0    2.64    0.45
  14   2   0    1.73    0.42
 -14   0   0    6.19    0.59
   0  14   0    5.92    0.61
 -14   0   0    6.68    0.68
  14   0   0    6.43    0.68
   0 -14   0    7.72    0.69
  -2 -14   0    5.96    0.61
 -14   2   0    6.58    0.67
  -4 -14   0   10.58    0.70
 -14   4   0   12.48    0.80
 -14   4   0   11.67    0.72
 -14   6   0   25.27    1.19
 -15  -1   0  128.42    3.06
  -1  15   0  124.84    2.91
  15   1   0  126.84    3.04
 -15   1   0    0.28    0.24
 -15   1   0    0.35    0.27
   0   1  -1    2.32    0.17
   0  -1  -1    2.33    0.10
  -1   0  -1    1.74    0.14
   0   1  -1    2.03    0.11
   0   1  -1    2.25    0.11
   0   1  -1    2.19    0.16
   1   0  -1    1.89    0.14
   0  -1  -1    2.26    0.14
   1   0  -1    1.92    0.16
   0  -1  -1    2.12    0.13
  -1   0   1    2.72    0.18
   0  -1   1    2.26    0.11
   0   1   1    2.28    0.16
  -2  -1  -1  197.32    2.79
   2   1  -1  199.29    2.98
  -1   2  -1  196.90    2.75
  -2  -1  -1  191.33    2.91
   2   1  -1  193.61    2.92
   1  -2  -1  199.29    2.90
   1  -2  -1  197.45    2.49
  -2  -1  -1  197.91    2.78
  -1   2  -1  194.94    2.88
   1  -2  -1  196.49    2.99
  -1   2  -1  200.68    2.75
  -1   2  -1  198.25    2.80
  -2  -1  -1  194.94    2.61
  -2  -1   1  197.09    2.86
   2   1   1  198.34    2.74
   1  -2   1  199.98    2.61
  -1   2   1  196.65    2.87
  -2  -1   1  198.16    2.45
   2  -1  -1  286.40    3.49
   2  -1  -1  284.25    4.09
  -1  -2  -1  285.31    4.13
  -1  -2  -1  288.51    4.12
   1   2  -1  286.34    4.05
  -2   1  -1  288.96    3.71
   1   2  -1  288.36    4.14
  -2   1  -1  289.69    3.99
   1   2  -1  290.16    4.04
  -1  -2  -1  287.61    3.67
   2  -1  -1  295.35    4.24
  -2   1  -1  292.55    4.03
  -1  -2   1  285.86    3.61
  -2   1   1  286.46    4.19
  -2   1   1  291.62    4.05
   1   2   1  288.55    3.94
  -2   3  -1    4.52    0.20
  -2   3  -1    5.03    0.18
   2  -3  -1    4.96    0.26
  -2   3  -1    4.42    0.17
  -3  -2  -1    4.71    0.21
   2  -3  -1    4.06    0.18
  -2   3  -1    5.28    0.30
  -3  -2  -1    4.88    0.24
   2  -3  -1    5.13    0.29
   3   2  -1    4.53    0.26
  -3  -2  -1    4.89    0.22
   3   2  -1    4.32    0.27
   3   2   1    4.60    0.18
  -3  -2   1    4.36    0.25
   2  -3   1    4.75    0.24
  -3  -2   1    4.47    0.26
  -2   3   1    4.76    0.27
  -3  -2   1    4.70    0.19
  -2   3   1    4.17    0.28
   3   0  -1  340.87    4.84
   0  -3  -1  335.58    4.96
  -3   0  -1  340.70    4.80
   0   3  -1  345.82    4.88
  -3   0  -1  349.80    4.61
   0   3  -1  344.66    4.68
   0   3  -1  335.64    4.84
   3   0  -1  340.94    5.00
   0  -3  -1  339.59    4.31
  -3   0  -1  338.23    4.40
   0  -3  -1  340.23    4.78
   0  -3   1  338.10    4.34
  -3   0   1  344.98    4.98
  -3   0   1  339.51    4.73
   0   3   1  337.33    4.71
  -3   0   1  340.83    4.17
   2   3  -1   28.34    0.70
  -3   2  -1   28.43    0.65
  -2  -3  -1   28.89    0.63
   2   3  -1   28.93    0.69
  -2  -3  -1   28.32    0.73
  -2  -3  -1   29.07    0.68
  -3   2  -1   29.32    0.70
   2   3  -1   28.30    0.69
   3  -2  -1   29.08    0.51
  -3   2  -1   28.04    0.62
   3  -2  -1   29.48    0.74
   3  -2  -1   28.54    0.69
  -3   2   1   29.08    0.72
   2   3   1   28.76    0.59
  -2  -3   1   29.19    0.57
  -3   2   1   28.52    0.72
  -3   4  -1   25.54    0.57
  -3   4  -1   25.66    0.52
   3  -4  -1   26.97    0.76
   4   3  -1   24.87    0.72
  -3   4  -1   26.30    0.60
  -4  -3  -1   26.83    0.67
   3  -4  -1   26.23    0.66
   3  -4  -1   25.68    0.58
  -3   4  -1   25.38    0.76
   4   3  -1   25.99    0.79
  -4  -3  -1   26.39    0.65
  -4  -3  -1   25.06    0.67
  -3   4   1   25.95    0.73
  -4  -3   1   25.08    0.56
  -4  -3   1   25.59    0.74
   4   3   1   26.03    0.79
   3  -4   1   25.40    0.66
   4   3   1   26.76    0.47
  -3   4   1   25.94    0.78
  -4  -3   1   26.18    0.66
  -4  -1  -1  282.95    3.76
  -1   4  -1  278.51    3.80
   4   1  -1  277.07    4.15
   1  -4  -1  269.38    4.22
   1  -4  -1  277.80    3.98
   4   1  -1  284.11    4.24
  -4  -1  -1  285.20    3.73
  -4  -1  -1  275.41    3.98
  -1   4  -1  274.55    4.07
   1  -4  -1  278.35    3.63
  -1   4  -1  276.36    4.03
  -1   4  -1  282.20    4.08
  -4  -1  -1  281.55    3.96
  -4  -1   1  281.87    3.96
   1  -4   1  276.18    3.70
  -1   4   1  276.01    4.16
  -4  -1   1  276.83    3.53
   4   1   1  270.07    4.12
  -1   4   1  272.98    4.05
  -4  -1   1  279.86    4.23
  -4   1  -1  284.45    3.82
  -1  -4  -1  280.25    4.12
  -1  -4  -1  288.22    3.77
   4  -1  -1  277.59    4.14
  -1  -4  -1  278.26    4.28
   1   4  -1  287.98    4.11
  -4   1  -1  289.18    3.91
  -4   1  -1  282.04    3.96
  -4   1  -1  285.06    3.92
   4  -1  -1  288.90    4.32
   1   4  -1  285.39    4.02
   1   4  -1  282.28    4.21
  -4   1   1  286.88    3.59
  -1  -4   1  281.59    3.73
  -4   1   1  287.22    4.09
  -4   1   1  274.84    4.28
   1   4   1  286.67    4.01
   4  -1   1  285.15    4.11
  -4   3  -1    1.53    0.21
   3   4  -1    2.10    0.23
   4  -3  -1    2.09    0.24
  -3  -4  -1    1.92    0.20
   4  -3  -1    2.28    0.22
  -4   3  -1    1.85    0.12
  -4   3  -1    1.83    0.20
  -3  -4  -1    1.73    0.21
  -4   3  -1    2.23    0.13
   4  -3  -1    1.89    0.14
   3   4  -1    1.66    0.22
   3   4  -1    1.77    0.20
   4  -3   1    1.90    0.18
  -4   3   1    2.10    0.24
   3   4   1    1.95    0.24
  -3  -4   1    2.17    0.23
  -3  -4   1    1.71    0.17
  -4   3   1    1.70    0.23
   3   4   1    1.83    0.14
   5   4  -1  194.03    3.37
  -4   5  -1  198.86    3.07
   4  -5  -1  198.66    3.34
  -5  -4  -1  196.59    3.27
   4  -5  -1  200.79    2.83
  -5  -4  -1  194.66    2.96
   5   4  -1  201.83    3.33
  -4   5  -1  205.67    3.35
   4  -5  -1  202.87    3.02
   5   4   1  199.04    3.37
   4  -5   1  199.39    2.98
  -4   5   1  200.92    3.33
  -5  -4   1  199.98    2.83
  -4   5   1  198.26    3.31
  -5  -4   1  196.11    3.35
  -5  -4   1  201.59    3.01
  -5  -2  -1  614.69    8.35
  -2   5  -1  608.85    8.40
   2  -5  -1  583.79    7.45
   2  -5  -1  600.43    8.05
   5   2  -1  579.98    8.37
   2  -5  -1  592.99    8.59
  -2   5  -1  603.15    7.78
   5   2  -1  589.80    8.56
  -2   5  -1  589.29    8.35
  -5  -2  -1  586.66    7.59
  -5  -2  -1  582.72    8.37
   5   2   1  603.69    7.61
  -5  -2   1  598.17    7.38
   2  -5   1  584.51    7.57
   5   2   1  578.00    8.35
  -2   5   1  598.96    8.53
  -5  -2   1  595.14    8.58
  -5  -2   1  590.02    7.96
  -2   5   1  571.28    8.20
   5   0  -1   74.28    1.49
   0   5  -1   74.50    1.23
  -5   0  -1   72.56    1.33
  -5   0  -1   75.68    1.23
  -5   0  -1   74.70    1.21
   0  -5  -1   73.83    1.49
  -5   0  -1   71.49    1.23
   0  -5  -1   74.19    1.37
   0   5  -1   72.60    1.38
   5   0  -1   75.52    1.50
   0  -5  -1   74.02    1.27
   0   5  -1   72.14    1.45
   0   5   1   73.24    1.41
   5   0   1   74.90    1.49
  -5   0   1   73.69    1.38
   0  -5   1   74.69    1.30
   0   5   1   74.49    1.43
  -5   0   1   73.88    1.15
  -5   0   1   74.30    1.50
  -5   2  -1  333.42    4.53
  -2  -5  -1  333.52    4.46
   2   5  -1  327.52    5.01
  -5   2  -1  333.67    4.75
   2   5  -1  333.44    4.78
  -2  -5  -1  328.97    5.07
  -2  -5  -1  336.51    4.91
  -5   2  -1  325.74    4.71
   5  -2  -1  330.36    4.84
   5  -2  -1  326.61    5.06
   2   5  -1  334.28    4.78
  -5   2  -1  345.39    4.71
  -2  -5   1  335.22    4.41
   2   5   1  334.18    4.64
   5  -2   1  340.19    4.80
  -5   2   1  331.45    5.06
  -5   2   1  330.98    4.85
  -5   2   1  331.55    4.28
   5  -4  -1  673.73    8.41
  -4  -5  -1  663.67    9.70
  -5   4  -1  680.59    9.39
  -5   4  -1  661.30    8.63
   5  -4  -1  673.08    9.16
   4   5  -1  678.21    9.71
  -4  -5  -1  670.55    8.60
   4   5  -1  684.61    9.06
  -5   4  -1  653.06    9.29
  -5   4  -1  700.96    9.40
   5  -4  -1  671.71    9.71
   4   5  -1  651.21    9.39
   4   5   1  669.91    9.46
  -5   4   1  676.28    9.71
  -4  -5   1  679.86    8.49
   5  -4   1  658.62    9.01
   5  -4   1  670.04    8.64
  -5   4   1  667.92    9.34
   4   5   1  663.33    8.76
   6   5  -1    0.47    0.19
  -5   6  -1    0.26    0.10
  -6  -5  -1    0.20    0.12
   5  -6  -1    0.29    0.10
  -5   6  -1    0.21    0.16
   6   5  -1    0.04    0.09
   5  -6  -1    0.25    0.11
  -6  -5  -1    0.17    0.12
  -5   6   1    0.18    0.13
  -5   6   1    0.09    0.12
  -6  -5   1    0.25    0.10
   5  -6   1    0.16    0.12
   6   5   1    0.00    0.11
  -6  -5   1    0.15    0.09
   3  -6  -1   18.48    0.69
   3  -6  -1   18.60    0.54
  -6  -3  -1   18.22    0.62
   3  -6  -1   19.74    0.58
   6   3  -1   19.29    0.68
  -3   6  -1   18.80    0.59
  -6  -3  -1   20.01    0.64
  -3   6  -1   19.10    0.74
   6   3  -1   19.42    0.77
  -3   6   1   19.28    0.67
   6   3   1   18.57    0.75
  -6  -3   1   18.46    0.53
  -6  -3   1   17.62    0.69
  -3   6   1   18.71    0.72
   3  -6   1   19.32    0.63
  -6  -3   1   18.90    0.56
  -1   6  -1    0.85    0.18
  -1   6  -1    0.89    0.10
  -1   6  -1    0.65    0.14
   1  -6  -1    0.67    0.16
  -6  -1  -1    0.54    0.11
  -6  -1  -1    0.73    0.15
   6   1  -1    0.66    0.17
  -6  -1  -1    0.93    0.10
   1  -6  -1    0.84    0.15
   6   1  -1    0.93    0.17
  -6  -1   1    0.96    0.13
  -1   6   1    0.87    0.18
   1  -6   1    0.46    0.12
  -1   6   1    0.64    0.14
  -6  -1   1    1.36    0.21
   6   1   1    0.74    0.18
   1   6  -1   78.20    1.58
  -6   1  -1   80.28    1.39
   6  -1  -1   82.62    1.64
  -6   1  -1   82.43    1.42
  -6   1  -1   83.86    1.39
  -1  -6  -1   77.16    1.64
  -1  -6  -1   77.72    1.43
  -6   1  -1   77.31    1.47
   1   6  -1   77.45    1.56
   1   6  -1   79.52    1.39
  -1  -6  -1   80.37    1.54
   6  -1  -1   77.78    1.61
  -6   1   1   79.89    1.56
  -1  -6   1   77.46    1.41
  -6   1   1   78.23    1.65
   1   6   1   79.41    1.52
  -6   1   1   80.38    1.30
   1   6   1   80.31    1.57
   6  -1   1   80.85    1.61
   6  -3  -1   17.30    0.60
  -3  -6  -1   19.02    0.61
  -6   3  -1   17.76    0.65
  -3  -6  -1   17.78    0.68
   6  -3  -1   18.22    0.51
  -6   3  -1   18.12    0.51
   6  -3  -1   18.21    0.65
   3   6  -1   18.63    0.61
  -6   3  -1   18.60    0.51
  -6   3  -1   17.89    0.62
   3   6  -1   18.10    0.66
   3   6  -1   18.33    0.63
   6  -3   1   18.94    0.60
  -6   3   1   17.29    0.67
   3   6   1   17.48    0.67
  -6   3   1   17.38    0.66
   3   6   1   18.58    0.53
  -3  -6   1   17.73    0.56
  -5  -6  -1   60.90    1.47
   6  -5  -1   60.69    1.25
   5   6  -1   59.90    1.50
  -5  -6  -1   60.85    1.31
   5   6  -1   57.73    1.43
  -6   5  -1   59.40    1.24
   5   6  -1   60.85    1.24
  -6   5  -1   61.39    1.52
   6  -5  -1   60.23    1.18
   6  -5   1   60.93    1.34
  -5  -6   1   60.25    1.23
  -6   5   1   61.12    1.50
   5   6   1   61.04    1.54
  -6   5   1   60.08    1.45
  -6   7  -1   94.62    1.90
  -6   7  -1   97.77    2.22
  -7  -6  -1   93.34    2.08
   6  -7  -1   96.15    1.77
  -7  -6  -1   97.67    1.91
   7   6  -1   90.68    2.21
   6  -7   1   97.01    1.93
  -7  -6   1   96.20    1.78
  -6   7   1   98.64    2.11
   7   6   1   97.36    2.26
  -6   7   1   98.74    2.22
   7   4  -1   19.76    0.86
  -4   7  -1   19.19    0.82
  -7  -4  -1   19.45    0.71
   4  -7  -1   19.68    0.64
  -4   7  -1   18.58    0.64
  -7  -4  -1   19.24    0.68
   7   4  -1   19.39    0.74
  -4   7   1   19.27    0.81
   7   4   1   20.11    0.86
   4  -7   1   19.02    0.68
  -7  -4   1   19.33    0.60
  -4   7   1   19.92    0.75
  -7  -4   1   19.25    0.59
   7   2  -1   65.81    1.51
  -7  -2  -1   66.59    1.40
   2  -7  -1   66.47    1.30
   7   2  -1   64.49    1.61
  -2   7  -1   65.15    1.40
  -2   7  -1   68.29    1.59
  -7  -2  -1   66.45    1.39
   2  -7  -1   69.13    1.29
   7   2   1   66.68    1.62
  -7  -2   1   66.95    1.55
  -7  -2   1   65.62    1.29
  -7  -2   1   67.02    1.24
  -2   7   1   66.25    1.55
   2  -7   1   67.73    1.38
  -2   7   1   66.31    1.49
  -7   0  -1   14.87    0.42
   7   0  -1   14.48    0.60
   0   7  -1   13.94    0.61
   0  -7  -1   14.73    0.53
   0   7  -1   15.39    0.41
   7   0  -1   15.43    0.66
   0  -7  -1   15.83    0.65
   0  -7  -1   14.50    0.53
  -7   0  -1   15.09    0.51
   0   7  -1   14.89    0.57
  -7   0  -1   13.96    0.56
  -7   0   1   15.46    0.47
   0   7   1   14.58    0.60
  -7   0   1   15.05    0.63
   0  -7   1   15.85    0.56
   7   0   1   14.36    0.64
  -7   0   1   14.97    0.55
   2   7  -1   23.35    0.75
   2   7  -1   22.44    0.66
  -7   2  -1   23.05    0.73
  -2  -7  -1   22.35    0.70
   7  -2  -1   23.11    0.76
   2   7  -1   22.98    0.77
  -7   2  -1   22.40    0.62
  -7   2  -1   23.15    0.71
  -2  -7  -1   22.95    0.82
   2   7   1   22.72    0.69
  -2  -7   1   22.99    0.69
   2   7   1   22.45    0.76
  -7   2   1   24.42    0.82
   7  -2   1   22.22    0.76
  -7   2   1   23.64    0.62
  -7   2   1   22.99    0.77
  -7   4  -1   72.21    1.52
  -7   4  -1   68.97    1.62
  -7   4  -1   71.13    1.41
  -4  -7  -1   71.55    1.68
  -4  -7  -1   72.54    1.49
   4   7  -1   68.17    1.45
   4   7  -1   71.83    1.64
   4   7  -1   71.24    1.59
   7  -4  -1   71.03    1.47
   7  -4  -1   72.23    1.34
   4   7   1   72.26    1.68
  -7   4   1   71.48    1.65
  -7   4   1   71.70    1.65
  -4  -7   1   70.95    1.42
  -6  -7  -1    3.15    0.39
  -7   6  -1    3.25    0.42
   6   7  -1    2.85    0.39
  -7   6  -1    3.34    0.28
   7  -6  -1    3.20    0.31
  -6  -7  -1    2.95    0.34
  -6  -7   1    2.63    0.30
   6   7   1    3.16    0.43
   7  -6   1    3.04    0.35
  -7   6   1    2.94    0.39
  -7   6   1    3.08    0.37
   7  -8  -1    2.18    0.29
  -8  -7  -1    2.13    0.34
   8   7  -1    2.40    0.40
  -7   8  -1    2.72    0.42
  -7   8  -1    1.66    0.26
  -8  -7  -1    1.83    0.29
  -8  -7   1    1.75    0.27
  -7   8   1    2.10    0.37
   8   7   1    1.67    0.36
   7  -8   1    1.21    0.25
   8   5  -1  119.22    2.66
  -5   8  -1  118.72    2.29
  -8  -5  -1  122.89    2.47
   5  -8  -1  121.78    2.15
  -8  -5  -1  121.07    2.25
  -5   8  -1  119.52    2.57
  -8  -5   1  121.54    2.08
   8   5   1  118.16    2.66
   5  -8   1  121.94    2.25
  -5   8   1  119.40    2.57
   8   3  -1   41.23    1.32
  -3   8  -1   39.95    1.25
   3  -8  -1   40.76    1.01
  -8  -3  -1   40.29    1.11
  -3   8  -1   41.31    1.08
  -8  -3  -1   40.90    1.09
  -3   8   1   42.37    1.26
  -8  -3   1   40.66    0.95
  -8  -3   1   40.46    0.95
   3  -8   1   41.78    1.09
   1  -8  -1   22.34    0.84
  -8  -1  -1   21.27    0.70
   8   1  -1   21.25    0.87
   1  -8  -1   21.98    0.70
  -1   8  -1   21.95    0.75
   1  -8  -1   22.73    0.68
  -1   8  -1   22.98    0.86
  -8  -1  -1   21.39    0.73
  -8  -1   1   23.03    0.70
  -1   8   1   21.25    0.80
   1  -8   1   23.10    0.75
  -8  -1   1   21.76    0.63
   8   1   1   22.22    0.89
   8  -1  -1   91.74    1.96
  -8   1  -1   90.40    1.78
  -1  -8  -1   94.30    2.03
  -8   1  -1   90.34    1.73
  -1  -8  -1   94.95    1.76
   1   8  -1   90.64    1.92
   1   8  -1   93.73    1.90
   1   8   1   90.76    1.83
  -8   1   1   91.76    1.60
   1   8   1   92.55    1.82
  -8   1   1   91.72    2.00
   8  -1   1   95.95    2.00
  -1  -8   1   93.55    1.73
  -8   1   1   92.27    1.84
  -3  -8  -1    7.24    0.42
  -8   3  -1    6.54    0.42
   8  -3  -1    7.09    0.43
  -3  -8  -1    7.51    0.50
   3   8  -1    7.64    0.44
   3   8  -1    7.74    0.42
  -8   3  -1    7.31    0.44
  -8   3  -1    7.40    0.38
   3   8  -1    7.16    0.47
  -8   3   1    7.62    0.48
   3   8   1    6.78    0.45
  -8   3   1    7.45    0.37
   8  -3   1    6.84    0.42
  -3  -8   1    7.64    0.42
  -8   3   1    6.70    0.46
   8  -5  -1  127.22    2.15
  -8   5  -1  124.07    2.54
  -8   5  -1  123.03    2.34
   8  -5  -1  126.34    2.28
   5   8  -1  125.72    2.50
  -8   5  -1  128.32    2.32
  -5  -8  -1  126.72    2.31
   5   8  -1  126.22    2.58
   5   8  -1  128.97    2.26
  -5  -8  -1  125.27    2.61
  -8   5   1  125.05    2.59
  -5  -8   1  123.78    2.22
   5   8   1  125.11    2.62
   8  -5   1  123.85    2.35
  -8   5   1  128.18    2.59
   8  -7  -1   26.39    0.84
  -8   7  -1   26.47    0.89
  -7  -8  -1   28.78    1.09
  -8   7  -1   27.01    1.09
   7   8  -1   29.75    1.13
  -7  -8  -1   27.80    0.97
   7   8   1   27.60    1.16
   8  -7   1   26.53    0.95
  -8   7   1   27.04    1.10
  -7  -8   1   27.07    0.89
  -9  -8  -1    0.38    0.21
  -8   9  -1    0.00    0.17
  -8   9  -1    0.17    0.14
   9   8  -1    0.30    0.24
  -9  -8  -1    0.15    0.17
   8  -9  -1    0.33    0.17
   8  -9   1    0.37    0.19
  -9  -8   1    0.09    0.15
   9   8   1    0.29    0.23
  -8   9   1    0.12    0.19
  -6   9  -1   -0.12    0.14
   9   6  -1    0.54    0.23
   6  -9  -1    0.51    0.18
  -9  -6  -1    0.21    0.13
  -9  -6  -1   -0.06    0.12
  -6   9  -1    0.00    0.11
  -6   9   1    0.45    0.23
   6  -9   1    0.19    0.13
   9   6   1   -0.02    0.15
  -9  -6   1    0.14    0.12
  -9  -4  -1   31.42    1.00
  -4   9  -1   30.89    0.98
   9   4  -1   33.32    1.25
  -4   9  -1   30.79    1.16
   4  -9  -1   32.54    0.95
  -9  -4  -1   31.77    1.04
  -9  -4   1   32.20    0.89
   4  -9   1   30.41    0.98
  -4   9   1   34.21    1.20
   9   2  -1   14.51    0.76
  -9  -2  -1   14.00    0.61
  -2   9  -1   13.29    0.70
   2  -9  -1   12.94    0.57
  -9  -2  -1   14.88    0.64
  -2   9  -1   15.04    0.64
   9   2   1   13.81    0.76
  -9  -2   1   14.77    0.71
   2  -9   1   14.66    0.64
  -9  -2   1   14.29    0.55
  -2   9   1   13.85    0.70
   0  -9  -1   27.47    0.86
   0   9  -1   27.25    0.97
   9   0  -1   26.69    1.00
  -9   0  -1   26.54    0.88
   0   9  -1   26.85    0.92
  -9   0  -1   28.87    0.85
  -9   0   1   28.03    0.86
   0   9   1   28.12    0.84
   0   9   1   29.80    0.97
  -9   0   1   27.97    0.77
   0  -9   1   27.17    0.86
  -9   0   1   27.28    0.99
   9   0   1   27.66    1.03
   9  -2  -1   61.38    1.53
  -9   2  -1   61.43    1.46
  -2  -9  -1   62.44    1.43
   2   9  -1   60.84    1.55
  -9   2  -1   59.49    1.35
  -2  -9  -1   63.02    1.65
   2   9  -1   62.27    1.48
  -2  -9   1   63.01    1.42
   2   9   1   61.25    1.39
  -9   2   1   63.60    1.30
  -9   2   1   62.55    1.61
   9  -2   1   62.95    1.53
  -9   2   1   62.23    1.50
   2   9   1   62.75    1.50
  -9   4  -1   33.93    1.08
  -4  -9  -1   32.66    1.00
   9  -4  -1   33.47    0.91
   9  -4  -1   32.98    1.01
   4   9  -1   34.40    0.99
  -9   4  -1   33.14    0.96
  -4  -9  -1   34.18    1.18
  -9   4  -1   33.45    1.05
   4   9  -1   34.19    1.02
   4   9  -1   32.71    1.11
  -9   4   1   33.02    1.12
  -9   4   1   32.15    1.12
  -4  -9   1   32.86    0.98
   4   9   1   33.96    1.14
   9  -6  -1    1.90    0.27
  -6  -9  -1    3.18    0.44
  -9   6  -1    2.48    0.31
  -9   6  -1    2.45    0.39
   6   9  -1    1.79    0.32
  -6  -9  -1    2.86    0.36
   9  -6   1    2.73    0.37
  -6  -9   1    2.91    0.34
   6   9   1    2.18    0.38
  -9   6   1    2.33    0.38
  -9   8  -1   47.08    1.35
   8   9  -1   44.59    1.53
  -8  -9  -1   46.30    1.37
  -8  -9  -1   47.40    1.55
  -9   8  -1   47.61    1.56
   9  -8  -1   46.66    1.24
   8   9   1   46.58    1.64
   9  -8   1   44.89    1.38
  -8  -9   1   46.09    1.28
  -9   8   1   46.05    1.57
  -9  10  -1   31.17    1.32
 -10  -9  -1   28.09    1.11
  -9  10  -1   28.23    1.09
 -10  -9  -1   29.36    1.27
  10   9  -1   28.16    1.30
  10   9   1   29.60    1.35
  -9  10   1   29.27    1.33
   9 -10   1   30.34    1.16
 -10  -9   1   28.98    1.04
   7 -10  -1    2.62    0.35
 -10  -7  -1    1.84    0.35
  10   7  -1    1.63    0.39
  -7  10  -1    1.82    0.38
 -10  -7  -1    2.00    0.34
  -7  10  -1    1.50    0.29
  10   7   1    1.23    0.35
 -10  -7   1    1.71    0.29
   7 -10   1    1.96    0.33
  -7  10   1    3.02    0.49
 -10  -5  -1  144.63    2.76
   5 -10  -1  148.77    2.65
  10   5  -1  149.34    3.28
  -5  10  -1  149.24    3.16
  -5  10  -1  146.16    2.88
 -10  -5  -1  140.78    2.95
 -10  -5   1  152.99    2.59
   5 -10   1  147.41    2.77
  -5  10   1  150.33    3.18
  10   5   1  154.10    3.33
  -3  10  -1   30.04    1.15
 -10  -3  -1   30.18    1.00
  -3  10  -1   28.25    0.99
  10   3  -1   31.92    1.24
   3 -10  -1   29.93    0.94
 -10  -3  -1   28.68    1.00
   3 -10   1   29.13    0.99
 -10  -3   1   31.76    0.91
  10   3   1   30.49    1.23
  -3  10   1   29.72    1.14
  -1  10  -1    6.70    0.51
   1 -10  -1    6.90    0.45
  -1  10  -1    6.97    0.48
 -10  -1  -1    6.53    0.43
 -10  -1  -1    6.84    0.47
  10   1  -1    7.46    0.57
  10   1   1    8.28    0.61
   1 -10   1    6.90    0.46
  -1  10   1    7.40    0.52
 -10  -1   1    7.81    0.42
 -10   1  -1   39.30    1.15
  10  -1  -1   39.13    1.26
  -1 -10  -1   38.75    1.12
 -10   1  -1   39.79    1.09
   1  10  -1   39.43    1.22
   1  10  -1   39.14    1.20
 -10   1   1   38.15    1.11
 -10   1   1   37.95    0.99
   1  10   1   39.16    1.14
  -1 -10   1   38.25    1.11
  10  -1   1   39.11    1.24
  10  -3  -1    8.62    0.53
 -10   3  -1    8.59    0.48
   3  10  -1    8.91    0.58
   3  10  -1    8.82    0.53
  -3 -10  -1    9.31    0.54
 -10   3  -1    8.51    0.53
  -3 -10   1    8.68    0.52
 -10   3   1    9.58    0.48
   3  10   1    9.02    0.58
 -10   3   1    8.01    0.56
 -10   3   1    9.08    0.56
 -10   5  -1    2.64    0.33
 -10   5  -1    3.30    0.43
 -10   5  -1    3.38    0.41
  -5 -10  -1    3.04    0.39
  10  -5  -1    2.91    0.34
  -5 -10   1    2.73    0.35
  10  -5   1    3.43    0.41
   5  10   1    3.52    0.47
 -10   5   1    3.28    0.45
  -7 -10  -1   -0.01    0.14
 -10   7  -1    0.09    0.13
   7  10  -1    0.04    0.17
 -10   7  -1    0.06    0.18
   7  10   1    0.90    0.31
  10  -7   1    0.15    0.16
  -7 -10   1    0.07    0.15
 -10   7   1    0.10    0.18
 -10   9  -1    1.02    0.32
  -9 -10  -1    1.52    0.32
 -10   9  -1    2.03    0.35
   9  10  -1    1.65    0.40
   9  10   1    1.41    0.38
  10  -9   1    1.26    0.30
 -10   9   1    2.45    0.46
  -9 -10   1    2.10    0.36
  11   8  -1   91.24    2.53
 -11  -8  -1   87.03    2.11
  -8  11  -1   86.44    2.42
   8 -11  -1   86.39    1.99
  -8  11  -1   84.65    2.14
  11   8   1   85.60    2.48
  -8  11   1   87.96    2.47
   8 -11   1   87.21    2.13
  11   6  -1   84.79    2.39
  -6  11  -1   82.96    2.03
 -11  -6  -1   82.94    2.00
 -11  -6  -1   84.82    2.16
   6 -11  -1   84.96    1.89
  -6  11  -1   82.79    2.30
 -11  -6   1   85.85    1.85
  -6  11   1   79.77    2.27
   6 -11   1   81.60    1.99
  11   6   1   85.61    2.39
   4 -11  -1   27.98    0.97
  11   4  -1   28.23    1.25
 -11  -4  -1   28.14    1.02
  -4  11  -1   28.36    1.03
 -11  -4  -1   28.72    1.07
  -4  11  -1   28.35    1.19
   4 -11   1   27.55    1.03
 -11  -4   1   27.98    0.92
  -4  11   1   30.30    1.23
  11   4   1   27.99    1.24
 -11  -2  -1  226.33    3.74
  -2  11  -1  215.54    4.07
  -2  11  -1  220.06    4.00
   2 -11  -1  224.51    3.65
 -11  -2  -1  223.33    3.94
  11   2  -1  215.79    4.20
 -11  -2   1  229.12    3.52
  -2  11   1  221.88    4.03
   2 -11   1  219.36    3.69
  11   2   1  220.49    4.21
   0  11  -1   64.58    1.67
  11   0  -1   62.61    1.76
   0 -11  -1   61.63    1.53
 -11   0  -1   59.20    1.54
 -11   0  -1   60.88    1.56
   0  11  -1   61.14    1.67
   0  11   1   60.82    1.60
   0 -11   1   62.58    1.55
  11   0   1   61.59    1.73
  -2 -11  -1   64.06    1.60
   2  11  -1   64.65    1.64
 -11   2  -1   62.16    1.56
  11  -2  -1   66.56    1.73
 -11   2  -1   63.92    1.62
   2  11  -1   64.00    1.75
 -11   2   1   65.45    1.64
  -2 -11   1   66.41    1.60
  -4 -11  -1  260.35    4.24
 -11   4  -1  267.10    4.33
 -11   4  -1  261.95    4.45
 -11   4   1  258.81    4.53
  -4 -11   1  268.41    4.24
 -11   6  -1    8.76    0.56
  -6 -11  -1    7.34    0.56
   6  11   1    7.30    0.72
  11  -6   1    8.54    0.59
 -11   6   1    9.94    0.69
  -6 -11   1    8.91    0.57
 -11   8  -1   32.80    1.18
  -8 -11  -1   32.78    1.23
 -11   8  -1   32.59    1.31
 -11   8   1   33.54    1.39
   8  11   1   35.63    1.44
  11  -8   1   33.36    1.24
  -8 -11   1   35.67    1.20
  10  11  -1   90.73    2.52
 -12  -7  -1    6.60    0.68
 -12  -7  -1    6.54    0.63
   7 -12  -1    7.02    0.62
  12   7  -1    8.35    0.85
  -7  12  -1    6.68    0.56
  -7  12  -1    6.54    0.74
  12   7   1    7.82    0.84
   7 -12   1    6.99    0.67
  -7  12   1    7.32    0.77
  -5  12  -1   20.76    0.93
 -12  -5  -1   20.31    0.97
   5 -12  -1   19.94    0.86
 -12  -5  -1   19.47    0.89
  -5  12  -1   22.75    1.12
  12   5  -1   20.20    1.10
   5 -12   1   19.81    0.92
  -5  12   1   20.94    1.07
  12   5   1   20.24    1.11
  12   3  -1   20.41    1.06
 -12  -3  -1   18.32    0.84
 -12  -3  -1   17.33    0.83
   3 -12  -1   18.85    0.83
  -3  12  -1   18.21    0.87
  -3  12  -1   17.56    0.94
  -3  12   1   18.00    0.93
  12   3   1   16.00    0.94
   3 -12   1   17.71    0.83
  12   1  -1    4.32    0.55
  -1  12  -1    4.11    0.53
 -12  -1  -1    3.95    0.44
  -1  12  -1    3.71    0.47
 -12  -1  -1    4.33    0.49
   1 -12  -1    4.86    0.50
  12   1   1    4.21    0.54
   1 -12   1    3.84    0.45
  -1  12   1    4.37    0.52
  12  -1  -1   84.06    2.13
 -12   1  -1   84.48    1.98
   1  12  -1   83.70    2.12
 -12   1  -1   82.97    1.95
  -1 -12  -1   84.84    1.94
   1  12  -1   83.56    2.04
  -1 -12   1   80.52    1.92
  12  -1   1   82.85    2.08
 -12   3  -1   12.24    0.66
  12  -3  -1   14.25    0.75
 -12   3  -1   11.93    0.70
  -3 -12  -1   12.57    0.69
  -3 -12   1   11.68    0.67
  -5 -12  -1   15.87    0.80
 -12   5  -1   15.95    0.82
 -12   5  -1   15.53    0.76
 -12   5   1   15.65    0.85
  -5 -12   1   16.08    0.79
  12  -5   1   15.29    0.80
 -12   7  -1  106.88    2.47
  -7 -12  -1  111.21    2.47
  -7 -12   1  108.54    2.38
 -12   7   1  105.57    2.67
  12  -7   1  107.01    2.46
  13   6  -1   37.78    1.60
   6 -13  -1   37.10    1.26
  -6  13  -1   35.69    1.52
  -6  13  -1   38.76    1.38
  -6  13   1   36.41    1.52
  13   6   1   35.77    1.56
  -4  13  -1    4.27    0.61
 -13  -4  -1    5.54    0.56
  -4  13  -1    5.25    0.58
 -13  -4  -1    4.80    0.54
  13   4  -1    5.57    0.70
   4 -13  -1    5.03    0.53
   4 -13   1    4.15    0.51
  13   4   1    4.48    0.62
  -4  13   1    5.87    0.68
  -2  13  -1   14.85    0.83
 -13  -2  -1   13.93    0.77
   2 -13  -1   15.23    0.78
  -2  13  -1   14.59    0.88
  13   2  -1   14.42    0.92
 -13  -2  -1   14.23    0.78
  13   2   1   15.16    0.93
  -2  13   1   14.28    0.83
   2 -13   1   14.93    0.79
 -13   0  -1    0.81    0.25
   0  13  -1    0.47    0.24
  13   0  -1    0.43    0.25
   0  13  -1    0.41    0.23
   0 -13  -1    0.40    0.20
 -13   0  -1    0.89    0.25
   0 -13   1    0.88    0.26
  13   0   1    0.41    0.24
 -13   2  -1   11.04    0.66
   2  13  -1   12.33    0.72
  13  -2  -1   10.74    0.70
 -13   2  -1   10.81    0.68
  -2 -13  -1    9.89    0.65
  -2 -13   1   11.81    0.70
 -13   4  -1   11.97    0.70
  -4 -13  -1   13.04    0.74
 -13   4  -1   12.20    0.73
  -4 -13   1   10.06    0.67
 -13   6  -1    2.02    0.37
  -6 -13  -1    1.11    0.31
  -6 -13   1    1.94    0.36
  13  -6   1    1.59    0.35
  -3  14  -1   62.77    1.88
  14   3  -1   60.60    2.04
   3 -14  -1   59.21    1.69
 -14  -3  -1   60.64    1.83
  -3  14  -1   58.10    1.93
   3 -14   1   57.31    1.72
  14   3   1   61.13    2.01
  -3  14   1   59.55    1.90
 -14  -1  -1    0.65    0.26
   1 -14  -1    0.68    0.27
  14   1  -1    0.80    0.32
 -14  -1  -1    0.63    0.24
  -1  14  -1    0.50    0.27
   1 -14   1    0.48    0.23
  14   1   1    1.77    0.40
 -14   1  -1   62.43    1.78
   1  14  -1   61.37    1.81
  14  -1  -1   63.42    1.91
 -14   1  -1   64.55    1.82
  -1 -14  -1   64.37    1.79
  -1 -14   1   62.06    1.78
 -14   3  -1   27.94    1.17
  -3 -14  -1   27.58    1.15
 -14   3  -1   28.86    1.15
  -3 -14   1   30.37    1.19
   0   0  -2  972.82   14.16
   0   0  -2  965.69   11.71
   0   0  -2 1000.00   13.56
   0   0  -2  962.64   13.10
   0   0   2  930.60   12.86
   1  -1  -2   59.01    1.32
  -1   1  -2   61.50    1.05
  -1  -1  -2   59.67    1.12
  -1   1  -2   60.67    1.04
   1   1  -2   60.65    1.19
  -1   1  -2   60.56    0.99
   1  -1  -2   60.31    1.24
   1   1  -2   57.66    1.31
  -1  -1  -2   60.94    0.98
  -1  -1  -2   61.10    1.33
  -1   1  -2   59.79    1.28
  -1  -1  -2   62.78    1.12
  -1   1   2   59.84    1.30
   1   1   2   60.48    1.26
   1  -1   2   60.69    1.29
  -1  -1   2   59.31    1.31
  -2   0  -2  105.41    1.95
   2   0  -2  107.67    2.02
   2   0  -2  104.58    1.93
  -2   0  -2  108.34    1.63
  -2   0  -2  107.07    1.64
   0  -2  -2  105.75    1.88
   0   2  -2  104.97    1.76
   0   2  -2  106.54    1.93
   0  -2  -2  106.18    1.48
   0   2  -2  104.96    1.76
   0  -2  -2  105.25    1.99
  -2   0  -2  109.60    1.62
   0   2  -2  107.14    1.97
   0   2   2  107.42    1.92
   0  -2   2  105.41    1.52
   2   0   2  106.33    1.89
  -2   0   2  104.77    1.95
   2  -2  -2    5.47    0.34
   2  -2  -2    4.53    0.33
  -2   2  -2    5.00    0.17
  -2  -2  -2    4.64    0.25
   2   2  -2    4.48    0.29
  -2   2  -2    5.06    0.34
  -2   2  -2    4.96    0.31
   2   2  -2    5.57    0.35
  -2   2  -2    5.18    0.17
  -2  -2  -2    4.69    0.34
  -2  -2  -2    5.21    0.25
  -2  -2   2    4.83    0.33
   2  -2   2    4.99    0.26
  -2   2   2    5.07    0.35
   2   2   2    4.97    0.30
   1  -3  -2  159.45    2.73
  -3  -1  -2  156.48    2.38
  -1   3  -2  155.43    2.69
   3   1  -2  159.47    2.76
  -1   3  -2  156.41    2.58
  -3  -1  -2  160.95    2.38
   1  -3  -2  160.16    2.72
   3   1  -2  159.51    2.73
  -3  -1  -2  158.92    2.34
  -1   3  -2  158.92    2.44
  -3  -1  -2  155.52    2.71
  -1   3  -2  161.10    2.44
   1  -3   2  156.82    2.27
   3   1   2  162.23    2.53
  -1   3   2  157.01    2.67
  -3  -1   2  158.96    2.70
   1   3  -2   45.80    1.01
   1   3  -2   46.33    1.09
  -1  -3  -2   45.29    0.85
   1   3  -2   45.55    1.14
  -3   1  -2   43.60    1.07
   3  -1  -2   45.54    1.12
   3  -1  -2   42.60    1.13
  -3   1  -2   45.78    1.06
  -3   1  -2   44.65    0.92
  -1  -3  -2   45.01    1.13
  -1  -3  -2   44.86    1.02
  -1  -3   2   44.58    0.79
   1   3   2   44.87    1.05
  -3   1   2   44.61    1.13
  -3   3  -2  103.06    1.98
  -3  -3  -2  104.17    1.71
   3   3  -2  103.42    2.02
   3  -3  -2  102.65    2.01
  -3  -3  -2  100.62    2.04
  -3   3  -2  105.47    1.52
   3   3  -2  105.25    1.98
   3  -3  -2  100.07    2.04
  -3  -3  -2  103.85    1.84
  -3   3  -2  103.09    1.86
  -3   3  -2  105.36    1.52
  -3   3   2  103.56    2.03
  -3  -3   2  102.08    1.99
   3  -3   2  101.81    1.73
   3   3   2  104.02    1.79
  -4  -2  -2   26.58    0.65
  -4  -2  -2   25.46    0.85
   4   2  -2   25.73    0.86
  -2   4  -2   25.20    0.71
  -2   4  -2   26.63    0.61
  -2   4  -2   25.44    0.84
   2  -4  -2   25.69    0.82
  -4  -2  -2   26.15    0.71
  -2   4  -2   25.83    0.59
   2  -4  -2   25.23    0.83
   4   2  -2   25.57    0.83
  -4  -2   2   25.30    0.82
   2  -4   2   25.26    0.67
   4   2   2   25.80    0.67
  -2   4   2   25.24    0.84
   0  -4  -2  159.36    2.23
   0   4  -2  155.20    2.73
   4   0  -2  155.95    2.79
   0  -4  -2  157.61    2.73
   0  -4  -2  154.25    2.71
  -4   0  -2  155.44    2.39
   4   0  -2  158.55    2.79
   0   4  -2  157.11    2.58
  -4   0  -2  158.52    2.73
   0   4  -2  158.90    2.57
   4   0   2  156.38    2.52
   0  -4   2  160.54    2.30
   0   4   2  157.08    2.65
  -4   0   2  156.95    2.71
   2   4  -2   11.48    0.49
  -4   2  -2   12.03    0.51
   2   4  -2   10.49    0.52
   4  -2  -2   10.86    0.53
  -2  -4  -2   11.36    0.42
   2   4  -2   11.56    0.52
  -2  -4  -2   11.96    0.49
  -4   2  -2   11.93    0.51
  -4   2  -2   11.52    0.45
   4  -2  -2   11.17    0.54
  -2  -4  -2   12.38    0.57
  -4   2   2   11.89    0.56
  -2  -4   2   11.26    0.36
   2   4   2   10.60    0.45
  -4   4  -2   16.12    0.38
  -4  -4  -2   16.08    0.57
   4   4  -2   16.00    0.68
  -4   4  -2   16.70    0.69
   4   4  -2   14.61    0.63
   4  -4  -2   14.92    0.64
   4  -4  -2   15.71    0.69
  -4  -4  -2   14.56    0.56
  -4   4  -2   16.43    0.40
  -4  -4  -2   15.65    0.70
  -4   4  -2   15.83    0.55
   4  -4   2   17.19    0.60
  -4   4   2   15.76    0.70
  -4  -4   2   16.94    0.67
   5   3  -2   11.81    0.61
  -3   5  -2   12.34    0.61
  -5  -3  -2   12.74    0.49
  -5  -3  -2   12.23    0.63
   3  -5  -2   12.83    0.58
   3  -5  -2   12.18    0.60
  -3   5  -2   13.22    0.47
   5   3  -2   12.97    0.60
  -3   5  -2   13.31    0.41
  -5  -3  -2   12.66    0.52
  -5  -3   2   12.56    0.58
  -3   5   2   13.29    0.64
   3  -5   2   13.03    0.51
   1  -5  -2   74.67    1.65
  -5  -1  -2   73.70    1.44
   1  -5  -2   75.36    1.61
   5   1  -2   77.08    1.72
  -5  -1  -2   79.63    1.28
   1  -5  -2   75.69    1.26
   5   1  -2   75.87    1.68
  -1   5  -2   74.54    1.44
  -5  -1  -2   75.31    1.68
  -5  -1  -2   78.43    1.30
  -1   5  -2   73.89    1.67
  -1   5  -2   74.59    1.43
  -5  -1   2   74.48    1.61
   1  -5   2   73.78    1.36
  -1   5   2   73.47    1.64
   5   1   2   73.63    1.38
  -5   1  -2   11.10    0.52
  -1  -5  -2    9.94    0.49
  -5   1  -2   11.05    0.47
   5  -1  -2   10.62    0.54
  -5   1  -2   10.28    0.45
  -1  -5  -2   10.24    0.52
   1   5  -2   11.10    0.48
   5  -1  -2   11.89    0.57
   1   5  -2   11.34    0.48
  -1  -5  -2   10.70    0.40
   1   5  -2   10.55    0.54
  -5   1   2   11.07    0.54
   1   5   2   10.90    0.51
  -1  -5   2    9.95    0.39
   3   5  -2    0.97    0.19
  -5   3  -2    0.61    0.15
  -3  -5  -2    0.53    0.15
   5  -3  -2    0.77    0.19
   3   5  -2    0.53    0.16
   5  -3  -2    0.81    0.20
   3   5  -2    0.76    0.19
  -3  -5  -2    0.77    0.19
  -5   3  -2    0.77    0.19
  -5   3   2    0.91    0.22
   3   5   2    0.93    0.17
   5   5  -2    0.05    0.10
   5   5  -2    0.05    0.11
  -5   5  -2    0.14    0.07
  -5   5  -2    0.06    0.11
  -5  -5  -2    0.06    0.09
   5  -5  -2    0.19    0.13
  -5  -5  -2    0.05    0.10
   5  -5  -2   -0.01    0.10
   5   5   2    0.17    0.13
  -5   5   2   -0.20    0.09
  -5  -5   2    0.35    0.15
   5  -5   2   -0.01    0.10
  -4   6  -2  123.12    2.10
   6   4  -2  124.42    2.59
   4  -6  -2  123.61    2.34
   6   4  -2  125.52    2.51
  -4   6  -2  122.39    2.52
  -6  -4  -2  121.96    2.30
  -6  -4  -2  125.56    2.23
   4  -6  -2  123.67    2.56
  -6  -4   2  122.75    2.34
   4  -6   2  125.73    2.21
   6   4   2  126.67    2.62
  -4   6   2  124.52    2.57
  -2   6  -2    4.49    0.28
  -6  -2  -2    5.28    0.29
  -2   6  -2    4.66    0.47
   6   2  -2    4.94    0.42
   2  -6  -2    4.82    0.36
  -6  -2  -2    5.40    0.36
   6   2  -2    5.36    0.40
   2  -6  -2    5.49    0.41
   6   2   2    4.95    0.41
   2  -6   2    5.18    0.33
  -2   6   2    5.13    0.41
  -6  -2   2    5.14    0.37
   0   6  -2  357.94    5.14
   6   0  -2  346.83    5.51
   0  -6  -2  354.01    4.74
  -6   0  -2  363.37    5.00
   0   6  -2  351.34    5.38
  -6   0  -2  358.69    5.05
   0   6  -2  349.31    5.43
  -6   0  -2  355.06    5.01
  -6   0  -2  349.48    4.95
   6   0  -2  344.92    5.65
   0  -6  -2  351.68    5.39
   0  -6  -2  353.22    5.61
   0  -6   2  353.11    4.81
  -6   0   2  349.60    5.35
   0   6   2  354.96    5.34
   6   0   2  359.33    5.47
  -6   2  -2   83.79    1.69
  -2  -6  -2   85.07    1.86
  -2  -6  -2   83.73    1.85
   2   6  -2   84.52    1.79
  -6   2  -2   84.29    1.66
  -2  -6  -2   83.54    1.55
   6  -2  -2   80.85    1.83
   2   6  -2   83.51    1.84
   6  -2  -2   85.66    1.92
   2   6  -2   84.74    1.71
   2   6   2   86.48    1.69
  -6   2   2   86.74    1.87
   6  -2   2   85.88    1.78
  -2  -6   2   85.26    1.50
   4   6  -2   18.98    0.76
  -6   4  -2   19.45    0.47
  -4  -6  -2   18.03    0.81
  -4  -6  -2   18.42    0.75
  -6   4  -2   18.78    0.77
   6  -4  -2   17.81    0.78
   4   6  -2   17.59    0.74
   4   6  -2   19.10    0.77
  -6   4  -2   19.32    0.71
  -4  -6  -2   19.78    0.68
   6  -4  -2   18.86    0.75
  -6   4   2   17.48    0.80
  -4  -6   2   20.78    0.77
   4   6   2   17.76    0.81
   6  -4   2   19.45    0.72
  -6  -6  -2  130.08    2.37
  -6  -6  -2  132.80    2.61
  -6   6  -2  127.58    2.20
   6   6  -2  130.82    2.69
   6  -6  -2  128.50    2.46
  -6   6  -2  127.65    2.70
   6   6  -2  129.48    2.71
  -6   6   2  133.13    2.79
  -6  -6   2  131.23    2.47
   6   6   2  128.57    2.78
   6  -6   2  130.68    2.41
  -7  -5  -2   23.84    0.86
  -7  -5  -2   24.13    0.85
   5  -7  -2   25.28    0.86
   7   5  -2   24.39    1.04
  -5   7  -2   23.82    0.72
  -5   7  -2   26.00    1.05
   7   5  -2   24.26    0.95
   5  -7   2   24.49    0.86
   7   5   2   23.09    1.02
  -7  -5   2   24.48    0.85
  -5   7   2   25.09    1.04
  -3   7  -2   60.08    1.31
  -7  -3  -2   60.51    1.41
  -3   7  -2   62.56    1.66
  -7  -3  -2   59.52    1.34
   7   3  -2   63.47    1.71
   3  -7  -2   58.70    1.59
   3  -7  -2   60.90    1.44
   7   3   2   63.17    1.69
  -7  -3   2   62.01    1.45
  -3   7   2   58.50    1.60
   3  -7   2   58.54    1.35
  -7  -1  -2  125.11    2.25
  -1   7  -2  125.23    2.53
   1  -7  -2  124.01    2.04
  -7  -1  -2  125.52    2.09
   7   1  -2  125.99    2.61
   1  -7  -2  124.43    2.37
  -1   7  -2  123.61    2.29
   7   1  -2  121.40    2.53
   1  -7  -2  120.94    2.53
  -7  -1   2  123.86    2.37
  -1   7   2  123.00    2.45
   7   1   2  124.08    2.54
   1  -7   2  125.32    2.16
   7  -1  -2    7.53    0.50
   1   7  -2    7.59    0.50
  -7   1  -2    7.07    0.43
  -1  -7  -2    7.07    0.38
   1   7  -2    7.31    0.45
  -1  -7  -2    6.13    0.43
  -7   1  -2    7.84    0.29
   7  -1  -2    7.82    0.51
  -1  -7  -2    6.95    0.48
  -1  -7   2    7.42    0.39
   7  -1   2    8.00    0.50
   1   7   2    7.85    0.47
  -7   1   2    7.04    0.47
   3   7  -2  123.56    2.52
   7  -3  -2  123.66    2.49
   3   7  -2  124.26    2.48
  -7   3  -2  126.66    2.31
  -3  -7  -2  124.35    2.56
  -3  -7  -2  125.82    2.58
  -3  -7  -2  125.97    2.20
  -7   3  -2  128.36    1.99
   3   7  -2  125.23    2.36
  -7   3  -2  125.77    2.37
  -7   3   2  127.49    2.58
  -3  -7   2  128.22    2.12
   7  -3   2  130.08    2.40
  -7   5  -2   95.88    2.15
  -5  -7  -2   94.38    1.91
   7  -5  -2   95.56    2.06
  -7   5  -2   97.20    1.70
  -5  -7  -2   97.95    2.17
   5   7  -2   98.38    2.20
   5   7  -2   96.79    2.14
  -7   5   2   94.95    2.26
   7  -5   2   98.23    1.99
   5   7   2   96.03    2.27
  -5  -7   2   97.04    2.03
   7   7  -2   56.62    1.69
  -7  -7  -2   56.96    1.47
  -7   7  -2   55.54    1.71
  -7   7  -2   56.93    1.28
  -7  -7  -2   60.38    1.62
  -7   7   2   56.51    1.72
   7  -7   2   57.36    1.50
   7   7   2   56.89    1.77
  -7  -7   2   57.63    1.45
   8   6  -2   27.80    1.19
  -8  -6  -2   28.18    1.03
  -8  -6  -2   28.00    0.98
  -6   8  -2   27.27    0.85
  -6   8  -2   30.24    1.23
   8   6   2   27.99    1.21
   6  -8   2   27.57    0.98
  -6   8   2   28.12    1.18
  -8  -4  -2    0.16    0.11
   8   4  -2    0.01    0.13
  -8  -4  -2    0.02    0.11
  -4   8  -2   -0.04    0.12
  -4   8  -2    0.09    0.10
  -8  -4   2   -0.08    0.10
  -4   8   2   -0.02    0.14
   8   4   2    0.21    0.16
   4  -8   2    0.08    0.12
   8   2  -2    5.79    0.59
   2  -8  -2    6.13    0.42
  -2   8  -2    6.14    0.50
  -8  -2  -2    5.86    0.35
  -8  -2  -2    6.45    0.44
  -2   8  -2    5.94    0.39
   2  -8  -2    5.77    0.47
   2  -8   2    5.59    0.40
  -8  -2   2    6.65    0.44
   8   2   2    5.93    0.50
  -2   8   2    6.11    0.48
   0  -8  -2   16.48    0.61
   0   8  -2   16.05    0.77
  -8   0  -2   15.89    0.52
   8   0  -2   15.41    0.78
   0  -8  -2   15.89    0.70
  -8   0  -2   16.93    0.70
   0   8  -2   15.28    0.66
   0  -8  -2   15.57    0.76
   0   8   2   16.17    0.72
   8   0   2   15.78    0.76
  -8   0   2   15.61    0.71
   0  -8   2   16.40    0.63
  -2  -8  -2    7.83    0.44
  -2  -8  -2    7.78    0.53
   8  -2  -2    6.90    0.50
   2   8  -2    7.13    0.48
  -2  -8  -2    7.06    0.50
  -8   2  -2    7.56    0.47
   2   8  -2    6.22    0.47
  -8   2   2    7.00    0.51
   8  -2   2    6.31    0.46
  -2  -8   2    6.64    0.40
   4   8  -2   22.17    0.93
   4   8  -2   22.98    0.86
  -8   4  -2   22.59    0.63
  -4  -8  -2   22.20    0.93
   4   8  -2   24.06    0.92
  -4  -8  -2   22.79    0.81
  -8   4  -2   21.15    0.86
   8  -4  -2   23.69    0.91
  -8   4  -2   22.53    0.85
  -8   4   2   22.13    0.96
   4   8   2   22.32    0.96
   6   8  -2    1.41    0.32
  -6  -8  -2    0.74    0.21
  -6  -8  -2    1.26    0.29
   6   8  -2    1.01    0.27
  -8   6  -2    1.69    0.21
  -8   6  -2    0.94    0.27
   6   8   2    1.75    0.36
  -8   6   2    2.09    0.38
   8  -6   2    0.81    0.23
  -6  -8   2    1.51    0.28
  -8  -8  -2    2.59    0.41
   8   8  -2    3.56    0.52
  -8  -8  -2    3.48    0.44
  -8   8  -2    2.59    0.30
  -8   8  -2    1.97    0.41
  -8   8   2    2.69    0.48
   8  -8   2    2.76    0.40
   8   8   2    3.06    0.52
  -9  -7  -2  148.25    3.11
   9   7  -2  152.88    3.39
  -9  -7  -2  146.88    2.87
  -7   9  -2  145.22    3.33
  -7   9  -2  147.35    2.80
  -7   9   2  149.21    3.33
   7  -9   2  150.33    2.90
   9   7   2  151.66    3.46
  -5   9  -2    7.15    0.72
  -9  -5  -2    7.17    0.51
   9   5  -2    7.10    0.73
  -9  -5  -2    8.55    0.54
  -5   9  -2    7.55    0.46
   5  -9   2    8.00    0.52
   9   5   2    8.15    0.67
  -5   9   2    8.40    0.66
   9   3  -2   91.72    2.37
  -9  -3  -2   90.12    1.92
  -3   9  -2   92.40    1.96
  -3   9  -2   92.90    2.29
  -9  -3  -2   91.25    1.98
   9   3   2   91.27    2.32
  -3   9   2   91.89    2.25
  -9  -3   2   95.74    1.98
   3  -9   2   91.80    1.95
  -1   9  -2  173.73    3.36
  -9  -1  -2  164.59    2.87
  -1   9  -2  166.56    3.12
   1  -9  -2  170.25    3.38
   9   1  -2  168.35    3.43
   1  -9  -2  175.07    3.09
   1  -9  -2  170.26    2.80
  -9  -1  -2  167.53    2.98
  -1   9   2  167.70    3.23
   1  -9   2  172.40    2.90
   9   1   2  166.86    3.35
  -9  -1   2  171.80    3.09
  -1  -9  -2    5.30    0.55
   9  -1  -2    5.06    0.54
  -9   1  -2    4.85    0.47
  -1  -9  -2    4.35    0.40
   1   9  -2    3.98    0.43
  -9   1  -2    4.78    0.29
   1   9  -2    4.26    0.48
  -1  -9  -2    4.72    0.49
  -1  -9   2    4.29    0.41
   1   9   2    4.65    0.46
  -9   1   2    4.73    0.50
   9  -1   2    4.42    0.51
  -9   3  -2   82.64    1.89
  -9   3  -2   87.19    1.61
  -3  -9  -2   82.50    1.79
   3   9  -2   86.00    2.07
   9  -3  -2   84.77    2.03
  -3  -9  -2   84.73    2.13
   3   9  -2   87.93    2.04
  -9   3   2   85.91    2.09
   3   9   2   84.61    2.07
  -3  -9   2   85.98    1.75
   9  -5  -2   31.76    1.11
  -9   5  -2   31.97    0.87
  -5  -9  -2   30.82    1.05
   5   9  -2   32.00    1.20
   5   9  -2   32.24    1.11
  -5  -9  -2   29.79    1.18
   5   9   2   33.91    1.28
  -9   5   2   32.10    1.25
   9  -5   2   32.66    1.12
  -9   7  -2   19.71    1.01
  -7  -9  -2   20.33    0.87
  -9   7  -2   19.90    0.73
   7   9  -2   19.00    0.94
  -7  -9  -2   17.91    0.93
  -9   7   2   19.57    1.03
   7   9   2   19.63    1.06
   9  -7   2   20.66    0.91
  -9  -9  -2   69.49    2.03
  -9  -9  -2   71.78    1.88
   9   9  -2   68.64    2.10
  -9   9  -2   69.35    1.71
  -9   9  -2   70.72    2.17
   9   9   2   75.27    2.31
   9  -9   2   70.07    1.89
  -9   9   2   66.36    2.14
  10   8  -2    0.46    0.30
  -8  10  -2    0.22    0.26
 -10  -8  -2    0.78    0.28
  -8  10  -2    0.34    0.18
 -10  -8  -2    0.45    0.23
  -8  10   2    0.45    0.31
  10   8   2    0.69    0.36
   8 -10   2    0.80    0.28
 -10  -6  -2   19.51    0.91
 -10  -6  -2   19.86    0.89
  -6  10  -2   19.25    0.80
  -6  10  -2   19.12    1.06
  10   6  -2   17.72    1.05
   6 -10   2   21.57    0.93
  -6  10   2   21.83    1.11
  10   6   2   18.67    1.08
 -10  -4  -2   52.88    1.47
  -4  10  -2   54.11    1.45
 -10  -4  -2   54.17    1.50
  10   4  -2   55.76    1.85
  -4  10  -2   54.32    1.76
  -4  10   2   54.02    1.72
   4 -10   2   54.33    1.49
  10   4   2   54.05    1.82
  10   2  -2    0.53    0.24
  -2  10  -2    0.07    0.12
  -2  10  -2    0.07    0.17
 -10  -2  -2    0.00    0.10
 -10  -2  -2    0.18    0.15
  -2  10   2    0.54    0.24
   2 -10   2    0.06    0.15
  10   2   2    0.71    0.27
   0  10  -2  110.51    2.45
 -10   0  -2  116.48    2.38
   0  10  -2  114.49    2.61
  10   0  -2  118.26    2.72
   0 -10  -2  118.16    2.23
 -10   0  -2  116.39    2.18
   0  10   2  114.51    2.47
   0 -10   2  119.37    2.27
 -10   0   2  119.57    2.49
  10   0   2  119.56    2.69
  -2 -10  -2   76.36    1.70
  10  -2  -2   74.87    1.96
   2  10  -2   71.51    1.90
   2  10  -2   71.20    1.89
 -10   2  -2   74.74    1.80
  -2 -10  -2   73.01    2.01
 -10   2  -2   72.35    1.52
  -2 -10   2   75.53    1.67
 -10   2   2   73.42    1.91
   2  10   2   75.41    1.90
  -4 -10  -2    0.11    0.18
  10  -4  -2    0.25    0.19
  -4 -10  -2   -0.03    0.14
 -10   4  -2   -0.03    0.11
   4  10  -2   -0.10    0.16
 -10   4  -2    0.02    0.09
   4  10  -2    0.44    0.23
   4  10   2    0.24    0.20
 -10   4   2   -0.03    0.16
  -6 -10  -2  130.22    2.96
  -6 -10  -2  128.67    2.61
 -10   6  -2  125.58    2.41
 -10   6   2  129.69    2.97
  10  -6   2  122.83    2.63
   6  10   2  132.78    3.04
 -10   8  -2   33.66    1.07
 -10   8  -2   35.16    1.42
  -8 -10  -2   32.89    1.36
  -8 -10  -2   32.06    1.19
 -10   8   2   32.24    1.42
   8  10   2   34.05    1.48
  10  -8   2   32.78    1.25
 -11  -7  -2   21.88    1.05
 -11  -7  -2   22.95    1.02
  -7  11  -2   20.58    0.90
  -7  11  -2   23.61    1.24
  11   7  -2   23.63    1.27
   7 -11   2   21.21    0.99
  -7  11   2   22.26    1.19
 -11  -5  -2    1.33    0.30
  -5  11  -2    1.17    0.26
  -5  11  -2    1.53    0.39
 -11  -5  -2    2.10    0.37
  11   5  -2    1.33    0.37
  -5  11   2    1.64    0.40
   5 -11   2    1.61    0.34
  11   5   2    2.16    0.46
  -3  11  -2    1.22    0.35
 -11  -3  -2    1.05    0.27
  11   3  -2    0.64    0.29
  -3  11  -2    1.36    0.28
 -11  -3  -2    0.90    0.23
  11   3   2    0.88    0.32
   3 -11   2    1.45    0.30
  -3  11   2    0.85    0.29
  -1  11  -2   10.11    0.63
 -11  -1  -2   11.54    0.67
  11   1  -2   12.13    0.82
 -11  -1  -2   10.93    0.55
  -1  11  -2    9.21    0.69
   1 -11   2   10.41    0.61
  11   1   2   10.31    0.77
  -1  11   2   10.00    0.67
   1  11  -2    8.70    0.61
   1  11  -2    7.69    0.60
 -11   1  -2    8.28    0.46
 -11   1  -2    8.22    0.58
  11  -1  -2    8.45    0.66
  -1 -11  -2    7.67    0.52
  -1 -11   2    8.58    0.55
 -11   1   2    8.11    0.60
   3  11  -2   10.56    0.72
 -11   3  -2   12.50    0.56
 -11   3  -2   11.18    0.68
  -3 -11  -2   12.65    0.67
  11  -3  -2   11.66    0.74
   3  11  -2   10.67    0.70
  -3 -11   2   11.56    0.64
 -11   3   2   11.24    0.73
   3  11   2   12.19    0.75
 -11   5  -2    3.88    0.39
  -5 -11  -2    4.16    0.56
  -5 -11  -2    3.85    0.46
   5  11   2    4.14    0.58
  11  -5   2    3.46    0.47
 -11   5   2    4.44    0.58
  -7 -11  -2   15.48    0.83
 -11   7  -2   16.20    0.71
  -7 -11  -2   16.11    0.96
 -11   7   2   17.27    1.02
  11  -7   2   16.24    0.87
   7  11   2   17.17    1.04
  -4  12  -2   38.15    1.54
 -12  -4  -2   33.83    1.22
  12   4  -2   36.90    1.60
  -4  12  -2   36.51    1.27
 -12  -4  -2   36.70    1.31
  12   4   2   38.48    1.62
   4 -12   2   38.17    1.30
  -4  12   2   38.01    1.50
  -2  12  -2    4.14    0.58
  -2  12  -2    6.61    0.54
 -12  -2  -2    5.72    0.45
  12   2  -2    5.28    0.68
 -12  -2  -2    6.06    0.61
   2 -12   2    5.95    0.57
  12   2   2    6.20    0.73
  -2  12   2    7.07    0.71
  12   0  -2   40.97    1.55
 -12   0  -2   39.89    1.35
 -12   0  -2   41.71    1.21
   0  12  -2   37.89    1.44
   0  12  -2   39.34    1.39
   0 -12   2   40.55    1.30
  12   0   2   39.95    1.52
 -12   2  -2   26.55    1.10
   2  12  -2   26.48    1.14
  -2 -12  -2   24.74    0.99
  12  -2  -2   23.71    1.11
   2  12  -2   26.15    1.16
 -12   2  -2   26.34    0.90
  -2 -12   2   23.48    0.97
  -4 -12  -2    0.15    0.20
 -12   4  -2    0.25    0.15
 -12   4  -2    0.04    0.17
 -12   4   2    0.10    0.23
  -6 -12  -2   16.51    0.88
 -12   6   2   18.36    1.05
  -3  13   2   18.75    1.05
   3 -13   2   19.91    0.95
  13   3   2   16.65    1.09
 -13  -1  -2   53.14    1.66
  -1  13  -2   54.61    1.85
 -13  -1  -2   55.35    1.55
  13   1  -2   58.27    1.98
  -1  13  -2   57.21    1.76
  13   1   2   58.21    1.96
   1 -13   2   60.05    1.67
  13  -1  -2    0.11    0.23
   1  13  -2    0.07    0.22
 -13   1  -2    0.06    0.15
   1  13  -2    0.05    0.22
 -13   1  -2    0.24    0.20
  -1 -13   2   -0.18    0.18
  -3 -13  -2   33.34    1.22
   0   1  -3    0.03    0.10
   1   0  -3   -0.05    0.10
  -1   0  -3    0.09    0.12
   0  -1  -3    0.14    0.13
  -1   0  -3    0.11    0.09
   1   0  -3    0.04    0.09
   0   1  -3    0.13    0.09
   0  -1  -3    0.00    0.08
   0   1   3    0.07    0.12
  -1   0   3    0.29    0.16
   1   0   3   -0.03    0.12
   0  -1   3   -0.02    0.12
   2   1  -3   57.70    1.53
  -2  -1  -3   57.34    1.21
  -2  -1  -3   55.95    1.52
  -1   2  -3   58.69    1.22
   1  -2  -3   57.17    1.54
  -1   2  -3   55.67    1.45
   1  -2  -3   55.81    1.39
   2   1  -3   54.56    1.38
  -2  -1   3   56.34    1.51
  -1   2   3   56.25    1.49
   1  -2   3   55.68    1.49
   2   1   3   56.05    1.40
  -2   1  -3  106.15    2.21
   1   2  -3  104.35    2.06
   1   2  -3  106.91    2.24
   2  -1  -3  107.74    2.31
  -1  -2  -3  105.14    2.02
  -1  -2  -3  103.34    2.27
   2  -1  -3  104.85    2.17
  -2   1  -3  108.23    1.84
  -1  -2   3  106.54    2.26
   1   2   3  108.23    2.18
  -2   1   3  105.88    2.26
   2  -1   3  107.16    2.20
  -2   3  -3    2.66    0.20
   2  -3  -3    3.25    0.41
  -3  -2  -3    2.80    0.38
   3   2  -3    1.80    0.28
  -3  -2  -3    2.16    0.25
   3   2  -3    3.69    0.44
   2  -3  -3    2.44    0.34
  -2   3  -3    2.23    0.31
   2  -3   3    2.60    0.37
   3   2   3    2.55    0.33
  -3  -2   3    2.33    0.35
  -2   3   3    2.54    0.37
  -3   0  -3   39.02    1.21
   0   3  -3   38.64    1.00
   3   0  -3   37.29    1.15
   3   0  -3   36.61    1.22
   0  -3  -3   41.18    1.27
   0   3  -3   37.34    1.14
  -3   0  -3   38.93    0.85
   0  -3  -3   39.31    1.11
   0   3   3   37.77    1.16
  -3   0   3   37.20    1.20
   3   0   3   40.06    1.15
   0  -3   3   39.06    1.24
   3  -2  -3    6.19    0.47
   2   3  -3    5.31    0.39
   2   3  -3    5.50    0.45
  -3   2  -3    6.13    0.45
  -2  -3  -3    6.11    0.48
   3  -2  -3    6.19    0.45
  -2  -3  -3    5.62    0.37
  -3   2  -3    5.35    0.25
  -3   2   3    5.31    0.53
   2   3   3    7.00    0.46
  -2  -3   3    4.80    0.50
   3  -2   3    5.56    0.44
   3  -4  -3   13.29    0.72
  -3   4  -3   14.30    0.72
   4   3  -3   13.57    0.69
   3  -4  -3   13.83    0.72
  -4  -3  -3   13.54    0.74
  -4  -3  -3   13.27    0.56
  -3   4  -3   13.67    0.45
  -3   4  -3   15.43    0.68
   4   3  -3   14.81    0.77
  -3   4   3   14.30    0.75
  -4  -3   3   14.04    0.73
  -4  -1  -3   85.10    1.55
  -4  -1  -3   84.78    2.01
  -1   4  -3   84.24    1.65
   1  -4  -3   83.63    1.91
   4   1  -3   84.90    1.97
   4   1  -3   85.60    2.06
   1  -4  -3   84.83    2.02
  -1   4  -3   86.08    1.86
   1  -4   3   82.73    1.98
  -1   4   3   86.49    1.98
   4   1   3   81.29    1.77
  -4  -1   3   86.49    2.01
   1   4  -3   73.97    1.65
  -1  -4  -3   74.96    1.72
   4  -1  -3   76.86    1.91
  -1  -4  -3   73.41    1.88
  -4   1  -3   75.14    1.80
  -4   1  -3   79.06    1.28
   4  -1  -3   74.09    1.84
   1   4  -3   78.81    1.79
   4  -1   3   76.21    1.75
  -1  -4   3   75.07    1.87
   1   4   3   77.56    1.77
  -4   1   3   75.48    1.87
  -4   3  -3    0.13    0.14
  -3  -4  -3    0.08    0.10
   3   4  -3    0.11    0.12
   3   4  -3    0.10    0.13
  -4   3  -3    0.29    0.07
  -4   3  -3    0.19    0.14
  -3  -4  -3    0.08    0.14
   4  -3  -3    0.10    0.13
   4  -3  -3   -0.03    0.12
  -3  -4   3    0.07    0.14
   4  -5  -3   78.07    1.95
  -4   5  -3   77.00    1.99
  -5  -4  -3   77.44    2.06
  -4   5  -3   80.14    1.45
   4  -5  -3   80.00    2.03
   5   4  -3   77.69    1.96
   5   4  -3   78.18    2.02
  -5  -4  -3   78.05    1.72
  -5  -4   3   80.73    1.98
  -4   5   3   78.88    2.07
  -5  -2  -3  175.26    3.41
   5   2  -3  179.56    3.40
   5   2  -3  178.55    3.46
  -2   5  -3  170.70    3.35
  -2   5  -3  176.70    2.92
  -5  -2  -3  178.93    2.91
   2  -5  -3  178.51    3.39
   2  -5  -3  177.73    3.36
  -2   5   3  175.55    3.36
  -5  -2   3  173.74    3.34
   0  -5  -3   24.43    0.93
   5   0  -3   25.54    1.05
   0  -5  -3   25.74    1.03
  -5   0  -3   27.02    1.03
   5   0  -3   24.99    0.99
   0   5  -3   25.24    1.01
   0   5  -3   26.40    0.84
   0   5  -3   27.32    0.93
  -5   0  -3   27.71    0.61
  -5   0   3   26.27    1.03
   0  -5   3   25.53    1.01
   0   5   3   26.43    0.98
   5  -2  -3  122.36    2.64
  -2  -5  -3  124.09    2.66
   5  -2  -3  121.14    2.65
  -5   2  -3  124.26    2.52
  -2  -5  -3  121.13    2.48
   2   5  -3  123.51    2.45
   2   5  -3  124.82    2.50
  -2  -5   3  124.28    2.63
   2   5   3  124.67    2.44
  -5   2   3  121.41    2.62
   5  -2   3  123.46    2.45
  -4  -5  -3  216.56    3.81
   5  -4  -3  216.39    3.97
  -5   4  -3  218.30    3.93
  -5   4  -3  225.46    3.20
   4   5  -3  220.73    3.99
  -4  -5  -3  217.33    4.10
   4   5  -3  221.06    3.98
   5  -4  -3  216.63    4.12
  -5   4   3  220.44    4.09
  -4  -5   3  219.67    3.96
  -6  -5  -3    0.24    0.15
  -5   6  -3   -0.11    0.18
   5  -6  -3    0.15    0.17
   6   5  -3    0.07    0.15
   6   5  -3    0.12    0.18
  -5   6  -3    0.13    0.10
  -5   6   3    0.18    0.19
   6   5   3    0.38    0.22
  -6  -5   3    0.17    0.17
  -3   6  -3    3.50    0.48
   3  -6  -3    3.58    0.45
   6   3  -3    2.02    0.35
   6   3  -3    3.21    0.47
  -3   6  -3    2.68    0.28
  -6  -3  -3    2.98    0.32
  -6  -3  -3    3.05    0.46
   3  -6  -3    3.51    0.44
  -6  -3   3    2.64    0.39
   6   3   3    2.59    0.42
  -3   6   3    3.15    0.45
   6   1  -3    0.32    0.19
  -6  -1  -3    0.82    0.26
  -1   6  -3    0.36    0.13
   1  -6  -3    0.38    0.20
   6   1  -3    0.08    0.14
  -6  -1  -3    0.38    0.11
   1  -6  -3    0.34    0.19
  -1   6  -3    0.51    0.22
  -1   6   3    0.18    0.16
  -6  -1   3    0.36    0.19
   1   6  -3   21.20    0.81
   1   6  -3   21.66    0.96
   1   6  -3   21.72    0.84
  -1  -6  -3   20.77    0.93
  -6   1  -3   21.69    0.93
  -1  -6  -3   22.74    0.91
   6  -1  -3   21.30    0.98
   6  -1  -3   21.30    0.94
  -6   1   3   20.45    0.93
   1   6   3   21.72    0.90
  -3  -6  -3    2.75    0.42
   3   6  -3    2.14    0.35
  -3  -6  -3    2.62    0.36
   6  -3  -3    2.45    0.39
   6  -3  -3    2.66    0.42
   3   6  -3    2.41    0.34
  -6   3  -3    2.21    0.35
  -6   3   3    2.44    0.40
  -3  -6   3    2.82    0.41
   6  -5  -3   33.15    1.21
  -5  -6  -3   34.84    1.36
  -5  -6  -3   33.46    1.15
  -6   5  -3   35.38    1.27
  -6   5  -3   34.47    0.73
   5   6  -3   32.56    1.23
   5   6  -3   32.72    1.21
  -6   5   3   33.13    1.33
   5   6   3   34.91    1.36
  -5  -6   3   33.40    1.21
  -7  -6  -3   42.47    1.34
  -6   7  -3   44.38    1.58
   7   6  -3   41.52    1.53
   6  -7  -3   43.48    1.41
  -6   7  -3   42.44    1.03
   7   6  -3   42.56    1.51
  -7  -6   3   43.74    1.41
   7   6   3   42.70    1.60
  -6   7   3   42.39    1.59
  -7  -4  -3    6.99    0.45
   4  -7  -3    6.37    0.53
   7   4  -3    6.62    0.57
  -4   7  -3    7.20    0.41
  -4   7  -3    7.78    0.64
   7   4  -3    7.53    0.63
  -4   7   3    7.28    0.73
   7   4   3    7.43    0.73
  -7  -4   3    7.48    0.57
   2  -7  -3   39.57    1.37
  -2   7  -3   39.26    1.41
   7   2  -3   39.27    1.44
   7   2  -3   38.43    1.37
  -7  -2  -3   41.73    1.01
  -2   7  -3   41.48    1.13
   2  -7  -3   38.31    1.31
   7   2   3   38.57    1.40
  -2   7   3   42.76    1.43
  -7  -2   3   38.19    1.31
   0   7  -3    3.53    0.39
   7   0  -3    4.74    0.55
   0  -7  -3    4.09    0.50
   0  -7  -3    4.06    0.48
  -7   0  -3    4.23    0.23
   7   0  -3    4.28    0.50
   0   7  -3    3.27    0.47
  -7   0  -3    4.82    0.45
  -7   0   3    4.77    0.54
   7   0   3    4.46    0.51
   0   7   3    4.28    0.50
   2   7  -3    7.43    0.52
  -7   2  -3    7.38    0.48
  -2  -7  -3    7.85    0.56
   7  -2  -3    7.16    0.59
  -2  -7  -3    7.07    0.57
   7  -2  -3    8.23    0.62
   7  -2   3    8.60    0.59
  -2  -7   3    6.80    0.55
  -7   2   3    7.77    0.60
  -4  -7  -3   39.82    1.46
   7  -4  -3   40.50    1.39
   4   7  -3   38.22    1.28
  -4  -7  -3   38.91    1.30
   4   7  -3   39.39    1.32
  -7   4   3   39.07    1.44
   7  -4   3   38.91    1.18
  -4  -7   3   37.32    1.33
  -7   6  -3    0.51    0.13
   6   7  -3    0.48    0.25
  -6  -7  -3    0.63    0.23
  -7   6  -3    0.70    0.29
   7  -6  -3    0.21    0.21
   6   7  -3    0.73    0.26
  -7   6   3    0.65    0.29
   7  -6   3    0.72    0.25
   6   7   3    0.54    0.26
  -6  -7   3    0.36    0.22
   8   7  -3    0.75    0.31
  -7   8  -3    0.16    0.28
  -7   8  -3    0.35    0.16
  -8  -5  -3   76.09    1.84
  -5   8  -3   78.97    2.26
   8   5  -3   75.90    2.25
  -5   8  -3   76.03    1.65
   8   5   3   73.58    2.23
  -8  -5   3   76.09    1.98
  -5   8   3   77.82    2.24
   8   3  -3   16.72    0.97
  -3   8  -3   17.08    0.70
  -8  -3  -3   17.11    0.78
  -3   8  -3   15.85    0.93
   3  -8  -3   16.66    0.85
   3  -8  -3   17.08    0.93
  -8  -3  -3   16.38    0.66
  -3   8   3   16.86    0.93
  -8  -3   3   17.06    0.86
   8   3   3   15.93    0.93
  -8  -1  -3    8.51    0.54
  -1   8  -3    8.22    0.52
   1  -8  -3    9.65    0.64
  -1   8  -3    8.52    0.67
   8   1  -3    9.57    0.71
  -8  -1  -3    8.66    0.39
   1  -8  -3    9.06    0.65
  -8  -1   3    8.92    0.63
  -1   8   3    8.43    0.64
   8   1   3    9.09    0.68
  -1  -8  -3   60.08    1.74
   1   8  -3   56.85    1.60
   1   8  -3   57.50    1.74
  -1  -8  -3   55.99    1.71
  -8   1  -3   57.67    1.50
  -8   1  -3   58.95    1.05
   8  -1  -3   57.34    1.78
  -8   1   3   56.40    1.70
   8  -1   3   58.35    1.71
   3   8  -3    1.67    0.33
  -8   3  -3    2.57    0.37
  -3  -8  -3    1.46    0.32
  -3  -8  -3    1.62    0.37
   8  -3  -3    1.88    0.37
  -8   3   3    2.39    0.43
  -3  -8   3    2.11    0.39
   8  -5  -3   61.08    1.77
  -8   5  -3   61.65    1.12
   5   8  -3   60.40    1.82
  -5  -8  -3   58.91    1.75
  -8   5   3   57.57    1.89
  -5  -8   3   61.07    1.77
   8  -5   3   60.72    1.61
   5   8   3   56.38    1.88
  -8   7  -3   22.80    1.15
  -8   7  -3   22.28    0.69
  -7  -8  -3   21.70    1.03
   7   8  -3   22.92    1.11
  -7  -8   3   22.76    1.05
   8  -7   3   23.74    1.00
   7   8   3   22.36    1.19
  -6   9  -3    0.09    0.23
   9   6  -3    0.46    0.28
   9   4  -3   12.85    0.90
  -9  -4  -3   11.62    0.69
  -9  -4  -3   11.15    0.60
  -4   9  -3   12.15    0.61
  -4   9  -3   12.46    0.88
   9   4   3   10.76    0.82
  -4   9   3   12.18    0.84
  -9  -4   3   13.25    0.77
  -2   9  -3   10.22    0.77
   9   2  -3   12.48    0.86
   2  -9  -3   11.43    0.71
  -9  -2  -3   12.59    0.69
  -2   9  -3   10.77    0.62
  -9  -2  -3   12.14    0.53
   9   2   3   10.70    0.77
  -2   9   3   10.99    0.76
  -9  -2   3   10.84    0.71
   9   0  -3   10.28    0.77
  -9   0  -3    9.74    0.40
   0  -9  -3    9.11    0.66
   0  -9  -3    9.61    0.70
  -9   0  -3    9.43    0.60
   0   9  -3    9.47    0.61
   0   9  -3    9.38    0.72
   9   0   3   10.47    0.72
  -9   0   3    9.98    0.69
  -9   2  -3   25.10    0.99
  -9   2  -3   27.08    0.60
  -2  -9  -3   26.30    1.14
   2   9  -3   25.00    1.14
   2   9  -3   24.36    1.05
   9  -2  -3   25.07    1.16
  -2  -9  -3   24.86    1.14
  -9   2   3   24.52    1.14
  -4  -9  -3   24.83    1.13
  -9   4  -3   25.72    0.58
   4   9  -3   24.77    1.12
   9  -4  -3   23.74    1.11
   4   9   3   25.74    1.20
  -9   4   3   22.74    1.15
  -4  -9   3   24.70    1.11
   9  -4   3   23.74    0.99
  -9   6  -3    0.55    0.14
  -6  -9  -3    0.36    0.24
   6   9  -3    0.42    0.27
  -6  -9   3    0.19    0.22
   9  -6   3    0.70    0.27
 -10  -5  -3   79.57    2.02
 -10  -3  -3   22.84    0.99
  10   3  -3   21.30    1.21
 -10  -3  -3   22.20    0.84
  -3  10  -3   22.70    1.19
  -3  10  -3   22.30    0.92
  -3  10   3   20.76    1.11
  10   3   3   22.50    1.19
 -10  -1  -3    7.23    0.56
  10   1  -3    5.44    0.70
 -10  -1  -3    6.59    0.39
  -1  10  -3    4.76    0.64
  -1  10  -3    6.39    0.52
  10   1   3    6.00    0.70
 -10  -1   3    5.12    0.59
  -1 -10  -3   19.67    1.03
   1  10  -3   19.08    0.94
   1  10  -3   18.21    1.01
 -10   1  -3   18.15    0.57
 -10   1  -3   19.39    0.90
  10  -1  -3   17.69    1.01
  -1 -10  -3   17.45    0.96
 -10   1   3   19.15    1.01
 -10   3  -3    6.14    0.59
  -3 -10  -3    7.05    0.73
   3  10  -3    7.56    0.63
   3  10  -3    7.30    0.74
  10  -3  -3    6.84    0.72
 -10   3  -3    6.74    0.31
 -10   3   3    6.12    0.69
   3  10   3    7.56    0.75
  -3 -10   3    6.76    0.69
 -10   5  -3    3.46    0.26
   5  10  -3    4.01    0.58
  10  -5   3    3.21    0.47
  -5 -10   3    3.38    0.52
 -11   0  -3   44.45    1.46
 -11   0   3   45.96    1.60
   0   0  -4  252.21    4.66
   0   0  -4  252.46    4.35
   0   0   4  260.17    4.63
   1   1  -4   11.58    0.64
  -1   1  -4   13.40    0.79
   1  -1  -4   12.82    0.69
  -1  -1  -4   12.72    0.81
  -1  -1  -4   13.53    0.63
   1   1  -4   12.21    0.78
  -1   1  -4   13.31    0.61
   1  -1  -4   11.85    0.77
   1   1   4   12.61    0.77
  -1   1   4   12.08    0.78
   1  -1   4   13.99    0.81
  -1  -1   4   11.42    0.77
   0   2  -4   25.42    1.09
  -2   0  -4   24.69    0.83
   0   2  -4   24.75    0.91
  -2   0  -4   25.07    1.12
   2   0  -4   24.80    1.12
   0  -2  -4   25.91    1.15
   2   0  -4   24.69    1.00
   0  -2  -4   24.92    0.96
   2   0   4   24.60    1.08
   0  -2   4   26.26    1.14
   0   2   4   23.49    1.07
  -2   0   4   26.24    1.16
  -2  -2  -4    2.33    0.32
  -2   2  -4    3.11    0.32
   2  -2  -4    3.34    0.50
  -2   2  -4    3.13    0.48
   2   2  -4    3.48    0.44
   2  -2  -4    2.64    0.40
   2   2  -4    3.73    0.51
  -2  -2  -4    2.21    0.41
   2   2   4    2.97    0.45
  -2   2   4    2.76    0.46
   2  -2   4    4.01    0.54
  -2  -2   4    3.30    0.50
   3   1  -4   55.50    1.76
   1  -3  -4   53.83    1.75
   3   1  -4   50.64    1.57
  -1   3  -4   56.11    1.66
   1  -3  -4   54.35    1.58
  -3  -1  -4   55.75    1.75
  -1   3  -4   52.96    1.36
  -3  -1  -4   54.57    1.32
  -1   3   4   54.38    1.70
  -3  -1   4   51.81    1.72
   1  -3   4   53.47    1.72
   1   3  -4   17.02    0.89
   3  -1  -4   16.02    0.92
  -3   1  -4   17.16    0.91
   3  -1  -4   16.60    0.85
   1   3  -4   17.20    0.78
  -3   1  -4   17.48    0.63
  -1  -3  -4   16.26    0.93
  -1  -3  -4   16.78    0.78
   3  -1   4   19.26    0.93
  -3   1   4   18.12    0.97
  -1  -3   4   16.46    0.93
   1   3   4   17.58    0.91
  -3  -3  -4   40.48    1.20
   3   3  -4   37.96    1.42
  -3  -3  -4   37.18    1.46
   3   3  -4   36.62    1.31
  -3   3  -4   39.50    0.99
   3  -3  -4   38.54    1.47
   3  -3  -4   36.28    1.36
  -3   3   4   37.48    1.45
  -3  -3   4   36.84    1.43
   3  -3   4   39.11    1.42
  -4  -2  -4    9.45    0.51
   2  -4  -4    8.98    0.64
  -2   4  -4    9.90    0.50
   4   2  -4    8.97    0.66
   2  -4  -4    8.14    0.69
   4   2  -4    9.50    0.72
  -4  -2  -4    9.53    0.73
   2  -4   4    8.77    0.69
  -4  -2   4    8.30    0.67
  -2   4   4    9.21    0.71
   4   0  -4   45.35    1.61
   4   0  -4   46.70    1.54
   0   4  -4   45.35    1.31
   0  -4  -4   46.37    1.45
   0  -4  -4   45.45    1.63
  -4   0  -4   47.12    1.11
   0   4  -4   46.52    1.50
  -4   0  -4   46.15    1.58
   0   4   4   47.22    1.55
   0  -4   4   44.34    1.58
  -4   0   4   44.13    1.59
   4  -2  -4    7.89    0.66
  -4   2  -4    8.04    0.64
   4  -2  -4    6.81    0.59
   2   4  -4    6.99    0.59
  -4   2  -4    7.65    0.36
  -2  -4  -4    6.84    0.52
  -2  -4  -4    8.02    0.79
   2   4  -4    7.01    0.53
  -4   2   4    6.68    0.71
   4  -2   4    6.85    0.68
  -2  -4   4    6.35    0.69
   4   4  -4    6.63    0.69
  -4   4  -4    8.90    0.39
   4  -4  -4    7.94    0.65
   4   4  -4    8.72    0.64
   4  -4  -4    8.47    0.69
   4  -4   4    8.98    0.70
   5   3  -4    7.84    0.64
   3  -5  -4    8.23    0.66
  -3   5  -4    7.56    0.43
   5   3  -4    7.87    0.78
  -3   5   4    7.63    0.78
   3  -5   4    7.46    0.75
   1  -5  -4   18.73    0.95
   5   1  -4   20.21    1.07
   1  -5  -4   19.68    1.06
  -5  -1  -4   21.39    1.08
  -5  -1  -4   20.31    0.69
   5   1  -4   20.18    1.00
  -1   5  -4   19.60    0.79
   1  -5   4   21.91    1.10
  -1   5   4   19.11    1.01
  -5  -1   4   20.75    1.07
  -1  -5  -4    3.19    0.51
  -5   1  -4    4.01    0.54
  -5   1  -4    3.95    0.26
   5  -1  -4    4.21    0.54
   5  -1  -4    4.50    0.61
  -1  -5  -4    3.74    0.47
   1   5  -4    4.24    0.46
  -1  -5   4    3.44    0.53
  -5   1   4    3.86    0.57
   3   5  -4    0.17    0.22
   5  -3  -4   -0.04    0.19
   6   2  -4    0.56    0.27
  -2   6   4    1.40    0.40
  -6   0  -4  138.87    2.29
   6   0  -4  133.75    3.14
  -6   0  -4  136.35    3.16
   6  -2  -4   30.86    1.33
   0   0   0    0.00    0.00
;
_shelx_hkl_checksum              39458
loop_
_space_group_symop_operation_xyz
'x, y, z'
'-x, -y, z'
'-y, x, z'
'y, -x, z'
'x+1/2, y+1/2, z+1/2'
'-x+1/2, -y+1/2, z+1/2'
'-y+1/2, x+1/2, z+1/2'
'y+1/2, -x+1/2, z+1/2'
'-x, -y, -z'
'x, y, -z'
'y, -x, -z'
'-y, x, -z'
'-x+1/2, -y+1/2, -z+1/2'
'x+1/2, y+1/2, -z+1/2'
'y+1/2, -x+1/2, -z+1/2'
'-y+1/2, x+1/2, -z+1/2'
loop_
_atom_site_label
_atom_site_type_symbol
_atom_site_fract_x
_atom_site_fract_y
_atom_site_fract_z
_atom_site_U_iso_or_equiv
_atom_site_adp_type
_atom_site_occupancy
_atom_site_site_symmetry_order
_atom_site_calc_flag
_atom_site_refinement_flags_posn
_atom_site_refinement_flags_adp
_atom_site_refinement_flags_occupancy
_atom_site_disorder_assembly
_atom_site_disorder_group
K1 K 0.5000 0.5000 0.226(3) 0.0232(16) Uani 0.215(8) 4 d S TU P . .
K2 K 0.5000 0.5000 0.0000 0.0281(17) Uani 0.361(14) 8 d S TU P . .
K3 K 0.5000 0.5000 0.5000 0.0281(17) Uani 0.010(5) 8 d S T P . .
Ti1 Ti 0.16690(3) 0.35005(3) 0.0000 0.00557(10) Uani 0.7999(16) 2 d S T P . .
V1 V 0.16690(3) 0.35005(3) 0.0000 0.00557(10) Uani 0.2001(16) 2 d S T P . .
O1 O 0.16630(13) 0.53969(12) 0.0000 0.0064(2) Uani 1 2 d S T P . .
O2 O 0.29597(12) 0.34433(12) 0.5000 0.0057(2) Uani 1 2 d S T P . .
loop_
_atom_site_aniso_label
_atom_site_aniso_U_11
_atom_site_aniso_U_22
_atom_site_aniso_U_33
_atom_site_aniso_U_23
_atom_site_aniso_U_13
_atom_site_aniso_U_12
K1 0.0101(11) 0.0101(11) 0.050(4) 0.000 0.000 0.000
K2 0.0181(12) 0.0181(12) 0.048(5) 0.000 0.000 0.000
K3 0.0181(12) 0.0181(12) 0.048(5) 0.000 0.000 0.000
Ti1 0.00610(14) 0.00564(14) 0.00497(15) 0.000 0.000 0.00090(9)
V1 0.00610(14) 0.00564(14) 0.00497(15) 0.000 0.000 0.00090(9)
O1 0.0082(5) 0.0050(5) 0.0060(5) 0.000 0.000 0.0002(4)
O2 0.0062(5) 0.0052(5) 0.0057(5) 0.000 0.000 0.0004(4)
loop_
_atom_type_symbol
_atom_type_description
_atom_type_scat_dispersion_real
_atom_type_scat_dispersion_imag
_atom_type_scat_source
O O 0.0106 0.0060 'International Tables Vol C Tables 4.2.6.8 and 6.1.1.4'
K K 0.2009 0.2494 'International Tables Vol C Tables 4.2.6.8 and 6.1.1.4'
Ti Ti 0.2776 0.4457 'International Tables Vol C Tables 4.2.6.8 and 6.1.1.4'
V V 0.3005 0.5294 'International Tables Vol C Tables 4.2.6.8 and 6.1.1.4'
loop_
_geom_angle_atom_site_label_1
_geom_angle_atom_site_label_2
_geom_angle_atom_site_label_3
_geom_angle
_geom_angle_site_symmetry_1
_geom_angle_site_symmetry_3
K2 K1 K3 180.0 . .
K2 K1 K1 0.000(3) . 9_665
K3 K1 K1 180.0 . 9_665
K2 K1 K1 180.0 . 9_666
K3 K1 K1 0.000(3) . 9_666
K1 K1 K1 180.0 9_665 9_666
K2 K1 K3 0.0 . 1_554
K3 K1 K3 180.0 . 1_554
K1 K1 K3 0.000(3) 9_665 1_554
K1 K1 K3 180.0 9_666 1_554
K2 K1 K2 180.0 . 1_556
K3 K1 K2 0.0 . 1_556
K1 K1 K2 180.0 9_665 1_556
K1 K1 K2 0.000(3) 9_666 1_556
K3 K1 K2 180.0 1_554 1_556
K2 K1 O2 107.3(2) . 9_666
K3 K1 O2 72.7(2) . 9_666
K1 K1 O2 107.3(2) 9_665 9_666
K1 K1 O2 72.7(2) 9_666 9_666
K3 K1 O2 107.3(2) 1_554 9_666
K2 K1 O2 72.7(2) 1_556 9_666
K2 K1 O2 107.3(2) . .
K3 K1 O2 72.7(2) . .
K1 K1 O2 107.3(2) 9_665 .
K1 K1 O2 72.7(2) 9_666 .
K3 K1 O2 107.3(2) 1_554 .
K2 K1 O2 72.7(2) 1_556 .
O2 K1 O2 145.3(4) 9_666 .
K2 K1 O2 107.3(2) . 11_566
K3 K1 O2 72.7(2) . 11_566
K1 K1 O2 107.3(2) 9_665 11_566
K1 K1 O2 72.7(2) 9_666 11_566
K3 K1 O2 107.3(2) 1_554 11_566
K2 K1 O2 72.7(2) 1_556 11_566
O2 K1 O2 84.90(12) 9_666 11_566
O2 K1 O2 84.90(12) . 11_566
K2 K1 O2 107.3(2) . 3_655
K3 K1 O2 72.7(2) . 3_655
K1 K1 O2 107.3(2) 9_665 3_655
K1 K1 O2 72.7(2) 9_666 3_655
K3 K1 O2 107.3(2) 1_554 3_655
K2 K1 O2 72.7(2) 1_556 3_655
O2 K1 O2 84.90(12) 9_666 3_655
O2 K1 O2 84.90(12) . 3_655
O2 K1 O2 145.3(4) 11_566 3_655
K2 K1 K1 180.0 . 1_556
K3 K1 K1 0.000(3) . 1_556
K1 K1 K1 180.0 9_665 1_556
K1 K1 K1 0.000(3) 9_666 1_556
K3 K1 K1 180.0 1_554 1_556
K2 K1 K1 0.0 1_556 1_556
O2 K1 K1 72.7(2) 9_666 1_556
O2 K1 K1 72.7(2) . 1_556
O2 K1 K1 72.7(2) 11_566 1_556
O2 K1 K1 72.7(2) 3_655 1_556
K2 K1 K1 0.000(4) . 1_554
K3 K1 K1 180.0 . 1_554
K1 K1 K1 0.000(1) 9_665 1_554
K1 K1 K1 180.0 9_666 1_554
K3 K1 K1 0.000(1) 1_554 1_554
K2 K1 K1 180.0 1_556 1_554
O2 K1 K1 107.3(2) 9_666 1_554
O2 K1 K1 107.3(2) . 1_554
O2 K1 K1 107.3(2) 11_566 1_554
O2 K1 K1 107.3(2) 3_655 1_554
K1 K1 K1 180.0 1_556 1_554
K1 K2 K1 180.0 9_665 .
K1 K2 K3 0.000(4) 9_665 1_554
K1 K2 K3 180.0 . 1_554
K1 K2 K3 180.0 9_665 .
K1 K2 K3 0.000(6) . .
K3 K2 K3 180.0 1_554 .
K1 K2 K1 180.000(12) 9_665 9_666
K1 K2 K1 0.000(3) . 9_666
K3 K2 K1 180.0 1_554 9_666
K3 K2 K1 0.000(1) . 9_666
K1 K2 K1 0.000(1) 9_665 1_554
K1 K2 K1 180.000(12) . 1_554
K3 K2 K1 0.000(1) 1_554 1_554
K3 K2 K1 180.0 . 1_554
K1 K2 K1 180.0 9_666 1_554
K1 K2 K2 180.0 9_665 1_556
K1 K2 K2 0.000(6) . 1_556
K3 K2 K2 180.0 1_554 1_556
K3 K2 K2 0.0 . 1_556
K1 K2 K2 0.000(3) 9_666 1_556
K1 K2 K2 180.0 1_554 1_556
K1 K2 K2 0.000(4) 9_665 1_554
K1 K2 K2 180.0 . 1_554
K3 K2 K2 0.0 1_554 1_554
K3 K2 K2 180.0 . 1_554
K1 K2 K2 180.0 9_666 1_554
K1 K2 K2 0.000(1) 1_554 1_554
K2 K2 K2 180.0 1_556 1_554
K1 K2 O2 119.664(13) 9_665 9_666
K1 K2 O2 60.336(13) . 9_666
K3 K2 O2 119.664(12) 1_554 9_666
K3 K2 O2 60.336(12) . 9_666
K1 K2 O2 60.336(12) 9_666 9_666
K1 K2 O2 119.664(13) 1_554 9_666
K2 K2 O2 60.336(12) 1_556 9_666
K2 K2 O2 119.664(12) 1_554 9_666
K1 K2 O2 60.336(13) 9_665 1_554
K1 K2 O2 119.664(13) . 1_554
K3 K2 O2 60.336(12) 1_554 1_554
K3 K2 O2 119.664(12) . 1_554
K1 K2 O2 119.664(12) 9_666 1_554
K1 K2 O2 60.336(12) 1_554 1_554
K2 K2 O2 119.664(12) 1_556 1_554
K2 K2 O2 60.336(12) 1_554 1_554
O2 K2 O2 180.0 9_666 1_554
K1 K2 O2 119.664(13) 9_665 11_566
K1 K2 O2 60.336(13) . 11_566
K3 K2 O2 119.664(12) 1_554 11_566
K3 K2 O2 60.336(12) . 11_566
K1 K2 O2 60.336(12) 9_666 11_566
K1 K2 O2 119.664(12) 1_554 11_566
K2 K2 O2 60.336(12) 1_556 11_566
K2 K2 O2 119.664(12) 1_554 11_566
O2 K2 O2 75.822(11) 9_666 11_566
O2 K2 O2 104.178(11) 1_554 11_566
K1 K2 O2 60.336(13) 9_665 3_654
K1 K2 O2 119.664(13) . 3_654
K3 K2 O2 60.336(12) 1_554 3_654
K3 K2 O2 119.664(12) . 3_654
K1 K2 O2 119.664(12) 9_666 3_654
K1 K2 O2 60.336(12) 1_554 3_654
K2 K2 O2 119.664(12) 1_556 3_654
K2 K2 O2 60.336(12) 1_554 3_654
O2 K2 O2 104.178(11) 9_666 3_654
O2 K2 O2 75.822(11) 1_554 3_654
O2 K2 O2 180.0 11_566 3_654
K1 K3 K1 180.0 . 9_666
K1 K3 K2 180.0 . 1_556
K1 K3 K2 0.000(7) 9_666 1_556
K1 K3 K2 0.000(4) . .
K1 K3 K2 180.0 9_666 .
K2 K3 K2 180.0 1_556 .
K1 K3 K1 0.000(1) . 9_665
K1 K3 K1 180.000(14) 9_666 9_665
K2 K3 K1 180.0 1_556 9_665
K2 K3 K1 0.000(1) . 9_665
K1 K3 K1 180.000(12) . 1_556
K1 K3 K1 0.000(3) 9_666 1_556
K2 K3 K1 0.000(1) 1_556 1_556
K2 K3 K1 180.0 . 1_556
K1 K3 K1 180.0 9_665 1_556
K1 K3 O2 90.000(5) . 9_666
K1 K3 O2 90.000(5) 9_666 9_666
K2 K3 O2 90.0 1_556 9_666
K2 K3 O2 90.0 . 9_666
K1 K3 O2 90.000(2) 9_665 9_666
K1 K3 O2 90.000(2) 1_556 9_666
K1 K3 O2 90.000(6) . .
K1 K3 O2 90.000(5) 9_666 .
K2 K3 O2 90.0 1_556 .
K2 K3 O2 90.0 . .
K1 K3 O2 90.000(2) 9_665 .
K1 K3 O2 90.000(2) 1_556 .
O2 K3 O2 180.0 9_666 .
K1 K3 O2 90.000(3) . 11_566
K1 K3 O2 90.000(3) 9_666 11_566
K2 K3 O2 90.0 1_556 11_566
K2 K3 O2 90.0 . 11_566
K1 K3 O2 90.000(1) 9_665 11_566
K1 K3 O2 90.000(1) 1_556 11_566
O2 K3 O2 90.0 9_666 11_566
O2 K3 O2 90.0 . 11_566
K1 K3 O2 90.000(3) . 3_655
K1 K3 O2 90.000(3) 9_666 3_655
K2 K3 O2 90.0 1_556 3_655
K2 K3 O2 90.0 . 3_655
K1 K3 O2 90.000(1) 9_665 3_655
K1 K3 O2 90.000(1) 1_556 3_655
O2 K3 O2 90.0 9_666 3_655
O2 K3 O2 90.0 . 3_655
O2 K3 O2 180.0 11_566 3_655
K1 K3 K3 180.0 . 1_556
K1 K3 K3 0.000(7) 9_666 1_556
K2 K3 K3 0.0 1_556 1_556
K2 K3 K3 180.0 . 1_556
K1 K3 K3 180.0 9_665 1_556
K1 K3 K3 0.000(3) 1_556 1_556
O2 K3 K3 90.0 9_666 1_556
O2 K3 K3 90.0 . 1_556
O2 K3 K3 90.0 11_566 1_556
O2 K3 K3 90.0 3_655 1_556
K1 K3 K3 0.000(4) . 1_554
K1 K3 K3 180.0 9_666 1_554
K2 K3 K3 180.0 1_556 1_554
K2 K3 K3 0.0 . 1_554
K1 K3 K3 0.000(2) 9_665 1_554
K1 K3 K3 180.0 1_556 1_554
O2 K3 K3 90.0 9_666 1_554
O2 K3 K3 90.0 . 1_554
O2 K3 K3 90.0 11_566 1_554
O2 K3 K3 90.0 3_655 1_554
K3 K3 K3 180.0 1_556 1_554
O1 Ti1 O1 94.70(6) . 15_454
O1 Ti1 O1 94.70(6) . 15_455
O1 Ti1 O1 97.47(6) 15_454 15_455
O1 Ti1 O2 91.80(5) . .
O1 Ti1 O2 173.48(5) 15_454 .
O1 Ti1 O2 82.36(4) 15_455 .
O1 Ti1 O2 91.80(5) . 1_554
O1 Ti1 O2 82.36(4) 15_454 1_554
O1 Ti1 O2 173.48(5) 15_455 1_554
O2 Ti1 O2 97.06(6) . 1_554
O1 Ti1 O2 169.37(6) . 13
O1 Ti1 O2 92.30(5) 15_454 13
O1 Ti1 O2 92.30(5) 15_455 13
O2 Ti1 O2 81.20(5) . 13
O2 Ti1 O2 81.20(5) 1_554 13
O1 Ti1 V1 90.0 . 1_556
O1 Ti1 V1 138.73(3) 15_454 1_556
O1 Ti1 V1 41.27(3) 15_455 1_556
O2 Ti1 V1 41.47(3) . 1_556
O2 Ti1 V1 138.53(3) 1_554 1_556
O2 Ti1 V1 90.0 13 1_556
O1 Ti1 V1 90.0 . 1_554
O1 Ti1 V1 41.27(3) 15_454 1_554
O1 Ti1 V1 138.73(3) 15_455 1_554
O2 Ti1 V1 138.53(3) . 1_554
O2 Ti1 V1 41.47(3) 1_554 1_554
O2 Ti1 V1 90.0 13 1_554
V1 Ti1 V1 180.0 1_556 1_554
O1 Ti1 Ti1 90.0 . 1_556
O1 Ti1 Ti1 138.73(3) 15_454 1_556
O1 Ti1 Ti1 41.27(3) 15_455 1_556
O2 Ti1 Ti1 41.47(3) . 1_556
O2 Ti1 Ti1 138.53(3) 1_554 1_556
O2 Ti1 Ti1 90.0 13 1_556
V1 Ti1 Ti1 0.000(17) 1_556 1_556
V1 Ti1 Ti1 180.0 1_554 1_556
O1 Ti1 Ti1 90.0 . 1_554
O1 Ti1 Ti1 41.27(3) 15_454 1_554
O1 Ti1 Ti1 138.73(3) 15_455 1_554
O2 Ti1 Ti1 138.53(3) . 1_554
O2 Ti1 Ti1 41.47(3) 1_554 1_554
O2 Ti1 Ti1 90.0 13 1_554
V1 Ti1 Ti1 180.0 1_556 1_554
V1 Ti1 Ti1 0.000(12) 1_554 1_554
Ti1 Ti1 Ti1 180.0 1_556 1_554
O1 Ti1 V1 132.25(3) . 13_554
O1 Ti1 V1 86.55(3) 15_454 13_554
O1 Ti1 V1 132.55(4) 15_455 13_554
O2 Ti1 V1 88.79(3) . 13_554
O2 Ti1 V1 40.95(4) 1_554 13_554
O2 Ti1 V1 40.25(3) 13 13_554
V1 Ti1 V1 119.333(6) 1_556 13_554
V1 Ti1 V1 60.667(6) 1_554 13_554
Ti1 Ti1 V1 119.333(6) 1_556 13_554
Ti1 Ti1 V1 60.667(6) 1_554 13_554
O1 Ti1 Ti1 132.25(3) . 13_554
O1 Ti1 Ti1 86.55(3) 15_454 13_554
O1 Ti1 Ti1 132.55(4) 15_455 13_554
O2 Ti1 Ti1 88.79(3) . 13_554
O2 Ti1 Ti1 40.95(4) 1_554 13_554
O2 Ti1 Ti1 40.25(3) 13 13_554
V1 Ti1 Ti1 119.333(6) 1_556 13_554
V1 Ti1 Ti1 60.667(6) 1_554 13_554
Ti1 Ti1 Ti1 119.333(6) 1_556 13_554
Ti1 Ti1 Ti1 60.667(6) 1_554 13_554
V1 Ti1 Ti1 0.000(9) 13_554 13_554
Ti1 O1 V1 130.88(3) . 7
Ti1 O1 Ti1 130.88(3) . 7
V1 O1 Ti1 0.000(18) 7 7
Ti1 O1 V1 130.88(3) . 7_554
V1 O1 V1 97.47(6) 7 7_554
Ti1 O1 V1 97.47(6) 7 7_554
Ti1 O1 Ti1 130.88(3) . 7_554
V1 O1 Ti1 97.47(6) 7 7_554
Ti1 O1 Ti1 97.47(6) 7 7_554
V1 O1 Ti1 0.00(2) 7_554 7_554
Ti1 O1 K2 83.03(4) . .
V1 O1 K2 99.25(4) 7 .
Ti1 O1 K2 99.25(4) 7 .
V1 O1 K2 99.25(4) 7_554 .
Ti1 O1 K2 99.25(4) 7_554 .
Ti1 O2 V1 97.06(6) . 1_556
Ti1 O2 Ti1 97.06(6) . 1_556
V1 O2 Ti1 0.00(2) 1_556 1_556
Ti1 O2 V1 98.80(5) . 13
V1 O2 V1 98.80(5) 1_556 13
Ti1 O2 V1 98.80(5) 1_556 13
Ti1 O2 Ti1 98.80(5) . 13
V1 O2 Ti1 98.80(5) 1_556 13
Ti1 O2 Ti1 98.80(5) 1_556 13
V1 O2 Ti1 0.000(3) 13 13
Ti1 O2 K3 120.54(4) . .
V1 O2 K3 120.54(4) 1_556 .
Ti1 O2 K3 120.54(4) 1_556 .
V1 O2 K3 116.53(6) 13 .
Ti1 O2 K3 116.53(6) 13 .
Ti1 O2 K1 135.11(17) . 9_666
V1 O2 K1 105.17(18) 1_556 9_666
Ti1 O2 K1 105.17(18) 1_556 9_666
V1 O2 K1 115.23(6) 13 9_666
Ti1 O2 K1 115.23(6) 13 9_666
K3 O2 K1 17.3(2) . 9_666
Ti1 O2 K1 105.17(19) . .
V1 O2 K1 135.11(17) 1_556 .
Ti1 O2 K1 135.11(17) 1_556 .
V1 O2 K1 115.23(6) 13 .
Ti1 O2 K1 115.23(6) 13 .
K3 O2 K1 17.3(2) . .
K1 O2 K1 34.7(4) 9_666 .
Ti1 O2 K2 144.33(5) . 1_556
V1 O2 K2 94.06(2) 1_556 1_556
Ti1 O2 K2 94.06(2) 1_556 1_556
V1 O2 K2 112.84(4) 13 1_556
Ti1 O2 K2 112.84(4) 13 1_556
K3 O2 K2 29.664(12) . 1_556
K1 O2 K2 12.3(2) 9_666 1_556
K1 O2 K2 47.0(2) . 1_556
Ti1 O2 K2 94.06(2) . .
V1 O2 K2 144.33(5) 1_556 .
Ti1 O2 K2 144.33(5) 1_556 .
V1 O2 K2 112.84(4) 13 .
Ti1 O2 K2 112.84(4) 13 .
K3 O2 K2 29.664(12) . .
K1 O2 K2 47.0(2) 9_666 .
K1 O2 K2 12.3(2) . .
K2 O2 K2 59.33(2) 1_556 .
Ti1 O2 K1 150.36(9) . 1_556
V1 O2 K1 85.08(12) 1_556 1_556
Ti1 O2 K1 85.08(12) 1_556 1_556
V1 O2 K1 110.13(6) 13 1_556
Ti1 O2 K1 110.13(6) 13 1_556
K3 O2 K1 39.58(13) . 1_556
K1 O2 K1 22.2(3) 9_666 1_556
K1 O2 K1 56.93(7) . 1_556
K2 O2 K1 9.92(13) 1_556 1_556
K2 O2 K1 69.25(14) . 1_556
loop_
_geom_bond_atom_site_label_1
_geom_bond_atom_site_label_2
_geom_bond_distance
_geom_bond_site_symmetry_2
K1 K2 0.670(10) .
K1 K3 0.814(10) .
K1 K1 1.34(2) 9_665
K1 K1 1.63(2) 9_666
K1 K3 2.155(10) 1_554
K1 K2 2.298(10) 1_556
K1 O2 2.730(3) 9_666
K1 O2 2.730(3) .
K1 O2 2.730(3) 11_566
K1 O2 2.730(3) 3_655
K1 K1 2.9684(2) 1_556
K1 K1 2.9684(2) 1_554
K2 K1 0.670(10) 9_665
K2 K3 1.48420(10) 1_554
K2 K3 1.48420(10) .
K2 K1 2.298(10) 9_666
K2 K1 2.298(10) 1_554
K2 K2 2.9684(2) 1_556
K2 K2 2.9684(2) 1_554
K2 O2 2.9989(11) 9_666
K2 O2 2.9989(11) 1_554
K2 O2 2.9989(11) 11_566
K2 O2 2.9989(11) 3_654
K3 K1 0.814(10) 9_666
K3 K2 1.48420(10) 1_556
K3 K1 2.155(10) 9_665
K3 K1 2.155(10) 1_556
K3 O2 2.6059(13) 9_666
K3 O2 2.6059(13) .
K3 O2 2.6059(13) 11_566
K3 O2 2.6059(13) 3_655
K3 K3 2.9684(2) 1_556
K3 K3 2.9684(2) 1_554
Ti1 O1 1.9256(13) .
Ti1 O1 1.9746(9) 15_454
Ti1 O1 1.9746(9) 15_455
Ti1 O2 1.9808(9) .
Ti1 O2 1.9808(9) 1_554
Ti1 O2 2.0094(13) 13
Ti1 V1 2.9684(2) 1_556
Ti1 V1 2.9684(2) 1_554
Ti1 Ti1 2.9684(2) 1_556
Ti1 Ti1 2.9684(2) 1_554
Ti1 V1 3.0297(6) 13_554
Ti1 Ti1 3.0297(6) 13_554
O1 V1 1.9745(9) 7
O1 Ti1 1.9745(9) 7
O1 V1 1.9745(9) 7_554
O1 Ti1 1.9745(9) 7_554
O2 V1 1.9808(9) 1_556
O2 Ti1 1.9808(9) 1_556
O2 V1 2.0094(13) 13
O2 Ti1 2.0094(13) 13
O2 K1 2.730(3) 9_666
O2 K2 2.9989(11) 1_556
O2 K1 3.381(7) 1_556
