#------------------------------------------------------------------------------
#$Date: 2021-05-15 03:46:34 +0300 (Sat, 15 May 2021) $
#$Revision: 265230 $
#$URL: file:///home/coder/svn-repositories/cod/cif/1/56/25/1562563.cif $
#------------------------------------------------------------------------------
#
# This file is available in the Crystallography Open Database (COD),
# http://www.crystallography.net/
#
# All data on this site have been placed in the public domain by the
# contributors.
#
data_1562563
loop_
_publ_author_name
'Connor, Bridget'
'Smaha, Rebecca'
'Li, Jiayi'
'Gold-Parker, Aryeh'
'Heyer, Alexander'
'Toney, Michael F.'
'Lee, Young'
'Karunadasa, Hemamala I.'
_publ_section_title
;
 Alloying a Single and a Double Perovskite: A Cu+/2+ Mixed-Valence Layered
 Halide Perovskite with Strong Optical Absorption
;
_journal_name_full               'Chemical Science'
_journal_paper_doi               10.1039/D1SC01159F
_journal_year                    2021
_chemical_formula_moiety         '0.5(Cl8 Cu1.67 In0.33), 2(C6 H7 Cl N)'
_chemical_formula_sum            'C12 H14 Cl6 Cu0.83 In0.17 N2'
_chemical_formula_weight         471.21
_space_group_crystal_system      monoclinic
_space_group_IT_number           14
_space_group_name_Hall           '-P 2ybc'
_space_group_name_H-M_alt        'P 1 21/c 1'
_atom_sites_solution_hydrogens   geom
_atom_sites_solution_primary     iterative
_audit_creation_date             2020-06-27
_audit_creation_method
;
Olex2 1.2
(compiled 2018.05.29 svn.r3508 for OlexSys, GUI svn.r5506)
;
_audit_update_record
;
2020-12-13 deposited with the CCDC.	2021-05-14 downloaded from the CCDC.
;
_cell_angle_alpha                90
_cell_angle_beta                 102.684(2)
_cell_angle_gamma                90
_cell_formula_units_Z            2
_cell_length_a                   16.4410(8)
_cell_length_b                   7.5928(4)
_cell_length_c                   7.3130(4)
_cell_measurement_reflns_used    9917
_cell_measurement_temperature    300
_cell_measurement_theta_max      31.45
_cell_measurement_theta_min      2.75
_cell_volume                     890.63(8)
_computing_cell_refinement       'SAINT V8.38A (?, 2016)'
_computing_data_reduction        'SAINT V8.38A (?, 2016)'
_computing_molecular_graphics    'Olex2 (Dolomanov et al., 2009)'
_computing_publication_material  'Olex2 (Dolomanov et al., 2009)'
_computing_structure_refinement  'ShelXL (Sheldrick, 2015)'
_computing_structure_solution    'olex2.solve (Bourhis et al., 2015)'
_diffrn_ambient_temperature      300
_diffrn_detector_area_resol_mean 7.39
_diffrn_measured_fraction_theta_full 0.999
_diffrn_measured_fraction_theta_max 0.999
_diffrn_measurement_device_type  'Bruker D8 with PHOTON II detector'
_diffrn_measurement_method       '\f and \w shutterless scans'
_diffrn_radiation_monochromator  'silicon 111'
_diffrn_radiation_type           synchrotron
_diffrn_radiation_wavelength     0.7288
_diffrn_reflns_av_R_equivalents  0.0335
_diffrn_reflns_av_unetI/netI     0.0207
_diffrn_reflns_Laue_measured_fraction_full 0.999
_diffrn_reflns_Laue_measured_fraction_max 0.999
_diffrn_reflns_limit_h_max       23
_diffrn_reflns_limit_h_min       -23
_diffrn_reflns_limit_k_max       10
_diffrn_reflns_limit_k_min       -10
_diffrn_reflns_limit_l_max       10
_diffrn_reflns_limit_l_min       -10
_diffrn_reflns_number            29270
_diffrn_reflns_point_group_measured_fraction_full 0.999
_diffrn_reflns_point_group_measured_fraction_max 0.999
_diffrn_reflns_theta_full        25.930
_diffrn_reflns_theta_max         30.879
_diffrn_reflns_theta_min         2.604
_diffrn_source
;
Advanced Light Source, station 12.2.1
;
_diffrn_standards_number         0
_exptl_absorpt_coefficient_mu    2.274
_exptl_absorpt_correction_T_max  0.4337
_exptl_absorpt_correction_T_min  0.3739
_exptl_absorpt_correction_type   multi-scan
_exptl_absorpt_process_details
'SADABS-2016/2 (Bruker,2016/2) was used for absorption correction. wR2(int) was 0.1466 before and 0.0524 after correction. The Ratio of minimum to maximum transmission is 0.8621. The \l/2 correction factor is Not present.'
_exptl_crystal_colour            black
_exptl_crystal_colour_primary    black
_exptl_crystal_density_diffrn    1.757
_exptl_crystal_description       plate
_exptl_crystal_F_000             469
_exptl_crystal_size_max          0.13
_exptl_crystal_size_mid          0.085
_exptl_crystal_size_min          0.01
_refine_diff_density_max         1.031
_refine_diff_density_min         -1.016
_refine_diff_density_rms         0.091
_refine_ls_extinction_method     none
_refine_ls_goodness_of_fit_ref   1.091
_refine_ls_hydrogen_treatment    constr
_refine_ls_matrix_type           full
_refine_ls_number_parameters     136
_refine_ls_number_reflns         2613
_refine_ls_number_restraints     0
_refine_ls_restrained_S_all      1.091
_refine_ls_R_factor_all          0.0503
_refine_ls_R_factor_gt           0.0490
_refine_ls_shift/su_max          0.000
_refine_ls_shift/su_mean         0.000
_refine_ls_structure_factor_coef Fsqd
_refine_ls_weighting_details
'w=1/[\s^2^(Fo^2^)+(0.0326P)^2^+2.1047P] where P=(Fo^2^+2Fc^2^)/3'
_refine_ls_weighting_scheme      calc
_refine_ls_wR_factor_gt          0.1244
_refine_ls_wR_factor_ref         0.1250
_reflns_Friedel_coverage         0.000
_reflns_number_gt                2494
_reflns_number_total             2613
_reflns_threshold_expression     'I > 2\s(I)'
_cod_data_source_file            d1sc01159f2.cif
_cod_data_source_block           p2_c_a
_cod_database_code               1562563
_shelx_shelxl_version_number     2018/3
_shelx_space_group_comment
;
The symmetry employed for this shelxl refinement is uniquely defined
by the following loop, which should always be used as a source of
symmetry information in preference to the above space-group names.
They are only intended as comments.
;
_shelx_estimated_absorpt_t_max   0.978
_shelx_estimated_absorpt_t_min   0.756
_olex2_refinement_description
;
1. Fixed Uiso
 At 1.2 times of:
  All C(H) groups, All N(H,H,H) groups
2. Shared sites
{Cu1, In01}
3. Uiso/Uaniso restraints and constraints
Uanis(Cu1) = Uanis(In01)
4. Others
 Sof(Cu1)=0.5*(1-FVAR(2))
 Sof(In01)=0.5*FVAR(2)
 Sof(C9)=Sof(H9)=Sof(C10)=Sof(H10)=Sof(C8)=Sof(H8)=Sof(C7)=Sof(H7)=1-FVAR(2)
 Sof(C5)=Sof(H5)=Sof(C6)=Sof(H6)=Sof(C3)=Sof(H3)=Sof(C2)=Sof(H2)=FVAR(2)
5.a Aromatic/amide H refined with riding coordinates:
 C5(H5), C6(H6), C3(H3), C2(H2), C9(H9), C10(H10), C8(H8), C7(H7)
5.b Idealised Me refined as rotating group:
 N1(H1A,H1B,H1C)
;
_shelx_res_file
;
TITL P2_c_a.res in P2(1)/c
    p2_c_a.res
    created by SHELXL-2018/3 at 11:23:40 on 27-Jun-2020
REM Old TITL P2_c in P2/c
REM SHELXT solution in P2(1)/c
REM R1 0.179, Rweak 0.010, Alpha 0.049, Orientation as input
REM Formula found by SHELXT: C8 Cl6 In N6
CELL 0.7288 16.441 7.5928 7.313 90 102.684 90
ZERR 2 0.0008 0.0004 0.0004 0 0.002 0
LATT 1
SYMM -X,0.5+Y,0.5-Z
SFAC C H Cl Cu In N
DISP C 0.0034 0.0017 11.92
DISP Cl 0.1549 0.1679 719.24
DISP Cu 0.3203 1.3289 5552.02
DISP H 0 0 0.67
DISP In -0.6542 1.3759 5944.77
DISP N 0.0065 0.0035 20.58
UNIT 24 28 12 1.66 0.34 4
EADP Cu1 In01
EXYZ Cu1 In01

L.S. 10
PLAN  20
SIZE 0.01 0.085 0.13
TEMP 24.85
BOND $H
LIST 6
fmap 2
acta
OMIT 1 0 0
OMIT 1 2 1
REM <olex2.extras>
REM <HklSrc "%.\\P2_c_a.hkl">
REM </olex2.extras>

WGHT    0.032600    2.104700
FVAR       0.51444   0.16730   0.75267
PART 1
IN01  5    1.000000    0.500000    0.500000    20.50000    0.03663    0.04346 =
         0.03695    0.00025    0.00776   -0.00113
PART 0
CL2   3    0.859755    0.452505    0.431011    11.00000    0.04503    0.07489 =
         0.07999    0.00266    0.00983    0.00664

CL3   3    0.497421   -0.051367    0.251819    11.00000    0.04494    0.12931 =
         0.10661   -0.00214    0.00995   -0.02038
CL1   3    0.977694    0.749535    0.739943    11.00000    0.07103    0.13730 =
         0.07147    0.03530    0.01550    0.00034
N1    6    0.864501    0.026736    0.432002    11.00000    0.03894    0.07286 =
         0.08162   -0.00486    0.00797    0.00640
AFIX 137
H1A   2    0.885809   -0.021329    0.341842    11.00000   -1.20000
H1B   2    0.886277   -0.025342    0.540764    11.00000   -1.20000
H1C   2    0.876489    0.141162    0.440276    11.00000   -1.20000
AFIX   0
C1    1    0.773924    0.003246    0.387805    11.00000    0.03999    0.05524 =
         0.05142   -0.00338    0.00856    0.00261
C4    1    0.605157   -0.029967    0.305426    11.00000    0.04247    0.07011 =
         0.05990   -0.00587    0.00918   -0.00688
PART 1
C5    1    0.640951    0.092232    0.212675    31.00000    0.04999    0.06731 =
         0.05656    0.01004    0.00275    0.00179
AFIX  43
H5    2    0.608159    0.164024    0.122709    31.00000   -1.20000
AFIX   0
C6    1    0.726842    0.108577    0.253727    31.00000    0.05063    0.06659 =
         0.05468    0.01360    0.01134   -0.00253
AFIX  43
H6    2    0.752381    0.190746    0.190463    31.00000   -1.20000
AFIX   0
C3    1    0.650984   -0.131682    0.439955    31.00000    0.06999    0.07965 =
         0.06814    0.01991    0.01206   -0.01841
AFIX  43
H3    2    0.625037   -0.211244    0.505311    31.00000   -1.20000
AFIX   0
C2    1    0.737781   -0.117235    0.481055    31.00000    0.06639    0.06538 =
         0.06329    0.01853    0.00110   -0.00196
AFIX  43
H2    2    0.770282   -0.189333    0.571175    31.00000   -1.20000
AFIX   0

PART 0
PART 2
CU1   4    1.000000    0.500000    0.500000   -20.50000    0.03663    0.04346 =
         0.03695    0.00025    0.00776   -0.00113

C9    1    0.726079    0.110711    0.475766   -31.00000    0.03491    0.07613 =
         0.07306   -0.00307    0.00766   -0.00337
AFIX  43
H9    2    0.750242    0.195280    0.562887   -31.00000   -1.20000
AFIX   0
C10   1    0.641011    0.086276    0.427983   -31.00000    0.03405    0.08754 =
         0.09940    0.00660    0.02645    0.00661
AFIX  43
H10   2    0.607587    0.156071    0.485961   -31.00000   -1.20000
AFIX   0
C8    1    0.653639   -0.145868    0.206389   -31.00000    0.05242    0.07655 =
         0.09514   -0.02772    0.02344   -0.01342
AFIX  43
H8    2    0.629001   -0.229615    0.118783   -31.00000   -1.20000
AFIX   0
C7    1    0.738562   -0.118807    0.255390   -31.00000    0.05587    0.08326 =
         0.10957   -0.00342    0.04486    0.00245
AFIX  43
H7    2    0.773018   -0.185304    0.196937   -31.00000   -1.20000
AFIX   0
HKLF 4




REM  P2_c_a.res in P2(1)/c
REM wR2 = 0.1250, GooF = S = 1.091, Restrained GooF = 1.091 for all data
REM R1 = 0.0490 for 2494 Fo > 4sig(Fo) and 0.0503 for all 2613 data
REM 136 parameters refined using 0 restraints

END

WGHT      0.0329      2.1006

REM Highest difference peak  1.031,  deepest hole -1.016,  1-sigma level  0.091
Q1    1   0.9892  0.7954  0.7762  11.00000  0.05    1.03
Q2    1   0.9903  0.6968  0.7100  11.00000  0.05    1.00
Q3    1   0.9998  0.4151  0.4191  11.00000  0.05    0.63
Q4    1   0.9984  0.6215  0.5110  11.00000  0.05    0.57
Q5    1   0.8235  0.3894  0.4132  11.00000  0.05    0.39
Q6    1   0.5261 -0.1428  0.3058  11.00000  0.05    0.35
Q7    1   0.9961  0.4960  0.3741  11.00000  0.05    0.30
Q8    1   0.9065  0.3623  0.3698  11.00000  0.05    0.25
Q9    1   0.9408  0.6501  0.5756  11.00000  0.05    0.25
Q10   1   0.9590 -0.1082  0.5969  11.00000  0.05    0.23
Q11   1   1.0037  0.6726  0.5860  11.00000  0.05    0.22
Q12   1   0.9071  0.6221  0.5383  11.00000  0.05    0.20
Q13   1   0.9598  0.1023  0.3598  11.00000  0.05    0.19
Q14   1   0.8499  0.5282  0.3430  11.00000  0.05    0.19
Q15   1   0.8110  0.0174  0.4091  11.00000  0.05    0.19
Q16   1   0.6389  0.1449 -0.0736  11.00000  0.05    0.19
Q17   1   1.0133  0.7523  0.9693  11.00000  0.05    0.18
Q18   1   0.9623  0.0534  0.4881  11.00000  0.05    0.18
Q19   1   0.9785  0.2636  0.4760  11.00000  0.05    0.18
Q20   1   0.8104  0.2971  0.2980  11.00000  0.05    0.18
;
_shelx_res_checksum              40255
_shelx_hkl_file
;
   0   0   1    1.30    0.10
   0   0  -1    1.30    0.10
   0   0  -1    1.30    0.10
   0   0  -1    1.20    0.10
   0   0   1    1.20    0.10
   0   0  -1    1.40    0.10
   0   0   1    1.50    0.10
   0   0  -1    1.30    0.10
   0   0   1    1.40    0.10
   0   0  -1    1.30    0.10
   0   0   1    1.30    0.10
   0   0  -1    1.00    0.30
   0   0  -1    1.30    0.10
   0   0   1    1.30    0.30
   0   0   2   11.40    0.40
   0   0  -2   11.60    0.50
   0   0  -2   11.30    0.50
   0   0  -2   11.50    1.10
   0   0   2   11.40    1.20
   0   0   2   11.60    0.50
   0   0  -2   11.70    0.40
   0   0   2   11.00    0.40
   0   0   2   11.40    0.50
   0   0  -2   10.80    0.40
   0   0   3    0.50    0.40
   0   0   3    0.30    0.10
   0   0  -3    0.30    0.10
   0   0   3    0.20    0.10
   0   0  -3    0.30    0.10
   0   0   3    0.30    0.10
   0   0  -3    0.60    0.50
   0   0   3    0.30    0.10
   0   0  -3    0.40    0.10
   0   0  -4 2090.89   72.69
   0   0   4 2086.89   72.69
   0   0   5    1.50    0.30
   0   0   5    1.60    0.20
   0   0  -5    1.20    0.60
   0   0  -5    1.40    0.20
   0   0  -5    1.30    0.20
   0   0   5    2.10    0.90
   0   0   5    1.60    0.30
   0   0  -5    1.80    0.20
   0   0   6   35.90    1.70
   0   0   6   38.40    3.50
   0   0  -6   35.50    1.50
   0   0   6   37.60    1.70
   0   0   6   36.80    1.50
   0   0  -6   38.50    1.50
   0   0  -6   39.50    3.50
   0   0   7    0.40    0.20
   0   0   7    0.20    0.20
   0   0   7    0.50    0.30
   0   0  -7    0.40    0.20
   0   0  -7   -0.60    0.40
   0   0  -7    0.00    0.20
   0   0   7    0.10    0.80
   0   0   8   47.70    4.40
   0   0  -8   50.59    2.10
   0   0   8   49.80    2.20
   0   0  -8   46.20    4.50
   0   0  -8   50.89    2.10
   0   0   8   50.09    2.00
   0   0   8   49.00    2.30
   0   0  -9    0.40    0.30
   0   0  -9    2.10    1.30
   0   0   9    0.20    0.30
   0   0  -9    0.30    0.20
   0   0   9    1.10    1.00
   0   0   9    0.40    0.30
   0   0   9    0.40    0.20
   0   0  10    6.10    0.80
   0   0  10    6.10    0.70
   0   0 -10    7.30    0.60
   0   0 -10    5.50    0.60
   0   1   0    1.60    0.10
   0   1   0    1.60    0.10
   0   1   0    1.30    0.10
   0   1   0    1.80    0.40
   0   1   0    1.70    0.10
   0   1   0    1.80    0.10
   0   1   0    1.80    0.10
   0  -1   0    1.50    0.10
   0  -1   0    1.70    0.10
   0  -1   0    1.80    0.10
   0  -1   0    2.10    0.10
   0  -1   0    2.20    0.50
   0  -1   0    1.50    0.10
   0  -1   0    1.70    0.10
   0   1   1  391.56   13.70
   0   1  -1  396.46   14.10
   0  -1  -1  388.86   13.70
   0  -1   1  382.36   14.00
   0   1   2   62.49    2.20
   0   1  -2   64.59    2.20
   0   1  -2   59.69    2.10
   0   1   2   61.69    2.20
   0   1   2   59.69    3.10
   0   1   2   60.89    2.20
   0  -1  -2   59.69    2.20
   0  -1  -2   59.19    2.20
   0  -1   2   64.69    2.10
   0  -1  -2   59.49    2.20
   0  -1   2   68.19    2.30
   0  -1  -2   61.39    3.10
   0  -1   2   63.39    2.30
   0  -1  -2   59.99    2.20
   0   1   3  569.24   21.00
   0   1  -3  570.64   21.30
   0  -1   3  578.54   21.30
   0  -1  -3  565.94   21.00
   0  -1  -3  573.04   19.40
   0   1   4    1.60    0.20
   0   1   4    2.40    0.30
   0   1   4    3.10    1.00
   0   1  -4    2.00    0.80
   0   1   4    2.40    0.20
   0   1  -4    2.80    0.20
   0   1  -4    2.50    0.20
   0  -1   4    2.70    0.20
   0  -1  -4    1.70    0.70
   0  -1   4    3.40    0.40
   0  -1  -4    1.80    0.20
   0  -1   4    2.20    0.80
   0  -1  -4    1.90    0.20
   0  -1   4    3.20    0.40
   0  -1  -4    2.40    0.30
   0   1  -5  157.18    5.50
   0   1   5  158.68    5.70
   0   1   5  158.98    7.90
   0   1  -5  159.08    5.60
   0   1   5  161.48    5.70
   0   1  -5  143.19    7.90
   0   1   5  162.18    5.50
   0  -1   5  155.68    8.00
   0  -1  -5  156.78    5.60
   0  -1  -5  157.28    5.50
   0  -1   5  157.68    5.50
   0  -1  -5  161.58    5.60
   0  -1   5  160.08    5.70
   0  -1  -5  155.58    7.90
   0  -1   5  158.78    5.70
   0   1   6    6.00    0.50
   0   1   6    6.30    1.70
   0   1   6    5.50    0.40
   0   1  -6    7.10    0.50
   0   1  -6    7.50    2.00
   0  -1   6    6.80    0.40
   0  -1  -6    6.30    0.50
   0  -1  -6    4.50    1.40
   0  -1  -6    5.60    0.50
   0  -1  -6    6.10    0.50
   0  -1   6    9.00    1.70
   0  -1   6    7.20    0.60
   0   1  -7   25.00    1.10
   0   1   7   22.60    2.90
   0   1   7   24.10    1.30
   0   1   7   23.30    1.30
   0   1  -7   29.40    3.30
   0   1   7   26.10    1.10
   0   1  -7   25.10    1.20
   0  -1  -7   25.70    1.20
   0  -1   7   26.00    1.10
   0  -1   7   25.20    1.30
   0  -1   7   23.30    2.80
   0  -1  -7   25.70    3.00
   0  -1   7   23.60    1.30
   0  -1  -7   25.80    1.20
   0  -1  -7   24.10    1.20
   0   1   8    3.00    0.50
   0   1   8    4.10    1.50
   0   1  -8    2.40    0.40
   0   1   8    2.90    0.50
   0   1  -8    2.70    0.40
   0   1   8    3.20    0.40
   0   1  -8    1.80    1.20
   0  -1  -8    2.80    0.40
   0  -1   8    1.70    1.30
   0  -1  -8    3.20    1.40
   0  -1   8    1.90    0.50
   0  -1  -8    2.40    0.40
   0  -1   8    1.80    0.30
   0  -1   8    2.00    0.40
   0   1   9   12.70    0.80
   0   1   9   12.40    1.00
   0   1  -9   12.60    0.80
   0   1   9   11.90    2.50
   0   1   9   13.60    1.00
   0   1  -9   11.90    0.80
   0  -1   9   12.80    1.00
   0  -1  -9   12.50    0.80
   0  -1   9   12.70    3.10
   0  -1   9   12.90    1.00
   0  -1  -9    9.90    2.70
   0  -1  -9   13.20    0.80
   0   1 -10    0.20    0.30
   0   1  10    0.00    0.30
   0   1 -10    0.00    0.30
   0   1  10    0.10    0.30
   0  -1 -10    0.30    0.30
   0  -1 -10   -0.20    0.20
   0  -1  10    0.60    0.40
   0  -1  10    0.20    0.30
   0   2   0 5389.36  197.88
   0   2   0 5038.10  196.08
   0  -2   0 4867.01  195.48
   0  -2   0 5498.15  198.88
   0   2  -1  291.67   11.10
   0   2   1  275.27   10.20
   0  -2  -1  253.97    9.40
   0  -2   1  261.47    9.30
   0  -2  -1  286.97   10.50
   0   2  -2 1560.34   54.89
   0  -2  -2 1587.94   54.39
   0  -2   2 1584.14   54.79
   0   2  -3   61.09    2.30
   0   2  -3   58.99    3.90
   0   2   3   60.19    2.30
   0   2   3   64.39    3.60
   0   2   3   63.39    2.30
   0   2   3   63.09    2.40
   0  -2   3   64.99    2.40
   0  -2   3   66.69    4.00
   0  -2   3   67.29    2.40
   0  -2   3   67.19    2.30
   0  -2  -3   60.69    2.40
   0  -2  -3   61.19    2.30
   0  -2  -3   65.49    3.70
   0  -2  -3   60.39    2.30
   0  -2   3   65.29    2.30
   0   2   4  102.29    3.70
   0   2  -4  108.59    5.90
   0   2  -4  101.79    3.60
   0   2   4  102.49    3.80
   0   2   4  101.19    3.70
   0   2   4  111.79    5.60
   0  -2  -4   99.09    3.80
   0  -2   4  104.49    3.60
   0  -2  -4   98.59    3.70
   0  -2   4  103.29    3.70
   0  -2  -4  100.49    5.40
   0  -2   4  104.09    3.90
   0  -2  -4  104.89    3.70
   0  -2   4  106.89    5.80
   0  -2   4  106.79    3.80
   0   2   5   25.80    1.10
   0   2   5   24.20    1.20
   0   2   5   24.60    1.20
   0   2  -5   27.00    1.10
   0   2  -5   27.00    1.10
   0   2  -5   27.60    2.80
   0   2   5   27.90    2.60
   0  -2  -5   26.70    1.20
   0  -2  -5   25.50    1.10
   0  -2  -5   24.20    1.20
   0  -2   5   26.20    1.10
   0  -2   5   27.30    1.30
   0  -2   5   29.40    2.80
   0  -2  -5   25.80    2.60
   0  -2   5   27.80    1.30
   0   2  -6   65.89    4.90
   0   2   6   64.29    2.60
   0   2   6   63.89    2.60
   0   2  -6   66.19    2.40
   0   2  -6   65.49    2.50
   0   2   6   62.89    4.60
   0   2   6   65.39    2.50
   0  -2  -6   63.99    2.60
   0  -2   6   67.29    2.40
   0  -2  -6   62.19    4.70
   0  -2  -6   64.09    2.50
   0  -2   6   66.59    4.70
   0  -2  -6   66.49    2.50
   0  -2   6   64.29    2.70
   0  -2   6   64.89    2.70
   0   2   7    2.50    0.30
   0   2   7    2.40    0.40
   0   2  -7    2.20    0.30
   0   2   7    3.20    1.40
   0   2  -7    2.80    1.40
   0   2   7    2.60    0.50
   0  -2   7    2.20    1.20
   0  -2  -7    2.70    0.40
   0  -2  -7    3.10    0.40
   0  -2   7    3.00    0.30
   0  -2   7    3.20    0.50
   0  -2   7    4.10    0.50
   0  -2  -7    3.30    0.50
   0   2  -8    8.10    0.60
   0   2   8    8.20    0.70
   0   2  -8    8.60    0.60
   0   2   8   11.20    2.10
   0   2   8    8.00    0.60
   0   2   8    7.90    0.70
   0   2  -8    5.90    2.00
   0  -2   8    8.50    2.20
   0  -2  -8    8.10    0.70
   0  -2   8    8.20    0.80
   0  -2   8    7.30    0.70
   0  -2  -8    8.70    2.40
   0  -2  -8    9.60    0.70
   0   2   9    0.50    0.30
   0   2  -9    0.30    0.30
   0   2   9    0.60    0.40
   0   2   9    0.60    0.30
   0   2   9    0.20    1.40
   0   2  -9    0.20    0.20
   0  -2  -9    0.10    0.20
   0  -2  -9    1.70    1.60
   0  -2   9    0.40    0.30
   0  -2  -9    0.10    0.20
   0  -2   9    0.30    0.30
   0   3   0    0.30    0.40
   0  -3   0    0.60    0.20
   0  -3   0    0.50    0.10
   0  -3   0    0.70    0.10
   0  -3   0    0.30    0.20
   0  -3   0    0.40    0.10
   0  -3   0    0.60    0.40
   0  -3   0    0.30    0.10
   0   3  -1  728.43   26.50
   0   3   1  730.73   26.40
   0   3  -1  735.33   27.30
   0  -3  -1  749.23   26.80
   0   3   2   53.79    3.20
   0   3   2   52.09    2.20
   0   3   2   55.29    2.20
   0   3  -2   75.39    4.60
   0   3  -2   61.69    3.80
   0  -3  -2   55.49    3.50
   0  -3   2   65.19    2.30
   0  -3   2   67.69    2.30
   0  -3  -2   56.39    2.30
   0  -3   2   64.49    2.30
   0  -3   2   67.59    2.30
   0  -3   2   64.99    2.20
   0  -3   2   63.19    2.20
   0  -3  -2   56.69    2.20
   0  -3  -2   50.49    2.30
   0   3   3  857.11   30.10
   0   3  -3  843.32   30.80
   0  -3  -3  831.12   30.30
   0  -3   3  810.02   30.60
   0   3  -4  152.28    5.30
   0   3   4  150.78    5.30
   0   3   4  154.08    7.20
   0   3  -4  151.58    7.80
   0   3   4  146.19    5.40
   0  -3   4  151.38    5.40
   0  -3   4  150.98    5.50
   0  -3  -4  153.18    5.30
   0  -3  -4  150.28    5.40
   0  -3  -4  150.68    5.50
   0  -3   4  154.58    5.30
   0  -3   4  148.39    5.40
   0  -3  -4  156.68    7.40
   0  -3   4  145.59    7.60
   0   3  -5   81.29    2.90
   0   3   5   80.29    3.00
   0   3   5   84.09    3.10
   0   3  -5   73.09    5.20
   0   3   5   78.79    4.90
   0   3   5   78.69    3.00
   0  -3   5   83.09    3.20
   0  -3   5   80.99    5.30
   0  -3   5   77.79    3.10
   0  -3   5   81.39    3.00
   0  -3  -5   84.09    5.20
   0  -3  -5   80.19    3.00
   0  -3  -5   77.79    3.10
   0  -3  -5   80.69    3.00
   0  -3   5   83.49    2.90
   0   3  -6    3.60    0.40
   0   3   6    3.10    0.50
   0   3   6    4.60    0.40
   0   3   6    4.60    1.40
   0   3   6    4.80    0.40
   0   3  -6    3.40    0.40
   0   3  -6    2.00    1.10
   0  -3  -6    4.30    1.50
   0  -3  -6    4.90    0.50
   0  -3   6    5.30    1.60
   0  -3  -6    4.40    0.50
   0  -3   6    2.90    0.30
   0  -3  -6    4.30    0.40
   0  -3   6    2.60    0.50
   0   3   7   53.39    2.10
   0   3   7   56.89    2.30
   0   3  -7   52.19    2.10
   0   3  -7   55.59    4.70
   0   3   7   52.09    2.20
   0   3  -7   52.29    2.10
   0   3   7   45.50    4.30
   0  -3  -7   51.29    4.60
   0  -3   7   49.70    4.40
   0  -3  -7   52.49    2.20
   0  -3   7   49.99    2.30
   0  -3  -7   51.29    2.10
   0  -3   7   53.99    2.10
   0  -3   7   54.69    2.40
   0  -3  -7   55.89    2.40
   0   3  -8    0.60    0.20
   0   3   8    0.40    0.20
   0   3   8    0.30    0.20
   0   3  -8    0.80    0.30
   0   3  -8    0.60    1.30
   0   3   8    2.10    1.20
   0   3   8    0.50    0.30
   0  -3  -8    0.00    0.30
   0  -3  -8    0.10    0.20
   0  -3   8    1.20    0.40
   0  -3  -8    0.30    0.30
   0  -3  -8    1.00    1.10
   0  -3   8    0.80    0.80
   0  -3   8    0.80    0.30
   0   3  -9    3.00    0.50
   0   3   9    2.70    0.60
   0   3   9    3.00    0.40
   0   3  -9    3.30    0.50
   0  -3  -9    3.20    0.50
   0  -3   9    3.30    0.60
   0  -3  -9    3.00    0.50
   0  -3   9    4.00    0.60
   0   4   0 1293.67   45.20
   0  -4   0 1215.58   44.80
   0   4  -1  149.79    7.60
   0   4   1  141.89    6.80
   0   4  -1  156.78    6.90
   0   4   1  123.79    4.90
   0  -4  -1  142.09    5.00
   0  -4   1  146.89    5.00
   0  -4  -1  141.19    5.10
   0  -4   1  148.59    5.10
   0  -4   1  141.59    5.10
   0  -4   1  146.79    5.20
   0  -4  -1  139.19    5.20
   0  -4  -1  148.49    7.10
   0  -4  -1  135.39    5.10
   0  -4   1  143.49    5.20
   0   4   2   84.09    4.40
   0   4  -2   77.49    5.40
   0   4   2   84.59    3.10
   0   4  -2   90.69    5.00
   0  -4  -2   83.99    3.20
   0  -4  -2   89.09    5.10
   0  -4   2   86.39    3.20
   0  -4   2   81.69    3.20
   0  -4  -2   86.29    3.10
   0  -4   2   81.79    3.10
   0  -4  -2   85.19    3.20
   0  -4   2   86.79    3.20
   0  -4   2   85.49    3.10
   0  -4   2   80.89    3.10
   0   4   3    3.20    1.00
   0   4   3    1.90    0.30
   0   4  -3    1.50    0.80
   0   4  -3    2.70    1.30
   0   4   3    2.00    0.30
   0  -4  -3    2.30    0.40
   0  -4   3    2.20    0.30
   0  -4  -3    2.00    0.30
   0  -4   3    2.50    0.30
   0  -4  -3    2.30    0.90
   0  -4   3    2.70    0.40
   0  -4  -3    2.50    0.30
   0  -4   3    1.70    0.30
   0  -4   3    2.30    0.40
   0  -4   3    2.40    0.30
   0   4   4  188.48    6.00
   0   4   4  169.88    8.10
   0   4   4  169.68    6.10
   0   4  -4  169.38    5.90
   0   4  -4  169.38    5.90
   0   4  -4  158.38    8.60
   0  -4   4  171.88    6.00
   0  -4  -4  170.38    8.50
   0  -4  -4  167.58    6.20
   0  -4  -4  165.78    6.00
   0  -4   4  166.78    6.20
   0  -4  -4  170.58    6.10
   0  -4   4  166.98    6.10
   0  -4   4  171.18    6.00
   0   4   5   24.40    1.30
   0   4   5   23.70    2.60
   0   4  -5   26.20    3.00
   0   4  -5   27.00    1.10
   0   4   5   25.10    1.20
   0  -4  -5   24.70    1.30
   0  -4  -5   25.30    2.80
   0  -4  -5   25.00    1.20
   0  -4   5   27.80    3.00
   0  -4  -5   23.60    1.30
   0  -4   5   28.80    1.40
   0  -4   5   26.60    1.20
   0  -4   5   29.80    1.40
   0  -4   5   30.40    1.20
   0   4   6   13.40    0.70
   0   4  -6   11.70    2.20
   0   4   6   13.00    0.80
   0   4   6   13.20    2.10
   0   4  -6   13.10    0.70
   0  -4  -6   12.40    0.70
   0  -4  -6   11.90    2.20
   0  -4  -6   13.20    0.80
   0  -4   6   12.00    0.90
   0  -4  -6   14.10    1.00
   0  -4   6   11.80    2.00
   0  -4   6   11.80    0.90
   0  -4   6   12.20    0.70
   0   4  -7   -1.40    0.80
   0   4  -7    1.10    0.30
   0   4   7    1.00    0.20
   0   4   7    2.20    0.40
   0   4  -7    0.90    0.20
   0   4   7    1.30    1.10
   0  -4   7    1.20    1.00
   0  -4  -7    1.50    0.30
   0  -4  -7    1.50    0.40
   0  -4   7    0.90    0.30
   0  -4  -7    1.30    0.40
   0  -4   7    1.00    0.30
   0  -4  -7    1.50    1.10
   0   4   8   21.50    1.30
   0   4  -8   14.60    3.30
   0   4   8   20.60    3.10
   0   4  -8   21.30    1.10
   0   4  -8   22.10    1.10
   0   4   8   21.20    1.10
   0  -4   8   21.70    1.40
   0  -4   8   21.60    1.30
   0  -4  -8   14.90    4.80
   0  -4  -8   21.90    1.20
   0  -4  -8   22.60    1.20
   0  -4  -8   21.90    1.40
   0   4  -9    0.00    0.20
   0   4   9    0.10    0.30
   0   4  -9    0.40    0.30
   0   4   9    0.30    0.30
   0  -4  -9    0.10    0.30
   0  -4   9    0.50    0.30
   0  -4   9    0.40    0.40
   0  -4  -9    0.00    0.30
   0   5   0    1.10    0.80
   0  -5   0    1.80    0.20
   0  -5   0    1.70    0.30
   0  -5   0    1.40    0.80
   0  -5   0    2.10    0.30
   0  -5   0    1.80    0.20
   0  -5   0    1.60    0.40
   0  -5   0    1.30    0.30
   0   5  -1  199.28   10.20
   0   5   1  206.18    9.40
   0   5  -1  201.08    9.10
   0  -5  -1  197.58    7.00
   0  -5   1  194.88    6.90
   0  -5   1  198.08    7.00
   0  -5  -1  201.98    7.10
   0  -5   1  193.68    7.10
   0  -5  -1  194.28    7.10
   0  -5  -1  204.68    9.60
   0  -5  -1  196.08    6.90
   0  -5   1  199.78    7.10
   0  -5   1  200.28    7.00
   0  -5   1  194.18    7.00
   0   5  -2   65.89    5.10
   0   5  -2   59.79    4.30
   0   5   2   65.29    4.10
   0   5   2   67.19    2.50
   0  -5  -2   68.09    2.70
   0  -5   2   65.99    2.60
   0  -5   2   68.19    2.50
   0  -5  -2   64.79    2.50
   0  -5   2   66.09    2.60
   0  -5   2   65.09    2.60
   0  -5   2   65.99    2.60
   0  -5  -2   65.49    2.60
   0  -5  -2   68.89    4.60
   0  -5   2   63.79    2.50
   0   5   3  193.88    7.00
   0   5   3  213.08    9.20
   0   5  -3  191.18   10.70
   0   5  -3  206.58    9.90
   0  -5   3  201.78    7.20
   0  -5  -3  206.88   10.00
   0  -5  -3  207.48    7.30
   0  -5   3  199.98    7.10
   0  -5  -3  205.98    7.10
   0  -5   3  200.08    7.20
   0  -5   3  195.68    7.10
   0  -5   3  196.58    7.00
   0  -5  -3  204.08    7.20
   0  -5   3  192.68    7.20
   0   5  -4   74.89    5.90
   0   5  -4   71.29    2.50
   0   5   4   62.99    2.60
   0   5  -4   69.99    2.60
   0   5  -4   71.89    5.10
   0   5   4   64.09    2.70
   0   5   4   67.39    4.40
   0  -5   4   77.79    2.80
   0  -5  -4   66.89    5.00
   0  -5  -4   65.29    2.90
   0  -5   4   77.09    2.90
   0  -5   4   74.29    2.70
   0  -5  -4   62.59    2.70
   0  -5  -4   64.19    2.60
   0   5   5  124.29    4.50
   0   5  -5  121.79    4.40
   0   5  -5  121.99    7.40
   0   5  -5  116.19    8.30
   0   5   5  131.39    7.00
   0   5   5  123.89    4.60
   0   5  -5  125.69    4.30
   0  -5   5  117.59    4.50
   0  -5  -5  127.09    4.80
   0  -5   5  117.89    4.70
   0  -5  -5  119.29    4.50
   0  -5  -5  118.19    4.60
   0  -5   5  125.99    4.50
   0  -5  -5  118.99    7.50
   0  -5   5  123.49    4.60
   0   5  -6    1.70    1.30
   0   5  -6    2.70    0.40
   0   5   6    2.70    0.40
   0   5   6    2.90    0.50
   0   5   6    3.80    1.20
   0   5  -6    4.40    1.60
   0  -5  -6    3.70    0.60
   0  -5   6    3.60    0.50
   0  -5   6    4.00    0.40
   0  -5   6    3.10    0.50
   0  -5  -6    2.50    1.40
   0  -5   6    4.00    0.40
   0  -5  -6    2.10    0.40
   0  -5  -6    2.80    0.50
   0   5  -7   18.10    1.00
   0   5  -7   14.00    3.70
   0   5  -7   16.40    2.90
   0   5   7   16.70    2.60
   0   5  -7   17.20    0.90
   0   5   7   16.90    1.10
   0   5   7   18.10    0.90
   0  -5   7   17.10    1.20
   0  -5  -7   16.00    1.00
   0  -5   7   18.10    1.10
   0  -5  -7   17.20    1.00
   0  -5  -7   15.20    2.90
   0  -5  -7   15.40    1.20
   0   5  -8    0.50    0.30
   0   5  -8    0.40    0.30
   0   5   8    0.90    0.40
   0   5   8    0.30    0.20
   0  -5  -8    0.60    0.30
   0  -5   8    0.20    0.40
   0  -5  -8    0.80    0.30
   0  -5  -8    0.80    0.40
   0  -5   8    0.40    0.30
   0   6   0   51.69    4.40
   0  -6   0   51.09    2.00
   0  -6   0   53.99    2.30
   0  -6   0   51.99    2.00
   0  -6   0   50.49    2.20
   0  -6   0   49.80    2.10
   0   6  -1   47.30    4.40
   0   6   1   40.30    3.60
   0   6   1   41.10    1.70
   0   6   1   41.70    1.60
   0   6  -1   48.50    3.70
   0  -6  -1   45.30    3.90
   0  -6   1   45.30    1.80
   0  -6  -1   40.80    1.80
   0  -6   1   44.10    1.80
   0  -6  -1   40.60    1.70
   0  -6   1   46.00    1.80
   0  -6   1   44.80    1.80
   0  -6   1   44.70    2.00
   0  -6  -1   38.50    1.90
   0  -6  -1   39.70    1.90
   0  -6   1   42.30    2.00
   0   6  -2  211.58   10.10
   0   6  -2  212.88   11.40
   0   6   2  210.78    7.30
   0   6   2  204.88    7.30
   0   6   2  210.68    9.70
   0  -6   2  210.08    7.60
   0  -6   2  200.18    7.50
   0  -6  -2  211.98   10.60
   0  -6   2  208.78    7.40
   0  -6  -2  194.18    7.50
   0  -6   2  210.68    7.40
   0  -6  -2  206.78    7.30
   0  -6  -2  207.58    7.60
   0  -6   2  215.18    7.50
   0  -6   2  213.38    7.40
   0   6  -3    3.20    1.10
   0   6   3    2.70    0.40
   0   6  -3    2.10    1.40
   0   6   3    6.00    1.20
   0   6   3    3.30    0.40
   0  -6   3    2.50    0.50
   0  -6  -3    2.60    0.30
   0  -6  -3    3.00    1.30
   0  -6  -3    1.90    0.50
   0  -6   3    2.80    0.50
   0  -6   3    3.00    0.40
   0  -6   3    2.90    0.40
   0  -6   3    2.60    0.50
   0  -6   3    2.80    0.40
   0  -6  -3    2.00    0.50
   0   6   4   12.80    0.80
   0   6  -4   10.30    2.80
   0   6   4   12.10    0.70
   0   6  -4   12.00    0.70
   0   6   4   10.20    1.80
   0   6  -4   11.50    0.70
   0   6  -4   12.00    2.10
   0  -6   4   11.10    0.70
   0  -6   4   12.00    0.80
   0  -6  -4   13.10    0.90
   0  -6   4   12.00    0.80
   0  -6  -4   12.60    0.70
   0  -6  -4   11.80    0.90
   0  -6   4   11.90    0.90
   0  -6  -4   11.50    2.60
   0   6  -5    2.70    1.30
   0   6   5    4.30    0.50
   0   6  -5    5.60    0.40
   0   6  -5    5.10    0.40
   0   6  -5    6.00    1.80
   0   6   5    5.10    1.60
   0   6   5    5.20    0.50
   0  -6   5    5.50    0.60
   0  -6  -5    5.60    0.70
   0  -6   5    5.40    0.50
   0  -6   5    5.50    0.50
   0  -6  -5    3.60    0.60
   0  -6  -5    4.30    0.50
   0  -6  -5    4.90    1.90
   0  -6   5    5.30    0.60
   0   6   6   30.00    3.40
   0   6  -6   38.60    4.60
   0   6   6   32.30    1.50
   0   6   6   32.40    1.60
   0   6  -6   32.50    1.40
   0   6  -6   31.00    3.70
   0  -6  -6   30.30    1.50
   0  -6   6   30.60    1.50
   0  -6  -6   30.90    4.00
   0  -6  -6   32.60    1.80
   0  -6  -6   29.50    1.60
   0  -6   6   31.90    1.70
   0  -6   6   33.30    1.70
   0   6  -7    0.20    0.20
   0   6   7    0.30    0.30
   0   6  -7    0.40    0.20
   0   6  -7   -1.30    1.70
   0   6   7    0.30    0.20
   0  -6  -7    0.10    0.30
   0  -6   7    0.50    0.30
   0  -6  -7    0.20    0.40
   0  -6   7    0.60    0.40
   0   6  -8    8.90    0.70
   0   6  -8    8.10    0.70
   0   6   8    8.50    0.80
   0   6   8    8.60    0.70
   0  -6   8    8.80    0.90
   0  -6   8    7.40    0.80
   0  -6  -8    8.70    0.80
   0  -6  -8   11.20    1.10
   0   7   0    0.40    0.70
   0   7   0    0.00    0.20
   0   7   0   -0.30    0.40
   0  -7   0   -0.20    0.10
   0  -7   0    0.10    0.20
   0  -7   0    0.10    0.20
   0  -7   0    0.20    0.20
   0  -7   0    0.10    0.20
   0   7   1   10.60    2.50
   0   7   1   10.60    0.70
   0   7  -1    8.00    1.60
   0   7  -1    8.40    2.40
   0  -7   1    8.80    0.70
   0  -7  -1    9.80    0.80
   0  -7  -1    7.60    2.10
   0  -7  -1   10.70    0.90
   0  -7   1    8.70    0.60
   0  -7   1    8.90    0.70
   0  -7  -1    9.90    0.70
   0  -7  -1    8.80    0.60
   0  -7   1   10.10    0.80
   0  -7   1    9.10    0.80
   0  -7   1   10.10    0.70
   0   7   2    6.90    0.60
   0   7   2    7.90    0.60
   0   7  -2    6.90    1.90
   0   7  -2    8.60    2.40
   0   7   2    6.10    1.70
   0  -7  -2    6.80    0.60
   0  -7   2    9.70    0.70
   0  -7  -2    8.70    0.80
   0  -7   2   10.40    0.80
   0  -7   2   10.00    0.70
   0  -7  -2    7.00    1.90
   0  -7   2   10.40    0.70
   0  -7  -2    6.10    0.70
   0  -7   2   10.30    0.80
   0   7  -3   71.59    5.30
   0   7  -3   72.39    6.40
   0   7   3   73.49    2.90
   0   7   3   73.69    2.80
   0   7   3   74.69    5.10
   0  -7   3   75.59    3.10
   0  -7   3   69.19    2.90
   0  -7   3   74.49    2.90
   0  -7   3   74.49    3.00
   0  -7   3   70.59    2.80
   0  -7  -3   72.09    3.10
   0  -7  -3   74.49    3.10
   0  -7   3   72.79    3.10
   0  -7  -3   72.49    5.70
   0  -7  -3   72.99    2.80
   0   7   4   10.90    0.80
   0   7   4   13.40    2.10
   0   7  -4   12.40    0.70
   0   7  -4    7.80    2.50
   0   7   4   10.50    0.70
   0   7  -4   13.00    2.30
   0  -7   4   12.50    0.90
   0  -7  -4   11.70    2.80
   0  -7   4   11.70    0.80
   0  -7  -4   11.60    1.00
   0  -7  -4   10.30    0.70
   0  -7  -4   11.40    0.90
   0  -7   4   11.90    0.90
   0  -7   4   12.40    0.80
   0   7   5   18.50    1.10
   0   7   5   17.60    1.00
   0   7  -5   15.90    3.10
   0   7  -5   12.30    2.80
   0   7  -5   17.90    0.90
   0   7  -5   18.10    0.90
   0  -7  -5   16.40    1.20
   0  -7   5   19.20    1.10
   0  -7   5   18.00    1.00
   0  -7   5   17.30    1.10
   0  -7  -5   18.10    1.20
   0  -7   5   17.40    1.10
   0  -7  -5   17.10    1.00
   0   7  -6    1.10    0.30
   0   7   6    1.00    0.30
   0   7  -6    0.00    1.20
   0   7   6    1.20    0.40
   0  -7   6    1.20    0.40
   0  -7   6    1.80    0.50
   0  -7  -6    1.20    0.40
   0  -7  -6    0.10    0.30
   0  -7   6    1.20    0.40
   0   7  -7   27.70    1.30
   0   7   7   29.90    1.60
   0   7   7   27.60    1.40
   0  -7  -7   28.00    1.60
   0  -7  -7   29.00    1.70
   0  -7   7   28.40    1.60
   0  -7   7   28.80    1.60
   0   8   0   39.90    3.80
   0   8   0   40.60    4.20
   0   8   0   38.60    1.70
   0  -8   0   38.00    1.80
   0  -8   0   39.20    2.00
   0  -8   0   38.30    1.70
   0  -8   0   40.10    1.70
   0  -8   0   36.70    1.90
   0   8   1    6.10    0.60
   0   8  -1    9.10    2.80
   0   8   1    5.70    1.60
   0   8   1    7.80    2.20
   0   8   1    5.80    0.60
   0   8  -1    6.10    2.00
   0  -8   1    8.40    0.70
   0  -8  -1    6.10    0.50
   0  -8   1    7.90    0.80
   0  -8   1    8.10    0.80
   0  -8   1    8.20    0.60
   0  -8   1    7.40    0.60
   0  -8  -1    6.50    0.80
   0  -8  -1    5.70    0.70
   0  -8   1    8.00    0.70
   0   8   2   31.30    1.40
   0   8  -2   31.50    3.50
   0   8   2   34.70    3.50
   0   8  -2   28.00    4.20
   0   8   2   32.50    1.50
   0  -8   2   32.40    1.60
   0  -8   2   32.10    1.50
   0  -8   2   31.90    1.60
   0  -8  -2   29.90    1.70
   0  -8   2   33.00    1.60
   0  -8  -2   26.80    3.60
   0  -8  -2   32.10    1.70
   0  -8   2   32.50    1.70
   0  -8   2   31.00    1.70
   0  -8  -2   32.60    1.50
   0   8  -3    1.20    1.00
   0   8   3    0.20    0.20
   0   8   3    0.40    0.20
   0   8  -3   -1.30    1.10
   0   8   3    1.70    0.90
   0  -8   3   -0.10    0.20
   0  -8  -3    0.10    0.30
   0  -8   3    0.30    0.40
   0  -8   3    0.20    0.20
   0  -8  -3    0.30    0.30
   0  -8  -3    0.20    0.20
   0  -8   3    0.30    0.30
   0  -8   3    0.10    0.30
   0  -8  -3   -0.10    1.10
   0  -8   3    0.20    0.20
   0   8  -4   19.80    3.00
   0   8   4   18.80    1.00
   0   8  -4   17.70    3.60
   0   8   4   18.00    1.10
   0   8  -4   18.30    1.00
   0  -8  -4   18.50    1.20
   0  -8   4   20.40    1.20
   0  -8  -4   18.40    1.30
   0  -8   4   17.70    1.00
   0  -8   4   18.60    1.20
   0  -8   4   19.00    1.20
   0  -8   4   16.30    1.20
   0   8  -5    4.20    0.50
   0   8  -5    0.00    2.00
   0   8   5    3.20    0.50
   0   8   5    4.30    0.60
   0   8  -5    0.70    1.40
   0  -8   5    4.10    0.60
   0  -8  -5    3.20    0.70
   0  -8  -5    2.80    0.60
   0  -8   5    4.40    0.60
   0  -8   5    4.40    0.60
   0  -8   5    3.60    0.50
   0   8   6   13.70    0.90
   0   8  -6   13.00    0.80
   0   8   6   14.80    1.00
   0  -8   6   14.70    1.10
   0  -8   6   14.70    1.10
   0  -8  -6   15.70    1.20
   0  -8  -6   13.10    1.10
   0  -8   6   14.50    0.90
   0   9   0    0.00    1.50
   0   9   0    0.40    0.30
   0   9   0   -0.20    0.70
   0   9   0    0.70    0.30
   0   9   0    0.40    0.30
   0  -9   0    0.20    0.40
   0  -9   0    0.60    0.40
   0  -9   0    0.50    0.30
   0   9  -1    2.60    1.50
   0   9  -1    4.60    0.60
   0   9   1    4.50    0.50
   0   9   1    4.90    1.80
   0   9   1    4.90    0.50
   0   9  -1    2.00    2.10
   0   9   1    5.70    2.00
   0  -9  -1    4.90    0.70
   0  -9   1    5.00    0.50
   0  -9   1    5.80    0.80
   0  -9   1    5.50    0.60
   0  -9  -1    6.80    0.80
   0  -9  -1    5.60    0.60
   0  -9   1    6.20    0.60
   0  -9   1    5.60    0.80
   0   9   2    0.30    0.30
   0   9  -2   -0.40    0.80
   0   9   2    0.20    0.20
   0   9  -2   -1.20    1.30
   0  -9  -2    0.30    0.30
   0  -9   2    0.80    0.40
   0  -9   2    0.40    0.40
   0  -9  -2    0.00    0.30
   0  -9   2    0.50    0.30
   0  -9   2    0.30    0.30
   0  -9   2    0.20    0.30
   0  -9   2    0.30    0.30
   0  -9  -2    0.10    0.20
   0   9  -3    4.90    2.50
   0   9  -3    5.40    1.90
   0   9   3    5.50    0.60
   0   9   3    6.30    0.60
   0  -9   3    5.00    0.60
   0  -9   3    5.10    0.70
   0  -9  -3    5.00    0.80
   0  -9   3    6.80    0.80
   0  -9   3    5.30    0.60
   0  -9   3    5.10    0.70
   0  -9   3    5.30    0.80
   0  -9  -3    5.50    0.80
   0   9   4    0.60    0.30
   0   9   4    0.90    0.30
   0   9  -4    0.80    0.30
   0   9  -4    1.90    1.60
   0  -9   4    1.00    0.40
   0  -9  -4    0.60    0.40
   0  -9   4    1.00    0.30
   0  -9   4    1.20    0.40
   0  -9  -4    0.40    0.40
   0  -9   4    1.60    0.50
   0  -9   4    1.10    0.50
   0   9   5   17.90    1.10
   0   9  -5   18.80    1.00
   0   9   5   19.00    1.20
   0  -9   5   19.20    1.30
   0  -9  -5   17.80    1.40
   0  -9   5   20.90    1.10
   0  -9   5   18.50    1.30
   0  -9  -5   18.00    1.30
   0  10   0   13.10    0.90
   0  10   0   12.10    0.80
   0 -10   0   12.00    1.10
   0 -10   0   12.50    0.90
   0 -10   0   12.20    1.10
   0  10  -1    0.30    0.30
   0  10  -1    0.20    0.20
   0  10   1    0.20    0.20
   0  10   1   -0.10    0.20
   0 -10   1    0.20    0.20
   0 -10  -1    0.10    0.40
   0 -10   1   -0.30    0.30
   0 -10  -1   -0.10    0.40
   0 -10   1    0.00    0.40
   0  10  -2    3.00    0.50
   0  10   2    3.10    0.50
   0  10  -2    2.50    0.40
   0  10   2    2.40    0.50
   0 -10   2    3.50    0.80
   0 -10   2    1.90    0.40
   0 -10  -2    2.10    0.60
   0 -10   2    2.90    0.50
   0 -10   2    3.20    0.70
   0 -10  -2    2.80    0.70
   0  10   3    0.10    0.30
   0  10   3    0.20    0.30
   0 -10   3    0.10    0.30
   0 -10   3    0.00    0.40
   0 -10   3    0.00    0.30
   0 -10   3    0.10    0.40
   0 -10   3    0.30    0.30
   0 -10  -3    0.10    0.40
   0 -10  -3   -0.10    0.40
   1   0 -10    4.00    0.50
   1   0 -10    4.40    0.50
  -1   0  10    5.00    0.70
  -1   0  10    4.20    0.70
  -1   0   9    0.30    0.20
   1   0  -9    0.10    0.20
  -1   0   9    0.50    0.30
  -1   0   9    0.20    0.30
   1   0  -9    0.10    0.20
   1   0  -9   -0.40    0.90
  -1   0   9    0.50    1.20
  -1   0   8   43.90    1.80
  -1   0   8   44.60    2.00
   1   0  -8   43.30    1.80
  -1   0   8   46.30    4.30
  -1   0   8   44.40    2.10
   1   0  -8   43.30    1.80
   1   0  -8   36.60    4.00
   1   0  -7    0.40    0.20
   1   0  -7    0.10    0.20
   1   0  -7    0.20    0.70
  -1   0   7    0.30    0.30
  -1   0   7    0.00    0.70
  -1   0   7    0.20    0.20
  -1   0   7    0.20    0.20
   1   0  -6   60.79    2.40
   1   0  -6   60.59    4.60
  -1   0   6   61.19    2.50
  -1   0   6   63.99    2.30
  -1   0   6   59.49    2.50
  -1   0   6   68.69    4.70
   1   0  -6   61.69    2.40
  -1   0   5    1.10    0.70
   1   0  -5    0.20    0.40
   1   0  -5    1.10    0.20
  -1   0   5    1.20    0.20
  -1   0   5    1.70    0.30
   1   0  -5    1.10    0.20
  -1   0   5    1.50    0.30
  -1   0   4 1287.07   45.50
   1   0  -4 1271.27   45.50
   1   0  -3    0.00    0.10
  -1   0   3    0.10    0.10
  -1   0   3    0.20    0.10
  -1   0   3    0.10    0.10
   1   0  -3    0.00    0.10
  -1   0   3    0.30    0.40
   1   0  -3    0.40    0.40
   1   0  -2 6324.97  311.77
  -1   0   2 7809.42  326.27
   1   0  -2 8395.36  330.57
  -1   0   2 7357.56  317.87
  -1   0   1    1.50    0.10
   1   0  -1    1.20    0.30
   1   0  -1    1.30    0.10
   1   0  -1    1.30    0.10
   1   0  -1    1.40    0.10
   1   0  -1    1.40    0.10
  -1   0   1    1.30    0.10
  -1   0   1    1.50    0.10
   1   0  -1    1.20    0.10
  -1   0   1    1.40    0.10
  -1   0   1    1.40    0.40
   1   0   0    0.00    0.10
  -1   0   0    0.00    0.10
  -1   0   0    0.00    0.10
  -1   0   0    0.00    0.10
   1   0   0    0.00    0.10
   1   0   0    0.00    0.10
   1   0   1    1.40    0.10
   1   0   1    1.10    0.10
   1   0   1    1.40    0.30
   1   0   1    1.20    0.10
  -1   0  -1    1.20    0.10
  -1   0  -1    1.20    0.40
   1   0   1    1.30    0.10
  -1   0  -1    1.20    0.10
   1   0   1    1.20    0.10
  -1   0  -1    1.40    0.10
  -1   0  -1    1.10    0.10
   1   0   1    1.20    0.10
  -1   0  -1    1.30    0.10
   1   0   1    1.10    0.10
   1   0   2  201.48    7.90
  -1   0  -2  209.88    8.00
   1   0   2  197.58    6.90
  -1   0  -2  191.38    6.70
   1   0   2  196.98    6.70
  -1   0  -3    0.20    0.10
   1   0   3    0.30    0.20
  -1   0  -3    0.10    0.10
   1   0   3   -0.10    0.30
  -1   0  -3    0.00    0.30
   1   0   3    0.10    0.10
  -1   0  -3    0.30    0.10
   1   0   3    0.30    0.10
  -1   0  -4    6.40    1.20
   1   0   4    5.20    0.30
   1   0   4    5.50    0.40
   1   0   4    6.50    0.50
  -1   0  -4    6.30    0.40
   1   0   4    8.30    1.30
  -1   0  -4    5.90    0.30
  -1   0  -4    5.20    0.40
  -1   0  -5    1.90    0.30
   1   0   5    1.60    0.20
  -1   0  -5    1.50    0.20
   1   0   5    1.50    0.30
  -1   0  -5    1.90    0.20
   1   0   5    1.90    0.30
  -1   0  -5    1.20    0.70
   1   0   5    0.80    0.70
   1   0   6    8.30    0.60
   1   0   6    8.90    1.70
  -1   0  -6    7.30    0.50
   1   0   6    8.00    0.60
  -1   0  -6    8.20    1.60
  -1   0  -6    7.70    0.50
   1   0   6    7.50    0.50
  -1   0  -6    7.70    0.50
  -1   0  -7    0.30    0.20
   1   0   7    0.30    0.20
   1   0   7    0.10    0.20
  -1   0  -7    0.20    0.20
   1   0   7    0.00    0.20
   1   0   7    0.00    0.70
  -1   0  -7   -0.10    0.60
  -1   0  -8   39.20    1.70
   1   0   8   36.50    3.80
   1   0   8   39.00    1.90
   1   0   8   38.10    1.60
  -1   0  -8   39.40    1.70
   1   0   8   38.70    1.90
   1   0   9    0.10    0.30
   1   0   9    0.90    1.40
  -1   0  -9    0.20    0.20
  -1   0  -9    0.30    1.20
   1   0   9    0.00    0.20
  -1   0  -9    0.90    0.30
  -1   1  10    0.30    0.20
  -1   1  10    0.00    0.30
   1   1 -10    0.60    0.30
   1   1 -10    0.00    0.20
  -1   1  10    0.40    0.30
   1  -1 -10    0.00    0.20
  -1  -1  10    0.50    0.30
   1  -1 -10    0.40    0.30
  -1  -1  10    0.60    0.40
   1   1  -9   12.90    0.80
   1   1  -9   13.00    0.80
  -1   1   9   12.70    0.80
  -1   1   9   13.90    3.00
  -1   1   9   13.20    1.00
  -1   1   9   13.60    1.00
  -1  -1   9   13.00    1.00
   1  -1  -9   12.40    0.80
   1  -1  -9   12.70    0.80
  -1  -1   9   12.30    1.00
  -1  -1   9   15.20    1.10
   1   1  -8    1.20    0.30
  -1   1   8    1.80    0.30
   1   1  -8    2.10    1.20
  -1   1   8    3.00    1.30
  -1   1   8    2.50    0.50
   1   1  -8    1.20    0.30
  -1   1   8    2.00    0.40
  -1  -1   8    0.80    0.30
  -1  -1   8    2.70    1.30
   1  -1  -8    1.70    0.40
   1  -1  -8    3.00    1.30
   1  -1  -8    1.50    0.40
  -1  -1   8    1.30    0.30
  -1  -1   8    0.90    0.40
  -1   1   7   42.00    1.70
  -1   1   7   38.30    3.70
   1   1  -7   41.30    1.70
  -1   1   7   42.40    1.90
   1   1  -7   43.70    1.70
  -1   1   7   41.30    1.90
   1   1  -7   46.70    4.10
  -1  -1   7   41.70    1.90
   1  -1  -7   42.60    1.80
  -1  -1   7   41.30    1.70
   1  -1  -7   43.20    3.90
  -1  -1   7   41.90    4.00
  -1  -1   7   41.30    1.90
   1  -1  -7   40.40    1.70
  -1   1   6   25.40    2.80
   1   1  -6   24.70    1.10
   1   1  -6   25.50    1.10
  -1   1   6   21.00    1.20
   1   1  -6   25.70    2.90
  -1   1   6   24.20    1.00
  -1   1   6   22.30    1.20
   1  -1  -6   25.20    1.10
   1  -1  -6   23.50    1.10
   1  -1  -6   25.20    2.80
  -1  -1   6   23.80    1.20
  -1  -1   6   24.10    1.20
  -1  -1   6   23.90    2.70
   1  -1  -6   24.50    1.10
  -1  -1   6   24.80    1.00
  -1   1   5  233.88    8.10
   1   1  -5  238.48   10.90
   1   1  -5  238.88    8.20
  -1   1   5  235.68    8.30
   1   1  -5  231.38    8.20
  -1   1   5  244.58   10.80
  -1   1   5  232.88    8.30
  -1  -1   5  231.88    8.40
   1  -1  -5  239.78    8.20
   1  -1  -5  233.18    8.20
  -1  -1   5  238.58    8.10
  -1  -1   5  236.38    8.30
   1  -1  -5  247.68   10.90
   1  -1  -5  240.38    8.20
  -1  -1   5  229.18   10.80
   1   1  -4    4.50    0.30
   1   1  -4    4.50    0.30
   1   1  -4    7.30    1.30
  -1   1   4    3.20    0.30
  -1   1   4    3.90    0.40
  -1   1   4    4.50    1.20
  -1   1   4    3.90    0.30
   1  -1  -4    3.60    1.00
   1  -1  -4    4.10    0.30
  -1  -1   4    5.10    0.30
  -1  -1   4    5.40    0.40
  -1  -1   4    6.00    1.20
   1  -1  -4    3.90    0.30
   1  -1  -4    3.70    0.30
  -1   1   3  940.71   33.10
   1   1  -3  917.01   33.20
   1  -1  -3  912.11   33.10
  -1  -1   3  940.71   33.30
  -1   1   2  227.98    8.00
   1   1  -2  248.18    9.40
  -1   1   2  250.67    9.30
   1  -1  -2  234.08    9.20
   1  -1  -2  236.68    8.10
   1  -1  -2  221.58    8.00
  -1   1   1  401.76   14.30
   1   1  -1  403.26   14.40
  -1  -1   1  397.66   14.30
   1  -1  -1  397.96   14.40
   1   1   0    1.70    0.10
   1   1   0    1.50    0.10
   1   1   0    1.80    0.10
   1   1   0    1.80    0.30
   1   1   0    1.80    0.10
   1   1   0    1.90    0.10
  -1   1   0    3.10    0.60
   1   1   0    1.60    0.10
  -1  -1   0    1.70    0.10
  -1  -1   0    1.90    0.10
  -1  -1   0    1.70    0.10
  -1  -1   0    1.70    0.10
  -1  -1   0    1.80    0.10
   1  -1   0    3.00    0.60
  -1  -1   0    1.70    0.10
  -1   1  -1 4354.56  160.68
  -1   1  -1 4230.18  160.88
   1   1   1 3437.16  172.38
   1   1   1 3552.04  170.48
   1  -1   1 3700.33  164.08
  -1  -1  -1 3574.34  171.88
  -1   1  -2  158.98    6.90
   1   1   2  159.38    5.50
   1   1   2  151.28    5.50
  -1  -1  -2  171.38    5.60
  -1  -1  -2  156.88    6.50
   1  -1   2  153.88    6.80
  -1  -1  -2  171.58    5.60
   1   1   3  228.08    8.40
   1   1   3  247.58   10.00
   1   1   3  245.08    8.50
  -1   1  -3  255.77   10.40
  -1   1  -3  249.08    8.40
   1  -1   3  235.58    8.40
   1  -1   3  250.77    8.60
   1  -1   3  254.67    8.60
   1  -1   3  249.68   10.20
  -1  -1  -3  244.78    8.50
  -1  -1  -3  255.17    8.50
   1  -1   3  252.87    8.50
  -1  -1  -3  256.17   10.10
  -1   1  -4   10.80    1.60
   1   1   4   15.00    1.70
  -1   1  -4   12.50    0.60
   1   1   4   14.30    0.60
   1   1   4   15.30    0.70
   1   1   4   15.20    0.80
  -1  -1  -4   14.30    0.70
   1  -1   4   11.20    0.50
  -1  -1  -4   15.10    0.70
   1  -1   4   11.80    0.60
  -1  -1  -4   14.50    0.60
   1  -1   4   10.70    0.70
  -1  -1  -4   16.50    1.80
   1  -1   4   11.90    0.70
   1  -1   4   10.40    1.50
  -1   1  -5  185.38    6.60
   1   1   5  191.78    6.70
   1   1   5  197.88    9.10
  -1   1  -5  196.18    9.30
   1   1   5  188.68    6.70
  -1   1  -5  188.58    6.50
   1   1   5  193.48    6.50
   1  -1   5  179.18    6.70
   1  -1   5  185.68    6.50
   1  -1   5  191.58    9.10
  -1  -1  -5  184.68    6.50
   1  -1   5  181.78    6.70
  -1  -1  -5  179.98    8.90
  -1  -1  -5  186.88    6.60
  -1  -1  -5  194.08    6.60
  -1   1  -6    6.20    0.40
  -1   1  -6    5.80    1.60
   1   1   6    5.90    1.50
   1   1   6    3.80    0.50
   1   1   6    5.00    0.40
   1   1   6    4.50    0.50
  -1   1  -6    5.90    0.50
  -1  -1  -6    4.00    1.50
  -1  -1  -6    4.70    0.40
   1  -1   6    6.90    0.60
   1  -1   6    7.60    1.60
   1  -1   6    6.00    0.60
  -1  -1  -6    4.70    0.40
  -1  -1  -6    4.80    0.40
   1  -1   6    5.80    0.40
   1   1   7   20.90    1.00
   1   1   7   21.10    1.20
  -1   1  -7   23.20    1.10
   1   1   7   24.60    2.80
  -1   1  -7   21.90    1.00
   1   1   7   20.60    1.20
  -1   1  -7   22.80    3.00
   1  -1   7   21.80    1.00
  -1  -1  -7   21.60    1.00
   1  -1   7   21.70    1.20
  -1  -1  -7   19.30    2.70
   1  -1   7   21.80    1.20
  -1  -1  -7   21.40    1.10
  -1  -1  -7   20.80    1.00
   1  -1   7   17.40    2.50
   1   1   8    3.90    1.70
   1   1   8    4.00    0.40
   1   1   8    4.40    0.60
  -1   1  -8    3.80    0.50
   1   1   8    4.50    0.60
  -1   1  -8    3.60    1.50
  -1   1  -8    3.30    0.40
  -1  -1  -8    4.30    0.50
  -1  -1  -8    3.00    1.40
   1  -1   8    3.40    0.40
   1  -1   8    3.10    1.30
   1  -1   8    3.50    0.50
   1  -1   8    3.00    0.50
  -1  -1  -8    4.90    0.50
   1   1   9   15.00    2.90
   1   1   9   17.10    1.10
   1   1   9   17.90    1.20
   1   1   9   17.00    0.90
  -1   1  -9   16.00    0.90
  -1   1  -9   16.10    0.90
  -1   1  -9   14.50    2.80
   1  -1   9   15.40    1.10
   1  -1   9   15.10    1.10
  -1  -1  -9   16.60    1.00
  -1  -1  -9   17.80    1.00
  -1   2   9    0.50    0.30
   1   2  -9    0.20    0.20
   1   2  -9    0.50    0.30
  -1   2   9    0.40    0.30
  -1   2   9   -2.10    0.90
  -1   2   9    0.40    0.30
  -1  -2   9    0.40    0.30
   1  -2  -9    0.30    0.20
  -1  -2   9    0.00    0.30
   1  -2  -9    0.20    0.20
   1  -2  -9   -0.80    1.20
  -1   2   8    2.80    0.50
   1   2  -8    0.40    1.00
   1   2  -8    2.40    0.40
  -1   2   8    2.30    0.40
  -1   2   8    2.40    0.30
  -1   2   8    1.50    0.90
   1   2  -8    2.40    0.40
   1  -2  -8    2.50    0.40
   1  -2  -8    2.80    0.40
  -1  -2   8    2.80    0.30
  -1  -2   8    2.40    0.50
  -1  -2   8    2.40    0.50
   1  -2  -8    2.10    1.50
  -1  -2   8    3.10    1.40
  -1   2   7    6.20    0.50
   1   2  -7    6.90    0.50
  -1   2   7    9.80    1.80
  -1   2   7    5.90    0.60
   1   2  -7    7.10    0.50
   1   2  -7    6.70    2.10
   1  -2  -7    5.20    0.50
  -1  -2   7    7.60    0.70
   1  -2  -7    4.70    1.70
  -1  -2   7    8.20    0.70
   1  -2  -7    6.00    0.60
  -1  -2   7    6.90    0.50
   1  -2  -7    5.80    0.50
  -1  -2   7    6.80    1.80
   1   2  -6  243.08   11.50
   1   2  -6  235.78    8.50
   1   2  -6  248.38    8.50
  -1   2   6  247.48    8.60
  -1   2   6  248.68    8.70
  -1   2   6  249.78   11.50
  -1   2   6  245.28    8.50
  -1  -2   6  240.58    8.70
   1  -2  -6  248.28    8.70
   1  -2  -6  237.48   11.50
  -1  -2   6  258.37   11.70
   1  -2  -6  242.88    8.60
  -1  -2   6  251.47    8.50
   1  -2  -6  241.88    8.50
  -1  -2   6  245.48    8.80
  -1   2   5    5.80    0.50
  -1   2   5    5.70    1.40
   1   2  -5    7.80    1.90
   1   2  -5    5.10    0.40
  -1   2   5    5.60    0.40
   1   2  -5    4.80    0.30
  -1   2   5    5.40    0.40
  -1  -2   5    5.50    0.40
   1  -2  -5    5.00    0.40
   1  -2  -5    4.90    0.50
  -1  -2   5    4.80    0.50
   1  -2  -5    5.50    0.40
  -1  -2   5    5.20    1.40
  -1  -2   5    5.00    0.50
   1  -2  -5    4.50    1.30
  -1   2   4   36.10    1.40
  -1   2   4   34.10    1.40
   1   2  -4   36.50    1.30
   1   2  -4   34.90    3.00
  -1   2   4   33.50    1.50
  -1   2   4   34.10    2.80
  -1  -2   4   35.20    1.50
   1  -2  -4   34.10    1.50
  -1  -2   4   37.40    1.40
  -1  -2   4   35.80    1.50
   1  -2  -4   33.90    1.40
  -1  -2   4   35.30    3.00
   1  -2  -4   34.60    2.80
   1  -2  -4   38.20    1.40
   1   2  -3   83.89    2.80
  -1   2   3   73.39    2.80
  -1   2   3   73.89    2.90
  -1   2   3   76.49    2.90
  -1   2   3   77.49    4.30
  -1  -2   3   86.49    4.60
  -1  -2   3   83.39    2.80
   1  -2  -3   78.09    3.00
   1  -2  -3   80.39    4.30
  -1  -2   3   83.19    2.90
   1  -2  -3   76.19    2.80
  -1  -2   3   85.19    3.00
  -1  -2   3   85.79    3.00
   1  -2  -3   78.89    2.90
  -1   2   2 9038.60  400.76
   1   2  -2 9040.79  355.66
  -1   2   2 9123.29  402.96
   1   2  -2 9311.67  358.46
  -1  -2   2 9503.85  355.36
   1  -2  -2 9999.00  413.56
   1  -2  -2 8627.24  397.46
  -1  -2   2 9244.98  360.26
  -1   2   1  715.13   25.00
   1   2  -1  720.93   24.90
  -1  -2   1  694.83   24.90
   1  -2  -1  682.93   25.20
   1   2   0    1.30    0.40
   1   2   0    1.10    0.10
  -1   2   0    1.10    0.10
   1   2   0    1.10    0.10
  -1   2   0    1.00    0.10
  -1   2   0    1.70    0.70
  -1  -2   0    1.10    0.20
   1  -2   0    1.00    0.20
  -1  -2   0    1.00    0.20
   1  -2   0    0.80    0.50
  -1  -2   0    1.40    0.10
  -1  -2   0    1.40    0.20
  -1  -2   0    1.10    0.10
  -1  -2   0    1.50    0.20
   1  -2   0    1.10    0.20
   1  -2   0    1.20    0.10
  -1  -2   0    1.10    0.50
   1  -2   0    1.40    0.20
   1  -2   0    1.40    0.20
  -1   2  -1  141.89    5.80
  -1   2  -1  138.89    4.50
   1   2   1  129.49    4.50
   1   2   1  140.79    5.20
  -1   2  -1  131.79    6.20
   1  -2   1  128.19    4.60
   1  -2   1  130.59    4.50
   1  -2   1  133.19    4.50
  -1  -2  -1  136.49    5.40
  -1  -2  -1  121.69    4.60
   1  -2   1  130.09    4.60
  -1  -2  -1  129.89    4.60
  -1  -2  -1  128.69    4.50
   1  -2   1  116.79    4.60
   1  -2   1  129.29    4.50
  -1   2  -2 2330.17   80.29
  -1   2  -3  164.48    7.60
   1   2   3  151.48    5.60
   1   2   3  149.39    5.50
   1   2   3  148.99    5.50
  -1   2  -3  154.28    5.40
  -1   2  -3  162.08    5.40
   1   2   3  156.48    6.90
   1  -2   3  172.58    7.60
  -1  -2  -3  159.18    6.90
  -1  -2  -3  153.98    5.50
   1  -2   3  165.78    5.40
  -1  -2  -3  154.98    5.50
   1  -2   3  167.48    5.60
   1  -2   3  166.58    5.70
  -1  -2  -3  149.69    5.60
   1  -2   3  168.18    5.60
   1   2   4  119.69    4.30
   1   2   4  131.59    6.20
   1   2   4  113.49    4.30
  -1   2  -4  120.59    4.20
  -1   2  -4  124.89    6.50
   1   2   4  116.99    4.20
  -1  -2  -4  117.29    4.30
   1  -2   4  119.79    4.40
   1  -2   4  119.99    4.10
   1  -2   4  116.39    4.40
  -1  -2  -4  120.19    4.20
  -1  -2  -4  118.69    4.30
   1  -2   4  124.49    4.30
   1  -2   4  119.09    6.40
  -1  -2  -4  120.99    6.10
  -1   2  -5    3.60    0.30
   1   2   5    3.80    0.30
  -1   2  -5    3.50    1.20
   1   2   5    4.60    1.20
   1   2   5    4.90    0.40
   1   2   5    4.70    0.40
   1  -2   5    3.10    0.40
  -1  -2  -5    3.30    1.10
  -1  -2  -5    3.90    0.40
  -1  -2  -5    3.90    0.30
   1  -2   5    3.40    0.30
  -1  -2  -5    3.60    0.40
   1  -2   5    3.90    0.40
   1  -2   5    2.70    1.00
   1  -2   5    3.30    0.40
   1   2   6  147.99    7.90
  -1   2  -6  152.88    5.30
   1   2   6  144.59    5.30
   1   2   6  146.79    5.50
   1   2   6  150.78    5.50
  -1   2  -6  139.39    8.20
  -1   2  -6  148.69    5.30
   1  -2   6  146.29    5.50
  -1  -2  -6  148.09    5.40
   1  -2   6  166.78    5.60
  -1  -2  -6  148.49    5.30
  -1  -2  -6  152.48    5.50
   1  -2   6  137.29    8.00
   1  -2   6  154.68    5.20
  -1  -2  -6  152.68    8.10
   1   2   7    1.10    0.30
   1   2   7    0.60    0.20
   1   2   7    0.60    0.20
  -1   2  -7    1.20    0.30
  -1   2  -7    0.70    0.20
   1   2   7   -0.60    0.70
  -1   2  -7    0.60    0.80
   1  -2   7    1.00    0.40
  -1  -2  -7    0.90    0.80
  -1  -2  -7    0.90    0.30
  -1  -2  -7    0.60    0.30
  -1  -2  -7    0.60    0.30
   1  -2   7    0.40    0.30
   1  -2   7    0.60    0.80
   1  -2   7    0.80    0.20
   1   2   8   12.90    2.30
  -1   2  -8   10.50    0.70
  -1   2  -8    7.00    2.20
   1   2   8   11.80    0.90
   1   2   8   11.50    0.70
   1   2   8   11.20    0.90
  -1   2  -8   11.20    0.70
   1  -2   8   10.70    0.90
   1  -2   8   13.70    2.40
  -1  -2  -8    7.70    2.20
   1  -2   8   10.90    0.90
  -1  -2  -8   11.20    0.70
  -1  -2  -8   12.30    0.80
  -1   2  -9    0.90    0.30
   1   2   9    1.10    0.40
   1   2   9    0.70    1.30
   1   2   9    1.30    0.30
  -1   2  -9    0.70    0.30
   1   2   9    0.90    0.40
   1  -2   9    0.70    0.40
   1  -2   9    0.80    0.40
  -1  -2  -9    0.60    0.30
  -1  -2  -9    2.20    1.60
  -1  -2  -9    0.70    0.30
   1   3  -9    9.70    0.70
  -1   3   9    7.40    2.30
   1   3  -9    9.10    0.70
  -1   3   9    9.00    0.80
  -1   3   9    8.00    0.60
  -1  -3   9    8.00    0.80
   1  -3  -9    9.50    2.80
  -1  -3   9    8.20    0.80
   1  -3  -9    7.80    0.70
   1  -3  -9    9.00    0.70
   1   3  -8    0.00    1.00
  -1   3   8    1.30    0.40
  -1   3   8    1.00    0.30
  -1   3   8    1.00    0.40
   1   3  -8    1.60    0.30
  -1   3   8    1.60    1.10
   1   3  -8    0.80    0.30
   1  -3  -8    0.70    0.30
   1  -3  -8    1.10    0.30
   1  -3  -8    0.60    1.00
  -1  -3   8    0.80    0.40
  -1  -3   8    1.00    0.40
   1  -3  -8    0.30    0.30
  -1   3   7   70.19    2.90
  -1   3   7   70.49    2.70
  -1   3   7   70.29    2.70
  -1   3   7   72.59    5.40
   1   3  -7   71.39    2.60
   1   3  -7   67.19    2.70
   1   3  -7   67.29    5.30
   1  -3  -7   74.49    2.80
  -1  -3   7   67.49    2.60
  -1  -3   7   64.49    2.80
  -1  -3   7   68.99    5.30
  -1  -3   7   65.39    2.90
   1  -3  -7   70.09    5.40
   1  -3  -7   67.49    2.70
   1  -3  -7   71.29    2.90
  -1   3   6   33.70    1.40
   1   3  -6   32.10    1.40
  -1   3   6   32.10    1.40
   1   3  -6   34.20    1.40
  -1   3   6   32.60    1.60
  -1   3   6   37.70    3.40
   1   3  -6   32.50    3.40
  -1  -3   6   36.90    1.70
   1  -3  -6   39.80    3.60
  -1  -3   6   35.40    3.40
   1  -3  -6   32.10    1.50
   1  -3  -6   27.90    1.60
   1  -3  -6   34.50    1.40
  -1  -3   6   36.70    1.60
  -1  -3   6   37.00    1.40
  -1   3   5  253.97    8.90
  -1   3   5  254.27    8.80
   1   3  -5  259.77    8.80
  -1   3   5  243.38   11.30
   1   3  -5  248.48   11.90
  -1  -3   5  264.37    8.80
   1  -3  -5  261.17    8.80
   1  -3  -5  248.48    8.90
  -1  -3   5  250.27   11.70
  -1  -3   5  250.47    9.00
   1  -3  -5  264.17   11.60
   1  -3  -5  254.07    9.00
  -1  -3   5  252.07    9.00
  -1   3   4   27.20    1.20
   1   3  -4   26.40    2.70
   1   3  -4   28.70    1.10
  -1   3   4   25.10    2.40
  -1   3   4   27.30    1.20
  -1  -3   4   28.20    1.30
   1  -3  -4   29.30    1.30
  -1  -3   4   28.30    1.30
  -1  -3   4   26.70    1.20
  -1  -3   4   27.50    1.10
  -1  -3   4   25.60    2.50
   1  -3  -4   27.90    2.60
   1  -3  -4   27.90    1.20
   1  -3  -4   27.10    1.10
   1   3  -3  341.87   13.80
  -1   3   3  334.57   13.30
  -1  -3   3  327.47   11.40
  -1  -3   3  325.17   11.40
  -1  -3   3  336.37   13.60
  -1  -3   3  327.37   11.50
  -1  -3   3  331.77   11.40
   1  -3  -3  344.77   13.50
   1  -3  -3  331.37   11.60
  -1   3   2  121.19    5.60
  -1   3   2  119.79    4.30
   1   3  -2  127.89    6.00
  -1   3   2  120.39    4.30
   1  -3  -2  119.19    4.30
  -1  -3   2  126.39    4.30
   1  -3  -2  116.39    4.30
  -1  -3   2  133.29    4.30
  -1  -3   2  118.89    5.90
   1  -3  -2  119.19    6.00
  -1  -3   2  114.29    4.30
   1  -3  -2  115.89    4.40
  -1  -3   2  124.89    4.40
  -1  -3   2  112.29    4.30
  -1  -3   2  130.29    4.30
   1   3  -1  685.73   24.60
   1   3  -1  642.84   23.60
  -1   3   1  636.04   23.90
   1  -3  -1  655.73   24.40
   1   3   0  336.87   12.80
  -1   3   0  333.57   13.30
   1  -3   0  313.07   11.10
   1  -3   0  324.87   11.10
  -1  -3   0  324.07   12.60
   1  -3   0  325.47   11.20
   1  -3   0  328.77   11.20
   1  -3   0  322.07   13.10
  -1  -3   0  317.07   11.10
  -1  -3   0  320.17   11.10
  -1   3  -1  453.75   17.70
   1   3   1  425.06   15.00
  -1   3  -1  457.85   16.90
   1   3   1  453.45   16.20
   1  -3   1  423.16   15.10
   1  -3   1  429.26   15.10
  -1  -3  -1  451.75   16.50
   1  -3   1  459.35   15.20
   1   3   2   89.89    3.40
   1   3   2   87.29    4.30
  -1   3  -2   99.09    5.10
  -1   3  -2  105.29    5.90
   1  -3   2  100.99    3.50
   1  -3   2  103.89    3.50
  -1  -3  -2   82.19    3.50
   1  -3   2  109.89    3.50
   1  -3   2   99.89    3.40
  -1  -3  -2   88.69    3.30
  -1  -3  -2   87.39    3.50
  -1  -3  -2   88.19    3.40
   1  -3   2  102.59    3.40
   1  -3   2  101.59    3.40
  -1  -3  -2   85.89    4.60
  -1   3  -3  287.47    9.80
  -1   3  -3  286.67   12.30
   1   3   3  284.97   11.40
  -1  -3  -3  302.97   11.70
   1  -3   3  290.97   10.10
  -1  -3  -3  278.77   10.00
   1  -3   3  290.07    9.80
   1  -3   3  280.87    9.90
  -1   3  -4   30.90    1.20
  -1   3  -4   31.50    3.00
   1   3   4   31.80    1.30
  -1   3  -4   31.40    1.20
   1   3   4   29.40    1.30
   1   3   4   31.90    2.50
   1   3   4   29.50    1.20
   1  -3   4   32.90    1.50
   1  -3   4   31.90    1.40
  -1  -3  -4   30.10    1.20
  -1  -3  -4   30.00    1.40
  -1  -3  -4   26.10    2.50
   1  -3   4   33.20    1.20
   1  -3   4   31.80    1.30
  -1  -3  -4   31.10    1.30
   1  -3   4   31.70    2.90
   1   3   5   31.70    1.40
  -1   3  -5   35.90    3.40
   1   3   5   33.80    1.50
   1   3   5   33.60    1.40
  -1   3  -5   33.20    1.30
   1   3   5   34.20    2.90
   1  -3   5   32.90    1.50
   1  -3   5   33.70    1.40
  -1  -3  -5   32.00    1.40
   1  -3   5   35.20    3.30
  -1  -3  -5   33.40    3.00
  -1  -3  -5   33.50    1.60
   1  -3   5   33.20    1.30
   1  -3   5   33.10    1.60
  -1  -3  -5   33.80    1.40
   1   3   6   17.00    0.80
  -1   3  -6   14.50    0.80
   1   3   6   17.20    2.20
  -1   3  -6   16.10    2.50
   1   3   6   17.00    0.90
   1   3   6   17.20    1.00
  -1  -3  -6   17.00    2.40
  -1  -3  -6   16.70    1.00
   1  -3   6   10.00    1.90
  -1  -3  -6   17.00    0.80
  -1  -3  -6   16.10    0.90
   1   3   7   35.80    1.60
  -1   3  -7   35.80    1.50
   1   3   7   36.60    1.70
   1   3   7   30.20    1.50
  -1   3  -7   35.40    3.70
  -1   3  -7   32.60    1.50
   1   3   7   35.10    3.50
   1  -3   7   33.80    1.70
  -1  -3  -7   37.30    1.80
  -1  -3  -7   36.40    1.60
   1  -3   7   34.60    1.70
   1  -3   7   35.10    3.60
  -1  -3  -7   35.40    1.50
  -1  -3  -7   30.40    3.60
  -1   3  -8    2.30    1.30
   1   3   8    0.10    0.20
   1   3   8   -0.60    1.00
  -1   3  -8    0.20    0.20
  -1   3  -8    0.30    0.20
   1   3   8   -0.10    0.20
   1   3   8    0.20    0.30
  -1  -3  -8    0.20    0.20
  -1  -3  -8    0.60    0.30
  -1  -3  -8    0.00    0.20
   1  -3   8    0.30    0.30
   1  -3   8    0.20    0.30
  -1   3  -9    5.50    0.50
   1   3   9    6.10    0.70
  -1   3  -9    5.40    0.60
   1   3   9    5.30    0.50
  -1  -3  -9    5.80    0.60
  -1  -3  -9    4.70    0.60
   1  -3   9    6.10    0.70
   1  -3   9    5.50    0.70
  -1   4   9   -0.10    0.30
   1   4  -9    0.40    0.30
  -1   4   9    0.10    0.20
   1   4  -9   -0.10    0.20
   1  -4  -9    0.10    0.30
  -1  -4   9    0.30    0.40
  -1  -4   9    0.20    0.30
   1  -4  -9    0.00    0.30
   1   4  -8   17.20    3.00
  -1   4   8   14.70    0.90
  -1   4   8   12.60    2.60
   1   4  -8   15.30    0.90
   1   4  -8   14.80    0.80
  -1   4   8   14.60    1.00
   1  -4  -8    9.50    2.60
  -1  -4   8   12.50    2.60
   1  -4  -8   15.00    1.00
   1  -4  -8   15.50    1.00
  -1  -4   8   14.70    1.10
   1  -4  -8   15.50    1.10
  -1  -4   8   15.00    1.10
  -1   4   7    4.20    1.60
  -1   4   7    3.70    0.40
   1   4  -7    3.70    1.60
   1   4  -7    5.10    0.50
   1   4  -7    3.80    0.40
  -1   4   7    3.20    0.50
  -1  -4   7    4.80    1.60
  -1  -4   7    4.20    0.40
  -1  -4   7    4.00    0.60
   1  -4  -7    4.40    0.50
   1  -4  -7    3.30    0.60
  -1  -4   7    4.80    0.60
   1  -4  -7    3.90    1.60
   1  -4  -7    3.90    0.50
   1   4  -6    9.70    0.60
  -1   4   6   10.90    0.80
   1   4  -6    9.50    0.60
   1   4  -6   10.20    2.00
  -1   4   6    9.70    1.90
  -1   4   6   10.80    0.60
  -1  -4   6   10.60    0.60
  -1  -4   6    9.20    0.80
   1  -4  -6   10.30    0.70
   1  -4  -6   10.00    0.70
  -1  -4   6   10.40    0.80
  -1  -4   6   10.10    1.90
   1  -4  -6   10.10    2.00
   1  -4  -6    9.70    0.80
  -1   4   5    0.90    0.20
   1   4  -5    0.70    0.80
   1   4  -5    1.40    0.20
  -1   4   5    1.80    0.40
  -1   4   5    1.10    0.70
   1  -4  -5    0.10    0.60
   1  -4  -5    1.10    0.30
   1  -4  -5    1.50    0.30
  -1  -4   5    1.50    0.30
  -1  -4   5    2.10    0.40
  -1  -4   5    1.20    0.70
   1  -4  -5    0.90    0.20
  -1  -4   5    1.50    0.40
  -1  -4   5    2.00    0.30
   1   4  -4  309.07   13.40
  -1   4   4  298.37   10.30
   1   4  -4  298.97   10.20
  -1   4   4  292.17   12.60
  -1   4   4  305.77   10.40
   1  -4  -4  287.87   10.30
  -1  -4   4  296.97   10.40
   1  -4  -4  295.27   13.10
   1  -4  -4  309.87   10.60
  -1  -4   4  295.57   10.50
  -1  -4   4  296.17   10.50
   1  -4  -4  302.37   10.40
  -1  -4   4  296.87   13.10
  -1  -4   4  302.27   10.30
  -1   4   3  113.79    4.10
   1   4  -3  114.09    6.30
  -1   4   3  113.19    4.00
  -1   4   3  112.19    5.80
  -1  -4   3  114.79    4.10
  -1  -4   3  111.59    4.10
  -1  -4   3  116.29    4.10
  -1  -4   3  108.49    4.10
  -1  -4   3  112.59    4.20
   1  -4  -3  114.49    6.40
   1  -4  -3  111.49    4.00
  -1  -4   3  113.39    4.00
   1  -4  -3  110.89    4.20
   1   4  -2  441.36   18.30
  -1   4   2  449.66   17.10
   1   4  -2  445.86   17.40
   1  -4  -2  442.26   17.80
   1  -4  -2  457.95   15.30
  -1  -4   2  439.56   15.20
  -1  -4   2  428.36   15.20
  -1  -4   2  432.76   15.10
  -1  -4   2  448.86   15.20
   1   4  -1  181.18    7.90
  -1   4   1  186.58    8.30
   1   4  -1  173.78    8.60
  -1  -4   1  169.78    6.20
   1  -4  -1  178.48    6.30
   1  -4  -1  187.48    6.30
   1  -4  -1  185.68    6.20
  -1  -4   1  159.98    6.10
   1  -4  -1  178.38    6.20
  -1  -4   1  171.18    6.30
  -1  -4   1  164.38    6.20
  -1  -4   1  167.88    6.10
  -1  -4   1  174.38    6.20
   1  -4  -1  187.48    8.70
  -1   4   0 1286.77   46.30
   1   4   0 1286.97   45.90
  -1  -4   0 1286.37   45.60
   1  -4   0 1282.77   46.20
  -1   4  -1    2.60    0.90
  -1   4  -1    1.70    0.90
   1   4   1    3.50    1.00
   1   4   1    3.20    0.30
   1   4   1    3.00    0.20
  -1  -4  -1    2.80    0.90
  -1  -4  -1    3.10    0.30
   1  -4   1    2.50    0.30
   1  -4   1    2.50    0.30
   1  -4   1    1.70    0.30
   1  -4   1    2.10    0.30
  -1  -4  -1    2.80    0.30
   1  -4   1    2.50    0.30
  -1  -4  -1    2.50    0.40
  -1  -4  -1    3.40    0.30
   1  -4   1    2.10    0.40
   1   4   2   65.09    2.40
   1   4   2   66.69    3.60
  -1   4  -2   65.59    4.20
  -1   4  -2   63.59    4.80
  -1  -4  -2   69.09    2.50
  -1  -4  -2   67.39    2.40
   1  -4   2   62.29    2.50
  -1  -4  -2   74.89    4.20
  -1  -4  -2   65.29    2.60
   1  -4   2   62.09    2.50
   1  -4   2   66.29    2.40
   1  -4   2   62.19    2.60
  -1  -4  -2   63.79    2.50
   1  -4   2   65.19    2.50
  -1   4  -3  104.49    5.90
   1   4   3   99.49    3.70
  -1   4  -3   99.79    3.50
  -1   4  -3  102.09    6.70
   1   4   3  102.79    5.00
   1   4   3   91.19    3.60
   1  -4   3  104.49    3.70
   1  -4   3  106.59    3.70
  -1  -4  -3   94.49    3.80
  -1  -4  -3   98.19    3.60
   1  -4   3  100.99    3.60
   1  -4   3  100.89    3.80
   1  -4   3  101.09    3.70
  -1  -4  -3   96.59    5.40
  -1  -4  -3   94.89    3.70
  -1   4  -4  240.08   11.30
   1   4   4  241.98    8.50
  -1   4  -4  240.28    8.30
   1   4   4  234.28   10.30
  -1   4  -4  244.98   12.40
  -1   4  -4  240.28    8.30
   1   4   4  249.28    8.40
  -1  -4  -4  253.67   11.00
  -1  -4  -4  239.28    8.50
   1  -4   4  243.58    8.50
   1  -4   4  238.88    8.60
   1  -4   4  243.98    8.50
  -1  -4  -4  233.78    8.40
  -1  -4  -4  231.88    8.60
   1  -4   4  250.87    8.40
  -1   4  -5    0.50    0.80
   1   4   5    2.30    1.00
  -1   4  -5    1.80    1.20
  -1   4  -5    1.70    0.30
   1   4   5    2.20    0.40
  -1   4  -5    2.00    0.30
   1   4   5    2.40    0.30
   1  -4   5    3.80    0.50
   1  -4   5    3.10    0.40
  -1  -4  -5    2.80    0.30
  -1  -4  -5    2.10    1.10
   1  -4   5    2.60    0.30
   1  -4   5    2.90    0.40
  -1  -4  -5    2.60    0.40
  -1  -4  -5    2.00    0.40
  -1   4  -6   20.10    0.90
  -1   4  -6   18.60    2.70
  -1   4  -6   21.10    3.30
   1   4   6   20.80    1.10
   1   4   6   20.20    2.50
   1   4   6   20.70    1.00
  -1  -4  -6   20.90    1.20
  -1  -4  -6   20.30    1.10
   1  -4   6   19.50    1.20
   1  -4   6   19.80    1.20
  -1  -4  -6   19.60    1.00
   1  -4   6   19.00    1.00
  -1  -4  -6   19.70    2.70
   1   4   7    2.10    1.20
  -1   4  -7    1.70    1.10
   1   4   7    3.10    0.40
  -1   4  -7    1.60    1.50
  -1   4  -7    1.80    0.30
   1   4   7    2.30    0.50
  -1   4  -7    2.10    0.30
  -1  -4  -7    2.20    0.40
  -1  -4  -7    2.70    0.40
  -1  -4  -7    2.80    0.60
   1  -4   7    2.50    0.60
  -1  -4  -7    1.20    1.20
   1  -4   7    1.90    0.40
  -1   4  -8   26.90    3.80
  -1   4  -8   31.90    1.40
  -1   4  -8   29.60    1.40
   1   4   8   31.10    1.40
   1   4   8   31.00    1.60
  -1  -4  -8   28.60    1.70
   1  -4   8   32.00    1.70
   1  -4   8   31.10    1.70
  -1  -4  -8   31.00    1.50
  -1  -4  -8   30.80    1.50
   1   4   9   -0.10    0.20
  -1   4  -9    0.00    0.30
  -1   4  -9    0.00    0.20
   1   4   9    0.10    0.30
  -1  -4  -9    0.20    0.30
  -1  -4  -9    0.00    0.30
   1  -4   9    0.40    0.30
   1  -4   9    0.00    0.30
  -1   5   8    0.30    0.20
  -1   5   8    0.40    0.30
   1   5  -8    0.30    0.20
   1   5  -8    0.10    0.20
  -1  -5   8    0.40    0.30
   1  -5  -8    0.20    0.30
   1  -5  -8    0.40    0.30
   1  -5  -8    0.90    0.50
  -1  -5   8    0.50    0.40
   1   5  -7   14.60    2.70
   1   5  -7   13.00    0.80
   1   5  -7   13.30    0.70
   1   5  -7   12.40    3.30
  -1   5   7   12.30    0.90
  -1   5   7   13.50    0.80
  -1   5   7   12.10    2.70
   1  -5  -7   12.30    0.80
  -1  -5   7   12.30    1.00
  -1  -5   7   13.20    1.00
   1  -5  -7   11.10    2.90
   1  -5  -7   11.70    1.00
   1  -5  -7   12.50    0.90
  -1   5   6   17.40    1.00
   1   5  -6   13.60    2.50
  -1   5   6   18.50    2.50
  -1   5   6   16.30    0.90
   1   5  -6   17.80    0.80
   1   5  -6   20.70    3.20
   1  -5  -6   16.30    0.90
  -1  -5   6   16.40    1.10
  -1  -5   6   18.00    0.90
   1  -5  -6   16.60    1.10
   1  -5  -6   16.30    2.70
  -1  -5   6   17.30    1.10
   1  -5  -6   17.30    1.00
  -1   5   5  199.28    9.70
   1   5  -5  198.78   11.30
   1   5  -5  207.08   10.30
  -1   5   5  198.98    7.00
   1   5  -5  195.38    6.80
   1   5  -5  192.78    6.70
   1  -5  -5  185.08    7.00
  -1  -5   5  197.78    6.90
  -1  -5   5  188.08    6.90
  -1  -5   5  192.28    7.10
  -1  -5   5  189.68    7.00
   1  -5  -5  189.48   10.30
   1  -5  -5  190.18    6.90
   1  -5  -5  203.38    7.20
   1   5  -4   11.60    2.40
  -1   5   4    6.40    1.60
  -1   5   4    5.80    0.50
   1   5  -4    9.50    1.80
  -1   5   4    5.60    0.50
   1   5  -4    8.30    0.50
   1  -5  -4    6.30    1.80
   1  -5  -4    5.90    0.50
   1  -5  -4    7.50    0.70
   1  -5  -4    5.80    0.60
   1   5  -3   23.40    2.60
  -1   5   3   27.10    1.20
  -1   5   3   27.00    1.20
   1   5  -3   25.90    3.20
  -1   5   3   24.90    2.50
   1  -5  -3   27.60    1.30
  -1  -5   3   24.70    1.20
   1  -5  -3   25.10    1.40
  -1  -5   3   25.90    1.20
   1  -5  -3   25.80    1.20
  -1  -5   3   25.30    1.30
  -1  -5   3   25.60    1.20
  -1  -5   3   26.30    1.30
   1  -5  -3   25.20    2.90
  -1  -5   3   25.70    1.20
  -1   5   2    4.10    1.20
  -1   5   2    3.80    0.30
   1   5  -2    2.90    1.00
   1   5  -2    3.80    1.40
  -1   5   2    3.70    0.30
   1  -5  -2    2.90    1.20
  -1  -5   2    4.10    0.40
  -1  -5   2    4.00    0.40
   1  -5  -2    3.30    0.40
   1  -5  -2    3.40    0.40
   1  -5  -2    3.10    0.50
  -1  -5   2    4.00    0.40
  -1  -5   2    4.60    0.40
  -1  -5   2    3.70    0.40
  -1  -5   2    4.40    0.40
   1   5  -1  221.68    9.70
   1   5  -1  214.78   10.60
  -1   5   1  213.58   10.10
   1  -5  -1  211.38    7.70
  -1  -5   1  216.28    7.60
   1  -5  -1  225.18   10.60
  -1  -5   1  213.88    7.70
  -1  -5   1  225.28    7.70
  -1  -5   1  219.78    7.60
  -1  -5   1  219.88    7.70
   1  -5  -1  212.78    7.60
   1  -5  -1  214.68    7.50
   1  -5  -1  214.78    7.80
  -1   5   0  101.49    6.20
   1   5   0   96.69    5.90
   1   5   0   99.09    5.30
   1  -5   0  112.19    6.40
   1  -5   0  107.19    3.90
   1  -5   0  107.99    3.70
   1  -5   0  108.99    3.90
  -1  -5   0   91.69    3.60
  -1  -5   0   93.69    3.90
   1  -5   0  109.79    3.80
   1  -5   0  107.79    3.70
  -1  -5   0   93.79    3.80
  -1  -5   0   90.69    3.70
  -1  -5   0   95.09    3.70
   1  -5   0  115.79    3.70
  -1  -5   0   98.59    3.90
  -1   5  -1  158.28    7.60
   1   5   1  156.58    7.40
   1   5   1  152.88    5.40
  -1   5  -1  140.69    8.20
   1   5   1  149.19    5.20
  -1  -5  -1  155.68    5.50
   1  -5   1  151.48    5.40
   1  -5   1  148.09    5.40
   1  -5   1  150.88    5.40
   1  -5   1  145.59    5.40
  -1  -5  -1  150.18    5.30
   1  -5   1  149.49    5.50
  -1  -5  -1  155.88    7.60
  -1  -5  -1  149.09    5.50
  -1  -5  -1  153.78    5.50
   1  -5   1  143.19    5.50
   1   5   2  166.28    5.80
   1   5   2  166.78    7.40
  -1   5  -2  163.78    9.10
  -1   5  -2  162.58    8.10
  -1  -5  -2  166.48    6.00
  -1  -5  -2  160.78    5.90
  -1  -5  -2  159.48    5.70
  -1  -5  -2  166.38    5.80
   1  -5   2  164.88    5.80
   1  -5   2  144.49    5.90
   1  -5   2  166.58    5.90
   1  -5   2  170.38    5.80
   1  -5   2  162.08    5.80
  -1  -5  -2  137.69    7.80
   1  -5   2  167.58    5.80
   1   5   3  137.89    6.60
   1   5   3  130.49    4.80
  -1   5  -3  137.19    7.40
  -1   5  -3  141.39    8.50
   1   5   3  138.89    4.90
  -1  -5  -3  134.39    4.80
   1  -5   3  137.59    4.90
  -1  -5  -3  133.59    7.30
  -1  -5  -3  131.69    5.00
  -1  -5  -3  136.89    5.10
   1  -5   3  135.79    5.00
   1  -5   3  128.29    4.90
   1  -5   3  138.89    5.00
   1  -5   3  137.89    5.10
  -1   5  -4    2.20    0.30
   1   5   4    3.00    0.90
  -1   5  -4    0.90    0.80
   1   5   4    2.50    0.40
  -1   5  -4    3.40    1.60
  -1   5  -4    2.00    0.30
  -1  -5  -4    1.10    1.00
   1  -5   4    2.80    0.40
   1  -5   4    2.40    0.30
   1  -5   4    2.60    0.40
   1  -5   4    2.80    0.50
  -1  -5  -4    1.20    0.30
  -1  -5  -4    1.10    0.40
   1   5   5   78.09    3.00
  -1   5  -5   73.29    2.80
   1   5   5   76.29    2.90
  -1   5  -5   76.49    5.60
  -1   5  -5   80.89    6.60
  -1   5  -5   76.09    2.80
   1   5   5   82.49    5.10
   1  -5   5   76.59    3.10
  -1  -5  -5   73.69    2.90
  -1  -5  -5   79.29    5.50
  -1  -5  -5   76.19    3.00
   1  -5   5   73.69    2.90
   1  -5   5   70.99    3.10
   1  -5   5   77.49    2.80
  -1  -5  -5   77.79    3.20
  -1   5  -6    1.40    1.50
   1   5   6    0.10    0.20
   1   5   6    0.20    0.20
  -1   5  -6    0.80    1.00
  -1   5  -6    0.20    0.20
   1   5   6   -0.90    0.50
  -1  -5  -6    0.40    0.30
   1  -5   6    0.10    0.20
   1  -5   6    0.10    0.20
  -1  -5  -6   -0.20    0.20
   1  -5   6    0.50    0.30
  -1  -5  -6    0.20    0.30
  -1  -5  -6   -0.40    0.80
  -1   5  -7    3.90    1.70
   1   5   7    6.10    0.70
  -1   5  -7    4.60    2.10
   1   5   7    5.20    0.50
  -1   5  -7    6.10    0.50
  -1  -5  -7    5.60    0.60
   1  -5   7    6.70    0.70
  -1  -5  -7    5.90    0.60
   1  -5   7    6.20    0.70
  -1  -5  -7    5.90    0.80
  -1   5  -8    2.50    0.40
  -1   5  -8    2.10    0.40
   1   5   8    2.90    0.40
   1   5   8    2.50    0.50
   1  -5   8    2.00    0.50
  -1  -5  -8    3.10    0.60
  -1  -5  -8    2.90    0.70
   1  -5   8    2.90    0.60
   1   6  -8    8.30    0.70
  -1   6   8    7.60    0.80
  -1   6   8    7.40    0.60
   1   6  -8    7.90    0.60
  -1  -6   8    7.80    0.80
   1  -6  -8    8.30    0.90
   1  -6  -8    8.00    0.80
  -1  -6   8    7.30    0.80
   1   6  -7    4.60    1.90
   1   6  -7    5.50    0.50
  -1   6   7    4.50    0.60
  -1   6   7    3.90    0.50
   1   6  -7    5.80    0.60
  -1  -6   7    6.00    0.70
  -1  -6   7    6.50    0.70
   1  -6  -7    4.40    0.70
   1  -6  -7    4.70    0.60
   1  -6  -7    5.40    0.70
  -1   6   6   30.30    1.60
   1   6  -6   34.40    3.80
   1   6  -6   31.60    1.40
  -1   6   6   37.10    3.60
  -1   6   6   30.60    1.40
   1   6  -6   27.40    4.00
   1  -6  -6   34.30    1.80
   1  -6  -6   32.10    4.10
  -1  -6   6   32.20    1.50
  -1  -6   6   33.80    1.70
  -1  -6   6   32.40    1.50
   1  -6  -6   31.40    1.60
   1  -6  -6   32.50    1.60
  -1  -6   6   30.60    1.60
  -1   6   5    0.50    0.20
   1   6  -5    2.30    1.10
  -1   6   5    0.40    0.20
   1   6  -5    0.50    0.20
  -1   6   5    0.20    0.90
   1   6  -5    1.40    1.10
   1   6  -5    0.60    0.20
  -1  -6   5    0.90    0.40
   1  -6  -5   -0.10    0.20
   1  -6  -5    0.30    0.20
  -1  -6   5    1.20    0.30
   1  -6  -5    0.20    1.10
  -1  -6   5    0.90    0.30
  -1  -6   5    0.90    0.30
   1  -6  -5    0.60    0.30
  -1   6   4   40.30    1.80
   1   6  -4   42.00    1.60
   1   6  -4   39.00    4.40
   1   6  -4   36.30    3.70
  -1   6   4   40.50    1.70
  -1   6   4   40.20    3.50
  -1  -6   4   40.60    1.90
   1  -6  -4   40.80    2.00
  -1  -6   4   40.80    1.90
  -1  -6   4   40.60    1.70
  -1  -6   4   40.90    1.80
   1  -6  -4   40.00    1.90
  -1  -6   4   41.30    1.80
   1  -6  -4   39.30    1.70
   1  -6  -4   39.50    4.20
  -1   6   3   34.60    1.60
  -1   6   3   41.10    3.40
   1   6  -3   38.30    3.50
   1   6  -3   42.20    4.30
  -1   6   3   35.20    1.60
  -1  -6   3   38.70    1.80
  -1  -6   3   39.10    1.70
  -1  -6   3   38.60    1.80
  -1  -6   3   40.00    1.80
  -1  -6   3   40.90    1.60
   1  -6  -3   32.10    1.80
  -1  -6   3   43.60    1.80
   1  -6  -3   35.80    3.80
   1  -6  -3   32.50    1.70
   1  -6  -3   35.30    1.60
   1   6  -2  200.18   10.90
  -1   6   2  207.48    7.10
  -1   6   2  196.98    7.10
   1   6  -2  197.88    9.70
  -1   6   2  199.08    9.80
   1  -6  -2  206.88   10.60
   1  -6  -2  199.58    7.10
  -1  -6   2  194.38    7.30
  -1  -6   2  207.08    7.10
  -1  -6   2  199.48    7.20
  -1  -6   2  204.68    7.20
  -1  -6   2  202.28    7.30
   1  -6  -2  195.58    7.30
  -1  -6   2  205.08    7.20
   1  -6  -2  211.48    7.40
  -1   6   1   29.00    1.20
   1   6  -1   30.00    2.80
  -1   6   1   26.10    2.90
   1   6  -1   25.50    3.10
  -1  -6   1   26.20    1.20
   1  -6  -1   28.00    1.20
   1  -6  -1   27.20    1.10
  -1  -6   1   25.90    1.30
  -1  -6   1   25.30    1.40
  -1  -6   1   24.90    1.30
   1  -6  -1   30.70    3.30
   1  -6  -1   27.90    1.40
  -1  -6   1   24.90    1.40
   1  -6  -1   28.50    1.40
  -1  -6   1   26.00    1.30
   1   6   0   92.49    6.20
  -1   6   0   89.89    6.30
   1   6   0   94.09    5.30
  -1  -6   0   93.29    3.60
   1  -6   0   87.69    6.10
   1  -6   0   90.49    3.40
   1  -6   0   84.79    3.60
  -1  -6   0   88.29    3.40
   1  -6   0   90.99    3.40
   1  -6   0   91.99    3.40
   1  -6   0   88.49    3.60
  -1  -6   0   92.79    3.30
  -1  -6   0   90.39    3.30
  -1  -6   0   92.79    3.60
  -1   6  -1    3.60    1.50
   1   6   1    3.20    0.30
   1   6   1    4.10    0.40
  -1   6  -1    2.30    1.00
   1   6   1    3.90    1.30
   1  -6   1    2.10    0.40
  -1  -6  -1    3.40    0.30
   1  -6   1    3.50    0.40
   1  -6   1    3.50    0.40
  -1  -6  -1    3.00    0.50
  -1  -6  -1    3.00    1.10
   1  -6   1    3.90    0.40
   1  -6   1    3.10    0.50
   1  -6   1    3.10    0.40
  -1  -6  -1    2.00    0.40
  -1  -6  -1    3.90    0.40
  -1   6  -2   93.19    5.90
   1   6   2   96.49    5.40
   1   6   2   93.99    3.60
  -1   6  -2  102.29    7.10
   1  -6   2   96.69    3.60
   1  -6   2   95.19    3.60
  -1  -6  -2   90.39    3.60
  -1  -6  -2   95.89    3.80
   1  -6   2   94.99    3.60
  -1  -6  -2   93.19    3.50
  -1  -6  -2   96.49    3.80
   1  -6   2   98.59    3.70
   1  -6   2   95.19    3.70
  -1  -6  -2  100.39    6.10
   1  -6   2  100.39    3.80
  -1   6  -3   23.80    3.40
   1   6   3   22.20    1.20
   1   6   3   22.20    1.10
   1   6   3   21.60    2.30
  -1   6  -3   22.50    2.70
  -1  -6  -3   22.10    1.10
  -1  -6  -3   20.90    1.20
  -1  -6  -3   22.10    2.80
   1  -6   3   25.20    1.30
   1  -6   3   26.10    1.20
   1  -6   3   25.90    1.20
   1  -6   3   26.30    1.20
   1  -6   3   26.70    1.30
  -1  -6  -3   22.70    1.40
  -1   6  -4   50.19    2.00
  -1   6  -4   51.59    2.00
  -1   6  -4   54.49    4.50
  -1   6  -4   51.69    5.10
   1   6   4   53.39    2.20
   1   6   4   51.99    2.10
   1   6   4   54.09    4.00
   1  -6   4   49.60    2.20
   1  -6   4   48.90    2.30
   1  -6   4   49.70    2.10
  -1  -6  -4   50.99    2.20
  -1  -6  -4   52.39    2.10
   1  -6   4   51.19    2.10
  -1  -6  -4   51.89    2.40
  -1  -6  -4   59.09    4.80
   1   6   5    1.80    1.00
   1   6   5    1.20    0.30
  -1   6  -5    1.20    0.30
   1   6   5    1.70    0.40
  -1   6  -5    0.30    1.10
  -1   6  -5    1.50    0.30
  -1   6  -5    1.30    0.90
   1  -6   5    1.40    0.30
  -1  -6  -5    1.60    0.50
  -1  -6  -5    1.60    0.40
   1  -6   5    1.10    0.40
  -1  -6  -5    1.90    0.30
   1  -6   5    1.20    0.30
   1  -6   5    0.60    0.30
  -1  -6  -5    1.10    1.10
  -1   6  -6   27.60    3.50
  -1   6  -6   29.20    1.30
   1   6   6   30.00    1.40
   1   6   6   28.90    1.50
  -1   6  -6   33.60    4.30
   1  -6   6   30.40    1.60
   1  -6   6   29.80    1.40
  -1  -6  -6   28.00    1.70
  -1  -6  -6   29.10    1.50
  -1  -6  -6   28.40    1.40
   1  -6   6   29.20    1.60
   1   6   7    0.20    0.30
   1   6   7   -0.10    0.20
  -1   6  -7    0.00    0.20
  -1  -6  -7    0.70    0.40
   1  -6   7    0.40    0.30
  -1  -6  -7    0.20    0.30
   1  -6   7    0.30    0.40
   1   6   8   12.40    1.00
   1   6   8   12.40    0.80
  -1   6  -8   11.60    0.80
  -1   6  -8   12.00    0.80
  -1  -6  -8   12.10    1.10
  -1  -6  -8   10.80    0.90
   1  -6   8   11.80    1.00
   1  -6   8   12.50    1.00
  -1   7   7   26.00    1.30
  -1   7   7   26.40    1.50
   1   7  -7   26.50    1.30
   1   7  -7   25.10    1.20
   1  -7  -7   24.40    1.50
  -1  -7   7   26.50    1.50
  -1  -7   7   24.40    1.50
   1  -7  -7   25.60    1.60
   1   7  -6    1.60    1.30
   1   7  -6    1.80    0.30
   1   7  -6    2.60    2.40
  -1   7   6    1.30    0.30
  -1   7   6    1.50    0.40
  -1  -7   6    1.80    0.40
  -1  -7   6    2.50    0.50
   1  -7  -6    0.70    0.40
  -1  -7   6    2.70    0.50
   1  -7  -6    1.90    0.60
   1  -7  -6    1.50    0.40
   1   7  -5    8.50    0.60
  -1   7   5    9.30    0.60
  -1   7   5    9.70    0.70
   1   7  -5    8.10    2.40
   1   7  -5    6.30    1.90
   1   7  -5    8.20    0.60
  -1   7   5    6.40    1.90
   1  -7  -5    8.50    2.70
   1  -7  -5    8.00    0.80
  -1  -7   5    9.30    0.80
  -1  -7   5    9.50    0.70
  -1  -7   5    8.90    0.80
   1  -7  -5    9.40    0.80
  -1  -7   5    8.60    0.60
   1  -7  -5    7.60    0.70
  -1   7   4    4.80    0.50
  -1   7   4    4.40    0.50
  -1   7   4    5.60    1.60
   1   7  -4    4.10    1.60
   1   7  -4    5.60    2.10
   1  -7  -4    4.20    0.50
  -1  -7   4    5.70    0.60
   1  -7  -4    5.20    2.00
  -1  -7   4    5.50    0.60
  -1  -7   4    4.80    0.50
  -1  -7   4    4.30    0.60
   1  -7  -4    4.10    0.60
  -1  -7   4    5.30    0.50
  -1   7   3   32.40    3.30
   1   7  -3   28.60    3.10
  -1   7   3   26.90    1.30
   1   7  -3   25.90    3.60
  -1   7   3   26.50    1.20
  -1  -7   3   25.90    1.40
  -1  -7   3   25.30    1.40
  -1  -7   3   26.40    1.30
   1  -7  -3   25.60    3.50
  -1  -7   3   25.30    1.40
  -1  -7   3   26.40    1.30
  -1  -7   3   25.40    1.40
   1  -7  -3   27.10    1.50
   1  -7  -3   26.30    1.50
   1  -7  -3   27.20    1.30
   1   7  -2    3.70    1.60
  -1   7   2    3.30    1.40
   1   7  -2    2.80    1.30
  -1   7   2    4.70    0.50
  -1   7   2    4.30    0.40
  -1  -7   2    3.30    0.50
   1  -7  -2    4.20    0.40
  -1  -7   2    3.50    0.40
   1  -7  -2    3.40    0.60
  -1  -7   2    3.40    0.60
   1  -7  -2    4.00    0.60
   1  -7  -2    6.40    1.70
  -1  -7   2    3.80    0.50
  -1  -7   2    4.00    0.50
  -1   7   1   13.60    2.30
   1   7  -1   13.90    2.00
  -1   7   1   15.20    0.80
  -1   7   1   15.50    0.80
   1   7  -1   16.90    2.80
  -1  -7   1   15.60    0.90
   1  -7  -1   13.60    1.00
   1  -7  -1   13.70    1.00
   1  -7  -1   15.60    0.90
   1  -7  -1   15.40    2.60
  -1  -7   1   15.60    0.80
  -1  -7   1   17.10    1.10
  -1  -7   1   15.60    0.90
  -1  -7   1   16.10    1.10
  -1  -7   1   15.60    0.90
   1   7   0    9.30    0.60
   1   7   0    7.70    2.10
  -1   7   0    9.60    0.60
  -1   7   0   10.20    1.70
  -1   7   0    6.60    2.10
   1   7   0    7.90    1.50
   1  -7   0    9.30    0.80
   1  -7   0    9.30    0.60
   1  -7   0    9.40    0.70
  -1  -7   0    8.50    0.80
  -1  -7   0    9.10    0.80
   1  -7   0    9.00    0.60
  -1  -7   0    9.60    0.60
   1  -7   0   10.10    0.80
  -1  -7   0    8.60    0.70
  -1  -7   0    9.10    0.60
  -1   7  -1   64.79    4.90
   1   7   1   70.29    2.70
   1   7   1   69.69    2.60
  -1   7  -1   73.39    6.00
   1   7   1   71.79    5.10
   1  -7   1   69.69    2.80
   1  -7   1   69.99    3.00
   1  -7   1   66.29    2.80
  -1  -7  -1   69.79    2.90
   1  -7   1   67.39    3.00
  -1  -7  -1   70.29    2.80
   1  -7   1   68.39    2.80
   1  -7   1   69.79    2.70
  -1  -7  -1   65.99    2.90
  -1  -7  -1   72.49    2.70
   1   7   2   37.00    1.70
  -1   7  -2   44.60    3.90
   1   7   2   34.00    3.20
  -1   7  -2   45.00    4.80
   1  -7   2   45.00    1.80
  -1  -7  -2   32.90    3.60
   1  -7   2   45.50    1.90
  -1  -7  -2   36.20    2.00
  -1  -7  -2   36.00    1.70
   1  -7   2   45.20    1.80
   1  -7   2   44.30    2.00
   1  -7   2   44.80    1.90
   1  -7   2   41.00    2.00
  -1  -7  -2   37.00    1.90
   1   7   3  110.79    6.30
  -1   7  -3  110.49    8.10
   1   7   3  111.59    4.10
   1   7   3  114.99    4.20
  -1   7  -3  102.49    6.80
   1  -7   3  113.79    4.30
   1  -7   3  110.59    4.20
  -1  -7  -3  108.59    4.40
   1  -7   3  110.49    4.20
  -1  -7  -3  110.79    4.10
   1  -7   3  111.79    4.30
   1  -7   3  107.79    4.10
   1  -7   3  104.29    4.30
  -1  -7  -3  113.89    4.40
  -1  -7  -3  115.69    7.20
  -1   7  -4    1.50    1.10
   1   7   4    1.20    0.30
  -1   7  -4    1.80    0.30
  -1   7  -4    2.10    1.40
   1   7   4    2.00    1.10
   1   7   4    1.50    0.30
  -1  -7  -4    1.90    1.70
  -1  -7  -4    1.10    0.40
   1  -7   4    1.40    0.30
   1  -7   4    1.70    0.40
  -1  -7  -4    1.20    0.30
   1  -7   4    1.50    0.40
  -1  -7  -4    0.30    0.30
   1  -7   4    1.80    0.40
  -1   7  -5   22.70    3.20
  -1   7  -5   24.60    1.20
   1   7   5   27.10    1.40
   1   7   5   25.50    1.30
  -1   7  -5   25.80    4.00
  -1   7  -5   23.40    1.10
   1  -7   5   28.70    1.50
   1  -7   5   25.50    1.30
  -1  -7  -5   26.20    1.40
   1  -7   5   26.70    1.50
  -1  -7  -5   25.30    1.50
   1   7   6    0.80    0.30
  -1   7  -6    2.90    1.70
   1   7   6    0.40    0.30
  -1   7  -6    0.40    0.30
  -1  -7  -6    0.70    0.40
   1  -7   6    1.20    0.40
   1  -7   6    0.50    0.30
  -1  -7  -6    1.00    0.50
   1  -7   6    0.80    0.40
   1   7   7   18.00    1.10
   1   7   7   17.90    1.00
  -1   7  -7   17.20    0.90
   1  -7   7   16.30    1.00
  -1  -7  -7   18.20    1.30
   1  -7   7   16.90    1.20
  -1  -7  -7   17.10    1.20
   1  -7   7   15.80    1.20
  -1   8   6   12.60    0.80
  -1   8   6   11.70    0.90
   1   8  -6   12.70    0.80
  -1  -8   6   12.40    0.90
   1  -8  -6   11.50    1.10
  -1  -8   6   13.10    1.00
   1  -8  -6   13.40    1.10
  -1  -8   6   13.10    1.00
   1   8  -5    1.00    1.70
  -1   8   5    0.70    0.30
   1   8  -5    0.60    0.30
  -1   8   5    0.70    0.30
   1   8  -5   -1.10    1.30
  -1  -8   5    1.10    0.40
   1  -8  -5    0.10    0.30
  -1  -8   5    1.00    0.40
   1  -8  -5    0.50    0.40
  -1  -8   5    0.70    0.40
  -1  -8   5    0.80    0.30
   1   8  -4   16.20    3.30
  -1   8   4   18.00    1.00
   1   8  -4   14.80    2.80
  -1   8   4   16.90    1.00
  -1  -8   4   16.40    1.10
   1  -8  -4   16.70    1.20
  -1  -8   4   17.90    1.00
   1  -8  -4   15.50    1.20
  -1  -8   4   19.00    1.20
   1  -8  -4   17.10    1.00
  -1  -8   4   17.50    1.20
  -1  -8   4   18.00    1.10
  -1  -8   4   15.80    1.10
  -1   8   3    1.70    1.40
  -1   8   3    0.70    0.30
   1   8  -3    4.00    1.80
  -1   8   3    0.90    0.30
   1   8  -3    1.90    1.10
  -1  -8   3    1.30    0.40
  -1  -8   3    1.20    0.40
   1  -8  -3    0.60    1.30
  -1  -8   3    1.60    0.50
   1  -8  -3    0.80    0.40
   1  -8  -3    0.90    0.30
  -1  -8   3    1.30    0.40
  -1  -8   3    1.10    0.30
   1  -8  -3    0.60    0.40
  -1  -8   3    1.80    0.40
   1   8  -2   23.50    2.90
  -1   8   2   19.60    2.90
  -1   8   2   23.30    1.10
  -1   8   2   23.40    1.20
   1   8  -2   22.90    3.70
  -1  -8   2   22.40    1.20
  -1  -8   2   24.00    1.30
   1  -8  -2   23.50    1.40
  -1  -8   2   23.10    1.30
   1  -8  -2   21.80    1.40
  -1  -8   2   21.70    1.40
   1  -8  -2   20.70    3.20
   1  -8  -2   22.50    1.20
  -1  -8   2   22.50    1.30
  -1  -8   2   22.50    1.40
  -1   8   1    6.30    0.50
   1   8  -1    3.80    1.50
   1   8  -1    3.50    1.70
  -1   8   1    6.60    0.50
  -1   8   1    4.80    1.90
   1  -8  -1    7.00    0.80
   1  -8  -1    6.30    0.70
  -1  -8   1    4.30    0.70
  -1  -8   1    4.90    0.50
   1  -8  -1    6.70    0.60
  -1  -8   1    4.30    0.50
  -1  -8   1    4.70    0.50
  -1  -8   1    4.50    0.70
  -1  -8   1    4.90    0.60
  -1   8   0   25.90    3.60
  -1   8   0   28.90    1.40
   1   8   0   24.30    3.30
   1   8   0   30.50    1.40
   1   8   0   32.00    3.20
  -1   8   0   27.90    3.10
  -1  -8   0   26.70    1.60
   1  -8   0   26.80    1.60
   1  -8   0   28.40    1.30
  -1  -8   0   29.20    1.40
   1  -8   0   29.90    1.40
  -1  -8   0   26.90    1.40
   1  -8   0   28.50    1.60
  -1  -8   0   28.60    1.60
   1   8   1   -0.30    0.70
   1   8   1   -0.90    0.60
  -1   8  -1   -0.20    0.60
  -1   8  -1   -1.80    1.10
   1   8   1    0.50    0.30
   1  -8   1    0.60    0.30
  -1  -8  -1    0.60    0.40
   1  -8   1    0.50    0.40
  -1  -8  -1    0.30    0.30
   1  -8   1    0.50    0.40
  -1  -8  -1    0.30    0.20
   1  -8   1    0.30    0.20
   1  -8   1    0.70    0.30
  -1  -8  -1    0.50    0.30
   1   8   2   17.10    2.40
  -1   8  -2   14.90    3.70
   1   8   2   18.40    0.90
   1   8   2   17.80    1.00
  -1   8  -2   16.90    2.60
   1  -8   2   16.20    1.00
   1  -8   2   19.10    1.20
   1  -8   2   16.20    1.10
   1  -8   2   16.30    1.00
  -1  -8  -2   18.70    1.00
   1  -8   2   17.50    1.00
   1  -8   2   16.50    1.20
  -1  -8  -2   17.60    1.20
  -1  -8  -2   16.10    1.20
   1   8   3    0.90    0.30
  -1   8  -3    2.20    1.30
   1   8   3    1.10    0.30
  -1  -8  -3    0.70    0.40
   1  -8   3    1.60    0.40
  -1  -8  -3    0.80    0.40
   1  -8   3    1.60    0.50
   1  -8   3    1.80    0.40
   1  -8   3    1.40    0.40
   1  -8   3    1.50    0.40
   1  -8   3    0.80    0.40
   1   8   4   20.40    1.20
  -1   8  -4   19.40    3.80
  -1   8  -4   22.10    1.10
  -1   8  -4   23.00    3.20
   1   8   4   22.20    1.10
   1  -8   4   23.00    1.20
   1  -8   4   21.60    1.30
   1  -8   4   20.10    1.20
  -1  -8  -4   23.30    1.40
   1  -8   4   21.60    1.40
   1  -8   4   23.70    1.40
  -1  -8  -4   22.50    1.40
  -1   8  -5   -2.10    1.00
   1   8   5    0.30    0.30
  -1   8  -5    0.00    0.20
   1   8   5    0.30    0.20
   1  -8   5   -0.10    0.30
   1  -8   5    0.40    0.30
  -1  -8  -5    0.20    0.30
   1  -8   5    0.40    0.30
  -1  -8  -5    0.30    0.40
   1   8   6   14.40    0.90
  -1   8  -6   14.30    0.80
   1   8   6   13.50    1.00
  -1  -8  -6   13.20    1.10
  -1  -8  -6   13.00    1.10
   1  -8   6   14.40    0.90
   1  -8   6   11.20    1.00
   1  -8   6   13.20    1.10
   1   9  -5   11.20    0.80
  -1   9   5   11.30    0.90
  -1   9   5   12.30    0.80
  -1  -9   5   12.70    0.90
   1  -9  -5   12.10    1.10
  -1  -9   5   11.30    1.00
   1  -9  -5   12.10    1.10
  -1  -9   5   12.10    1.00
  -1   9   4    1.60    0.40
   1   9  -4    2.00    2.20
   1   9  -4    2.60    2.00
  -1   9   4    0.90    0.30
  -1  -9   4    2.00    0.50
  -1  -9   4    1.70    0.60
  -1  -9   4    2.60    0.60
  -1  -9   4    2.30    0.50
  -1  -9   4    1.50    0.40
   1  -9  -4    1.20    0.50
   1  -9  -4    1.80    0.60
   1   9  -3    3.70    1.90
  -1   9   3    3.60    0.50
   1   9  -3    4.10    1.80
  -1   9   3    3.30    0.50
  -1  -9   3    2.80    0.50
  -1  -9   3    3.40    0.60
   1  -9  -3    3.40    0.70
  -1  -9   3    4.00    0.60
  -1  -9   3    3.40    0.60
   1  -9  -3    3.10    0.70
  -1  -9   3    3.10    0.70
  -1  -9   3    4.00    0.60
   1   9  -2    1.20    1.50
  -1   9   2    0.00    0.20
  -1   9   2    0.20    0.20
   1   9  -2   -0.50    0.70
   1  -9  -2   -0.40    0.20
  -1  -9   2    0.30    0.40
  -1  -9   2    0.10    0.30
  -1  -9   2    0.20    0.30
  -1  -9   2    0.10    0.20
   1  -9  -2    0.10    0.30
  -1  -9   2    0.20    0.30
   1  -9  -2    0.00    0.30
  -1  -9   2    0.10    0.20
  -1   9   1    6.60    2.00
   1   9  -1    4.20    1.70
   1   9  -1    1.60    1.90
  -1   9   1    2.30    1.80
   1   9  -1    5.30    0.60
  -1   9   1    5.20    0.50
  -1   9   1    5.20    0.50
  -1  -9   1    5.00    0.50
  -1  -9   1    4.70    0.50
   1  -9  -1    4.70    0.70
  -1  -9   1    4.60    0.70
  -1  -9   1    5.00    0.60
   1  -9  -1    4.50    0.50
  -1  -9   1    3.80    0.70
   1  -9  -1    4.30    0.70
  -1   9   0    0.40    1.00
  -1   9   0    0.50    0.30
   1   9   0   -1.80    1.20
  -1   9   0    0.70    0.30
   1   9   0    0.00    0.80
   1   9   0    0.20    0.20
  -1   9   0    1.20    0.90
   1   9   0    0.70    0.30
   1  -9   0    0.50    0.40
   1  -9   0    0.40    0.30
  -1  -9   0    0.20    0.30
  -1  -9   0    0.30    0.20
  -1  -9   0    0.60    0.30
   1  -9   0    0.50    0.40
  -1  -9   0    0.20    0.40
  -1   9  -1   26.40    1.40
  -1   9  -1   28.20    3.40
  -1   9  -1   27.10    1.30
   1   9   1   28.20    1.30
   1   9   1   27.20    1.40
  -1   9  -1   19.80    4.40
   1  -9   1   25.90    1.60
  -1  -9  -1   27.90    1.60
   1  -9   1   26.90    1.40
   1  -9   1   27.30    1.60
  -1  -9  -1   27.10    1.30
   1  -9   1   26.10    1.40
  -1  -9  -1   25.70    1.60
  -1   9  -2    0.80    0.90
   1   9   2    1.80    0.40
  -1   9  -2    2.50    1.60
   1   9   2    1.50    0.40
   1  -9   2    2.40    0.60
   1  -9   2    1.80    0.50
   1  -9   2    1.70    0.40
   1  -9   2    2.10    0.40
  -1  -9  -2    1.70    0.50
   1  -9   2    1.90    0.50
  -1  -9  -2    2.50    0.60
  -1   9  -3   11.00    3.20
   1   9   3   14.70    1.00
  -1   9  -3   10.20    2.50
   1   9   3   14.80    0.90
  -1  -9  -3   15.30    1.20
  -1  -9  -3   15.40    1.20
   1  -9   3   15.90    1.00
   1  -9   3   16.40    1.10
   1  -9   3   14.90    1.10
   1  -9   3   16.20    1.20
   1   9   4    0.40    0.30
   1   9   4    0.60    0.30
  -1   9  -4    0.60    0.30
  -1   9  -4   -0.50    1.40
  -1  -9  -4    0.00    0.40
   1  -9   4   -0.10    0.40
   1  -9   4    0.90    0.40
   1  -9   4    0.70    0.40
  -1  -9  -4    0.10    0.30
   1  -9   4    0.50    0.30
  -1   9  -5   21.30    1.10
   1   9   5   20.70    1.30
   1   9   5   20.90    1.10
   1  -9   5   20.70    1.40
  -1  -9  -5   21.20    1.40
  -1  -9  -5   22.30    1.50
   1  -9   5   22.10    1.40
   1  -9   5   22.90    1.20
  -1  10   3    0.30    0.30
  -1  10   3   -0.10    0.20
  -1 -10   3    0.20    0.30
  -1 -10   3   -0.20    0.20
   1 -10  -3    0.40    0.40
   1 -10  -3    0.00    0.30
  -1 -10   3    0.30    0.40
  -1 -10   3    0.40    0.30
  -1 -10   3    0.60    0.40
  -1 -10   3   -0.20    0.20
  -1  10   2    2.20    0.40
  -1  10   2    1.30    0.40
   1  10  -2    2.30    0.50
  -1 -10   2    1.90    0.50
   1 -10  -2    1.60    0.50
   1 -10  -2    1.70    0.60
  -1 -10   2    0.80    0.50
  -1 -10   2    2.10    0.40
  -1 -10   2    1.70    0.60
  -1 -10   2    1.60    0.50
  -1  10   1    0.30    0.30
  -1  10   1    0.40    0.30
   1  10  -1    0.30    0.30
   1  10  -1    0.20    0.30
   1 -10  -1    0.10    0.30
   1 -10  -1    0.50    0.50
  -1 -10   1    0.70    0.50
  -1 -10   1   -0.30    0.30
  -1 -10   1    0.40    0.30
   1 -10  -1    0.10    0.40
  -1  10   0   11.60    0.80
   1  10   0   11.70    0.80
  -1  10   0   13.30    0.90
   1  10   0   13.20    1.00
   1 -10   0   11.60    1.10
   1 -10   0   11.70    1.10
   1 -10   0   12.30    0.90
  -1 -10   0   12.10    1.10
  -1 -10   0   11.50    1.10
   1  10   1    0.10    0.30
   1  10   1    0.40    0.30
  -1  10  -1    0.00    0.20
  -1  10  -1    0.00    0.20
  -1 -10  -1    0.00    0.30
   1 -10   1    0.20    0.30
   1 -10   1   -0.40    0.30
  -1 -10  -1    0.10    0.40
   1 -10   1    0.00    0.40
  -1  10  -2    4.10    0.50
  -1  10  -2    3.90    0.60
   1  10   2    4.70    0.60
   1  10   2    3.90    0.50
   1 -10   2    4.40    0.60
   1 -10   2    4.30    0.80
  -1 -10  -2    3.90    0.80
   1 -10   2    3.90    0.50
  -1 -10  -2    4.40    0.70
   1 -10   2    2.70    0.60
   1  10   3    0.50    0.30
  -1  10  -3    0.50    0.30
  -1  10  -3    0.00    0.20
   1  10   3    0.10    0.30
   1 -10   3    0.50    0.40
  -1 -10  -3   -0.10    0.40
  -1 -10  -3    0.30    0.40
   1 -10   3    0.60    0.50
   1 -10   3    0.60    0.30
   2   0 -10    4.40    0.50
  -2   0  10    4.40    0.70
  -2   0  10    4.10    0.60
   2   0 -10    4.50    0.50
  -2   0   9    0.30    0.30
   2   0  -9    0.20    0.20
  -2   0   9   -0.70    1.00
   2   0  -9    0.30    0.30
  -2   0   9    0.40    0.30
   2   0  -9    1.60    1.20
  -2   0   9    0.40    0.30
   2   0  -8   56.09    2.20
   2   0  -8   44.90    4.50
  -2   0   8   52.99    2.20
  -2   0   8   56.09    4.80
  -2   0   8   55.29    2.40
   2   0  -8   56.49    2.20
  -2   0   8   52.09    2.40
  -2   0   7    0.80    1.00
  -2   0   7    0.10    0.20
  -2   0   7    0.00    0.20
   2   0  -7    0.10    0.60
  -2   0   7    0.20    0.30
   2   0  -7    0.10    0.20
   2   0  -7    0.10    0.20
   2   0  -6   34.20    1.40
   2   0  -6   31.70    3.20
  -2   0   6   33.70    1.60
  -2   0   6   32.40    3.20
   2   0  -6   34.30    1.40
  -2   0   6   33.90    1.60
  -2   0   6   35.70    1.40
  -2   0   5    1.70    0.30
  -2   0   5    1.50    0.20
   2   0  -5    1.80    0.30
  -2   0   5    1.60    0.30
   2   0  -5    1.40    0.20
  -2   0   5    1.20    0.70
   2   0  -5    0.60    0.60
  -2   0   4 3082.09  106.19
  -2   0   3   -0.30    0.20
  -2   0   3    0.00    0.10
   2   0  -3    0.00    0.10
   2   0  -3    0.20    0.30
  -2   0   3    0.10    0.10
  -2   0   3    0.10    0.10
   2   0  -3    0.10    0.10
  -2   0   2   18.80    0.80
  -2   0   2   20.30    0.80
  -2   0   2   20.60    1.60
   2   0  -2   18.90    0.70
  -2   0   2   19.40    0.70
   2   0  -2   20.80    0.80
  -2   0   1    1.10    0.10
   2   0  -1    1.10    0.10
  -2   0   1    1.20    0.10
   2   0  -1    1.20    0.10
   2   0  -1    1.10    0.10
  -2   0   1    1.30    0.10
  -2   0   1    1.00    0.40
   2   0  -1    1.00    0.40
  -2   0   1    1.20    0.10
  -2   0   1    1.20    0.10
   2   0  -1    1.20    0.10
   2   0  -1    1.20    0.10
  -2   0   1    1.00    0.10
   2   0  -1    1.10    0.10
  -2   0   0 3278.77  132.59
  -2   0   0 2835.72  125.19
   2   0   0 2576.74  122.59
   2   0   0 3201.28  131.09
   2   0   1    0.90    0.10
   2   0   1    0.90    0.10
  -2   0  -1    0.80    0.10
  -2   0  -1    0.90    0.10
   2   0   1    0.80    0.10
  -2   0  -1    0.80    0.10
   2   0   1    0.80    0.10
  -2   0  -1    1.00    0.10
  -2   0  -1    0.90    0.10
  -2   0  -1    0.80    0.30
   2   0   1    0.50    0.20
   2   0   1    0.70    0.10
  -2   0  -1    0.70    0.10
   2   0   2 1960.50   66.99
  -2   0  -2 1946.41   66.99
   2   0   3    0.60    0.40
  -2   0  -3    0.20    0.10
   2   0   3    0.20    0.10
  -2   0  -3    0.20    0.40
   2   0   3    0.30    0.10
  -2   0  -3    0.10    0.10
   2   0   3    0.10    0.10
   2   0   3    0.20    0.10
  -2   0  -4  517.95   17.40
  -2   0  -4  513.35   19.80
   2   0   4  508.25   19.60
   2   0   5    1.70    0.30
   2   0   5    1.40    0.20
   2   0   5    0.90    0.70
  -2   0  -5    1.70    0.20
   2   0   5    1.30    0.30
  -2   0  -5    1.40    0.20
  -2   0  -5    1.10    0.20
  -2   0  -5    1.50    0.90
  -2   0  -6   10.20    0.60
   2   0   6   11.00    0.50
  -2   0  -6   11.90    2.00
   2   0   6    9.80    0.70
  -2   0  -6    9.80    0.60
   2   0   6   12.30    1.90
  -2   0  -6   10.80    0.60
   2   0   6    9.20    0.70
  -2   0  -7    0.40    0.20
   2   0   7    0.20    0.20
   2   0   7    0.30    0.30
  -2   0  -7    1.20    1.00
   2   0   7    0.10    0.70
  -2   0  -7    0.40    0.20
  -2   0  -7    0.10    0.20
   2   0   7    0.00    0.20
  -2   0  -8   63.69    2.50
   2   0   8   61.99    2.70
   2   0   8   62.69    5.10
   2   0   8   62.19    2.70
   2   0   8   61.09    2.40
  -2   0  -8   62.19    2.50
  -2   0  -9    0.10    0.20
   2   0   9    0.00    0.30
   2   0   9    0.70    1.00
  -2   0  -9    0.40    1.00
   2   0   9    0.10    0.30
  -2   0  -9    0.00    0.20
   2   1 -10    0.50    0.30
  -2   1  10    0.30    0.20
  -2   1  10    0.10    0.30
  -2   1  10    0.00    0.30
   2   1 -10    0.40    0.30
  -2  -1  10    0.70    0.40
   2  -1 -10    0.10    0.20
  -2  -1  10    0.60    0.30
   2  -1 -10    0.20    0.30
  -2   1   9   20.80    1.30
  -2   1   9   20.80    1.10
   2   1  -9   19.30    1.00
   2   1  -9   24.10    3.40
  -2   1   9   19.80    1.20
   2   1  -9   19.40    1.10
  -2   1   9   15.80    3.30
  -2  -1   9   14.30    2.90
   2  -1  -9   18.90    1.00
  -2  -1   9   18.70    1.00
  -2  -1   9   18.20    1.20
   2  -1  -9   19.30    1.10
  -2  -1   9   19.80    1.20
   2   1  -8    1.00    0.30
   2   1  -8    0.90    0.30
   2   1  -8    1.60    1.00
  -2   1   8    1.30    0.40
  -2   1   8    1.60    0.30
  -2   1   8    2.60    1.30
  -2   1   8    1.60    0.40
  -2  -1   8    2.20    0.50
   2  -1  -8    1.70    0.40
  -2  -1   8    1.50    0.30
  -2  -1   8    1.50    0.40
   2  -1  -8    2.10    1.20
   2  -1  -8    1.80    0.40
  -2  -1   8    0.70    0.90
  -2   1   7  120.09    4.60
  -2   1   7  126.59    4.40
  -2   1   7  119.29    7.30
   2   1  -7  129.49    7.50
  -2   1   7  118.99    4.60
   2   1  -7  108.89    4.40
   2   1  -7  122.59    4.40
   2  -1  -7  121.99    4.40
  -2  -1   7  117.49    4.60
  -2  -1   7  115.39    7.30
   2  -1  -7  123.99    7.50
  -2  -1   7  124.29    4.40
  -2  -1   7  122.99    4.60
   2  -1  -7  126.99    4.40
  -2   1   6    3.50    0.40
  -2   1   6    4.30    0.40
   2   1  -6    4.20    1.50
  -2   1   6    5.10    1.60
  -2   1   6    4.10    0.50
   2   1  -6    5.20    0.40
   2   1  -6    5.20    0.40
  -2  -1   6    5.20    1.50
   2  -1  -6    4.90    0.40
  -2  -1   6    5.00    0.50
   2  -1  -6    4.60    0.40
   2  -1  -6    4.30    0.40
  -2  -1   6    5.30    0.50
   2  -1  -6    4.00    1.30
  -2  -1   6    5.30    0.40
   2   1  -5  408.46   14.30
  -2   1   5  414.66   16.90
   2   1  -5  417.46   17.20
  -2   1   5  433.06   14.40
  -2  -1   5  401.96   14.40
   2  -1  -5  414.76   17.00
   2  -1  -5  418.26   14.30
  -2  -1   5  418.26   17.10
   2  -1  -5  426.96   14.30
  -2   1   4    8.40    0.40
   2   1  -4    7.00    0.40
  -2   1   4    7.90    0.50
  -2   1   4    8.30    0.50
   2   1  -4    8.10    0.50
  -2   1   4   11.30    1.50
   2   1  -4    8.60    1.40
  -2  -1   4   11.20    1.60
   2  -1  -4    8.00    1.30
  -2  -1   4    8.80    0.50
   2  -1  -4    9.50    0.50
   2  -1  -4    9.40    0.50
   2  -1  -4    6.90    0.50
  -2  -1   4   10.30    0.60
   2   1  -3  947.71   34.10
  -2   1   3  954.70   34.00
  -2  -1   3  953.80   34.10
   2  -1  -3  952.40   34.00
  -2   1   2  231.48    8.90
   2   1  -2  228.48    8.90
  -2   1   2  211.98    7.50
  -2  -1   2  228.68    9.00
   2  -1  -2  223.68    7.60
   2  -1  -2  211.28    7.60
   2  -1  -2  233.78    9.00
   2  -1  -2  219.28    7.60
   2  -1  -2  216.68    7.60
   2   1  -1 4463.15  172.18
   2   1  -1 4339.07  172.78
  -2   1   1 4197.98  188.58
  -2   1   1 4401.16  189.28
  -2  -1   1 4305.57  172.78
  -2  -1   1 4046.90  169.18
   2  -1  -1 3732.53  184.78
   2  -1  -1 3622.74  205.78
  -2   1   0   41.70    1.50
   2   1   0   36.00    1.40
   2   1   0   37.50    1.40
  -2   1   0   47.40    2.50
  -2   1   0   42.60    1.40
   2   1   0   37.00    1.40
   2   1   0   37.10    1.40
  -2   1   0   43.10    1.50
   2   1   0   38.80    1.60
  -2   1   0   42.80    1.40
  -2   1   0   43.30    1.50
  -2   1   0   43.60    1.40
  -2  -1   0   36.00    1.40
   2  -1   0   44.00    1.50
   2  -1   0   44.70    1.50
  -2  -1   0   39.00    1.40
   2  -1   0   44.30    1.40
  -2  -1   0   35.80    1.40
  -2  -1   0   34.70    1.50
  -2  -1   0   36.80    1.40
   2  -1   0   45.90    2.50
  -2   1  -1  305.27   11.80
   2   1   1  302.07   10.50
  -2   1  -1  304.97   11.30
  -2  -1  -1  295.67   10.60
  -2   1  -2  299.87   11.50
   2   1   2  285.37   10.90
  -2  -1  -2  283.77   10.00
   2  -1   2  291.87   11.50
  -2  -1  -2  296.37   11.00
  -2  -1  -2  308.87   10.00
   2   1   3  348.87   13.30
  -2   1  -3  334.47   13.70
   2   1   3  349.57   11.80
   2  -1   3  337.37   13.60
  -2  -1  -3  351.26   11.80
  -2  -1  -3  354.76   13.40
   2  -1   3  345.67   11.90
  -2  -1  -3  340.67   11.70
   2   1   4   46.60    1.80
  -2   1  -4   42.30    3.30
   2   1   4   49.50    1.70
   2   1   4   49.50    1.80
  -2   1  -4   45.60    1.70
   2   1   4   45.30    3.20
  -2   1  -4   42.20    1.60
   2  -1   4   42.70    3.20
  -2  -1  -4   47.80    1.70
   2  -1   4   40.90    1.60
   2  -1   4   39.90    1.80
   2  -1   4   40.90    1.70
  -2  -1  -4   49.30    1.70
  -2  -1  -4   47.20    3.30
  -2  -1  -4   49.40    1.80
   2  -1   4   41.90    1.90
   2   1   5   39.90    3.30
   2   1   5   41.70    1.60
   2   1   5   41.10    1.80
   2   1   5   42.00    1.80
  -2   1  -5   38.60    1.60
  -2   1  -5   47.50    3.70
  -2   1  -5   42.30    1.60
  -2   1  -5   40.80    1.60
   2  -1   5   40.00    1.50
  -2  -1  -5   42.80    1.70
   2  -1   5   41.50    3.40
  -2  -1  -5   40.70    1.60
   2  -1   5   39.40    1.80
   2  -1   5   41.40    1.80
  -2  -1  -5   44.30    1.70
  -2  -1  -5   42.30    3.40
   2   1   6    6.40    0.40
  -2   1  -6    7.20    0.50
  -2   1  -6    7.20    0.50
   2   1   6    5.50    1.50
   2   1   6    4.70    0.50
   2   1   6    5.10    0.60
  -2   1  -6    9.20    2.30
   2  -1   6    6.90    0.60
   2  -1   6    7.80    1.60
  -2  -1  -6    4.00    1.40
   2  -1   6    6.30    0.40
  -2  -1  -6    5.40    0.50
  -2  -1  -6    6.40    0.50
  -2  -1  -6    6.10    0.50
   2  -1   6    7.20    0.60
  -2   1  -7   44.30    1.80
   2   1   7   41.10    2.00
   2   1   7   44.90    1.70
  -2   1  -7   44.40    1.80
  -2   1  -7   36.10    3.80
   2   1   7   43.50    3.90
   2   1   7   40.40    1.90
   2  -1   7   44.60    1.70
   2  -1   7   42.50    2.00
  -2  -1  -7   44.20    1.90
  -2  -1  -7   44.20    1.80
   2  -1   7   41.90    3.90
   2  -1   7   45.80    2.10
  -2  -1  -7   35.30    3.70
  -2  -1  -7   42.40    1.80
   2   1   8    4.80    0.60
  -2   1  -8    5.40    0.50
   2   1   8    4.50    0.40
  -2   1  -8    3.50    1.80
   2   1   8    5.60    0.60
   2   1   8    4.30    1.50
  -2   1  -8    4.90    0.50
   2  -1   8    5.00    1.60
  -2  -1  -8    4.90    0.50
  -2  -1  -8    5.70    0.50
  -2  -1  -8    3.30    1.40
   2  -1   8    4.40    0.60
   2  -1   8    3.50    0.60
   2   1   9   32.60    3.90
  -2   1  -9   33.70    1.50
   2   1   9   32.10    1.70
   2   1   9   32.50    1.70
  -2   1  -9   32.60    1.50
  -2  -1  -9   33.80    1.50
  -2  -1  -9   27.50    3.80
  -2  -1  -9   30.30    1.50
   2  -1   9   30.50    1.70
   2  -1   9   32.50    1.70
  -2   2  10    8.90    0.70
  -2   2  10    7.60    0.80
   2   2 -10    8.90    0.70
   2   2 -10    9.00    0.70
  -2  -2  10    8.70    0.90
  -2  -2  10    7.50    0.80
   2  -2 -10    8.00    0.70
  -2   2   9   -1.50    1.30
   2   2  -9    0.40    0.30
   2   2  -9    0.10    0.20
   2   2  -9    0.40    1.30
  -2   2   9    0.30    0.30
  -2   2   9    0.70    0.30
  -2   2   9    0.50    0.30
  -2  -2   9    0.80    0.40
   2  -2  -9    0.60    0.30
   2  -2  -9    0.60    0.30
   2  -2  -9   -0.80    1.10
  -2  -2   9    0.60    0.30
  -2   2   8   10.00    0.80
  -2   2   8    9.20    0.60
   2   2  -8    9.40    0.60
  -2   2   8    8.60    2.10
   2   2  -8    7.60    2.10
   2   2  -8    8.90    0.60
  -2   2   8    9.00    0.70
  -2  -2   8    8.70    0.80
   2  -2  -8    9.30    2.40
  -2  -2   8    8.20    0.80
  -2  -2   8    6.40    2.50
   2  -2  -8    8.90    0.70
  -2  -2   8    8.80    0.60
   2  -2  -8    8.20    0.60
  -2   2   7    4.60    0.40
   2   2  -7    5.80    1.90
  -2   2   7    5.30    0.50
   2   2  -7    4.20    0.50
  -2   2   7    3.20    1.40
   2   2  -7    5.30    0.40
  -2  -2   7    7.10    1.90
   2  -2  -7    3.80    0.40
   2  -2  -7    4.80    0.50
  -2  -2   7    4.30    0.60
   2  -2  -7    2.80    1.20
  -2  -2   7    4.10    0.40
   2  -2  -7    4.80    0.40
  -2   2   6  280.07    9.70
   2   2  -6  265.97    9.60
  -2   2   6  287.07    9.60
  -2   2   6  276.27   12.60
   2   2  -6  265.77   12.70
   2   2  -6  277.67    9.60
   2  -2  -6  274.07    9.60
   2  -2  -6  280.57   12.80
  -2  -2   6  287.37   12.90
  -2  -2   6  269.87    9.80
   2  -2  -6  276.67    9.70
  -2  -2   6  279.97    9.60
   2  -2  -6  282.27    9.70
  -2   2   5   37.20    1.60
  -2   2   5   39.70    1.60
   2   2  -5   40.90    1.50
  -2   2   5   41.20    3.40
   2   2  -5   41.00    1.60
  -2   2   5   39.80    1.70
   2   2  -5   41.40    3.40
  -2  -2   5   39.30    1.80
   2  -2  -5   38.30    1.70
  -2  -2   5   39.40    1.60
   2  -2  -5   41.10    3.40
   2  -2  -5   41.00    1.60
   2  -2  -5   41.30    1.60
  -2  -2   5   42.20    3.50
  -2  -2   5   43.20    1.80
   2   2  -4  878.01   32.30
  -2   2   4  885.61   32.10
   2  -2  -4  866.01   32.10
   2  -2  -4  872.11   29.70
  -2  -2   4  876.11   32.30
  -2   2   3  280.67   11.00
   2   2  -3  259.07   11.00
  -2   2   3  263.77    9.10
   2  -2  -3  267.47   10.90
  -2  -2   3  276.57   11.20
   2  -2  -3  273.37    9.10
  -2  -2   3  239.88    9.20
  -2  -2   3  260.47    9.10
   2  -2  -3  265.37    9.20
   2   2  -2 1743.13   61.09
  -2  -2   2 1792.22   61.19
  -2   2   1  258.57    9.90
   2   2  -1  221.38    8.40
   2   2  -1  264.47    9.50
  -2  -2   1  241.28    8.40
  -2  -2   1  248.68    8.50
  -2  -2   1  238.88    8.40
   2  -2  -1  238.98    8.50
   2  -2  -1  250.57   10.20
  -2  -2   1  270.07    9.50
   2  -2  -1  245.18    8.50
   2   2   0  124.29    5.00
   2   2   0  126.09    4.80
   2   2   0  123.09    4.20
  -2   2   0  125.19    4.30
  -2   2   0  118.19    4.20
  -2   2   0  119.19    4.30
  -2   2   0  133.49    6.00
  -2  -2   0  128.89    4.20
  -2  -2   0  124.09    4.30
   2  -2   0  126.49    4.40
   2  -2   0  132.39    6.00
   2  -2   0  124.19    4.40
  -2  -2   0  128.29    4.40
   2  -2   0  122.29    4.20
   2  -2   0  118.19    4.30
  -2  -2   0  123.69    4.30
  -2   2  -1  384.36   15.00
   2   2   1  369.56   13.20
   2  -2   1  378.06   14.90
  -2  -2  -1  381.06   13.40
  -2   2  -2   44.60    3.00
   2   2   2   45.80    2.40
   2   2   2   45.40    1.80
   2   2   2   42.10    1.60
  -2   2  -2   50.79    3.60
   2   2   2   46.10    1.70
  -2   2  -2   47.70    1.70
  -2  -2  -2   46.20    1.80
  -2  -2  -2   49.70    1.70
   2  -2   2   48.10    1.80
  -2  -2  -2   44.40    2.40
  -2  -2  -2   47.30    1.80
   2  -2   2   47.00    1.80
   2  -2   2   47.80    1.80
  -2  -2  -2   45.00    1.60
  -2   2  -3   80.39    2.80
   2   2   3   88.79    4.10
   2   2   3   85.49    2.90
   2   2   3   82.29    2.90
  -2   2  -3   79.99    4.70
  -2   2  -3   81.49    2.80
   2   2   3   79.99    2.90
   2  -2   3   67.09    2.90
  -2  -2  -3   81.79    3.00
  -2  -2  -3   78.59    2.90
   2  -2   3   71.99    2.90
  -2  -2  -3   85.49    2.80
   2  -2   3   76.39    4.50
   2  -2   3   70.19    3.00
  -2  -2  -3   89.69    4.20
  -2   2  -4   11.10    0.60
   2   2   4   12.70    0.70
   2   2   4   15.60    1.70
  -2   2  -4   10.90    0.50
  -2   2  -4   13.60    1.90
   2   2   4   12.50    0.60
   2   2   4   13.40    0.70
  -2  -2  -4   12.00    0.60
  -2  -2  -4   12.50    0.70
   2  -2   4   12.10    0.70
   2  -2   4   11.40    0.80
  -2  -2  -4   15.40    1.70
   2  -2   4   10.50    1.60
   2  -2   4   11.60    0.70
  -2  -2  -4   12.60    0.60
  -2   2  -5    1.90    0.20
  -2   2  -5    1.10    0.70
   2   2   5    1.90    0.90
   2   2   5    2.50    0.40
  -2   2  -5    2.40    0.30
  -2  -2  -5    3.20    0.40
  -2  -2  -5    2.30    0.80
  -2  -2  -5    2.00    0.30
   2  -2   5    1.70    0.90
   2  -2   5    2.00    0.30
  -2  -2  -5    2.30    0.30
   2  -2   5    1.70    0.40
   2  -2   5    1.80    0.30
   2   2   6  112.39    4.20
  -2   2  -6  108.19    4.10
   2   2   6  122.29    4.10
  -2   2  -6  108.99    6.80
  -2   2  -6  116.29    4.00
   2   2   6  107.29    6.40
   2   2   6  109.79    4.20
  -2  -2  -6  107.29    4.10
   2  -2   6  117.19    6.80
  -2  -2  -6  116.89    4.20
  -2  -2  -6  106.09    6.50
   2  -2   6  111.39    4.30
  -2  -2  -6  112.19    4.10
  -2   2  -7    1.90    1.40
   2   2   7    3.90    0.50
   2   2   7    4.10    0.50
   2   2   7    5.40    1.60
  -2   2  -7    2.80    0.40
   2   2   7    3.70    0.40
  -2   2  -7    2.40    0.40
  -2  -2  -7    4.00    0.40
   2  -2   7    2.60    1.20
  -2  -2  -7    1.70    1.10
  -2  -2  -7    3.80    0.50
   2  -2   7    2.30    0.50
   2  -2   7    2.40    0.50
  -2  -2  -7    3.00    0.40
  -2   2  -8   19.60    1.00
  -2   2  -8   19.70    1.00
   2   2   8   18.70    2.90
   2   2   8   19.50    1.00
   2   2   8   19.40    1.20
   2   2   8   19.50    1.20
  -2   2  -8   14.70    2.80
   2  -2   8   20.00    1.20
   2  -2   8   18.40    1.20
  -2  -2  -8   20.40    1.10
  -2  -2  -8   19.40    1.10
   2  -2   8   16.90    2.70
   2   2   9    0.40    0.20
   2   2   9    0.20    0.30
   2   2   9    0.20    0.30
  -2   2  -9    0.10    0.20
  -2   2  -9    0.10    0.20
   2  -2   9    0.00    0.30
  -2  -2  -9    0.40    0.30
  -2  -2  -9    0.40    0.30
   2  -2   9    0.10    0.30
  -2   3   9    8.20    0.80
   2   3  -9    8.30    0.70
  -2   3   9    6.10    2.20
  -2   3   9    8.60    0.60
   2   3  -9    7.40    0.60
   2  -3  -9    3.00    1.70
   2  -3  -9    7.70    0.70
   2  -3  -9    7.80    0.70
  -2  -3   9    7.80    0.80
  -2  -3   9    7.60    0.80
  -2   3   8    3.80    0.40
  -2   3   8    4.20    0.50
  -2   3   8    3.60    0.60
  -2   3   8    5.60    1.80
   2   3  -8    4.30    0.50
   2   3  -8    4.70    0.50
  -2  -3   8    4.40    0.60
   2  -3  -8    3.40    1.70
  -2  -3   8    4.70    0.60
   2  -3  -8    4.20    0.50
  -2  -3   8    5.30    1.80
  -2  -3   8    4.60    0.40
   2  -3  -8    4.70    0.50
   2  -3  -8    4.70    0.60
   2   3  -7  104.39    6.90
   2   3  -7  111.29    3.90
  -2   3   7  110.99    4.00
   2   3  -7  102.89    4.00
  -2   3   7  110.89    4.00
  -2   3   7  106.79    6.90
  -2   3   7  106.09    4.10
  -2  -3   7  105.39    4.20
   2  -3  -7  108.69    7.10
  -2  -3   7  112.99    4.00
  -2  -3   7  104.79    4.20
   2  -3  -7  111.59    4.20
   2  -3  -7  104.59    4.00
  -2  -3   7   99.09    6.70
   2   3  -6    5.70    1.80
  -2   3   6    3.90    0.40
  -2   3   6    4.10    0.50
  -2   3   6    2.90    1.20
   2   3  -6    4.70    0.40
   2   3  -6    4.70    0.40
  -2   3   6    4.40    0.40
   2  -3  -6    4.60    0.50
   2  -3  -6    4.50    0.50
   2  -3  -6    3.50    0.50
  -2  -3   6    5.10    1.60
  -2  -3   6    5.40    0.60
  -2  -3   6    5.40    0.40
   2  -3  -6    3.20    1.30
  -2  -3   6    5.40    0.60
   2   3  -5   60.29    4.60
  -2   3   5   63.49    2.40
   2   3  -5   59.99    2.40
   2   3  -5   64.29    2.30
  -2   3   5   63.89    2.50
  -2   3   5   63.59    4.40
  -2  -3   5   65.89    2.40
   2  -3  -5   64.19    2.50
  -2  -3   5   65.79    4.60
   2  -3  -5   62.79    4.50
   2  -3  -5   65.39    2.60
  -2  -3   5   63.29    2.60
   2  -3  -5   62.49    2.40
  -2  -3   5   60.79    2.60
  -2   3   4    3.30    0.30
   2   3  -4    4.20    1.30
   2   3  -4    3.70    0.30
  -2   3   4    2.50    1.00
  -2   3   4    3.60    0.30
  -2  -3   4    3.70    0.30
   2  -3  -4    3.50    0.40
   2  -3  -4    3.10    0.40
   2  -3  -4    3.50    0.30
  -2  -3   4    3.80    0.40
  -2  -3   4    3.60    0.30
   2  -3  -4    3.10    1.00
  -2  -3   4    3.70    1.20
  -2  -3   4    3.50    0.40
  -2   3   3  311.27   12.60
   2   3  -3  310.27   12.90
  -2  -3   3  302.87   10.60
  -2  -3   3  306.77   10.70
  -2  -3   3  295.67   10.60
   2  -3  -3  319.47   10.70
   2  -3  -3  305.67   10.70
  -2  -3   3  309.77   12.80
  -2  -3   3  315.07   10.60
   2  -3  -3  312.67   12.80
  -2   3   2  152.28    6.70
  -2   3   2  150.58    4.90
   2   3  -2  153.78    6.70
  -2   3   2  153.48    5.00
  -2  -3   2  131.49    5.00
   2  -3  -2  146.09    5.00
   2  -3  -2  149.79    7.10
   2  -3  -2  152.78    5.10
  -2  -3   2  124.39    5.00
   2  -3  -2  146.99    5.10
  -2  -3   2  135.09    5.00
  -2  -3   2  145.79    6.60
  -2  -3   2  130.59    5.00
  -2  -3   2  130.79    4.90
  -2  -3   2  133.49    5.00
  -2   3   1  441.26   16.20
   2   3  -1  406.06   15.40
   2   3  -1  416.56   16.00
  -2  -3   1  391.36   14.10
   2  -3  -1  411.36   14.20
   2  -3  -1  413.36   16.40
  -2  -3   1  412.36   14.10
  -2   3   0  462.75   18.00
   2   3   0  481.35   17.10
   2   3   0  457.25   16.50
   2  -3   0  453.55   18.00
   2  -3   0  457.05   15.70
  -2  -3   0  444.26   15.70
   2   3   1  381.56   13.60
  -2   3  -1  370.96   15.40
  -2  -3  -1  389.16   14.00
   2  -3   1  402.36   13.00
   2  -3   1  380.66   15.40
   2  -3   1  372.46   12.80
   2  -3   1  365.46   12.90
   2  -3   1  355.96   12.90
  -2  -3  -1  369.16   12.90
  -2   3  -2   35.20    3.20
   2   3   2   32.40    1.30
   2   3   2   30.50    1.20
   2   3   2   34.20    2.00
  -2   3  -2   30.70    2.60
  -2   3  -2   29.30    1.20
   2  -3   2   33.60    1.20
   2  -3   2   32.90    1.30
  -2  -3  -2   35.40    2.20
  -2  -3  -2   32.00    1.20
   2  -3   2   27.70    1.40
  -2  -3  -2   31.70    1.40
  -2  -3  -2   30.50    1.40
   2  -3   2   34.10    1.30
  -2  -3  -2   31.00    1.30
   2  -3   2   34.90    1.40
  -2   3  -3  216.48    9.80
  -2   3  -3  218.18   10.70
   2   3   3  215.18    7.50
   2   3   3  215.28    8.70
   2   3   3  215.88    7.40
  -2   3  -3  213.48    7.40
   2   3   3  220.68    7.50
   2  -3   3  214.58    7.40
  -2  -3  -3  213.88    7.50
   2  -3   3  210.78    7.50
  -2  -3  -3  217.98    7.60
  -2  -3  -3  220.58    9.00
   2  -3   3  209.58    7.50
   2  -3   3  216.08    7.60
  -2  -3  -3  215.98    7.40
   2   3   4    0.90    0.20
  -2   3  -4    0.90    0.70
  -2   3  -4    0.00    0.30
  -2   3  -4    1.20    0.20
   2   3   4   -0.20    0.40
   2   3   4    0.90    0.20
   2   3   4    1.10    0.20
  -2   3  -4    1.40    0.20
   2  -3   4    1.40    0.30
  -2  -3  -4    2.20    0.80
   2  -3   4    1.70    0.30
  -2  -3  -4    0.90    0.20
   2  -3   4    1.60    0.30
  -2  -3  -4    1.10    0.30
  -2  -3  -4    1.00    0.20
   2   3   5   42.70    1.90
  -2   3  -5   43.20    1.70
  -2   3  -5   44.60    1.60
  -2   3  -5   45.20    3.80
   2   3   5   42.20    1.70
   2   3   5   44.40    1.80
   2   3   5   39.90    3.20
   2  -3   5   43.20    1.80
  -2  -3  -5   43.20    1.80
   2  -3   5   44.50    2.00
  -2  -3  -5   42.10    1.90
  -2  -3  -5   44.00    1.70
  -2  -3  -5   44.90    3.60
   2  -3   5   46.50    1.90
   2   3   6   22.90    1.00
  -2   3  -6   20.10    2.80
   2   3   6   23.20    1.20
   2   3   6   21.20    2.50
   2   3   6   24.40    1.20
  -2   3  -6   21.70    1.00
   2  -3   6   19.20    1.20
  -2  -3  -6   28.20    3.00
   2  -3   6   19.60    1.10
  -2  -3  -6   24.50    1.30
   2  -3   6   21.80    2.70
   2  -3   6   19.20    1.20
  -2  -3  -6   22.80    1.10
  -2  -3  -6   23.40    1.10
   2   3   7   53.19    4.50
   2   3   7   49.70    2.20
   2   3   7   49.80    2.00
   2   3   7   51.09    2.20
  -2   3  -7   47.80    4.50
  -2   3  -7   47.10    2.00
  -2   3  -7   48.20    2.00
  -2  -3  -7   49.99    2.20
   2  -3   7   47.20    2.20
  -2  -3  -7   48.10    2.00
   2  -3   7   47.90    2.20
  -2  -3  -7   47.30    4.50
  -2  -3  -7   48.60    2.00
   2   3   8    0.10    0.20
  -2   3  -8    0.00    0.20
   2   3   8    0.20    0.20
   2   3   8   -1.50    0.80
  -2   3  -8    1.60    1.30
  -2   3  -8   -0.10    0.20
   2   3   8    0.10    0.30
   2  -3   8    0.00    0.20
  -2  -3  -8    0.00    0.20
  -2  -3  -8    0.40    0.30
  -2  -3  -8    0.30    0.20
   2  -3   8    0.10    0.30
  -2  -3  -8   -0.20    1.00
   2   3   9   13.30    1.00
   2   3   9   12.70    0.80
  -2   3  -9   13.40    0.80
  -2   3  -9   13.50    0.90
   2  -3   9   12.60    1.00
  -2  -3  -9   12.50    0.90
  -2  -3  -9   12.70    0.90
   2  -3   9   13.70    1.00
   2   4  -9    2.00    0.40
  -2   4   9    1.90    0.40
   2   4  -9    2.30    0.40
  -2   4   9    2.20    0.50
  -2  -4   9    3.00    0.60
   2  -4  -9    2.20    0.50
   2  -4  -9    1.90    0.50
  -2  -4   9    2.70    0.60
  -2   4   8   38.50    1.90
  -2   4   8   38.50    1.60
  -2   4   8   36.60    4.00
   2   4  -8   33.30    3.90
   2   4  -8   38.30    1.60
   2   4  -8   37.70    1.70
   2  -4  -8   38.50    2.00
  -2  -4   8   36.80    1.80
  -2  -4   8   32.20    3.70
   2  -4  -8   34.60    4.20
   2  -4  -8   37.20    1.70
   2  -4  -8   38.70    1.80
  -2  -4   8   38.40    1.90
  -2   4   7    0.10    0.20
   2   4  -7    0.20    0.20
  -2   4   7    0.10    0.20
  -2   4   7   -0.10    0.70
   2   4  -7    0.20    0.20
   2   4  -7    0.80    1.00
  -2  -4   7    0.00    0.20
   2  -4  -7    0.00    0.30
   2  -4  -7    0.20    0.20
  -2  -4   7    0.10    0.30
  -2  -4   7    0.20    0.20
  -2  -4   7   -0.60    0.50
   2  -4  -7    0.40    0.30
   2   4  -6   27.10    1.10
  -2   4   6   30.20    3.10
   2   4  -6   19.90    2.70
   2   4  -6   26.00    1.20
  -2   4   6   27.00    1.30
  -2   4   6   28.00    1.20
   2  -4  -6   28.10    1.30
  -2  -4   6   23.80    2.90
   2  -4  -6   26.50    3.20
   2  -4  -6   24.00    1.20
   2  -4  -6   25.60    1.40
  -2  -4   6   26.80    1.40
  -2  -4   6   27.30    1.20
  -2  -4   6   25.70    1.40
  -2   4   5   52.59    4.00
  -2   4   5   48.30    2.00
   2   4  -5   51.19    1.90
  -2   4   5   49.50    2.10
   2   4  -5   54.59    4.30
   2  -4  -5   44.10    4.00
   2  -4  -5   48.50    2.10
  -2  -4   5   55.99    2.20
  -2  -4   5   51.59    2.20
  -2  -4   5   53.19    2.00
  -2  -4   5   48.50    4.00
   2  -4  -5   47.50    2.20
   2  -4  -5   50.09    2.00
  -2   4   4 1141.59   41.30
   2   4  -4 1127.59   41.60
  -2  -4   4 1106.79   41.50
   2  -4  -4 1173.48   42.00
  -2   4   3  146.99    7.20
  -2   4   3  146.79    5.10
   2   4  -3  151.18    7.50
  -2   4   3  150.58    5.20
  -2  -4   3  137.49    5.30
   2  -4  -3  145.49    7.70
   2  -4  -3  144.99    5.20
  -2  -4   3  135.09    5.20
   2  -4  -3  166.38    5.40
   2  -4  -3  143.59    5.30
  -2  -4   3  144.09    5.20
  -2  -4   3  140.79    5.20
  -2  -4   3  142.69    5.10
  -2  -4   3  144.49    5.20
  -2  -4   3  137.99    7.20
   2   4  -2   93.29    5.10
   2   4  -2   91.39    5.70
  -2   4   2   96.89    5.30
  -2   4   2   94.39    3.40
  -2   4   2  100.09    3.40
   2  -4  -2   95.49    3.50
  -2  -4   2   92.19    3.50
   2  -4  -2   93.89    3.60
  -2  -4   2   91.79    3.40
   2  -4  -2   94.29    3.40
  -2  -4   2   91.69    3.50
  -2  -4   2   94.79    3.40
  -2  -4   2   89.99    3.50
   2  -4  -2   94.89    5.70
  -2  -4   2   91.79    3.50
   2   4  -1    6.20    1.10
  -2   4   1    7.60    1.40
  -2   4   1    4.60    0.30
   2   4  -1    8.80    1.40
  -2   4   1    4.50    0.30
  -2   4   1    3.60    0.20
   2  -4  -1    3.70    0.40
   2  -4  -1    7.00    1.40
   2  -4  -1    4.50    0.40
  -2  -4   1    5.30    0.50
   2  -4  -1    4.20    0.30
   2  -4  -1    4.50    0.40
  -2  -4   1    4.40    0.40
   2   4   0 1311.07   46.10
  -2   4   0 1324.27   47.90
   2   4   0 1333.97   46.90
   2  -4   0 1327.67   47.80
   2   4   1  352.86   13.40
  -2   4  -1  374.06   15.50
  -2  -4  -1  337.57   12.10
  -2  -4  -1  346.07   12.20
   2  -4   1  363.36   12.20
   2  -4   1  355.76   12.20
   2  -4   1  352.66   12.10
   2  -4   1  373.66   15.20
   2  -4   1  362.46   12.10
  -2  -4  -1  320.07   11.90
  -2  -4  -1  337.17   12.10
  -2  -4  -1  354.96   13.70
  -2   4  -2    1.90    0.90
   2   4   2    3.30    0.70
   2   4   2    2.20    0.30
  -2   4  -2    2.50    1.20
   2  -4   2    2.50    0.30
  -2  -4  -2    2.00    0.30
  -2  -4  -2    1.80    0.30
   2  -4   2    3.40    0.30
   2  -4   2    3.20    0.40
   2  -4   2    2.90    0.30
  -2  -4  -2    1.90    0.20
  -2  -4  -2    2.20    0.40
  -2  -4  -2    2.50    0.80
   2  -4   2    2.70    0.30
  -2   4  -3   14.30    2.40
   2   4   3   19.40    0.90
  -2   4  -3   18.20    2.20
  -2   4  -3   16.30    0.70
   2   4   3   20.10    1.80
  -2  -4  -3   17.40    0.90
   2  -4   3   15.70    0.90
   2  -4   3   15.60    0.80
  -2  -4  -3   18.90    1.00
  -2  -4  -3   19.20    0.80
   2  -4   3   17.00    0.90
   2  -4   3   16.20    0.90
   2  -4   3   16.00    0.90
  -2  -4  -3   18.90    1.90
   2   4   4  220.48    7.80
  -2   4  -4  227.08   10.80
  -2   4  -4  229.88    7.80
  -2   4  -4  222.68    7.70
   2   4   4  234.28    8.00
  -2   4  -4  218.68   11.70
   2   4   4  225.58    9.70
  -2  -4  -4  219.08    7.90
  -2  -4  -4  214.48    7.80
   2  -4   4  225.18    8.10
   2  -4   4  221.48    7.90
  -2  -4  -4  227.58    8.10
  -2  -4  -4  227.38   10.00
   2  -4   4  236.48    7.80
   2  -4   4  225.98    8.00
  -2   4  -5    0.30    0.70
   2   4   5    1.10    0.20
   2   4   5    0.90    0.30
  -2   4  -5    0.80    0.20
  -2   4  -5    0.70    0.20
   2   4   5    0.30    0.60
  -2   4  -5    1.20    0.80
   2  -4   5    1.10    0.30
   2  -4   5    1.00    0.30
  -2  -4  -5    0.30    0.70
  -2  -4  -5    0.90    0.30
  -2  -4  -5    1.00    0.30
  -2  -4  -5    1.20    0.30
   2  -4   5    0.50    0.30
  -2   4  -6   25.50    1.10
   2   4   6   25.60    1.20
   2   4   6   26.00    1.20
   2   4   6   25.30    1.30
   2   4   6   24.50    2.70
  -2   4  -6   26.20    3.20
  -2   4  -6   21.70    3.40
   2  -4   6   24.70    1.30
  -2  -4  -6   25.20    1.40
   2  -4   6   24.00    1.40
   2  -4   6   23.60    1.20
  -2  -4  -6   25.20    1.20
  -2  -4  -6   21.10    2.80
  -2  -4  -6   25.30    1.20
   2   4   7   12.60    2.30
  -2   4  -7    9.40    2.60
  -2   4  -7    6.90    2.50
   2   4   7   10.20    0.80
  -2   4  -7    9.70    0.60
   2   4   7    9.60    0.60
   2  -4   7    8.00    0.80
  -2  -4  -7    9.70    0.70
   2  -4   7    8.30    0.80
  -2  -4  -7    6.40    2.20
  -2  -4  -7   10.00    0.90
   2   4   8   22.00    1.10
  -2   4  -8   22.40    1.20
  -2   4  -8   20.90    1.10
   2   4   8   23.70    1.30
  -2  -4  -8   21.30    1.50
  -2  -4  -8   22.70    1.20
   2  -4   8   22.70    1.40
  -2  -4  -8   21.10    1.20
   2  -4   8   22.40    1.40
  -2   4  -9    0.30    0.30
   2   4   9    0.60    0.30
   2   4   9    0.20    0.30
  -2   4  -9    0.10    0.20
   2  -4   9    0.40    0.30
   2  -4   9    0.30    0.40
  -2  -4  -9    0.20    0.30
  -2   5   9   17.90    1.00
  -2   5   9   19.50    1.30
   2   5  -9   17.60    1.00
   2   5  -9   16.90    1.00
   2  -5  -9   17.20    1.20
  -2  -5   9   18.30    1.20
   2  -5  -9   17.60    1.20
  -2  -5   9   18.00    1.20
   2   5  -8    1.20    0.30
  -2   5   8    1.30    0.30
   2   5  -8    1.20    0.30
  -2   5   8    1.20    0.40
   2  -5  -8    1.30    0.40
  -2  -5   8    1.50    0.50
  -2  -5   8    2.20    0.60
   2  -5  -8    0.60    0.40
   2  -5  -8    1.20    0.40
  -2   5   7   11.70    0.90
   2   5  -7   10.80    0.70
   2   5  -7   10.30    0.70
   2   5  -7   11.40    2.30
  -2   5   7   11.20    0.70
  -2   5   7   12.70    2.30
   2  -5  -7   11.00    1.00
   2  -5  -7    8.40    2.30
  -2  -5   7   11.40    0.90
  -2  -5   7   10.00    2.10
  -2  -5   7   12.10    0.80
   2  -5  -7   11.80    0.90
   2  -5  -7   11.20    0.80
  -2  -5   7   11.40    0.90
   2   5  -6    3.00    0.30
  -2   5   6    3.40    1.30
  -2   5   6    2.70    0.40
   2   5  -6    2.90    0.40
  -2   5   6    2.90    0.50
   2   5  -6    3.40    1.30
   2  -5  -6    3.10    0.50
   2  -5  -6    3.50    0.60
  -2  -5   6    2.90    0.50
  -2  -5   6    3.40    0.50
   2  -5  -6    1.60    1.20
   2  -5  -6    2.50    0.40
  -2  -5   6    2.80    1.10
  -2  -5   6    3.50    0.40
   2   5  -5   49.40    1.90
  -2   5   5   49.80    2.00
   2   5  -5   48.90    1.80
  -2   5   5   50.29    2.10
  -2   5   5   49.20    4.00
   2   5  -5   50.09    4.30
  -2  -5   5   50.69    2.00
   2  -5  -5   47.70    2.10
  -2  -5   5   48.30    2.20
   2  -5  -5   49.10    2.00
  -2  -5   5   47.50    2.20
  -2  -5   5   48.20    2.00
   2  -5  -5   49.20    2.20
   2  -5  -5   48.10    4.40
   2   5  -4    0.50    0.90
   2   5  -4    0.20    0.60
  -2   5   4    1.00    0.20
  -2   5   4    1.80    0.30
   2   5  -4    0.90    0.20
  -2   5   4    0.70    0.60
  -2  -5   4    1.00    0.30
  -2  -5   4    1.20    0.30
  -2  -5   4    1.00    0.30
   2  -5  -4    0.50    0.80
   2  -5  -4    0.90    0.30
  -2  -5   4    1.00    0.20
  -2  -5   4    1.30    0.30
   2  -5  -4    1.20    0.40
   2  -5  -4    0.90    0.30
  -2   5   3   41.70    3.40
   2   5  -3   48.30    4.30
   2   5  -3   42.80    3.50
  -2   5   3   42.70    1.70
  -2   5   3   41.30    1.70
   2  -5  -3   39.50    1.70
   2  -5  -3   38.50    1.80
   2  -5  -3   35.40    3.70
   2  -5  -3   41.40    1.90
  -2  -5   3   41.70    1.80
  -2  -5   3   43.80    1.80
  -2  -5   3   40.80    1.80
  -2  -5   3   41.90    1.70
  -2  -5   3   40.10    1.80
   2   5  -2   66.59    4.30
  -2   5   2   69.29    4.50
   2   5  -2   57.79    4.70
  -2   5   2   65.09    2.40
  -2   5   2   64.89    2.40
   2  -5  -2   62.29    2.60
  -2  -5   2   65.29    2.50
   2  -5  -2   63.29    4.90
  -2  -5   2   64.69    2.60
   2  -5  -2   63.19    2.60
  -2  -5   2   65.69    2.40
  -2  -5   2   64.39    2.50
   2  -5  -2   65.09    2.50
  -2  -5   2   65.09    2.50
  -2  -5   2   61.29    2.60
  -2   5   1  142.49    5.00
   2   5  -1  139.69    6.80
  -2   5   1  144.39    7.60
  -2   5   1  144.39    5.00
   2   5  -1  147.69    7.90
   2  -5  -1  140.89    5.30
   2  -5  -1  144.69    8.00
  -2  -5   1  138.99    5.10
  -2  -5   1  147.79    5.20
   2  -5  -1  140.79    5.30
  -2  -5   1  142.79    5.20
   2  -5  -1  144.09    5.10
  -2  -5   1  141.29    5.10
  -2  -5   1  142.99    5.00
  -2  -5   1  137.69    5.10
  -2   5   0   88.39    5.70
   2   5   0   76.89    4.40
   2   5   0   70.29    4.80
  -2  -5   0   76.29    3.10
  -2  -5   0   68.89    3.00
   2  -5   0   90.79    3.10
   2  -5   0   89.29    3.30
   2  -5   0   88.69    3.00
   2  -5   0   91.09    3.10
   2  -5   0   94.29    3.10
  -2  -5   0   76.69    3.10
   2  -5   0   88.19    3.20
   2  -5   0   90.19    5.70
  -2  -5   0   75.79    3.00
  -2  -5   0   77.69    3.20
  -2  -5   0   70.29    2.90
   2   5   1  329.27   11.10
  -2   5  -1  333.67   13.80
   2   5   1  335.47   13.10
  -2   5  -1  317.77   14.80
   2  -5   1  323.37   11.20
   2  -5   1  317.67   11.20
  -2  -5  -1  322.17   11.40
   2  -5   1  315.47   11.30
  -2  -5  -1  330.27   11.30
  -2  -5  -1  327.77   11.30
   2  -5   1  322.17   11.40
  -2  -5  -1  337.17   13.50
  -2  -5  -1  313.27   11.10
   2  -5   1  318.97   11.20
   2   5   2   20.60    1.90
  -2   5  -2   21.70    2.90
  -2   5  -2   19.80    2.30
   2   5   2   21.30    1.00
   2  -5   2   23.00    1.20
   2  -5   2   22.40    1.00
  -2  -5  -2   21.00    1.10
  -2  -5  -2   21.80    1.10
   2  -5   2   22.50    1.10
  -2  -5  -2   23.40    1.20
   2  -5   2   23.30    1.10
   2  -5   2   23.30    1.10
  -2  -5  -2   19.90    0.90
  -2  -5  -2   19.40    2.10
   2  -5   2   22.90    1.10
   2   5   3   70.49    2.70
  -2   5  -3   68.99    5.60
  -2   5  -3   65.89    4.80
   2   5   3   68.79    3.90
  -2   5  -3   67.59    2.50
   2  -5   3   69.29    2.70
  -2  -5  -3   63.89    2.70
  -2  -5  -3   67.49    2.50
   2  -5   3   65.69    2.60
  -2  -5  -3   72.49    4.60
   2  -5   3   68.39    2.80
   2  -5   3   67.59    2.80
   2  -5   3   69.09    2.60
  -2  -5  -3   65.79    2.80
  -2   5  -4   20.10    0.90
   2   5   4   23.00    1.00
  -2   5  -4   17.10    3.00
  -2   5  -4   20.00    2.60
   2   5   4   22.60    2.20
  -2   5  -4   18.90    0.90
  -2  -5  -4   23.60    1.00
   2  -5   4   17.30    1.10
   2  -5   4   18.60    1.10
  -2  -5  -4   28.50    2.90
   2  -5   4   17.70    1.00
  -2  -5  -4   22.20    1.10
  -2  -5  -4   25.00    1.20
   2  -5   4   18.70    0.90
  -2   5  -5   71.99    6.20
  -2   5  -5   71.19    2.60
   2   5   5   71.49    2.80
  -2   5  -5   69.49    2.70
  -2   5  -5   76.09    5.50
   2   5   5   69.59    4.70
   2   5   5   70.29    2.70
  -2  -5  -5   72.79    2.70
  -2  -5  -5   71.59    5.20
   2  -5   5   69.69    3.00
   2  -5   5   66.89    2.80
   2  -5   5   73.59    2.90
  -2  -5  -5   73.89    3.00
  -2  -5  -5   71.69    2.80
  -2   5  -6    0.00    1.00
   2   5   6    2.20    0.30
  -2   5  -6    1.10    1.00
   2   5   6    2.70    0.50
   2   5   6    1.80    1.10
  -2   5  -6    2.00    0.30
  -2  -5  -6    1.70    1.20
   2  -5   6    1.70    0.40
   2  -5   6    1.70    0.40
   2  -5   6    2.30    0.50
  -2  -5  -6    2.00    0.50
  -2  -5  -6    1.40    0.40
  -2  -5  -6    2.30    0.30
   2   5   7    7.50    0.60
  -2   5  -7    9.40    3.10
   2   5   7    6.60    0.70
  -2   5  -7    2.70    1.70
  -2   5  -7    8.50    0.60
   2  -5   7    7.80    0.60
   2  -5   7    6.90    0.80
   2  -5   7    8.10    0.80
  -2  -5  -7    7.20    0.70
  -2  -5  -7    7.80    0.80
   2   5   8    2.20    0.40
   2   5   8    3.00    0.60
  -2   5  -8    2.60    0.40
  -2   5  -8    1.90    0.40
   2  -5   8    2.10    0.50
  -2  -5  -8    2.40    0.50
   2  -5   8    2.60    0.60
  -2  -5  -8    3.50    0.70
  -2   6   8   11.40    0.90
   2   6  -8   10.50    0.70
   2   6  -8   11.50    0.80
  -2   6   8    9.80    0.70
   2  -6  -8   10.00    0.90
  -2  -6   8   10.60    0.90
  -2  -6   8    9.90    0.90
   2  -6  -8   11.00    1.00
   2  -6  -8   10.00    0.90
  -2   6   7    1.70    0.40
   2   6  -7    1.80    0.40
   2   6  -7    2.10    0.40
   2   6  -7    4.10    1.80
  -2   6   7    1.30    0.40
  -2  -6   7    3.40    0.60
   2  -6  -7    1.80    0.50
  -2  -6   7    2.50    0.50
   2  -6  -7    2.20    0.60
   2  -6  -7    1.20    0.50
  -2   6   6   35.70    1.70
  -2   6   6   35.30    3.60
   2   6  -6   34.10    1.40
   2   6  -6   30.10    3.70
  -2   6   6   33.50    1.50
   2   6  -6   32.10    4.30
  -2  -6   6   35.50    1.70
   2  -6  -6   32.70    1.60
   2  -6  -6   34.40    4.30
  -2  -6   6   31.70    1.70
  -2  -6   6   35.80    1.60
   2  -6  -6   35.50    1.70
   2  -6  -6   33.60    1.80
   2   6  -5    6.80    2.00
   2   6  -5    6.30    0.40
  -2   6   5    9.50    1.90
   2   6  -5    5.00    2.00
  -2   6   5    5.40    0.50
  -2   6   5    6.00    0.60
   2   6  -5    6.40    0.50
  -2  -6   5    6.50    0.70
   2  -6  -5    5.40    0.60
  -2  -6   5    5.90    0.50
  -2  -6   5    6.20    0.60
   2  -6  -5    2.60    1.60
   2  -6  -5    6.30    0.70
  -2  -6   5    6.70    0.70
   2  -6  -5    4.70    0.60
  -2   6   4   70.69    5.00
   2   6  -4   73.39    2.70
  -2   6   4   70.39    2.80
  -2   6   4   73.39    2.90
   2   6  -4   72.29    6.20
   2   6  -4   76.09    5.30
  -2  -6   4   70.69    2.90
   2  -6  -4   72.59    2.90
   2  -6  -4   74.99    6.00
  -2  -6   4   72.09    2.90
   2  -6  -4   73.69    3.10
  -2  -6   4   73.19    3.00
  -2  -6   4   74.89    2.80
   2  -6  -4   70.39    3.00
  -2  -6   4   76.99    3.00
  -2   6   3   26.30    2.80
   2   6  -3   23.30    2.70
   2   6  -3   25.90    3.40
  -2   6   3   27.40    1.20
  -2   6   3   27.40    1.20
  -2  -6   3   24.60    1.30
  -2  -6   3   23.20    1.30
   2  -6  -3   32.90    3.60
   2  -6  -3   24.70    1.40
  -2  -6   3   24.80    1.20
  -2  -6   3   22.50    1.30
  -2  -6   3   23.30    1.30
   2  -6  -3   29.10    1.40
   2  -6  -3   29.30    1.30
  -2  -6   3   21.40    1.20
   2   6  -2  160.98    8.30
  -2   6   2  161.28    5.80
   2   6  -2  159.08    9.30
  -2   6   2  159.48    8.50
  -2   6   2  172.88    5.80
  -2  -6   2  166.68    5.90
   2  -6  -2  164.38    9.30
  -2  -6   2  158.88    6.00
  -2  -6   2  172.28    6.10
   2  -6  -2  161.08    6.10
  -2  -6   2  163.28    5.80
   2  -6  -2  168.48    5.90
  -2  -6   2  164.88    5.90
   2  -6  -2  158.08    6.00
  -2  -6   2  154.88    5.90
   2   6  -1    3.80    1.20
  -2   6   1    5.20    0.40
  -2   6   1    3.20    1.20
   2   6  -1    2.00    0.90
  -2   6   1    4.70    0.40
   2  -6  -1    4.60    0.40
  -2  -6   1    4.30    0.40
  -2  -6   1    4.80    0.60
   2  -6  -1    5.00    1.70
  -2  -6   1    4.40    0.50
  -2  -6   1    3.90    0.50
   2  -6  -1    4.70    0.60
   2  -6  -1    5.30    0.30
  -2  -6   1    4.40    0.40
   2  -6  -1    4.10    0.60
  -2  -6   1    4.10    0.50
   2   6   0   44.70    4.00
   2   6   0   45.40    3.30
  -2   6   0   44.30    4.30
  -2   6   0   43.20    1.80
  -2  -6   0   43.90    1.70
   2  -6   0   45.00    1.80
  -2  -6   0   46.00    2.00
   2  -6   0   43.00    4.10
  -2  -6   0   45.60    2.00
   2  -6   0   45.20    2.00
   2  -6   0   39.60    1.90
  -2  -6   0   43.80    1.90
   2  -6   0   40.70    1.80
  -2  -6   0   44.40    1.70
   2   6   1   53.59    3.80
  -2   6  -1   52.69    4.80
   2   6   1   49.10    2.10
   2   6   1   49.20    1.90
  -2   6  -1   56.49    4.10
  -2  -6  -1   47.00    2.10
   2  -6   1   51.89    2.10
   2  -6   1   55.09    2.20
   2  -6   1   51.39    2.20
   2  -6   1   51.99    2.10
  -2  -6  -1   48.90    2.20
   2  -6   1   51.69    2.10
   2  -6   1   53.59    2.10
  -2  -6  -1   45.00    2.20
  -2  -6  -1   47.60    1.90
   2   6   2  167.78    6.00
   2   6   2  168.38    7.80
  -2   6  -2  168.98    9.90
  -2   6  -2  170.28    8.80
   2  -6   2  174.98    6.20
   2  -6   2  171.18    6.20
  -2  -6  -2  164.68    6.30
  -2  -6  -2  162.18    6.10
  -2  -6  -2  165.48    5.90
  -2  -6  -2  162.08    6.20
   2  -6   2  170.58    6.00
   2  -6   2  170.58    6.10
  -2  -6  -2  172.78    8.50
   2  -6   2  179.78    6.30
   2  -6   2  168.48    6.10
   2   6   3    4.00    1.20
  -2   6  -3    2.70    1.70
   2   6   3    4.10    0.50
   2   6   3    4.90    0.40
  -2   6  -3    2.80    1.20
  -2   6  -3    4.50    0.40
  -2  -6  -3    3.60    0.40
   2  -6   3    4.30    0.50
  -2  -6  -3    3.00    1.30
   2  -6   3    3.90    0.60
  -2  -6  -3    4.00    0.50
  -2  -6  -3    4.20    0.60
   2  -6   3    4.50    0.40
   2  -6   3    5.00    0.60
   2  -6   3    4.70    0.50
   2   6   4   45.90    3.40
  -2   6  -4   44.00    1.70
  -2   6  -4   40.50    4.60
   2   6   4   42.60    1.80
  -2   6  -4   43.10    1.70
   2   6   4   43.80    1.90
  -2   6  -4   39.50    4.00
   2  -6   4   44.50    1.80
   2  -6   4   42.10    2.00
  -2  -6  -4   43.50    2.00
   2  -6   4   43.30    1.90
  -2  -6  -4   48.10    4.00
  -2  -6  -4   42.60    1.80
  -2  -6  -4   44.30    2.10
   2  -6   4   42.10    1.90
  -2   6  -5    3.90    0.40
  -2   6  -5    4.50    1.70
   2   6   5    4.60    1.50
   2   6   5    4.00    0.40
  -2   6  -5    5.20    1.90
  -2   6  -5    3.80    0.40
   2   6   5    5.00    0.50
  -2  -6  -5    5.00    0.70
   2  -6   5    4.60    0.60
   2  -6   5    4.00    0.50
  -2  -6  -5    4.50    0.50
  -2  -6  -5    2.70    1.50
  -2  -6  -5    4.50    0.40
   2  -6   5    4.00    0.50
   2   6   6   42.00    2.00
  -2   6  -6   31.10    3.90
   2   6   6   40.50    1.80
  -2   6  -6   43.20    1.80
  -2  -6  -6   44.00    2.00
   2  -6   6   43.30    1.90
  -2  -6  -6   44.40    2.20
   2  -6   6   45.30    2.10
   2  -6   6   45.70    2.10
   2   6   7    0.30    0.30
   2   6   7    0.10    0.20
  -2   6  -7    0.10    0.20
  -2  -6  -7    0.10    0.40
   2  -6   7    0.50    0.30
   2  -6   7    0.30    0.30
   2  -6   7    0.30    0.30
  -2  -6  -7    0.30    0.30
   2   6   8    6.20    0.60
  -2   6  -8    6.00    0.60
  -2   6  -8    6.30    0.60
   2   6   8    6.90    0.70
  -2  -6  -8    6.60    0.70
   2  -6   8    5.30    0.70
  -2  -6  -8    6.80    0.90
   2  -6   8    5.10    0.70
   2   7  -7   20.50    1.10
  -2   7   7   21.50    1.30
  -2   7   7   21.30    1.10
   2   7  -7   21.90    1.10
  -2  -7   7   21.10    1.30
   2  -7  -7   23.80    1.40
  -2  -7   7   21.00    1.40
   2  -7  -7   15.70    1.40
   2   7  -6    3.00    0.40
  -2   7   6    2.20    0.40
   2   7  -6    3.50    1.80
  -2   7   6    2.20    0.50
   2  -7  -6    1.80    0.50
   2  -7  -6    1.80    0.40
  -2  -7   6    3.60    0.60
  -2  -7   6    3.20    0.50
   2  -7  -6    2.00    0.60
   2   7  -5    3.90    1.80
   2   7  -5    4.10    0.40
   2   7  -5    4.40    0.40
   2   7  -5    6.00    2.40
  -2   7   5    6.00    1.70
  -2   7   5    4.60    0.50
  -2   7   5    4.40    0.50
   2  -7  -5    4.80    0.50
  -2  -7   5    5.40    0.60
   2  -7  -5    3.40    2.00
   2  -7  -5    4.60    0.70
  -2  -7   5    4.10    0.50
  -2  -7   5    4.70    0.60
   2  -7  -5    5.10    0.70
  -2  -7   5    4.60    0.50
   2   7  -4    0.90    1.10
  -2   7   4    0.00    0.80
  -2   7   4    0.20    0.20
  -2   7   4    0.10    0.20
  -2  -7   4    0.10    0.20
   2  -7  -4    0.00    0.30
  -2  -7   4    0.20    0.20
   2  -7  -4    0.20    0.20
  -2  -7   4    0.10    0.20
   2  -7  -4    0.00    0.30
  -2  -7   4    0.00    0.20
  -2  -7   4    0.10    0.20
  -2   7   3   37.50    1.60
  -2   7   3   41.50    3.70
   2   7  -3   38.60    3.70
  -2   7   3   38.30    1.70
   2   7  -3   32.90    4.10
  -2  -7   3   41.10    1.70
  -2  -7   3   38.80    1.80
   2  -7  -3   38.90    1.90
   2  -7  -3   35.70    1.70
  -2  -7   3   36.10    1.80
   2  -7  -3   36.10    4.20
  -2  -7   3   40.60    1.80
   2  -7  -3   36.90    1.90
  -2  -7   3   38.20    1.90
  -2  -7   3   39.10    1.80
   2   7  -2    3.40    1.30
   2   7  -2    3.40    1.60
  -2   7   2    6.80    2.00
  -2  -7   2    4.60    0.50
   2  -7  -2    9.10    2.50
   2  -7  -2    6.40    0.70
  -2  -7   2    4.50    0.50
  -2  -7   2    4.40    0.50
  -2  -7   2    4.10    0.50
  -2  -7   2    4.40    0.60
  -2  -7   2    3.90    0.60
   2   7  -1   68.19    5.70
  -2   7   1   72.19    2.70
  -2   7   1   73.39    2.80
   2   7  -1   71.59    4.90
  -2   7   1   66.99    5.40
   2  -7  -1   68.59    3.00
   2  -7  -1   60.59    5.50
  -2  -7   1   72.19    3.00
  -2  -7   1   76.69    2.90
   2  -7  -1   71.09    2.80
  -2  -7   1   71.09    2.80
  -2  -7   1   71.39    2.90
  -2  -7   1   73.49    3.10
   2  -7  -1   72.69    3.10
  -2  -7   1   72.29    2.80
   2   7   0   44.90    1.90
   2   7   0   42.30    3.50
   2   7   0   42.80    1.90
   2   7   0   43.30    4.20
  -2   7   0   47.00    1.80
  -2   7   0   45.00    4.60
  -2   7   0   45.70    1.80
  -2  -7   0   39.50    2.00
   2  -7   0   45.50    1.90
  -2  -7   0   42.10    1.90
   2  -7   0   43.80    1.90
   2  -7   0   45.30    2.10
   2  -7   0   43.30    4.30
  -2  -7   0   44.00    2.10
   2  -7   0   44.50    2.10
  -2  -7   0   44.90    1.80
   2   7   1  121.39    6.80
   2   7   1  119.39    6.30
   2   7   1  117.79    4.30
  -2   7  -1  104.29    7.70
  -2   7  -1  120.39    7.00
   2   7   1  115.69    4.20
   2  -7   1  112.39    4.30
   2  -7   1  116.39    4.50
   2  -7   1  112.49    4.30
  -2  -7  -1  114.79    4.20
  -2  -7  -1  109.89    4.40
  -2  -7  -1  120.79    4.50
   2  -7   1  115.99    4.30
   2  -7   1  114.79    4.30
  -2  -7  -1  111.79    4.50
   2  -7   1  115.19    4.50
   2   7   2    1.50    0.90
  -2   7  -2    2.00    1.30
  -2   7  -2    2.00    1.10
   2   7   2    1.80    0.40
  -2  -7  -2    1.20    0.20
   2  -7   2    2.60    0.50
   2  -7   2    1.20    0.40
  -2  -7  -2    1.30    0.40
  -2  -7  -2    0.80    0.40
  -2  -7  -2   -0.40    0.70
  -2  -7  -2    1.30    0.40
   2  -7   2    2.20    0.40
  -2   7  -3   91.09    7.40
   2   7   3   85.49    3.40
  -2   7  -3   90.49    3.30
   2   7   3   89.09    5.20
   2   7   3   90.49    3.50
  -2   7  -3   80.79    6.00
   2  -7   3   87.89    3.50
   2  -7   3   91.39    3.60
   2  -7   3   91.09    3.60
  -2  -7  -3   85.29    3.30
  -2  -7  -3   91.19    6.10
  -2  -7  -3   95.59    3.80
  -2  -7  -3   90.69    3.60
   2  -7   3   89.49    3.50
   2  -7   3   90.59    3.40
  -2   7  -4    1.70    1.30
   2   7   4   -0.60    0.80
   2   7   4    0.20    0.20
  -2   7  -4    0.20    0.20
  -2   7  -4    1.00    0.80
   2   7   4    0.10    0.20
   2  -7   4   -0.10    0.20
   2  -7   4    0.30    0.20
  -2  -7  -4    0.40    0.30
  -2  -7  -4    0.10    0.30
  -2  -7  -4    1.00    1.20
   2  -7   4    0.10    0.20
   2  -7   4    0.00    0.20
   2   7   5   10.60    0.80
  -2   7  -5   11.20    0.70
   2   7   5    9.70    0.70
  -2   7  -5    9.90    2.90
  -2   7  -5   10.90    0.70
  -2   7  -5   12.90    2.40
   2  -7   5   10.70    0.90
  -2  -7  -5   10.00    1.00
   2  -7   5   11.80    0.90
   2  -7   5   10.80    0.80
  -2  -7  -5    8.80    0.80
   2   7   6    3.00    0.50
   2   7   6    2.90    0.50
  -2   7  -6    2.00    0.40
  -2  -7  -6    2.20    0.50
   2  -7   6    2.00    0.40
  -2  -7  -6    3.10    0.70
   2  -7   6    1.50    0.50
   2  -7   6    1.70    0.50
   2   7   7   13.50    1.00
   2   7   7   13.10    0.80
  -2   7  -7   13.20    0.80
  -2  -7  -7   14.30    1.00
   2  -7   7   13.50    1.10
   2  -7   7   13.70    1.10
  -2  -7  -7   14.20    1.20
   2  -7   7   12.70    0.90
  -2   8   6   11.30    0.80
  -2   8   6   11.40    0.90
   2   8  -6   12.00    0.80
  -2  -8   6   12.30    1.00
   2  -8  -6   11.60    1.00
   2  -8  -6   10.90    1.10
  -2  -8   6   11.40    1.00
  -2   8   5    0.40    0.30
   2   8  -5    0.30    1.40
  -2   8   5    0.40    0.20
   2   8  -5   -0.50    1.30
   2   8  -5    0.20    0.20
   2  -8  -5    0.40    0.40
   2  -8  -5    0.50    0.40
  -2  -8   5    0.30    0.30
  -2  -8   5   -0.10    0.20
   2  -8  -5    0.30    0.30
  -2  -8   5    0.20    0.20
  -2  -8   5    0.10    0.30
   2   8  -4    4.40    1.80
  -2   8   4    6.40    2.00
  -2   8   4    6.00    0.50
  -2   8   4    6.10    0.60
   2   8  -4    2.30    1.80
  -2  -8   4    6.70    0.70
  -2  -8   4    6.10    0.70
  -2  -8   4    5.70    0.60
   2  -8  -4    6.60    0.80
  -2  -8   4    5.60    0.60
  -2  -8   4    6.00    0.70
   2  -8  -4    5.70    2.20
   2  -8  -4    5.60    0.80
   2  -8  -4    5.20    0.60
  -2  -8   4    6.50    0.70
   2   8  -3    1.90    1.20
   2   8  -3    1.40    1.30
  -2   8   3   -0.20    0.80
  -2   8   3    1.10    0.30
  -2   8   3    1.40    0.30
   2  -8  -3    1.20    0.30
   2  -8  -3    0.70    0.40
   2  -8  -3   -1.90    1.00
  -2  -8   3    1.00    0.40
  -2  -8   3    0.70    0.30
  -2  -8   3    0.40    0.30
  -2  -8   3    0.60    0.30
  -2  -8   3    0.70    0.40
   2  -8  -3    0.90    0.40
  -2  -8   3    0.60    0.30
   2   8  -2   23.80    3.00
   2   8  -2   25.60    3.80
  -2   8   2   26.10    3.30
  -2   8   2   27.90    1.30
  -2   8   2   26.50    1.30
   2  -8  -2   26.00    1.60
   2  -8  -2   25.50    1.30
  -2  -8   2   29.30    1.60
   2  -8  -2   24.80    1.60
  -2  -8   2   28.50    1.40
  -2  -8   2   26.40    1.40
  -2  -8   2   27.60    1.60
  -2  -8   2   27.90    1.30
  -2  -8   2   29.10    1.40
   2  -8  -2   18.50    3.30
  -2   8   1    0.90    0.30
  -2   8   1    0.90    0.30
  -2   8   1    0.40    1.00
   2   8  -1    0.20    0.60
   2   8  -1   -0.10    0.90
  -2  -8   1    0.10    0.20
  -2  -8   1    0.30    0.30
  -2  -8   1    0.40    0.30
   2  -8  -1    0.80    0.40
   2  -8  -1    0.70    0.30
  -2  -8   1    0.30    0.30
  -2  -8   1    0.60    0.20
   2  -8  -1    0.70    0.40
   2  -8  -1   -0.40    1.00
  -2  -8   1    0.20    0.30
  -2   8   0   10.10    1.90
  -2   8   0   12.20    0.70
   2   8   0   12.20    1.90
   2   8   0   11.90    0.80
   2   8   0   12.10    0.80
  -2   8   0   10.80    2.90
  -2   8   0   11.60    0.70
   2   8   0   12.40    2.40
  -2  -8   0   12.10    1.00
  -2  -8   0   12.30    0.90
  -2  -8   0   11.00    0.70
   2  -8   0   11.30    1.00
  -2  -8   0   11.00    1.00
   2  -8   0   11.00    0.70
   2  -8   0   12.00    1.00
   2  -8   0   12.20    0.80
   2   8   1    0.70    0.30
   2   8   1    0.50    0.90
  -2   8  -1    0.80    0.30
   2   8   1    0.70    0.20
   2   8   1    0.90    0.70
  -2   8  -1    1.70    1.30
  -2   8  -1    1.20    0.90
  -2  -8  -1    0.40    0.30
   2  -8   1    1.10    0.50
   2  -8   1    0.90    0.30
  -2  -8  -1    0.60    0.30
  -2  -8  -1    1.00    0.40
   2  -8   1    1.40    0.40
   2  -8   1    1.20    0.50
  -2  -8  -1    0.80    0.20
  -2   8  -2   45.10    5.10
   2   8   2   52.19    4.20
   2   8   2   53.29    2.20
  -2   8  -2   51.79    4.50
   2   8   2   53.49    4.10
   2  -8   2   48.90    2.40
   2  -8   2   48.70    2.10
   2  -8   2   50.79    2.40
   2  -8   2   49.90    2.20
  -2  -8  -2   51.89    2.10
  -2  -8  -2   51.19    2.40
  -2  -8  -2   52.59    2.40
   2  -8   2   53.39    2.30
  -2   8  -3    0.20    0.80
   2   8   3    0.10    0.20
   2   8   3    0.40    0.20
  -2   8  -3    0.10    0.20
  -2   8  -3    1.20    1.20
  -2  -8  -3    0.40    0.40
   2  -8   3    0.40    0.30
   2  -8   3    0.10    0.20
  -2  -8  -3    0.30    0.30
   2  -8   3    0.10    0.40
   2  -8   3    0.20    0.20
  -2   8  -4   22.80    3.80
  -2   8  -4   27.10    3.50
   2   8   4   19.40    1.20
  -2   8  -4   22.30    1.10
   2   8   4   21.70    1.10
  -2  -8  -4   22.00    1.40
   2  -8   4   21.80    1.20
   2  -8   4   20.50    1.30
   2  -8   4   22.50    1.30
  -2  -8  -4   22.80    1.40
   2   8   5    0.30    0.30
  -2   8  -5    0.30    0.20
  -2   8  -5    0.10    0.20
   2   8   5   -0.20    0.20
   2  -8   5    0.10    0.30
  -2  -8  -5    0.10    0.40
  -2  -8  -5    0.30    0.30
   2  -8   5    0.20    0.30
   2  -8   5    0.20    0.30
  -2   8  -6   14.80    0.90
   2   8   6   15.30    0.90
   2   8   6   16.00    1.10
   2  -8   6   14.70    1.10
  -2  -8  -6   16.70    1.20
  -2  -8  -6   17.20    1.30
   2  -8   6   15.20    1.10
   2  -8   6   15.80    1.00
  -2   9   5   11.10    0.80
   2   9  -5   10.90    0.80
  -2   9   5   11.30    0.90
  -2  -9   5   12.10    0.80
  -2  -9   5   11.40    1.00
   2  -9  -5   11.70    1.00
  -2  -9   5   11.00    0.90
   2  -9  -5   10.90    1.00
  -2  -9   5   10.40    0.90
   2   9  -4    1.30    1.90
   2   9  -4    2.70    1.30
  -2   9   4    0.20    0.30
  -2   9   4    0.30    0.30
  -2  -9   4    0.50    0.40
  -2  -9   4    0.60    0.30
   2  -9  -4    0.30    0.40
  -2  -9   4    0.50    0.40
  -2  -9   4    0.50    0.30
  -2  -9   4    0.50    0.40
   2  -9  -4    0.40    0.40
  -2  -9   4    0.50    0.30
   2   9  -3    1.30    1.50
   2   9  -3    0.90    1.50
  -2   9   3    2.70    0.50
  -2   9   3    2.50    0.50
  -2  -9   3    3.00    0.60
  -2  -9   3    3.00    0.60
   2  -9  -3    2.60    0.50
  -2  -9   3    2.50    0.50
  -2  -9   3    2.50    0.60
   2  -9  -3    2.30    0.50
   2  -9  -3    3.10    0.70
  -2  -9   3    2.60    0.50
  -2  -9   3    2.80    0.50
  -2   9   2    0.60    0.30
  -2   9   2    0.30    0.20
   2   9  -2   -0.60    1.20
   2   9  -2   -0.40    0.90
  -2   9   2    0.60    1.40
   2  -9  -2    0.90    0.50
   2  -9  -2    0.20    0.30
  -2  -9   2    0.20    0.30
  -2  -9   2    0.20    0.30
   2  -9  -2    0.80    0.30
   2  -9  -2    2.10    1.70
  -2  -9   2    0.50    0.30
  -2  -9   2    0.10    0.30
  -2  -9   2    0.80    0.40
  -2  -9   2    0.40    0.30
  -2   9   1   21.50    3.00
   2   9  -1   26.60    3.40
  -2   9   1   28.10    1.40
  -2   9   1   29.50    1.40
  -2   9   1   25.70    3.60
   2   9  -1   28.10    4.30
   2   9  -1   29.60    1.50
   2  -9  -1   26.80    1.70
   2  -9  -1   25.10    1.60
  -2  -9   1   26.70    1.60
  -2  -9   1   30.80    1.50
  -2  -9   1   29.60    1.40
  -2  -9   1   27.80    1.60
   2  -9  -1   26.50    1.40
  -2   9   0    6.90    0.60
  -2   9   0    5.70    2.10
   2   9   0    5.50    0.60
   2   9   0    5.40    0.60
  -2   9   0    7.40    2.10
   2  -9   0    8.80    0.90
  -2  -9   0    6.30    0.60
   2  -9   0    7.10    0.80
  -2  -9   0    6.10    0.80
  -2  -9   0    6.50    0.70
   2  -9   0    7.70    0.70
  -2  -9   0    6.00    0.80
  -2   9  -1   40.10    4.20
  -2   9  -1   34.20    4.90
   2   9   1   39.80    1.80
  -2   9  -1   39.20    1.70
  -2   9  -1   39.60    1.80
   2  -9   1   41.00    2.10
   2  -9   1   37.00    1.80
  -2  -9  -1   40.90    2.10
   2  -9   1   40.40    1.80
   2  -9   1   39.40    2.10
  -2  -9  -1   34.50    2.00
  -2   9  -2    0.90    0.90
  -2   9  -2   -1.60    1.00
   2   9   2    0.10    0.20
   2   9   2    0.20    0.30
  -2   9  -2    0.00    0.20
   2  -9   2   -0.10    0.20
   2  -9   2   -0.30    0.20
   2  -9   2    0.10    0.30
  -2  -9  -2   -0.30    0.30
   2  -9   2   -0.20    0.30
  -2  -9  -2    0.00    0.30
   2  -9   2    0.10    0.20
  -2   9  -3   23.70    4.20
   2   9   3   19.10    1.20
  -2   9  -3   18.70    3.10
   2   9   3   19.10    1.10
  -2   9  -3   18.90    1.00
  -2   9  -3   20.00    1.10
  -2  -9  -3   19.60    1.30
  -2  -9  -3   18.10    1.30
   2  -9   3   19.40    1.10
   2  -9   3   20.50    1.30
   2  -9   3   20.90    1.30
   2  -9   3   19.60    1.40
   2   9   4    0.50    0.30
   2   9   4    0.60    0.30
  -2   9  -4    1.30    0.30
   2  -9   4    0.60    0.30
   2  -9   4    1.30    0.40
  -2  -9  -4    0.70    0.40
   2  -9   4    1.00    0.40
  -2  -9  -4    0.30    0.40
  -2   9  -5   12.90    0.80
   2   9   5   12.20    1.00
   2   9   5   12.10    0.80
   2  -9   5   12.70    0.90
   2  -9   5   13.40    1.10
   2  -9   5   13.20    1.10
  -2  -9  -5   14.00    1.20
  -2  -9  -5   13.30    1.10
  -2  10   3    0.20    0.20
  -2 -10   3    0.30    0.30
  -2 -10   3   -0.40    0.30
   2 -10  -3    0.10    0.40
  -2 -10   3   -0.10    0.30
  -2 -10   3    0.30    0.30
  -2 -10   3    0.00    0.30
   2 -10  -3    0.60    0.40
  -2 -10   3    0.10    0.40
   2  10  -2    3.50    0.60
  -2  10   2    3.60    0.50
   2 -10  -2    3.40    0.50
   2 -10  -2    3.60    0.80
  -2 -10   2    3.40    0.70
  -2 -10   2    3.30    0.70
  -2 -10   2    5.30    0.70
  -2 -10   2    3.90    0.60
  -2 -10   2    3.80    0.50
   2 -10  -2    3.80    0.80
  -2  10   1    0.10    0.20
   2  10  -1    0.10    0.30
   2  10  -1    0.50    0.30
  -2 -10   1    0.40    0.30
  -2 -10   1   -0.10    0.30
   2 -10  -1    0.10    0.30
   2 -10  -1   -0.30    0.20
  -2 -10   1    0.70    0.50
  -2 -10   1    0.40    0.30
   2 -10  -1    0.90    0.50
  -2  10   0   10.50    0.80
   2  10   0   11.00    0.90
   2 -10   0    9.60    1.00
  -2 -10   0   12.00    1.10
   2 -10   0    9.90    0.80
   2 -10   0    9.60    1.00
  -2 -10   0    9.80    1.10
  -2  10  -1    0.20    0.20
   2  10   1    0.00    0.20
   2  10   1   -0.30    0.20
  -2  10  -1   -0.80    2.00
   2 -10   1    0.60    0.50
   2 -10   1   -0.10    0.20
   2 -10   1   -0.30    0.30
  -2 -10  -1   -0.10    0.30
  -2 -10  -1    0.70    0.50
  -2  10  -2    9.40    2.90
  -2  10  -2    8.80    0.70
   2  10   2    7.80    0.70
   2  10   2    7.20    0.70
   2 -10   2    8.40    0.70
  -2 -10  -2    7.70    0.90
  -2 -10  -2    8.40    0.90
   2 -10   2    8.10    0.90
   2 -10   2    9.10    0.80
   2 -10   2    8.90    0.90
   2  10   3    0.00    0.30
   2  10   3    0.10    0.30
  -2  10  -3    0.30    0.20
  -2  10  -3   -0.10    0.20
   2 -10   3    0.20    0.30
   2 -10   3    0.30    0.30
  -2 -10  -3    0.10    0.40
  -2 -10  -3   -0.10    0.30
   2 -10   3   -0.40    0.30
  -3   0  10    4.20    0.50
   3   0 -10    3.90    0.50
  -3   0  10    4.30    0.60
   3   0 -10    3.40    0.50
  -3   0  10    3.40    0.60
   3   0  -9    1.10    1.30
  -3   0   9    0.60    0.40
   3   0  -9    0.30    0.30
   3   0  -9    0.20    0.30
  -3   0   9    0.50    0.30
  -3   0   9    0.50    0.30
   3   0  -8   76.19    2.90
   3   0  -8   72.69    5.70
  -3   0   8   75.19    3.10
  -3   0   8   76.19    3.10
   3   0  -8   79.39    2.90
  -3   0   8   70.19    5.50
  -3   0   8   77.29    2.90
  -3   0   7    0.70    0.60
  -3   0   7   -0.20    0.20
  -3   0   7    0.00    0.20
   3   0  -7    0.10    0.20
   3   0  -7    0.20    0.20
   3   0  -7    0.00    0.50
  -3   0   7    0.00    0.20
  -3   0   6  270.07    9.20
   3   0  -6  277.97   12.40
  -3   0   6  276.97    9.40
   3   0  -6  256.47    9.20
  -3   0   6  268.87    9.40
   3   0  -6  276.37    9.20
  -3   0   6  235.48   12.00
   3   0  -5    1.10    0.20
  -3   0   5    1.10    0.80
   3   0  -5    1.40    0.20
  -3   0   5    1.20    0.30
   3   0  -5    1.80    0.80
  -3   0   5    1.70    0.30
  -3   0   5    1.20    0.20
   3   0  -4 1223.88   44.10
  -3   0   4 1242.88   44.10
  -3   0   3    0.10    0.10
  -3   0   3    0.20    0.10
   3   0  -3    0.20    0.10
  -3   0   3   -0.20    0.20
  -3   0   3    0.20    0.10
   3   0  -3    0.30    0.40
   3   0  -3    0.10    0.10
  -3   0   2  153.98    5.40
  -3   0   2  149.79    5.50
   3   0  -2  162.48    6.80
   3   0  -2  158.88    5.50
  -3   0   2  169.38    6.90
   3   0  -2  165.78    5.50
  -3   0   2  161.08    5.50
  -3   0   2  163.18    5.60
  -3   0   1    0.70    0.10
   3   0  -1    0.80    0.10
   3   0  -1    0.70    0.10
   3   0  -1    0.90    0.10
   3   0  -1    0.70    0.10
   3   0  -1    1.00    0.10
  -3   0   1    0.80    0.10
  -3   0   1    0.90    0.10
   3   0  -1    0.50    0.30
  -3   0   1    0.70    0.10
  -3   0   1    0.70    0.10
  -3   0   1    0.30    0.30
  -3   0   0  207.38    8.00
   3   0   0  213.78    8.10
   3   0   1    0.80    0.10
   3   0   1    0.90    0.10
  -3   0  -1    0.90    0.50
   3   0   1    0.80    0.10
  -3   0  -1    0.80    0.10
  -3   0  -1    0.70    0.10
   3   0   1    0.90    0.10
  -3   0  -1    0.90    0.10
  -3   0  -1    0.80    0.30
  -3   0  -1    0.70    0.10
  -3   0  -2    6.10    0.30
   3   0   2    6.40    0.30
   3   0   2    5.90    0.40
   3   0   2    5.50    0.40
   3   0   2    5.60    0.30
  -3   0  -2    6.20    0.30
  -3   0  -2    6.80    0.90
   3   0   2    5.30    0.80
  -3   0  -3    1.10    0.20
   3   0   3    1.10    0.20
  -3   0  -3    0.80    0.10
   3   0   3    1.00    0.50
   3   0   3    1.00    0.20
   3   0   3    0.90    0.20
  -3   0  -3    0.90    0.50
   3   0   3    0.90    0.10
   3   0   4  392.76   15.90
   3   0   4  409.16   14.00
  -3   0  -4  403.26   13.80
  -3   0  -4  413.66   16.20
  -3   0  -5    1.00    0.20
   3   0   5    1.00    0.20
  -3   0  -5    1.00    0.70
  -3   0  -5    1.00    0.20
   3   0   5    1.00    0.30
   3   0   5    0.70    0.50
  -3   0  -5    1.10    0.20
   3   0   5    1.00    0.30
   3   0   6  110.99    4.20
   3   0   6  110.29    3.90
  -3   0  -6  110.59    4.00
  -3   0  -6  106.29    6.60
  -3   0  -6  113.69    4.00
   3   0   6  109.79    6.50
  -3   0  -6  113.19    4.00
   3   0   6  103.99    4.10
   3   0   7    0.00    0.20
  -3   0  -7    0.10    0.20
  -3   0  -7    0.50    0.70
  -3   0  -7    0.20    0.20
   3   0   7    1.50    0.80
   3   0   7    0.20    0.20
   3   0   7    0.00    0.10
  -3   0  -7    0.20    0.20
   3   0   8   44.80    4.10
   3   0   8   40.30    2.00
  -3   0  -8   42.20    1.80
  -3   0  -8   41.60    1.70
  -3   0  -8   34.40    4.00
   3   0   8   38.70    1.90
  -3   0  -9    0.90    1.50
  -3   0  -9    0.10    0.20
   3   0   9    0.50    1.20
   3   0   9    0.10    0.30
  -3   0  -9    0.10    0.20
   3   0   9    0.00    0.30
   3   1 -10    0.30    0.30
  -3   1  10    0.00    0.30
  -3   1  10    0.10    0.30
  -3   1  10   -0.10    0.20
   3   1 -10    0.20    0.30
  -3  -1  10   -0.10    0.30
  -3  -1  10    0.10    0.30
   3  -1 -10    0.30    0.30
   3  -1 -10    0.20    0.30
   3   1  -9   51.39    2.10
  -3   1   9   42.80    6.00
  -3   1   9   49.30    2.10
  -3   1   9   50.09    2.30
   3   1  -9   51.49    4.90
  -3   1   9   50.49    2.30
   3   1  -9   48.30    2.10
  -3  -1   9   49.40    2.30
   3  -1  -9   49.70    2.10
  -3  -1   9   47.40    2.10
  -3  -1   9   48.70    2.30
   3  -1  -9   48.40    2.10
   3  -1  -9   51.89    5.10
   3   1  -8   -0.40    0.80
  -3   1   8    0.70    0.30
  -3   1   8    0.70    0.30
  -3   1   8    0.90    0.40
   3   1  -8    0.60    0.30
   3   1  -8    0.30    0.20
  -3   1   8    0.10    1.00
   3  -1  -8    1.40    1.10
  -3  -1   8    1.00    0.40
  -3  -1   8    0.70    0.90
  -3  -1   8    1.20    0.40
   3  -1  -8    1.20    0.30
   3  -1  -8    1.10    0.30
  -3  -1   8    0.50    0.20
   3   1  -7   50.29    2.10
  -3   1   7   55.49    2.10
  -3   1   7   53.39    2.30
   3   1  -7   45.70    4.20
   3   1  -7   55.19    2.10
  -3   1   7   55.09    2.30
  -3   1   7   49.90    4.40
  -3  -1   7   54.79    2.30
   3  -1  -7   51.79    4.40
  -3  -1   7   54.99    2.40
   3  -1  -7   55.59    2.20
  -3  -1   7   55.29    2.10
   3  -1  -7   54.69    2.20
  -3  -1   7   60.39    4.70
  -3   1   6    7.90    0.60
   3   1  -6    7.50    0.50
   3   1  -6    7.50    0.50
  -3   1   6    7.30    0.50
  -3   1   6    8.50    0.70
  -3   1   6    8.10    1.70
   3   1  -6    5.40    1.60
   3  -1  -6    7.60    1.60
  -3  -1   6    7.40    0.60
   3  -1  -6    7.90    0.50
  -3  -1   6    8.10    0.70
   3  -1  -6    6.70    0.50
  -3  -1   6    8.40    0.50
  -3  -1   6    7.00    1.80
  -3   1   5  453.15   16.40
  -3   1   5  486.45   19.30
   3   1  -5  492.95   19.30
   3  -1  -5  491.35   16.40
  -3  -1   5  496.55   19.50
  -3  -1   5  465.95   16.50
   3  -1  -5  479.15   19.10
  -3   1   4    6.70    0.50
  -3   1   4    6.80    1.30
  -3   1   4    6.90    0.40
   3   1  -4    5.00    0.40
  -3   1   4    6.60    0.40
   3   1  -4    5.10    0.30
   3   1  -4    5.30    1.30
   3  -1  -4    6.60    0.40
  -3  -1   4    4.30    1.20
   3  -1  -4    7.90    1.30
  -3  -1   4    4.80    0.40
   3  -1  -4    7.00    0.40
   3  -1  -4    6.60    0.40
  -3   1   3  499.65   18.60
   3   1  -3  473.55   18.50
   3  -1  -3  491.25   18.60
  -3  -1   3  493.55   18.60
  -3   1   2  527.25   19.10
   3   1  -2  526.85   19.10
   3  -1  -2  495.85   19.10
  -3  -1   2  532.45   19.10
   3   1  -1  368.96   13.00
  -3   1   1  357.16   13.40
   3  -1  -1  351.86   13.40
  -3  -1   1  352.26   13.00
  -3   1   0   41.60    1.60
  -3   1   0   39.60    2.60
   3   1   0   46.60    1.50
  -3   1   0   46.70    1.60
   3   1   0   49.70    1.90
  -3   1   0   40.90    1.50
   3   1   0   48.90    1.60
  -3  -1   0   50.19    1.60
   3  -1   0   39.60    1.50
   3  -1   0   43.90    1.70
  -3  -1   0   42.10    1.50
   3  -1   0   42.70    2.80
   3  -1   0   42.00    1.60
  -3  -1   0   46.00    1.60
   3  -1   0   39.50    1.60
  -3  -1   0   49.50    1.60
  -3   1  -1  103.19    3.70
   3   1   1  111.09    3.80
  -3   1  -1  106.29    5.30
  -3   1  -1  109.09    3.70
  -3  -1  -1  108.59    4.10
  -3  -1  -1  107.19    3.70
   3  -1   1  105.89    3.80
   3  -1   1  105.59    3.80
  -3  -1  -1  105.79    4.20
   3  -1   1  106.49    3.70
   3  -1   1  108.99    3.80
  -3  -1  -1  113.39    3.80
   3  -1   1  107.99    5.30
   3   1   2   76.99    3.50
  -3   1  -2   87.19    4.70
   3   1   2   74.89    2.80
  -3   1  -2   81.79    2.70
   3   1   2   72.49    2.80
  -3   1  -2   79.59    2.80
  -3   1  -2   81.89    4.10
   3  -1   2   79.79    2.80
  -3  -1  -2   77.09    3.60
  -3  -1  -2   76.09    2.80
   3  -1   2   80.69    2.80
  -3  -1  -2   75.89    2.80
  -3  -1  -2   76.59    2.80
   3  -1   2   81.49    2.90
  -3   1  -3   53.29    1.90
   3   1   3   48.40    2.00
   3   1   3   50.49    1.90
   3   1   3   51.89    3.10
  -3   1  -3   52.29    1.90
   3   1   3   50.69    2.00
   3  -1   3   52.59    2.00
  -3  -1  -3   50.59    1.90
  -3  -1  -3   53.89    1.90
   3  -1   3   50.79    3.30
  -3  -1  -3   51.79    1.90
   3  -1   3   53.39    2.00
  -3  -1  -3   52.39    3.10
   3  -1   3   51.29    1.90
   3   1   4  130.49    4.30
   3   1   4  128.79    4.40
   3   1   4  122.59    4.40
  -3   1  -4  122.39    4.30
  -3   1  -4  121.99    6.40
   3   1   4  129.49    6.20
  -3   1  -4  121.09    4.30
  -3  -1  -4  126.79    6.20
  -3  -1  -4  129.49    4.40
  -3  -1  -4  126.59    4.30
  -3  -1  -4  123.09    4.30
   3  -1   4  110.19    4.40
   3  -1   4  114.39    4.50
   3  -1   4  113.09    4.30
   3  -1   4  117.29    6.30
   3   1   5  155.78    5.30
  -3   1  -5  145.79    7.90
  -3   1  -5  153.28    5.30
   3   1   5  147.19    5.50
   3   1   5  150.38    5.50
  -3   1  -5  149.49    5.30
   3   1   5  147.29    7.40
  -3  -1  -5  159.18    5.40
   3  -1   5  146.79    5.50
  -3  -1  -5  155.38    7.70
  -3  -1  -5  150.88    5.30
  -3  -1  -5  155.68    5.40
   3  -1   5  145.69    5.50
   3  -1   5  146.79    7.80
   3  -1   5  151.08    5.40
   3   1   6    5.00    0.40
  -3   1  -6    6.00    0.50
   3   1   6    5.40    0.50
  -3   1  -6    8.50    2.10
  -3   1  -6    5.70    0.50
   3   1   6    4.30    1.30
  -3   1  -6    6.70    0.40
   3   1   6    4.90    0.60
  -3  -1  -6    5.50    0.50
   3  -1   6    6.20    0.40
   3  -1   6    5.70    1.60
   3  -1   6    6.60    0.60
  -3  -1  -6    4.90    0.50
   3  -1   6    6.40    0.60
  -3  -1  -6    6.80    1.90
  -3  -1  -6    5.00    0.40
  -3   1  -7  107.79    3.90
   3   1   7  100.69    6.50
  -3   1  -7   98.69    6.70
   3   1   7  112.99    4.20
   3   1   7  100.39    4.10
   3   1   7  104.79    3.80
  -3   1  -7  108.49    3.90
  -3  -1  -7  104.59    3.90
  -3  -1  -7  101.79    6.70
  -3  -1  -7  106.79    3.90
   3  -1   7  103.29    4.10
   3  -1   7  106.39    6.80
   3  -1   7  109.59    4.20
  -3  -1  -7  107.09    4.00
  -3   1  -8    3.00    0.40
  -3   1  -8    2.20    1.60
   3   1   8    3.00    0.40
   3   1   8    3.30    0.50
  -3   1  -8    3.30    0.40
   3   1   8    3.30    0.60
   3   1   8    3.80    1.40
  -3  -1  -8    1.70    1.10
   3  -1   8    2.60    1.20
  -3  -1  -8    3.10    0.40
   3  -1   8    2.60    0.50
   3  -1   8    2.70    0.50
  -3  -1  -8    2.80    0.40
  -3   1  -9   16.70    1.00
  -3   1  -9    8.70    2.50
   3   1   9   16.50    1.20
   3   1   9   16.40    1.10
   3   1   9   13.00    2.70
  -3   1  -9   16.50    1.00
   3  -1   9   14.90    1.10
  -3  -1  -9   17.10    1.00
  -3  -1  -9   17.10    1.00
   3  -1   9   13.60    1.10
  -3   2  10   11.50    0.80
   3   2 -10   12.30    0.90
  -3   2  10   12.70    1.00
   3   2 -10   12.00    0.80
   3  -2 -10   11.50    0.90
   3  -2 -10   12.80    0.90
  -3  -2  10   12.30    1.00
  -3  -2  10   12.20    1.00
   3   2  -9    0.10    0.20
  -3   2   9    0.10    0.20
  -3   2   9    0.00    0.30
  -3   2   9   -1.30    1.00
   3   2  -9    0.10    0.20
   3   2  -9   -0.60    0.90
  -3   2   9    0.00    0.20
   3  -2  -9    0.30    0.30
  -3  -2   9    0.10    0.20
  -3  -2   9    0.10    0.30
  -3  -2   9    0.20    0.30
   3  -2  -9    0.40    0.30
   3  -2  -9    0.20    1.10
  -3   2   8   15.30    0.80
   3   2  -8   16.10    0.90
  -3   2   8   15.40    1.00
   3   2  -8   12.30    2.50
  -3   2   8   14.60    2.50
  -3   2   8   15.60    1.00
   3   2  -8   14.80    0.90
  -3  -2   8   16.40    2.50
  -3  -2   8   15.20    1.00
  -3  -2   8   15.20    0.90
   3  -2  -8   14.80    0.90
   3  -2  -8   15.50    2.70
  -3  -2   8   15.20    1.00
   3  -2  -8   14.40    0.90
  -3   2   7   12.70    2.20
  -3   2   7   10.20    0.80
  -3   2   7   10.50    0.60
   3   2  -7   11.80    0.70
  -3   2   7    9.50    0.70
   3   2  -7   10.50    0.60
   3   2  -7   10.90    2.10
   3  -2  -7   10.90    0.70
  -3  -2   7   11.90    0.70
   3  -2  -7    9.70    0.70
  -3  -2   7   12.00    0.80
   3  -2  -7   10.60    2.20
  -3  -2   7    9.60    2.30
   3  -2  -7    9.70    0.70
  -3  -2   7   11.60    0.80
  -3   2   6  747.93   25.10
  -3   2   6  757.12   28.50
   3   2  -6  707.03   28.50
  -3  -2   6  749.92   28.70
  -3  -2   6  728.63   25.20
   3  -2  -6  736.53   28.60
   3  -2  -6  723.23   25.10
   3   2  -5   24.40    1.10
  -3   2   5   27.00    1.20
  -3   2   5   26.40    1.10
  -3   2   5   26.70    1.10
   3   2  -5   25.10    1.10
  -3   2   5   30.00    2.80
   3   2  -5   28.70    2.80
  -3  -2   5   25.60    1.30
  -3  -2   5   25.10    2.70
   3  -2  -5   25.70    1.20
   3  -2  -5   26.00    1.10
  -3  -2   5   24.90    1.10
   3  -2  -5   31.50    2.90
  -3  -2   5   24.80    1.30
   3  -2  -5   25.70    1.20
  -3   2   4   37.90    1.40
   3   2  -4   38.00    1.40
   3   2  -4   33.20    1.40
  -3   2   4   36.60    3.00
   3   2  -4   35.10    3.00
  -3   2   4   37.50    1.50
  -3   2   4   37.00    1.40
  -3  -2   4   30.10    2.80
  -3  -2   4   37.60    1.60
   3  -2  -4   35.10    2.90
   3  -2  -4   40.10    1.50
   3  -2  -4   38.60    1.60
  -3  -2   4   34.40    1.60
  -3  -2   4   37.20    1.40
   3  -2  -4   36.20    1.40
  -3   2   3  115.09    4.00
   3   2  -3  116.59    4.00
  -3   2   3  113.39    4.00
   3   2  -3  115.19    3.90
  -3   2   3  118.69    5.80
   3   2  -3  110.89    5.70
  -3  -2   3  114.19    5.80
   3  -2  -3  103.69    3.90
   3  -2  -3  112.59    5.80
   3  -2  -3  109.89    4.00
   3  -2  -3  104.99    4.10
  -3  -2   3  120.39    4.10
  -3  -2   3  118.79    4.00
  -3  -2   3  123.59    4.20
   3  -2  -3  109.89    4.10
   3   2  -2 1960.50   67.29
  -3  -2   2 1944.71   67.29
   3   2  -1  392.06   14.50
  -3   2   1  438.26   16.40
   3   2  -1  464.85   15.60
  -3  -2   1  427.66   15.60
   3   2   0 1304.07   43.90
  -3   2   0 1259.17   45.70
   3   2   0 1293.17   44.10
   3  -2   0 1311.97   45.90
  -3   2  -1  247.38    8.30
  -3   2  -1  232.58    8.30
  -3   2  -1  241.58   10.50
  -3   2  -1  239.48    8.20
  -3   2  -1  242.18    8.30
  -3  -2  -1  260.27    8.40
   3  -2   1  244.98    8.30
  -3  -2  -1  257.97    8.40
  -3  -2  -1  244.68    8.30
   3  -2   1  243.28    8.50
   3  -2   1  236.18    8.40
   3  -2   1  238.28   10.50
  -3   2  -2  824.62   30.60
   3   2   2  805.22   28.40
  -3   2  -2  844.52   29.80
  -3  -2  -2  804.72   28.40
  -3   2  -3   10.70    0.60
  -3   2  -3   11.60    0.50
   3   2   3   10.90    0.60
   3   2   3    9.80    0.60
  -3   2  -3   14.40    2.00
  -3   2  -3   12.80    1.70
   3   2   3   10.50    1.20
  -3  -2  -3   12.30    0.60
  -3  -2  -3   11.10    0.50
  -3  -2  -3   10.80    0.60
  -3  -2  -3   12.90    1.30
   3  -2   3   13.70    0.70
   3  -2   3   13.90    0.60
  -3   2  -4   11.30    0.50
  -3   2  -4    9.70    1.60
   3   2   4   12.40    0.60
   3   2   4   10.40    1.40
  -3   2  -4   11.10    0.60
   3   2   4   12.10    0.60
   3   2   4   11.50    0.70
   3  -2   4   10.80    0.70
   3  -2   4   11.00    0.60
  -3  -2  -4   13.70    0.60
  -3  -2  -4   13.70    0.70
   3  -2   4    9.70    0.70
  -3  -2  -4   12.10    0.60
  -3  -2  -4   12.30    1.50
   3   2   5   41.10    1.80
  -3   2  -5   40.80    1.60
  -3   2  -5   42.60    1.60
   3   2   5   43.40    1.80
  -3   2  -5   41.30    3.60
   3   2   5   43.50    1.60
   3   2   5   42.40    3.30
   3  -2   5   38.10    1.80
   3  -2   5   39.30    1.80
  -3  -2  -5   40.40    3.40
   3  -2   5   37.80    3.40
  -3  -2  -5   42.30    1.80
  -3  -2  -5   38.50    1.60
  -3  -2  -5   40.70    1.70
   3  -2   5   39.10    1.70
  -3   2  -6  219.88    7.60
   3   2   6  214.48   10.50
  -3   2  -6  219.38   11.00
   3   2   6  208.18    7.80
   3   2   6  220.18    7.90
   3   2   6  217.58    7.60
   3  -2   6  235.88    8.00
  -3  -2  -6  218.48    7.70
  -3  -2  -6  206.38   10.60
   3  -2   6  215.78    7.90
   3  -2   6  225.88   10.90
  -3  -2  -6  219.58    7.80
  -3  -2  -6  222.68    7.70
   3   2   7   -0.30    0.90
   3   2   7    0.80    0.20
   3   2   7    0.30    0.30
  -3   2  -7    1.00    1.10
  -3   2  -7    0.80    0.30
  -3   2  -7    0.70    0.20
   3   2   7    0.70    0.30
  -3  -2  -7    0.70    0.20
   3  -2   7    1.00    0.40
  -3  -2  -7   -0.70    0.70
   3  -2   7    0.10    0.70
   3  -2   7    0.80    0.30
  -3  -2  -7    0.40    0.30
  -3  -2  -7    0.20    0.20
  -3   2  -8   16.80    3.00
   3   2   8   16.30    1.10
  -3   2  -8   16.80    0.90
  -3   2  -8   17.10    0.90
   3   2   8   17.00    1.10
   3   2   8   16.60    0.90
   3   2   8   17.90    2.90
  -3  -2  -8   17.60    1.00
  -3  -2  -8   13.20    2.70
   3  -2   8   16.50    1.10
   3  -2   8   16.90    1.10
  -3  -2  -8   17.00    1.00
   3   2   9    0.30    0.30
   3   2   9    0.30    0.30
  -3   2  -9    0.50    0.30
   3   2   9    0.40    0.20
  -3   2  -9    0.50    0.30
  -3  -2  -9    0.30    0.30
  -3  -2  -9    0.30    0.20
   3  -2   9    0.10    0.30
   3  -2   9    0.30    0.30
  -3   3   9    9.30    0.80
  -3   3   9   10.80    2.60
   3   3  -9    9.70    0.70
  -3   3   9    8.40    0.70
   3   3  -9    8.90    0.70
  -3  -3   9    9.00    0.80
   3  -3  -9    8.80    0.70
   3  -3  -9    8.20    0.70
   3  -3  -9    4.40    2.10
  -3  -3   9    8.70    0.80
  -3   3   8    2.00    0.50
  -3   3   8    2.00    0.40
  -3   3   8    1.80    0.30
  -3   3   8    0.20    1.10
   3   3  -8    1.20    1.20
   3   3  -8    1.80    0.30
   3   3  -8    2.50    0.40
   3  -3  -8    1.50    0.40
   3  -3  -8    2.10    0.40
  -3  -3   8    2.60    0.40
   3  -3  -8    1.80    0.40
  -3  -3   8    1.90    0.40
  -3  -3   8    1.90    1.20
   3  -3  -8    1.80    1.30
  -3  -3   8    2.70    0.50
   3   3  -7   63.49    2.60
  -3   3   7   68.99    2.60
  -3   3   7   61.99    5.10
   3   3  -7   65.09    5.30
   3   3  -7   71.59    2.60
  -3   3   7   68.59    2.80
  -3   3   7   66.39    2.60
   3  -3  -7   71.59    2.70
   3  -3  -7   63.69    5.20
  -3  -3   7   67.79    2.60
  -3  -3   7   67.59    2.80
  -3  -3   7   64.49    2.80
  -3  -3   7   64.29    5.10
   3  -3  -7   68.49    2.80
   3  -3  -7   69.69    2.60
  -3   3   6    4.40    0.40
   3   3  -6    4.70    0.40
  -3   3   6    4.70    0.50
  -3   3   6    3.60    1.30
   3   3  -6    2.30    1.10
  -3   3   6    5.20    0.40
   3   3  -6    4.60    0.40
  -3  -3   6    2.70    1.20
   3  -3  -6    4.70    0.50
   3  -3  -6    4.20    0.50
  -3  -3   6    3.60    0.50
   3  -3  -6    4.60    0.50
   3  -3  -6    3.20    1.30
  -3  -3   6    3.90    0.50
  -3  -3   6    3.80    0.40
   3   3  -5   81.09    5.40
  -3   3   5   85.79    5.40
   3   3  -5   84.09    3.10
  -3   3   5   86.09    3.10
   3   3  -5   85.59    3.00
  -3   3   5   84.39    3.20
  -3  -3   5   81.89    5.30
   3  -3  -5   83.79    3.30
  -3  -3   5   82.29    3.30
   3  -3  -5   84.99    3.20
  -3  -3   5   80.39    3.20
   3  -3  -5   83.19    3.10
   3  -3  -5   81.29    5.60
  -3  -3   5   85.49    3.10
   3   3  -4   50.49    2.00
  -3   3   4   53.99    2.10
  -3   3   4   54.29    3.80
   3   3  -4   55.79    3.90
   3   3  -4   52.39    1.90
  -3   3   4   52.99    2.00
   3  -3  -4   51.69    2.10
  -3  -3   4   52.69    3.80
  -3  -3   4   53.49    2.00
   3  -3  -4   50.99    3.80
  -3  -3   4   52.89    2.20
   3  -3  -4   52.69    2.00
   3  -3  -4   53.29    2.20
  -3  -3   4   53.29    2.20
   3   3  -3  743.23   27.90
  -3   3   3  750.52   27.80
  -3  -3   3  733.63   27.80
  -3  -3   3  751.52   25.60
   3  -3  -3  802.92   28.40
   3   3  -2  239.48    9.90
  -3   3   2  253.37   10.20
  -3  -3   2  226.48    8.20
  -3  -3   2  225.48    8.10
   3  -3  -2  242.78    8.30
  -3  -3   2  232.08    8.20
  -3  -3   2  225.08    8.20
   3  -3  -2  248.48    8.30
   3  -3  -2  237.58    8.20
   3  -3  -2  243.98   10.60
  -3  -3   2  228.58    8.20
  -3  -3   2  246.48    9.90
   3   3  -1  456.55   16.60
  -3   3   1  440.26   17.60
   3  -3  -1  455.75   18.10
   3  -3  -1  460.65   15.50
  -3  -3   1  440.26   15.50
  -3  -3   1  465.05   16.70
   3   3   0  172.08    6.70
   3   3   0  175.28    7.20
   3   3   0  177.88    6.10
  -3   3   0  179.28    6.00
  -3   3   0  163.18    6.00
   3   3   0  164.58    6.00
  -3   3   0  188.48    8.60
   3  -3   0  170.28    6.10
   3  -3   0  179.98    6.20
   3  -3   0  177.38    6.20
  -3  -3   0  176.68    6.10
   3  -3   0  184.08    6.10
   3  -3   0  177.68    8.50
  -3  -3   0  176.38    6.10
  -3  -3   0  167.88    6.00
  -3  -3   0  175.88    6.10
  -3   3  -1  486.25   19.00
   3  -3   1  461.75   16.10
   3  -3   1  477.05   18.90
  -3  -3  -1  463.75   16.00
   3   3   2   98.19    3.20
  -3   3  -2   75.79    3.10
  -3   3  -2   85.39    3.10
   3   3   2  101.89    3.10
   3   3   2   95.59    3.80
  -3   3  -2   85.09    5.00
  -3   3  -2   83.19    5.50
   3  -3   2   80.19    3.10
  -3  -3  -2   96.29    3.30
  -3  -3  -2   92.49    3.20
   3  -3   2   78.99    3.20
   3  -3   2   80.89    3.20
  -3  -3  -2  101.29    4.10
   3  -3   2   83.59    3.30
  -3  -3  -2   94.69    3.30
   3  -3   2   77.39    3.30
  -3   3  -3  150.38    7.60
  -3   3  -3  151.18    8.60
   3   3   3  151.88    6.40
   3   3   3  154.58    5.40
  -3   3  -3  146.49    5.20
   3   3   3  148.89    5.30
  -3   3  -3  149.99    5.20
  -3  -3  -3  148.89    5.30
   3  -3   3  151.18    5.50
  -3  -3  -3  152.18    5.40
  -3  -3  -3  151.98    6.60
  -3  -3  -3  150.98    5.40
  -3  -3  -3  149.88    5.20
   3  -3   3  146.49    5.40
  -3   3  -4    1.40    0.80
   3   3   4    2.40    0.30
  -3   3  -4    1.80    0.20
   3   3   4    2.50    0.30
   3   3   4    1.60    0.60
   3   3   4    2.60    0.30
  -3   3  -4    1.60    0.30
  -3   3  -4    0.50    0.90
  -3  -3  -4    2.60    0.40
   3  -3   4    1.80    0.30
   3  -3   4    1.80    0.30
   3  -3   4    1.80    0.40
  -3  -3  -4    1.30    0.70
  -3  -3  -4    2.50    0.20
  -3  -3  -4    2.70    0.30
  -3   3  -5   68.09    5.10
   3   3   5   71.89    2.80
  -3   3  -5   72.39    5.90
  -3   3  -5   74.79    2.70
   3   3   5   71.39    4.50
   3   3   5   70.09    2.90
   3   3   5   74.49    2.80
  -3   3  -5   80.59    2.80
   3  -3   5   77.89    3.00
  -3  -3  -5   72.79    2.80
  -3  -3  -5   71.29    2.70
  -3  -3  -5   72.79    3.00
  -3  -3  -5   75.19    4.80
   3  -3   5   79.59    3.10
   3  -3   5   73.49    2.80
  -3   3  -6   33.50    1.40
  -3   3  -6   27.40    3.80
   3   3   6   34.60    1.60
   3   3   6   32.10    3.20
  -3   3  -6   28.10    3.30
   3   3   6   34.40    1.40
   3   3   6   36.70    1.60
  -3  -3  -6   36.00    3.50
   3  -3   6   32.70    1.50
   3  -3   6   32.80    1.70
  -3  -3  -6   34.00    1.50
  -3  -3  -6   35.10    1.40
  -3  -3  -6   39.70    1.70
   3  -3   6   30.80    1.60
  -3   3  -7   80.89    6.80
  -3   3  -7   82.49    3.20
  -3   3  -7   82.09    3.10
  -3   3  -7   87.09    6.20
   3   3   7   85.89    5.90
   3   3   7   86.49    3.40
   3   3   7   81.89    3.20
   3   3   7   85.99    3.40
   3  -3   7   79.29    3.40
  -3  -3  -7   85.99    3.30
  -3  -3  -7   83.79    6.10
  -3  -3  -7   85.49    3.20
  -3  -3  -7   87.79    3.50
   3  -3   7   81.69    3.40
  -3   3  -8    2.30    1.50
  -3   3  -8    2.40    1.60
   3   3   8    1.00    0.40
   3   3   8    0.80    0.30
   3   3   8    1.10    0.30
  -3   3  -8    1.20    0.30
  -3   3  -8    1.00    0.30
   3  -3   8    1.10    0.40
  -3  -3  -8    1.00    0.40
  -3  -3  -8    1.10    0.30
   3  -3   8    1.30    0.40
  -3  -3  -8    1.20    0.40
   3   3   9    8.90    0.90
  -3   3  -9    9.70    0.70
   3   3   9    8.90    0.70
  -3   3  -9    8.90    0.70
   3  -3   9    9.00    0.90
   3  -3   9    8.60    0.80
  -3  -3  -9    8.40    0.70
  -3  -3  -9    9.80    0.80
   3   4  -9    0.70    0.30
   3   4  -9    0.40    0.30
  -3   4   9    0.40    0.30
  -3   4   9    0.50    0.40
   3  -4  -9    0.30    0.30
  -3  -4   9    0.70    0.40
   3  -4  -9    0.30    0.30
  -3  -4   9    0.70    0.40
  -3   4   8   38.80    1.70
   3   4  -8   40.00    1.70
  -3   4   8   35.10    4.00
  -3   4   8   39.10    1.90
   3   4  -8   34.10    4.20
   3   4  -8   39.40    1.70
   3  -4  -8   39.60    1.80
   3  -4  -8   31.50    4.40
   3  -4  -8   39.30    1.80
   3  -4  -8   38.70    2.00
  -3  -4   8   39.50    1.90
  -3  -4   8   39.30    1.90
  -3  -4   8   37.80    1.80
  -3  -4   8   37.50    4.00
   3   4  -7    4.90    0.40
   3   4  -7    2.00    1.20
  -3   4   7    4.10    0.60
   3   4  -7    5.30    0.50
  -3   4   7    4.80    0.50
  -3   4   7    3.60    1.40
   3  -4  -7    4.30    0.50
  -3  -4   7    5.40    0.60
   3  -4  -7    1.50    1.30
  -3  -4   7    4.40    1.60
   3  -4  -7    4.50    0.60
  -3  -4   7    4.70    0.60
  -3  -4   7    5.70    0.50
   3  -4  -7    5.20    0.50
  -3   4   6  130.49    4.80
  -3   4   6  127.09    7.50
  -3   4   6  121.39    4.60
   3   4  -6  128.59    4.70
   3   4  -6  128.99    7.70
   3   4  -6  125.19    4.60
  -3  -4   6  133.79    7.70
   3  -4  -6  125.89    4.80
  -3  -4   6  126.99    4.90
  -3  -4   6  123.99    4.70
   3  -4  -6  138.99    8.00
  -3  -4   6  126.29    4.90
   3  -4  -6  140.69    5.00
   3  -4  -6  131.29    4.70
   3   4  -5   50.79    4.30
  -3   4   5   55.89    2.20
  -3   4   5   57.29    4.30
   3   4  -5   51.19    2.00
  -3   4   5   54.59    2.10
   3   4  -5   50.39    2.00
   3  -4  -5   55.99    2.10
  -3  -4   5   50.79    4.10
  -3  -4   5   49.60    2.10
   3  -4  -5   53.59    2.20
   3  -4  -5   54.49    4.40
  -3  -4   5   49.30    2.20
   3  -4  -5   57.19    2.30
  -3  -4   5   46.80    2.20
   3   4  -4  277.57   12.30
  -3   4   4  271.17   11.90
  -3   4   4  274.07    9.40
  -3  -4   4  261.67    9.40
  -3  -4   4  269.27    9.60
  -3  -4   4  272.07    9.40
   3  -4  -4  271.97    9.50
   3  -4  -4  271.47    9.60
   3  -4  -4  276.57    9.40
  -3  -4   4  279.87    9.40
  -3  -4   4  267.17   12.10
  -3  -4   4  265.87    9.60
   3  -4  -4  261.17   12.40
   3   4  -3    5.90    1.40
  -3   4   3    5.30    0.40
  -3   4   3    6.50    1.60
  -3   4   3    5.10    0.40
  -3  -4   3    7.70    1.30
  -3  -4   3    6.40    0.40
  -3  -4   3    4.40    0.40
   3  -4  -3    4.30    0.40
  -3  -4   3    5.90    0.50
   3  -4  -3    7.00    1.80
  -3  -4   3    5.00    0.50
  -3  -4   3    5.20    0.40
   3  -4  -3    4.30    0.50
  -3  -4   3    6.00    0.40
   3  -4  -3    5.20    0.50
  -3   4   2   59.69    2.30
  -3   4   2   67.29    4.20
  -3   4   2   59.99    2.30
   3   4  -2   61.19    3.90
   3  -4  -2   57.69    4.40
  -3  -4   2   62.29    2.30
  -3  -4   2   67.69    2.40
  -3  -4   2   62.89    2.40
  -3  -4   2   62.79    2.40
   3  -4  -2   61.69    2.50
  -3  -4   2   61.59    2.40
   3  -4  -2   61.99    2.50
  -3  -4   2   60.99    2.40
   3  -4  -2   57.99    2.30
   3   4  -1  383.86   15.30
   3   4  -1  385.96   14.60
  -3   4   1  370.56   15.60
   3  -4  -1  380.06   12.80
  -3  -4   1  356.76   13.00
   3  -4  -1  405.86   16.30
   3  -4  -1  385.66   13.10
   3  -4  -1  405.96   13.10
  -3  -4   1  359.96   13.00
  -3  -4   1  350.96   12.90
   3   4   0   83.09    3.00
  -3   4   0   97.39    5.70
  -3   4   0   85.69    3.00
   3   4   0   81.49    4.50
   3   4   0   80.29    4.00
   3  -4   0   81.89    3.10
  -3  -4   0   80.79    3.10
  -3  -4   0   79.09    2.90
   3  -4   0   87.69    3.10
  -3  -4   0   84.49    3.10
   3  -4   0   83.89    3.20
  -3  -4   0   75.19    3.10
   3  -4   0   84.09    3.00
  -3  -4   0   82.79    3.10
   3  -4   0   89.79    5.60
   3  -4   0   89.09    3.20
   3   4   1   88.99    3.00
  -3   4  -1   81.79    5.50
   3   4   1   91.59    3.10
   3   4   1   90.79    3.90
  -3  -4  -1   89.19    2.90
   3  -4   1   77.69    3.20
  -3  -4  -1   86.89    3.20
   3  -4   1   75.59    3.00
   3  -4   1   78.09    3.20
  -3  -4  -1   85.99    3.10
   3  -4   1   76.79    3.10
   3  -4   1   71.89    3.10
   3  -4   1   80.19    5.50
  -3  -4  -1   92.09    3.20
   3   4   2   30.20    1.80
  -3   4  -2   25.90    1.10
  -3   4  -2   24.30    2.40
   3   4   2   28.30    1.20
  -3   4  -2   25.20    3.00
   3   4   2   28.80    1.10
   3  -4   2   24.00    1.20
  -3  -4  -2   28.50    1.20
   3  -4   2   23.40    1.20
  -3  -4  -2   29.60    2.00
   3  -4   2   25.10    1.30
   3  -4   2   24.60    1.10
   3  -4   2   24.20    1.10
  -3  -4  -2   28.50    1.20
  -3  -4  -2   28.10    1.30
  -3   4  -3    5.10    1.40
   3   4   3    5.40    0.50
  -3   4  -3    4.10    1.50
   3   4   3    5.80    0.30
  -3   4  -3    3.90    0.30
   3   4   3    4.70    0.80
  -3  -4  -3    5.20    0.30
  -3  -4  -3    5.90    1.10
   3  -4   3    4.20    0.30
  -3  -4  -3    5.40    0.50
   3  -4   3    4.50    0.50
  -3  -4  -3    5.50    0.40
   3  -4   3    3.90    0.50
  -3  -4  -3    5.30    0.50
   3   4   4  175.58    6.20
   3   4   4  179.58    7.80
   3   4   4  175.48    6.30
   3   4   4  172.68    6.10
  -3   4  -4  171.78   10.00
  -3   4  -4  177.28    6.10
  -3   4  -4  173.88    9.10
  -3   4  -4  174.88    6.10
   3  -4   4  179.68    6.40
  -3  -4  -4  177.48    6.40
  -3  -4  -4  169.48    6.20
   3  -4   4  174.08    6.20
  -3  -4  -4  174.68    8.10
   3  -4   4  181.08    6.30
  -3  -4  -4  163.98    6.10
  -3   4  -5   23.90    1.00
   3   4   5   24.10    2.40
  -3   4  -5   21.30    2.70
   3   4   5   25.80    1.20
   3   4   5   25.00    1.10
  -3   4  -5   23.10    1.10
  -3   4  -5   26.50    3.50
   3   4   5   26.20    1.10
   3  -4   5   21.60    1.20
   3  -4   5   23.20    1.10
  -3  -4  -5   25.00    1.20
  -3  -4  -5   26.60    1.30
   3  -4   5   19.90    1.30
  -3  -4  -5   24.40    1.10
  -3  -4  -5   24.40    2.60
   3   4   6   27.10    1.20
   3   4   6   25.40    1.20
   3   4   6   26.90    1.30
  -3   4  -6   24.60    1.10
  -3   4  -6   27.30    1.20
   3   4   6   28.40    3.00
  -3   4  -6   27.80    3.80
  -3   4  -6   22.70    3.10
  -3  -4  -6   25.90    1.20
  -3  -4  -6   25.90    1.40
  -3  -4  -6   26.50    3.00
  -3  -4  -6   25.40    1.30
   3  -4   6   25.20    1.40
   3  -4   6   25.10    1.40
   3  -4   6   23.80    1.20
  -3   4  -7    1.30    1.50
   3   4   7    3.10    1.40
   3   4   7    1.60    0.40
  -3   4  -7    2.00    0.30
   3   4   7    2.00    0.30
  -3   4  -7    1.60    1.10
  -3  -4  -7    1.10    0.30
   3  -4   7    1.80    0.40
   3  -4   7    1.70    0.40
  -3  -4  -7    1.70    0.40
  -3  -4  -7    1.70    0.50
  -3  -4  -7   -0.30    1.20
   3  -4   7    1.70    0.50
  -3   4  -8   19.70    1.00
  -3   4  -8   18.30    1.00
   3   4   8   19.00    1.20
   3   4   8   18.30    1.00
  -3  -4  -8   17.80    1.10
   3  -4   8   19.40    1.20
   3  -4   8   18.40    1.20
  -3  -4  -8   16.10    1.20
  -3   5   9   15.50    0.90
   3   5  -9   15.00    0.90
  -3   5   9   16.60    1.20
   3   5  -9   16.20    0.90
   3  -5  -9   14.90    1.10
  -3  -5   9   15.40    1.10
   3  -5  -9   16.00    1.10
  -3  -5   9   16.00    1.20
  -3   5   8    1.00    0.40
   3   5  -8    1.90    0.40
  -3   5   8    1.30    0.30
   3   5  -8    1.70    0.30
   3  -5  -8    1.40    0.40
   3  -5  -8    3.50    1.90
  -3  -5   8    2.40    0.50
   3  -5  -8    0.70    0.40
   3  -5  -8    1.00    0.50
  -3  -5   8    2.40    0.60
   3   5  -7    7.80    2.40
  -3   5   7    9.80    0.80
  -3   5   7    9.30    0.70
   3   5  -7    9.80    0.60
   3   5  -7    9.80    0.70
  -3   5   7    9.30    2.30
  -3  -5   7    9.70    0.80
  -3  -5   7    7.90    2.10
  -3  -5   7    9.20    0.70
   3  -5  -7    8.50    2.30
   3  -5  -7    8.80    0.90
   3  -5  -7    9.20    0.70
  -3  -5   7    9.10    0.80
   3  -5  -7   10.10    0.80
   3   5  -6   -0.10    0.10
   3   5  -6    0.30    0.20
  -3   5   6    0.20    0.20
  -3   5   6    0.20    0.20
  -3   5   6   -0.10    0.50
   3   5  -6    0.70    0.80
  -3  -5   6    1.70    1.00
   3  -5  -6    0.00    0.20
   3  -5  -6    0.20    0.20
   3  -5  -6    1.40    1.00
  -3  -5   6    0.30    0.30
   3  -5  -6   -0.20    0.20
  -3  -5   6    0.10    0.20
  -3  -5   6    0.10    0.20
  -3   5   5   60.29    4.60
  -3   5   5   58.19    2.40
   3   5  -5   58.89    2.20
  -3   5   5   58.69    2.30
   3   5  -5   51.19    4.50
   3  -5  -5   56.29    2.40
  -3  -5   5   59.09    2.50
   3  -5  -5   56.89    2.50
   3  -5  -5   56.09    2.60
   3  -5  -5   59.69    5.10
  -3  -5   5   61.29    4.70
  -3  -5   5   62.79    2.40
  -3  -5   5   59.39    2.50
   3   5  -4    8.00    1.60
   3   5  -4    6.30    0.40
  -3   5   4    6.50    1.70
   3  -5  -4   10.40    2.50
  -3  -5   4    5.40    0.60
  -3  -5   4    5.30    0.50
  -3  -5   4    5.20    0.60
  -3  -5   4    6.30    0.50
  -3  -5   4    5.20    0.50
   3  -5  -4    8.30    0.70
   3  -5  -4    7.50    0.70
  -3   5   3  200.98    9.40
   3   5  -3  189.78   10.20
  -3   5   3  192.38    6.80
  -3   5   3  192.08    6.80
   3   5  -3  195.28    9.40
   3  -5  -3  191.48    7.00
   3  -5  -3  191.68    7.10
  -3  -5   3  182.78    6.90
  -3  -5   3  187.78    6.80
  -3  -5   3  192.48    6.90
  -3  -5   3  203.08    6.90
   3  -5  -3  187.28    6.90
  -3  -5   3  198.18    6.90
   3  -5  -3  202.58   10.50
  -3  -5   3  199.88    7.00
   3   5  -2  125.09    6.60
  -3   5   2  121.59    4.40
  -3   5   2  124.19    4.40
   3   5  -2  126.39    7.30
  -3   5   2  134.19    7.00
  -3  -5   2  122.39    4.60
   3  -5  -2  125.19    4.70
   3  -5  -2  128.69    7.70
   3  -5  -2  126.99    4.60
  -3  -5   2  123.09    4.60
  -3  -5   2  127.69    4.70
  -3  -5   2  121.19    4.60
   3  -5  -2  122.79    4.70
  -3  -5   2  127.39    4.60
  -3  -5   2  122.09    4.40
   3   5  -1  303.57   13.40
   3   5  -1  304.57   12.50
  -3   5   1  308.27   10.50
  -3   5   1  295.67   13.50
   3  -5  -1  304.67   10.50
   3  -5  -1  304.87   10.80
   3  -5  -1  303.47   14.20
  -3  -5   1  316.67   10.70
  -3  -5   1  307.17   10.70
   3  -5  -1  292.07   10.60
  -3  -5   1  302.67   10.60
  -3  -5   1  317.77   10.50
   3  -5  -1  308.97   10.70
  -3  -5   1  301.07   10.60
  -3   5   0    3.70    1.30
   3   5   0    1.90    0.80
   3   5   0    2.50    0.80
   3   5   0    3.40    0.30
  -3  -5   0    3.60    0.40
   3  -5   0    4.20    0.50
  -3  -5   0    3.10    0.40
   3  -5   0    4.20    1.40
  -3  -5   0    2.80    0.30
  -3  -5   0    4.30    0.50
   3  -5   0    4.40    0.50
  -3   5  -1  319.97   14.80
   3   5   1  273.77   12.20
   3   5   1  287.97   12.00
   3   5   1  326.97   10.90
   3  -5   1  320.67   11.10
  -3  -5  -1  320.07   10.80
   3  -5   1  330.57   11.20
   3  -5   1  315.17   10.90
  -3  -5  -1  323.47   11.10
   3  -5   1  318.17   11.00
  -3  -5  -1  327.97   11.10
  -3  -5  -1  321.27   11.10
   3  -5   1  317.57   11.00
   3  -5   1  328.27   14.60
  -3   5  -2    0.70    0.70
   3   5   2    1.30    0.50
  -3   5  -2    0.40    0.50
   3   5   2    1.30    0.30
   3  -5   2    0.60    0.20
   3  -5   2    0.60    0.20
  -3  -5  -2    1.00    0.30
  -3  -5  -2    0.40    0.50
   3  -5   2    0.90    0.30
  -3  -5  -2    0.90    0.30
   3  -5   2    0.60    0.20
   3  -5   2    0.50    0.20
  -3  -5  -2    0.90    0.30
   3   5   3   73.79    4.00
  -3   5  -3   84.99    6.40
  -3   5  -3   76.99    2.80
  -3   5  -3   72.29    5.10
   3   5   3   76.99    2.90
   3  -5   3   76.79    2.90
  -3  -5  -3   73.79    4.40
  -3  -5  -3   75.29    3.10
  -3  -5  -3   72.69    2.90
   3  -5   3   75.79    3.00
   3  -5   3   75.79    2.80
   3  -5   3   78.19    3.10
  -3  -5  -3   74.99    3.00
   3   5   4   35.20    1.50
  -3   5  -4   29.30    1.30
  -3   5  -4   31.70    3.30
  -3   5  -4   30.90    1.30
  -3   5  -4   28.70    3.70
   3   5   4   34.20    2.60
   3   5   4   33.30    1.40
   3  -5   4   29.00    1.50
  -3  -5  -4   37.20    3.30
   3  -5   4   27.50    1.50
  -3  -5  -4   35.50    1.60
  -3  -5  -4   35.20    1.30
   3  -5   4   30.80    1.40
  -3  -5  -4   33.30    1.50
   3   5   5   66.89    2.70
  -3   5  -5   69.39    6.10
  -3   5  -5   66.59    5.30
  -3   5  -5   69.19    2.60
  -3   5  -5   69.89    2.60
   3   5   5   69.89    2.80
   3   5   5   74.99    4.60
  -3  -5  -5   67.59    2.60
   3  -5   5   67.59    2.70
  -3  -5  -5   68.09    2.80
   3  -5   5   67.59    2.90
  -3  -5  -5   72.89    5.00
   3  -5   5   71.39    2.90
  -3  -5  -5   72.09    3.00
   3   5   6    4.30    1.50
   3   5   6    4.90    0.60
  -3   5  -6    3.70    1.50
   3   5   6    5.20    0.50
  -3   5  -6    4.70    0.40
  -3   5  -6    4.40    0.40
  -3  -5  -6    4.00    1.80
   3  -5   6    5.00    0.60
   3  -5   6    4.70    0.60
  -3  -5  -6    5.10    0.60
  -3  -5  -6    5.70    0.70
  -3  -5  -6    5.00    0.50
   3  -5   6    4.80    0.50
   3   5   7   17.90    1.10
  -3   5  -7   18.80    1.00
   3   5   7   18.10    1.00
  -3   5  -7   19.50    3.20
  -3  -5  -7   18.60    1.10
   3  -5   7   19.10    1.20
  -3  -5  -7   17.20    1.30
   3  -5   7   18.50    1.00
   3  -5   7   18.90    1.20
   3   5   8   -0.10    0.20
  -3   5  -8    0.20    0.20
  -3   5  -8    0.20    0.20
   3   5   8    0.10    0.30
   3  -5   8   -0.10    0.30
   3  -5   8    0.50    0.40
  -3  -5  -8    0.00    0.40
  -3  -5  -8    0.20    0.30
  -3   6   8   10.30    0.90
   3   6  -8   10.80    0.80
   3   6  -8    9.80    0.70
  -3   6   8   10.10    0.70
  -3  -6   8   10.10    0.90
   3  -6  -8   10.90    0.90
   3  -6  -8    9.90    1.00
   3  -6  -8   10.70    0.90
  -3  -6   8   10.30    0.90
  -3   6   7    0.40    0.30
  -3   6   7    1.90    1.30
   3   6  -7    1.40    1.30
   3   6  -7    0.40    0.20
  -3   6   7    0.50    0.20
   3   6  -7    1.00    0.30
   3  -6  -7    0.60    0.30
   3  -6  -7    0.30    0.30
   3  -6  -7    1.80    1.60
  -3  -6   7    0.90    0.30
  -3  -6   7    0.70    0.40
  -3  -6   7    0.50    0.30
   3  -6  -7    0.60    0.30
  -3   6   6   45.60    2.00
  -3   6   6   41.90    1.80
   3   6  -6   41.60    4.30
  -3   6   6   44.40    4.20
   3   6  -6   39.00    4.70
   3   6  -6   42.90    1.80
   3   6  -6   42.80    1.70
   3  -6  -6   41.40    4.80
  -3  -6   6   44.10    2.00
   3  -6  -6   43.70    2.00
  -3  -6   6   41.70    2.00
  -3  -6   6   43.10    1.90
   3  -6  -6   42.30    2.10
   3  -6  -6   40.90    2.00
   3   6  -5    7.80    2.40
   3   6  -5   10.80    2.10
  -3   6   5    9.00    0.70
  -3   6   5    9.10    2.10
  -3   6   5    7.80    0.60
   3   6  -5    8.50    0.50
   3   6  -5    8.60    0.50
  -3  -6   5   10.00    0.70
  -3  -6   5    8.80    0.70
   3  -6  -5    9.10    0.80
   3  -6  -5    9.20    0.80
  -3  -6   5    9.20    0.80
   3  -6  -5    8.80    0.70
   3  -6  -5    9.20    2.80
  -3  -6   5    7.60    0.70
  -3   6   4   31.00    1.40
  -3   6   4   30.80    3.10
   3   6  -4   27.60    3.10
  -3   6   4   29.00    1.30
   3   6  -4   26.50    3.50
   3   6  -4   29.60    1.20
  -3  -6   4   29.20    1.40
  -3  -6   4   30.20    1.50
   3  -6  -4   27.10    3.50
   3  -6  -4   30.40    1.60
   3  -6  -4   28.50    1.60
   3  -6  -4   29.30    1.40
  -3  -6   4   29.70    1.30
  -3  -6   4   30.50    1.50
  -3  -6   4   30.80    1.50
   3   6  -3    7.20    1.80
   3   6  -3    6.90    2.10
  -3   6   3    6.40    1.60
  -3   6   3    9.00    0.60
  -3   6   3    8.90    0.60
   3  -6  -3    8.40    0.60
  -3  -6   3    6.70    0.60
   3  -6  -3    6.20    2.10
  -3  -6   3    6.30    0.70
  -3  -6   3    7.00    0.70
   3  -6  -3    9.30    0.80
  -3  -6   3    6.80    0.60
  -3  -6   3    7.00    0.60
   3  -6  -3    8.70    0.70
  -3  -6   3    6.80    0.50
   3   6  -2  117.29    7.60
  -3   6   2  120.39    4.40
  -3   6   2  122.59    4.40
  -3   6   2  127.79    7.20
   3   6  -2  122.29    6.80
   3  -6  -2  125.99    8.00
  -3  -6   2  117.39    4.60
   3  -6  -2  128.89    4.50
  -3  -6   2  122.69    4.70
  -3  -6   2  120.89    4.50
  -3  -6   2  124.09    4.40
   3  -6  -2  120.29    4.70
  -3  -6   2  123.09    4.50
   3  -6  -2  121.59    4.70
  -3  -6   2  124.49    4.60
   3   6  -1   45.30    4.10
   3   6  -1   44.70    3.50
  -3   6   1   47.60    1.90
  -3   6   1   52.29    1.90
  -3   6   1   48.80    4.20
  -3  -6   1   46.40    2.10
   3  -6  -1   47.80    2.10
  -3  -6   1   43.60    1.90
  -3  -6   1   43.80    2.00
  -3  -6   1   44.30    2.10
  -3  -6   1   46.00    1.90
   3  -6  -1   50.39    4.60
   3  -6  -1   48.30    2.10
  -3  -6   1   46.30    2.00
   3  -6  -1   51.59    2.00
   3  -6  -1   49.60    1.80
  -3   6   0   55.09    2.20
   3   6   0   57.29    3.70
   3   6   0   58.79    2.20
   3   6   0   62.09    4.50
  -3   6   0   54.09    2.10
  -3   6   0   54.79    4.90
   3  -6   0   51.89    4.70
   3  -6   0   54.89    2.50
  -3  -6   0   57.49    2.30
   3  -6   0   53.59    2.30
   3  -6   0   54.39    2.40
  -3  -6   0   58.89    2.40
  -3  -6   0   57.89    2.40
  -3  -6   0   59.19    2.10
   3  -6   0   53.89    2.20
  -3   6  -1    1.40    0.80
   3   6   1    3.80    1.10
   3   6   1    3.10    0.30
   3   6   1    3.40    0.40
  -3   6  -1    2.30    0.30
  -3   6  -1    2.60    1.40
   3   6   1    3.80    1.00
   3  -6   1    2.90    0.50
  -3  -6  -1    3.60    0.50
  -3  -6  -1    3.10    0.50
   3  -6   1    2.30    0.30
  -3  -6  -1    3.50    0.30
  -3  -6  -1    3.20    0.50
   3  -6   1    2.30    0.40
   3  -6   1    3.30    0.40
   3  -6   1    2.10    0.40
  -3   6  -2  160.68    9.50
  -3   6  -2  155.88    8.40
   3   6   2  158.78    7.10
   3   6   2  148.39    5.60
  -3  -6  -2  151.98    5.70
  -3  -6  -2  149.29    5.60
   3  -6   2  155.98    5.60
   3  -6   2  158.48    5.70
  -3  -6  -2  147.59    7.50
  -3  -6  -2  147.69    5.70
   3  -6   2  156.78    5.70
   3  -6   2  155.18    5.60
   3  -6   2  161.08    5.70
  -3   6  -3    0.80    0.20
  -3   6  -3    1.50    1.40
   3   6   3    1.80    0.40
  -3   6  -3    0.60    0.60
   3   6   3    1.60    0.70
  -3  -6  -3    1.40    0.40
  -3  -6  -3    1.70    0.40
   3  -6   3    0.90    0.20
  -3  -6  -3    1.40    0.80
   3  -6   3    0.80    0.20
   3  -6   3    1.10    0.40
   3  -6   3    0.60    0.20
   3  -6   3    0.90    0.30
  -3   6  -4   52.59    5.20
  -3   6  -4   50.99    2.00
  -3   6  -4   48.90    2.00
   3   6   4   47.30    2.00
   3   6   4   54.49    2.20
  -3   6  -4   44.90    4.30
   3   6   4   52.89    3.50
  -3  -6  -4   51.69    4.00
  -3  -6  -4   49.60    2.20
  -3  -6  -4   53.49    2.30
   3  -6   4   49.80    2.20
   3  -6   4   47.80    2.10
   3  -6   4   49.60    2.20
   3   6   5   12.80    0.90
   3   6   5   11.30    0.70
  -3   6  -5   15.80    2.60
  -3   6  -5   11.90    0.70
   3   6   5   13.80    1.90
  -3   6  -5   12.40    0.70
  -3   6  -5   17.40    3.00
   3  -6   5   12.20    0.90
   3  -6   5   11.30    0.90
   3  -6   5   11.00    0.80
  -3  -6  -5   13.00    0.90
  -3  -6  -5   13.10    1.00
  -3  -6  -5   16.30    4.40
   3   6   6   14.80    1.00
  -3   6  -6   15.30    2.90
  -3   6  -6   20.20    4.50
   3   6   6   14.90    0.90
  -3   6  -6   16.40    0.90
   3  -6   6   16.30    1.10
   3  -6   6   16.80    1.00
   3  -6   6   17.20    1.10
  -3  -6  -6   15.20    1.00
  -3  -6  -6   15.20    1.10
   3   6   7    0.30    0.30
   3   6   7    0.50    0.30
  -3   6  -7    0.30    0.20
   3  -6   7    0.70    0.40
   3  -6   7    0.60    0.40
  -3  -6  -7    0.60    0.30
  -3  -6  -7    0.00    0.30
   3  -6   7    0.10    0.20
  -3   7   7   17.30    1.00
   3   7  -7   18.80    1.10
   3   7  -7   18.80    1.00
  -3   7   7   19.30    1.20
  -3  -7   7   17.90    1.20
   3  -7  -7   19.70    1.20
   3  -7  -7   22.20    1.30
   3  -7  -7   19.80    1.40
  -3  -7   7   18.40    1.30
  -3   7   6    3.40    1.80
  -3   7   6    1.50    0.30
   3   7  -6    1.90    0.40
   3   7  -6    1.50    1.70
   3   7  -6    1.90    1.50
   3   7  -6    1.60    0.30
  -3   7   6    1.90    0.40
   3  -7  -6    1.10    0.40
   3  -7  -6    0.70    0.40
  -3  -7   6    1.50    0.40
  -3  -7   6    2.10    0.50
   3  -7  -6    1.40    0.50
  -3  -7   6    2.30    0.50
  -3   7   5    3.40    0.50
   3   7  -5    3.40    1.60
   3   7  -5    2.70    1.70
   3   7  -5    3.90    0.40
  -3   7   5    4.40    0.50
  -3  -7   5    3.50    0.50
   3  -7  -5    4.10    2.10
  -3  -7   5    3.90    0.50
   3  -7  -5    4.20    0.50
   3  -7  -5    4.50    0.70
  -3  -7   5    3.90    0.60
   3  -7  -5    3.30    0.60
  -3  -7   5    3.80    0.60
   3   7  -4    6.90    2.20
   3   7  -4    4.50    1.70
  -3   7   4    5.90    0.60
  -3   7   4    6.40    1.80
  -3   7   4    6.10    0.50
  -3  -7   4    4.90    0.60
  -3  -7   4    5.80    0.60
   3  -7  -4    4.80    0.60
   3  -7  -4    7.30    0.80
   3  -7  -4    6.80    2.20
  -3  -7   4    6.30    0.60
  -3  -7   4    5.80    0.60
   3  -7  -4    5.90    0.60
  -3  -7   4    6.60    0.50
  -3   7   3   73.79    2.80
  -3   7   3   72.69    2.80
   3   7  -3   70.89    5.30
   3   7  -3   71.79    6.20
  -3   7   3   72.19    5.30
   3  -7  -3   69.09    3.10
  -3  -7   3   73.39    3.00
  -3  -7   3   73.59    2.90
   3  -7  -3   71.49    2.90
  -3  -7   3   71.09    3.00
  -3  -7   3   76.89    3.10
   3  -7  -3   73.09    6.20
   3  -7  -3   69.79    3.10
  -3  -7   3   74.09    3.00
  -3  -7   3   72.99    2.80
  -3   7   2   24.00    1.10
   3   7  -2   18.20    3.00
  -3   7   2   23.80    1.10
  -3   7   2   20.80    2.80
   3   7  -2   16.90    2.40
  -3  -7   2   17.80    1.20
   3  -7  -2   24.00    1.10
  -3  -7   2   18.90    1.10
  -3  -7   2   18.90    1.00
  -3  -7   2   20.10    1.20
   3  -7  -2   22.70    3.30
  -3  -7   2   18.80    1.20
  -3  -7   2   20.00    1.10
   3  -7  -2   23.40    1.30
   3  -7  -2   22.50    1.30
  -3   7   1  100.79    6.90
  -3   7   1  100.09    3.70
   3   7  -1  102.29    6.10
  -3   7   1  104.79    3.80
   3   7  -1   97.99    7.00
   3  -7  -1  102.79    4.10
   3  -7  -1   96.89    3.80
   3  -7  -1   99.39    4.10
  -3  -7   1  105.19    4.10
  -3  -7   1  103.49    3.80
  -3  -7   1  105.39    4.10
   3  -7  -1   96.59    7.10
  -3  -7   1   98.79    3.90
  -3  -7   1  104.69    3.80
  -3  -7   1  104.39    4.00
   3   7   0    3.60    1.60
   3   7   0    1.50    0.80
  -3   7   0    4.30    0.40
  -3   7   0    6.60    2.10
   3   7   0    3.80    0.40
  -3   7   0    4.50    0.40
   3   7   0    3.50    0.50
  -3  -7   0    3.70    0.50
  -3  -7   0    2.90    0.50
   3  -7   0    4.60    0.40
   3  -7   0    4.50    0.50
  -3  -7   0    3.60    0.40
   3  -7   0    5.00    1.90
  -3  -7   0    3.50    0.60
   3  -7   0    4.60    0.60
   3  -7   0    3.50    0.60
  -3   7  -1   75.89    2.80
   3   7   1   78.99    3.00
   3   7   1   73.89    4.80
  -3   7  -1   71.09    5.20
   3   7   1   74.89    2.80
   3   7   1   69.99    4.50
  -3   7  -1   75.19    6.10
   3  -7   1   72.79    3.10
  -3  -7  -1   74.19    3.00
  -3  -7  -1   70.99    3.10
   3  -7   1   72.59    2.90
  -3  -7  -1   75.19    2.80
  -3  -7  -1   73.29    3.10
   3  -7   1   75.19    3.10
   3  -7   1   74.19    2.90
   3  -7   1   75.69    3.00
  -3   7  -2    4.20    1.50
  -3   7  -2    3.50    1.80
  -3   7  -2    4.40    0.40
   3   7   2    6.20    1.10
   3   7   2    7.60    1.40
   3  -7   2    4.80    0.50
   3  -7   2    4.00    0.50
  -3  -7  -2    6.50    0.70
   3  -7   2    4.40    0.60
   3  -7   2    4.10    0.60
   3  -7   2    4.70    0.60
  -3  -7  -2    6.20    0.70
  -3   7  -3   57.59    5.50
   3   7   3   57.59    2.40
   3   7   3   59.79    3.70
  -3   7  -3   57.29    4.80
  -3   7  -3   57.09    2.20
  -3   7  -3   58.29    2.20
   3  -7   3   56.29    2.50
  -3  -7  -3   56.79    2.50
   3  -7   3   55.39    2.40
   3  -7   3   55.79    2.40
  -3  -7  -3   57.89    4.30
  -3  -7  -3   57.89    2.60
   3  -7   3   58.19    2.50
   3   7   4    5.50    0.60
  -3   7  -4    4.10    0.40
  -3   7  -4    1.80    1.70
  -3   7  -4    5.70    1.80
  -3   7  -4    4.60    0.40
   3   7   4    4.40    0.50
   3  -7   4    3.90    0.50
  -3  -7  -4    5.10    0.60
   3  -7   4    4.90    0.50
  -3  -7  -4    4.90    0.70
   3  -7   4    4.90    0.60
  -3   7  -5    4.30    2.80
  -3   7  -5    7.10    0.50
   3   7   5    7.00    0.60
  -3   7  -5    4.10    1.70
  -3   7  -5    7.20    0.60
   3   7   5    7.30    0.70
   3  -7   5    7.70    0.70
  -3  -7  -5    6.10    0.70
   3  -7   5    7.80    0.80
  -3  -7  -5    7.30    0.80
   3  -7   5    7.10    0.60
   3   7   6    2.80    0.50
   3   7   6    3.30    0.40
  -3   7  -6    3.40    0.40
   3  -7   6    2.10    0.50
   3  -7   6    2.70    0.50
  -3  -7  -6    4.20    0.70
  -3  -7  -6    2.20    0.50
   3  -7   6    2.10    0.50
   3   7   7   14.40    1.00
  -3   7  -7   13.80    0.80
   3   7   7   13.30    0.90
   3  -7   7   12.60    1.10
  -3  -7  -7   13.70    1.00
  -3  -7  -7   13.90    1.20
   3  -7   7   14.70    1.10
   3  -7   7   13.80    0.90
  -3   8   6    8.60    0.70
  -3   8   6    9.50    0.80
   3   8  -6    8.40    0.70
   3   8  -6    8.70    0.60
   3  -8  -6    8.00    0.80
  -3  -8   6    9.20    0.80
   3  -8  -6    9.20    1.00
  -3  -8   6    7.70    0.80
   3  -8  -6    8.50    0.90
  -3  -8   6    9.20    0.90
  -3   8   5    0.80    0.30
   3   8  -5    0.60    1.30
   3   8  -5    0.90    1.40
  -3   8   5    0.50    0.30
   3   8  -5    0.40    0.20
   3  -8  -5    0.60    0.40
  -3  -8   5    0.00    0.20
   3  -8  -5    0.40    0.30
   3  -8  -5    0.70    0.40
  -3  -8   5    0.10    0.30
  -3  -8   5    0.20    0.30
  -3  -8   5    0.60    0.30
  -3   8   4   14.00    2.60
  -3   8   4   19.00    1.00
   3   8  -4   18.00    3.40
  -3   8   4   18.00    1.10
   3   8  -4   16.80    2.90
   3  -8  -4   21.00    3.60
   3  -8  -4   16.60    1.20
  -3  -8   4   15.90    1.10
   3  -8  -4   17.30    1.10
  -3  -8   4   17.70    1.10
  -3  -8   4   18.10    1.20
  -3  -8   4   18.30    1.20
   3  -8  -4   17.80    1.20
  -3  -8   4   18.70    1.00
  -3  -8   4   18.90    1.20
  -3   8   3    0.20    0.20
  -3   8   3    0.20    0.20
   3   8  -3    1.70    1.40
   3   8  -3   -1.10    0.80
  -3   8   3    0.90    0.90
  -3  -8   3    0.20    0.30
   3  -8  -3    0.30    0.40
  -3  -8   3    0.10    0.20
  -3  -8   3   -0.20    0.30
  -3  -8   3    0.30    0.30
  -3  -8   3    0.20    0.30
  -3  -8   3    0.10    0.20
   3  -8  -3    0.30    0.30
   3  -8  -3    0.20    0.30
  -3   8   2   17.50    2.80
  -3   8   2   19.30    1.00
   3   8  -2   16.20    3.20
  -3   8   2   20.10    1.00
   3   8  -2   20.10    2.70
  -3  -8   2   21.30    1.20
  -3  -8   2   21.50    1.20
   3  -8  -2   17.50    3.10
   3  -8  -2   19.80    1.10
  -3  -8   2   22.10    1.40
   3  -8  -2   19.90    1.30
   3  -8  -2   19.10    1.30
  -3  -8   2   20.20    1.00
  -3  -8   2   21.40    1.20
  -3  -8   2   22.80    1.30
  -3   8   1    1.30    0.30
   3   8  -1    1.80    1.50
  -3   8   1    1.10    0.30
   3   8  -1    0.30    0.80
  -3   8   1    0.30    1.00
   3  -8  -1    1.10    0.40
   3  -8  -1    1.60    0.40
  -3  -8   1    0.80    0.40
   3  -8  -1    1.40    1.30
  -3  -8   1    0.70    0.20
  -3  -8   1    1.10    0.40
  -3  -8   1    0.70    0.40
  -3  -8   1    0.60    0.30
   3  -8  -1    0.70    0.40
  -3   8   0   68.79    6.10
   3   8   0   70.99    2.80
   3   8   0   73.29    2.90
  -3   8   0   73.79    2.80
  -3   8   0   71.09    2.70
   3   8   0   65.89    5.40
   3   8   0   63.89    4.80
  -3   8   0   67.49    5.30
  -3  -8   0   68.99    3.10
   3  -8   0   69.69    2.80
  -3  -8   0   71.69    2.70
  -3  -8   0   69.69    2.90
   3  -8   0   72.79    3.10
   3  -8   0   70.49    3.10
  -3  -8   0   71.19    3.10
   3  -8   0   72.79    2.90
  -3   8  -1    2.10    0.40
   3   8   1    0.70    0.90
   3   8   1    1.80    0.30
   3   8   1    2.00    0.40
   3   8   1    1.00    0.70
  -3   8  -1    1.70    0.40
  -3   8  -1    1.20    1.40
  -3   8  -1    2.60    1.20
  -3  -8  -1    2.00    0.30
  -3  -8  -1    1.00    0.50
  -3  -8  -1    1.60    0.40
   3  -8   1    3.30    0.70
   3  -8   1    2.90    0.50
   3  -8   1    1.70    0.40
   3  -8   1    2.10    0.50
  -3  -8  -1    1.60    0.50
  -3   8  -2   50.89    4.50
  -3   8  -2   49.40    5.30
   3   8   2   52.79    2.20
  -3   8  -2   52.99    2.10
  -3  -8  -2   50.89    2.50
   3  -8   2   49.60    2.20
  -3  -8  -2   49.40    2.30
   3  -8   2   51.29    2.20
   3  -8   2   51.19    2.40
  -3  -8  -2   54.29    2.40
   3  -8   2   51.29    2.40
   3  -8   2   52.59    2.30
   3   8   3    2.10    0.40
  -3   8  -3    1.90    1.40
  -3   8  -3    1.20    1.10
  -3   8  -3    1.60    0.30
   3   8   3    1.40    0.40
  -3   8  -3    1.60    0.30
   3  -8   3    1.70    0.50
  -3  -8  -3    2.00    0.50
  -3  -8  -3    1.60    0.50
   3  -8   3    1.60    0.40
   3  -8   3    1.80    0.40
  -3   8  -4   29.60    1.40
  -3   8  -4   30.40    3.80
   3   8   4   28.60    1.40
   3   8   4   31.30    1.60
  -3  -8  -4   29.30    1.70
   3  -8   4   30.90    1.50
  -3  -8  -4   29.80    1.70
   3  -8   4   28.80    1.60
   3  -8   4   31.50    1.70
   3   8   5    0.60    0.30
  -3   8  -5    0.20    0.20
  -3   8  -5    0.40    0.30
   3   8   5    0.40    0.20
   3  -8   5    0.60    0.40
   3  -8   5    0.30    0.30
  -3  -8  -5    0.10    0.30
   3  -8   5    0.30    0.30
  -3  -8  -5    0.50    0.40
  -3   8  -6    6.70    0.60
   3   8   6    6.20    0.70
   3   8   6    5.80    0.60
   3  -8   6    5.90    0.80
   3  -8   6    6.10    0.60
   3  -8   6    5.70    0.80
  -3  -8  -6    6.10    0.80
  -3  -8  -6    4.90    0.70
  -3   9   5    9.00    0.70
   3   9  -5   11.20    0.70
  -3   9   5    9.40    0.80
  -3  -9   5   10.30    0.90
   3  -9  -5   10.30    1.00
  -3  -9   5   10.30    0.90
   3  -9  -5   10.90    1.10
  -3  -9   5    9.80    0.90
  -3   9   4    2.50    0.40
  -3   9   4    2.00    0.50
   3   9  -4    2.00    1.50
   3   9  -4   -1.00    1.90
   3  -9  -4    2.70    0.70
   3  -9  -4    2.10    0.60
  -3  -9   4    1.10    0.40
  -3  -9   4    1.10    0.50
  -3  -9   4    1.00    0.40
  -3  -9   4    1.50    0.40
   3  -9  -4    2.30    0.50
  -3  -9   4    1.60    0.50
   3   9  -3    4.10    1.90
   3   9  -3    4.40    3.40
  -3   9   3    5.50    0.60
  -3   9   3    6.10    0.60
  -3  -9   3    6.20    0.70
   3  -9  -3    6.30    0.80
   3  -9  -3    5.20    0.60
  -3  -9   3    4.90    0.70
  -3  -9   3    6.90    0.90
  -3  -9   3    6.50    0.60
   3  -9  -3    5.40    0.80
  -3  -9   3    6.10    0.70
  -3  -9   3    5.50    0.60
   3   9  -2    2.50    1.50
  -3   9   2    1.50    1.40
   3   9  -2    2.70    2.10
  -3   9   2    2.50    0.40
  -3   9   2    2.70    0.40
   3  -9  -2    2.50    0.60
   3  -9  -2    2.60    0.50
   3  -9  -2    3.40    0.70
  -3  -9   2    2.10    0.50
   3  -9  -2    2.80    1.60
  -3  -9   2    3.50    0.70
  -3  -9   2    2.30    0.40
  -3  -9   2    1.50    0.50
  -3  -9   2    1.90    0.50
  -3  -9   2    2.20    0.50
  -3   9   1   34.60    4.20
   3   9  -1   38.40    1.90
  -3   9   1   40.90    1.70
   3   9  -1   40.00    1.90
  -3   9   1   39.80    1.80
  -3  -9   1   39.80    1.80
   3  -9  -1   37.30    1.80
  -3  -9   1   40.90    2.10
  -3  -9   1   39.20    2.10
   3  -9  -1   41.40    2.10
   3  -9  -1   38.30    2.00
  -3  -9   1   40.40    1.90
  -3   9   0    0.90    0.30
  -3   9   0    2.10    1.10
  -3   9   0    0.60    0.30
   3   9   0    0.40    0.30
   3   9   0    0.40    0.30
  -3   9   0    0.60    1.30
   3  -9   0    0.70    0.40
  -3  -9   0    0.50    0.40
   3  -9   0    0.80    0.30
  -3  -9   0    0.20    0.30
  -3  -9   0    0.30    0.40
   3  -9   0    0.80    0.50
  -3   9  -1   23.90    4.10
   3   9   1   29.50    1.50
  -3   9  -1   29.30    1.40
  -3   9  -1   26.90    3.40
  -3   9  -1   27.90    1.40
  -3  -9  -1   27.50    1.50
   3  -9   1   28.80    1.70
   3  -9   1   28.40    1.50
  -3  -9  -1   32.40    1.70
   3  -9   1   31.00    1.60
   3  -9   1   30.90    1.80
  -3  -9  -1   30.30    1.70
   3   9   2    0.20    0.30
  -3   9  -2    0.70    1.40
  -3   9  -2    0.10    0.20
  -3   9  -2    0.60    1.10
   3   9   2    0.50    0.30
  -3  -9  -2    0.80    0.40
   3  -9   2    0.40    0.40
  -3  -9  -2    0.30    0.40
   3  -9   2    0.20    0.20
   3  -9   2    0.10    0.20
  -3   9  -3    8.50    0.70
   3   9   3    9.00    0.80
  -3   9  -3    6.70    2.00
  -3   9  -3    9.30    0.70
   3   9   3    9.30    0.70
  -3  -9  -3    9.50    1.00
  -3  -9  -3    8.50    0.90
   3  -9   3   10.00    0.90
   3  -9   3    8.90    0.90
   3  -9   3    9.40    0.70
   3   9   4    0.60    0.30
   3   9   4    0.10    0.30
  -3   9  -4    0.20    0.20
   3  -9   4    0.40    0.30
  -3  -9  -4    0.70    0.40
   3  -9   4    0.20    0.30
  -3  -9  -4    0.50    0.40
  -3  10   3    0.20    0.30
  -3 -10   3    0.50    0.30
   3 -10  -3    0.60    0.50
   3 -10  -3    0.10    0.30
  -3 -10   3    0.60    0.40
  -3 -10   3    0.60    0.40
  -3 -10   3    0.50    0.50
  -3 -10   3   -0.40    0.30
  -3 -10   3    0.60    0.30
  -3  10   2    3.10    0.50
   3  10  -2    2.90    0.50
   3  10  -2    2.30    0.50
   3 -10  -2    1.80    0.60
  -3 -10   2    2.90    0.70
   3 -10  -2    2.90    0.50
  -3 -10   2    2.60    0.50
  -3 -10   2    3.00    0.60
  -3 -10   2    3.20    0.70
   3 -10  -2    3.70    0.70
   3  10  -1    0.00    0.30
  -3  10   1    0.10    0.20
   3  10  -1    0.30    0.30
   3 -10  -1   -0.20    0.40
   3 -10  -1   -0.20    0.30
  -3 -10   1    0.70    0.50
  -3 -10   1    0.00    0.30
   3 -10  -1    0.40    0.30
  -3 -10   1    0.30    0.30
  -3  10   0   22.70    1.20
   3  10   0   22.50    1.30
   3 -10   0   22.60    1.30
   3 -10   0   24.30    1.60
   3 -10   0   20.60    1.40
  -3 -10   0   21.50    1.30
  -3 -10   0   21.60    1.60
  -3 -10   0   22.80    1.50
   3  10   1    0.10    0.30
  -3  10  -1    0.40    1.60
  -3  10  -1    1.40    1.10
  -3  10  -1    0.20    0.20
   3 -10   1    0.20    0.40
   3 -10   1    0.30    0.30
  -3 -10  -1    0.00    0.40
   3 -10   1    0.00    0.30
  -3 -10  -1   -0.10    0.30
   3  10   2   10.40    0.80
   3  10   2    9.90    0.90
  -3  10  -2   10.60    0.80
  -3  10  -2   10.30    0.80
   3 -10   2   10.60    0.90
   3 -10   2    9.40    0.80
   3 -10   2    9.70    1.00
  -3 -10  -2    9.80    1.00
  -3 -10  -2    9.10    1.00
  -3  10  -3    0.10    0.20
   3  10   3    0.20    0.30
   3  10   3    0.00    0.30
  -3  10  -3    0.00    0.20
   3 -10   3    0.00    0.30
  -3 -10  -3    0.00    0.40
   3 -10   3    0.20    0.40
  -3 -10  -3    0.20    0.40
   3 -10   3    0.10    0.30
   4   0 -10    5.80    0.60
  -4   0  10    5.80    0.70
  -4   0  10    4.60    0.50
   4   0 -10    5.30    0.60
  -4   0  10    4.90    0.70
  -4   0   9    0.40    0.30
   4   0  -9    0.40    0.30
   4   0  -9    0.00    0.20
  -4   0   9   -0.60    1.20
   4   0  -9   -1.50    1.10
  -4   0   9    0.40    0.30
  -4   0   9    0.30    0.30
   4   0  -8  274.47   13.60
  -4   0   8  278.47    9.70
  -4   0   8  280.87    9.90
  -4   0   8  279.77    9.90
   4   0  -8  269.17    9.70
  -4   0   8  279.67   13.50
   4   0  -8  277.47    9.70
  -4   0   7   -0.10    0.20
   4   0  -7    0.10    0.20
   4   0  -7   -0.30    0.20
  -4   0   7   -0.10    0.20
  -4   0   7    0.00    0.20
  -4   0   7   -0.70    0.50
  -4   0   6   26.50    1.10
   4   0  -6   25.00    2.80
  -4   0   6   24.90    1.30
  -4   0   6   25.30    1.20
  -4   0   6   22.10    2.70
   4   0  -6   25.90    1.10
   4   0  -6   23.60    1.10
   4   0  -5    1.10    0.20
   4   0  -5    0.40    0.60
  -4   0   5    0.90    0.20
  -4   0   5    1.40    0.30
  -4   0   5    1.00    0.30
   4   0  -5    1.10    0.20
  -4   0   5    0.70    0.60
   4   0  -4 1924.11   68.29
  -4   0   4 1979.10   68.29
  -4   0   3    0.10    0.10
  -4   0   3    0.10    0.10
  -4   0   3    0.10    0.10
  -4   0   3    0.50    0.10
   4   0  -3    0.40    0.40
  -4   0   3    0.10    0.10
   4   0  -3    0.10    0.10
  -4   0   3    0.50    0.40
   4   0  -3    0.00    0.10
   4   0  -2 1876.81   64.69
  -4   0   1    0.80    0.10
   4   0  -1    0.90    0.10
   4   0  -1    1.10    0.20
  -4   0   1    1.10    0.10
   4   0  -1    0.90    0.40
   4   0  -1    1.00    0.10
  -4   0   1    1.10    0.10
  -4   0   1    0.60    0.40
   4   0  -1    0.90    0.10
  -4   0   1    0.80    0.10
   4   0   0 1594.24   54.89
  -4   0  -1    2.80    0.20
  -4   0  -1    2.50    0.20
   4   0   1    2.80    0.20
  -4   0  -1    2.40    0.20
   4   0   1    3.00    0.20
   4   0   1    3.60    0.70
  -4   0  -1    1.40    0.50
   4   0   1    2.40    0.20
   4   0   1    2.60    0.20
   4   0   2  139.19    4.80
   4   0   2  144.19    4.80
  -4   0  -2  135.29    4.70
  -4   0  -2  138.29    6.00
  -4   0  -2  138.49    6.50
  -4   0  -2  137.99    4.70
   4   0   2  134.89    4.80
   4   0   2  132.29    4.70
  -4   0  -3    0.70    0.20
   4   0   3    0.80    0.10
   4   0   3    0.80    0.20
   4   0   3    1.20    0.50
   4   0   3    0.90    0.20
   4   0   3    0.70    0.20
  -4   0  -3    0.70    0.10
  -4   0  -3    1.30    0.60
   4   0   4 1146.09   42.50
  -4   0  -4 1237.18   42.90
   4   0   5    1.00    0.70
  -4   0  -5   -0.30    0.40
   4   0   5    0.70    0.20
   4   0   5    0.70    0.20
  -4   0  -5    0.80    0.20
   4   0   5    0.90    0.20
  -4   0  -5    0.60    0.20
  -4   0  -5    1.10    0.20
  -4   0  -6   59.79    2.30
  -4   0  -6   62.49    2.40
   4   0   6   59.19    2.50
  -4   0  -6   58.49    4.60
   4   0   6   59.19    2.20
   4   0   6   60.79    4.50
  -4   0  -6   58.79    2.30
   4   0   6   58.09    2.50
  -4   0  -7    0.90    0.90
  -4   0  -7   -0.10    0.20
  -4   0  -7    0.10    0.20
  -4   0  -7   -0.10    0.10
   4   0   7   -0.80    0.50
   4   0   7   -0.10    0.10
   4   0   7    0.20    0.30
   4   0   7    0.00    0.20
  -4   0  -8   83.09    6.50
   4   0   8   92.59    3.70
  -4   0  -8   90.29    3.50
   4   0   8   90.59    3.80
   4   0   8   92.99    6.50
  -4   0  -8   98.79    3.50
   4   0   9    0.10    0.30
   4   0   9    0.00    0.30
  -4   0  -9    0.40    0.30
  -4   0  -9   -1.40    1.10
  -4   0  -9    0.00    0.20
  -4   1  10   -0.20    0.20
  -4   1  10    0.00    0.40
   4   1 -10    0.50    0.30
   4   1 -10    0.40    0.30
  -4   1  10    0.10    0.30
   4  -1 -10    0.20    0.30
  -4  -1  10    0.30    0.30
  -4  -1  10    0.40    0.30
   4  -1 -10   -0.10    0.20
  -4  -1  10    0.40    0.40
  -4   1   9   16.10    2.80
   4   1  -9   16.50    1.00
  -4   1   9   17.70    1.20
   4   1  -9   18.90    1.00
  -4   1   9   18.40    1.00
   4   1  -9   10.00    2.40
  -4   1   9   18.30    1.10
  -4  -1   9   16.00    1.00
   4  -1  -9   17.20    1.00
  -4  -1   9   19.20    1.20
   4  -1  -9   14.80    3.10
  -4  -1   9   17.50    1.10
   4  -1  -9   17.40    1.00
  -4   1   8    0.50    0.30
   4   1  -8    0.30    0.20
  -4   1   8    0.30    0.90
   4   1  -8    0.20    0.20
  -4   1   8    0.40    0.20
  -4   1   8    0.30    0.30
   4   1  -8   -0.10    0.80
  -4  -1   8   -0.10    0.80
   4  -1  -8    0.60    0.30
  -4  -1   8    0.40    0.30
  -4  -1   8    0.30    0.30
  -4  -1   8    0.50    0.30
   4  -1  -8    0.40    0.20
   4  -1  -8   -0.10    0.80
  -4   1   7   66.39    3.00
   4   1  -7   78.29    2.80
  -4   1   7   76.19    2.80
  -4   1   7   78.69    5.50
  -4   1   7   76.69    3.00
   4   1  -7   73.99    5.40
   4   1  -7   74.29    2.90
  -4  -1   7   75.69    3.00
   4  -1  -7   77.89    2.90
   4  -1  -7   74.89    2.90
  -4  -1   7   76.49    2.90
  -4  -1   7   71.29    5.40
   4  -1  -7   71.89    5.40
  -4  -1   7   74.49    3.00
   4   1  -6    4.20    0.40
  -4   1   6    4.80    0.50
  -4   1   6    3.90    1.40
   4   1  -6    3.80    0.40
  -4   1   6    5.40    0.50
  -4   1   6    4.10    0.40
   4   1  -6    4.80    1.50
  -4  -1   6    3.40    0.40
  -4  -1   6    3.60    1.30
  -4  -1   6    3.60    0.50
   4  -1  -6    4.30    0.40
   4  -1  -6    4.50    1.50
  -4  -1   6    4.50    0.40
   4  -1  -6    4.00    0.40
   4   1  -5  179.68    6.30
  -4   1   5  188.88    9.10
   4   1  -5  184.58    9.10
  -4   1   5  178.98    6.40
   4   1  -5  180.88    6.40
  -4   1   5  180.78    6.50
  -4   1   5  176.98    6.50
   4  -1  -5  183.38    6.40
   4  -1  -5  190.58    9.00
  -4  -1   5  185.28    6.40
  -4  -1   5  183.98    9.00
  -4  -1   5  180.88    6.50
   4  -1  -5  184.08    6.40
  -4  -1   5  183.08    6.60
   4  -1  -5  184.28    6.40
  -4   1   4    4.00    0.30
  -4   1   4    3.90    0.40
  -4   1   4    4.10    0.30
   4   1  -4    2.40    0.30
   4   1  -4    2.80    0.20
  -4   1   4    4.90    1.30
   4   1  -4    2.60    1.00
   4  -1  -4    2.60    0.90
  -4  -1   4    2.60    0.30
  -4  -1   4    2.00    0.80
  -4  -1   4    2.60    0.30
   4  -1  -4    3.80    0.30
   4  -1  -4    4.00    0.30
   4  -1  -4    3.80    0.30
   4   1  -3  337.97   13.50
   4   1  -3  340.37   11.50
  -4   1   3  346.97   13.60
  -4   1   3  328.57   11.50
   4   1  -3  337.17   11.60
  -4  -1   3  340.87   11.70
   4  -1  -3  341.87   13.70
   4  -1  -3  342.87   11.60
  -4  -1   3  344.97   13.60
   4  -1  -3  330.57   11.60
  -4   1   2   87.79    4.30
   4   1  -2   71.09    2.70
  -4   1   2   72.99    2.70
   4   1  -2   78.19    4.00
   4   1  -2   77.09    2.70
  -4   1   2   80.69    2.80
   4   1  -2   76.59    2.80
  -4  -1   2   79.49    4.10
   4  -1  -2   82.99    2.80
  -4  -1   2   77.39    2.80
  -4  -1   2   77.29    2.90
  -4  -1   2   78.69    2.80
   4  -1  -2   86.39    2.80
  -4  -1   2   78.69    2.70
   4  -1  -2   84.09    2.80
  -4   1   1   60.99    2.20
   4   1  -1   61.89    2.20
   4   1  -1   64.09    3.00
  -4   1   1   57.99    2.10
  -4   1   1   61.79    3.40
  -4   1   1   59.49    2.20
   4  -1  -1   64.09    2.20
  -4  -1   1   61.69    2.20
  -4  -1   1   61.49    2.20
   4  -1  -1   61.69    3.50
   4  -1  -1   63.09    2.20
  -4  -1   1   62.69    3.00
   4  -1  -1   63.69    2.20
  -4  -1   1   61.99    2.20
   4  -1  -1   57.49    2.10
  -4   1   0  282.47   12.00
   4   1   0  320.17   10.90
  -4  -1   0  319.87   10.80
   4  -1   0  289.67   12.10
  -4   1  -1  300.57   11.80
   4  -1   1  287.47   11.80
  -4  -1  -1  292.47   10.50
  -4  -1  -1  283.07   10.20
  -4  -1  -1  275.07    9.70
   4   1   2   11.80    0.60
   4   1   2   12.00    0.60
   4   1   2   12.10    0.50
  -4   1  -2   15.20    0.60
  -4   1  -2   13.90    1.50
  -4   1  -2   17.70    1.90
  -4   1  -2   14.70    0.60
   4   1   2   11.10    1.10
  -4  -1  -2   11.70    0.60
  -4  -1  -2   11.90    0.60
  -4  -1  -2   12.70    0.60
  -4  -1  -2   12.30    1.10
  -4   1  -3  299.57   13.20
  -4   1  -3  315.57   12.60
   4   1   3  300.47   11.80
   4   1   3  297.47   10.50
   4   1   3  297.87   10.30
   4  -1   3  310.67   10.50
   4  -1   3  309.07   10.40
  -4  -1  -3  298.07   10.40
  -4  -1  -3  301.07   11.90
   4   1   4  105.69    3.80
   4   1   4  103.39    3.60
  -4   1  -4  101.29    3.60
   4   1   4  106.29    5.40
  -4   1  -4   98.79    3.60
  -4   1  -4  103.49    5.90
   4   1   4  102.69    3.70
  -4  -1  -4  112.69    5.60
   4  -1   4   93.09    3.70
   4  -1   4   94.29    3.70
  -4  -1  -4   97.79    3.60
   4  -1   4   98.79    5.70
   4  -1   4   93.99    3.80
  -4  -1  -4  104.59    3.60
  -4  -1  -4  106.39    3.70
   4   1   5  365.36   13.10
  -4   1  -5  374.26   16.00
   4   1   5  383.46   15.50
   4   1   5  386.06   12.90
  -4   1  -5  380.56   12.90
   4  -1   5  376.76   13.00
   4  -1   5  379.56   13.10
  -4  -1  -5  384.96   15.80
  -4  -1  -5  390.86   13.10
   4  -1   5  365.36   13.20
  -4  -1  -5  378.46   12.90
   4  -1   5  373.16   15.80
  -4   1  -6   14.90    0.80
   4   1   6   13.60    0.90
   4   1   6   15.10    2.10
  -4   1  -6   15.60    0.80
   4   1   6   14.60    0.70
   4   1   6   14.90    0.90
  -4   1  -6   14.80    0.80
  -4   1  -6   15.80    2.40
   4  -1   6   13.90    2.10
  -4  -1  -6   16.10    0.80
   4  -1   6   15.20    0.90
   4  -1   6   16.80    1.00
  -4  -1  -6   14.10    0.80
  -4  -1  -6   14.70    2.20
  -4  -1  -6   14.90    0.80
   4   1   7   51.69    2.50
   4   1   7   58.09    4.70
  -4   1  -7   56.29    2.20
  -4   1  -7   56.49    4.70
   4   1   7   52.69    2.40
   4   1   7   56.09    2.20
  -4   1  -7   54.99    2.20
  -4   1  -7   61.09    2.30
  -4  -1  -7   49.50    4.50
  -4  -1  -7   57.69    2.30
   4  -1   7   55.39    2.40
  -4  -1  -7   58.79    2.40
  -4  -1  -7   55.79    2.20
   4  -1   7   57.59    2.50
   4  -1   7   61.19    4.90
   4   1   8    2.70    0.40
   4   1   8    3.50    1.40
   4   1   8    2.40    0.50
  -4   1  -8    2.10    0.40
   4   1   8    3.10    0.60
  -4   1  -8    3.60    1.80
  -4   1  -8    2.40    0.40
  -4  -1  -8    2.50    0.40
   4  -1   8    1.80    0.50
  -4  -1  -8   -0.10    1.10
  -4  -1  -8    2.60    0.40
   4  -1   8    2.40    0.50
   4   1   9   11.30    0.90
  -4   1  -9   10.70    0.80
  -4   1  -9   11.40    0.80
   4   1   9   11.70    1.00
   4  -1   9   10.50    0.90
   4  -1   9   10.60    0.90
  -4  -1  -9   11.70    0.80
  -4  -1  -9   12.20    0.80
   4   2 -10   14.60    0.90
   4   2 -10   12.80    0.90
  -4   2  10   14.20    0.90
  -4   2  10   14.30    1.10
  -4  -2  10   14.30    1.10
   4  -2 -10   14.10    1.00
   4  -2 -10   13.50    0.90
  -4  -2  10   14.60    1.10
  -4   2   9    0.20    0.20
   4   2  -9   -0.30    0.20
  -4   2   9    0.10    0.20
   4   2  -9    0.00    0.20
  -4   2   9    0.80    1.20
  -4   2   9    0.20    0.30
   4   2  -9    0.10    1.20
  -4  -2   9   -0.10    0.20
   4  -2  -9    0.30    1.20
  -4  -2   9    0.20    0.30
   4  -2  -9   -0.10    0.20
   4  -2  -9   -0.30    0.20
  -4  -2   9    0.30    0.30
  -4   2   8   73.69    2.90
   4   2  -8   61.59    5.20
  -4   2   8   68.69    2.90
  -4   2   8   63.19    5.30
   4   2  -8   71.89    2.70
  -4   2   8   69.69    2.70
   4   2  -8   68.19    2.70
  -4  -2   8   65.89    5.30
   4  -2  -8   68.79    2.70
  -4  -2   8   67.49    2.90
   4  -2  -8   64.79    5.60
  -4  -2   8   67.09    2.70
   4  -2  -8   68.29    2.80
  -4  -2   8   67.99    2.90
   4   2  -7    3.90    0.40
  -4   2   7    5.30    0.50
  -4   2   7    6.60    1.80
  -4   2   7    5.50    0.60
  -4   2   7    5.60    0.40
   4   2  -7    3.30    1.50
   4   2  -7    4.30    0.50
   4  -2  -7    4.80    0.50
   4  -2  -7    2.00    1.20
  -4  -2   7    3.50    0.50
   4  -2  -7    5.10    0.50
  -4  -2   7    5.20    1.60
   4  -2  -7    5.70    0.50
  -4  -2   7    3.80    0.50
  -4  -2   7    3.70    0.40
   4   2  -6  233.58   11.30
   4   2  -6  226.08    8.20
   4   2  -6  230.88    8.10
  -4   2   6  241.28    8.10
  -4   2   6  236.18    8.20
  -4   2   6  240.38   11.30
  -4   2   6  236.48    8.30
   4  -2  -6  249.97   11.70
  -4  -2   6  227.98    8.30
  -4  -2   6  231.68    8.20
   4  -2  -6  231.58    8.20
   4  -2  -6  239.88    8.20
   4  -2  -6  237.78    8.30
  -4  -2   6  225.78    8.30
  -4  -2   6  218.98   11.10
  -4   2   5    2.00    0.30
   4   2  -5    2.10    0.30
  -4   2   5    1.60    0.30
  -4   2   5    2.00    0.20
   4   2  -5    1.20    0.80
  -4   2   5    1.00    0.60
   4   2  -5    1.50    0.20
   4  -2  -5    1.30    0.90
  -4  -2   5    2.00    0.40
  -4  -2   5    1.60    0.30
  -4  -2   5    2.40    0.90
  -4  -2   5    2.10    0.40
   4  -2  -5    1.10    0.30
   4  -2  -5    1.40    0.20
   4  -2  -5    1.90    0.30
   4   2  -4   83.19    3.00
  -4   2   4   84.09    3.10
  -4   2   4   80.49    3.00
   4   2  -4   77.99    4.80
   4   2  -4   81.99    2.90
  -4   2   4   93.29    5.20
  -4   2   4   84.59    3.00
   4  -2  -4   85.29    3.10
  -4  -2   4   84.29    3.20
  -4  -2   4   80.89    3.00
  -4  -2   4   82.99    5.00
   4  -2  -4   82.19    3.00
   4  -2  -4   85.29    5.10
   4  -2  -4   80.29    3.10
  -4  -2   4   84.29    3.20
  -4   2   3  207.78    8.90
   4   2  -3  192.58    6.90
   4   2  -3  198.28    8.80
  -4   2   3  204.98    6.90
   4   2  -3  189.18    6.80
  -4   2   3  210.48    6.90
   4  -2  -3  209.18    9.10
   4  -2  -3  200.58    7.00
  -4  -2   3  185.78    7.00
  -4  -2   3  182.98    7.00
   4  -2  -3  206.78    6.80
   4  -2  -3  202.48    7.00
   4  -2  -3  204.28    6.90
  -4  -2   3  197.88    8.90
   4   2  -2   45.30    1.60
   4   2  -2   46.80    2.90
  -4   2   2   43.70    3.00
   4   2  -2   42.10    1.60
  -4   2   2   46.60    1.70
  -4   2   2   45.20    1.70
   4   2  -2   45.10    1.60
   4  -2  -2   49.10    1.60
   4  -2  -2   45.00    1.70
  -4  -2   2   43.90    2.80
  -4  -2   2   43.50    1.60
   4  -2  -2   45.30    3.10
  -4  -2   2   44.30    1.70
  -4  -2   2   45.70    1.70
   4  -2  -2   48.30    1.80
  -4  -2   2   41.80    1.70
   4  -2  -2   46.60    1.80
   4   2  -1  103.59    4.30
  -4   2   1   87.29    3.30
   4   2  -1   93.29    3.30
   4   2  -1   93.49    3.20
  -4   2   1   89.89    3.20
  -4   2   1   88.79    4.90
  -4  -2   1   89.39    3.30
  -4  -2   1  102.49    3.30
   4  -2  -1   94.39    3.20
   4  -2  -1  101.19    5.40
   4  -2  -1   95.49    3.40
  -4  -2   1   96.49    4.20
   4  -2  -1   93.89    3.30
   4  -2  -1   92.19    3.40
  -4  -2   1   97.09    3.40
   4  -2  -1   97.39    3.40
   4   2   0    5.40    0.30
  -4   2   0    6.40    1.20
  -4   2   0    6.30    0.30
   4  -2   0    6.80    0.40
   4  -2   0    6.70    1.20
   4  -2   0    6.60    0.40
  -4  -2   0    5.90    0.30
  -4  -2   0    4.70    0.50
  -4  -2   0    5.10    0.40
  -4  -2   0    5.10    0.30
  -4   2  -1   19.10    0.70
   4   2   1   15.50    0.80
  -4   2  -1   23.30    2.30
  -4   2  -1   18.90    0.70
   4   2   1   15.60    0.80
  -4   2  -1   18.40    0.70
  -4   2  -1   17.70    0.60
  -4  -2  -1   17.30    0.70
   4  -2   1   19.20    0.90
  -4  -2  -1   15.00    0.80
  -4  -2  -1   15.80    0.80
   4  -2   1   19.70    0.70
   4  -2   1   19.30    0.80
   4  -2   1   19.00    2.10
   4  -2   1   18.50    0.80
  -4   2  -2  596.14   22.90
  -4   2  -2  587.64   21.90
   4   2   2  570.54   20.40
  -4  -2  -2  592.44   20.50
  -4   2  -3   87.99    3.20
   4   2   3   95.29    3.40
   4   2   3   97.79    3.30
  -4   2  -3   86.99    5.20
  -4   2  -3   89.49    3.20
   4   2   3   91.19    4.30
  -4   2  -3   78.19    5.60
  -4  -2  -3   95.09    3.20
   4  -2   3   82.99    3.30
  -4  -2  -3   97.09    3.40
  -4  -2  -3   96.79    4.50
   4  -2   3   85.29    3.30
  -4  -2  -3   98.69    3.40
  -4  -2  -3   93.99    3.30
   4  -2   3   84.99    3.40
  -4   2  -4  248.08   11.30
   4   2   4  250.67    8.60
   4   2   4  249.08    8.70
   4   2   4  251.67   10.30
  -4   2  -4  239.38   12.10
  -4   2  -4  238.88    8.60
  -4   2  -4  256.77    8.50
   4   2   4  245.18    8.70
  -4  -2  -4  255.77    8.50
  -4  -2  -4  246.68    8.60
   4  -2   4  253.77    8.70
  -4  -2  -4  256.57   10.50
   4  -2   4  246.68    8.80
  -4  -2  -4  250.67    8.70
   4  -2   4  242.48    8.70
  -4   2  -5    2.60    1.20
   4   2   5    0.30    0.20
   4   2   5    0.40    0.20
   4   2   5    0.20    0.50
   4   2   5    0.30    0.10
  -4   2  -5    0.10    0.10
  -4   2  -5    0.50    0.20
  -4   2  -5    1.40    0.90
  -4  -2  -5    0.60    0.50
  -4  -2  -5    0.10    0.10
  -4  -2  -5    0.50    0.20
   4  -2   5    0.60    0.20
   4  -2   5    0.50    0.20
   4  -2   5    0.40    0.20
  -4  -2  -5    0.30    0.20
  -4   2  -6  139.09    4.80
  -4   2  -6  143.39    8.90
   4   2   6  139.79    4.90
  -4   2  -6  124.09    7.80
   4   2   6  131.69    7.40
   4   2   6  131.59    5.10
   4   2   6  136.89    5.10
  -4   2  -6  140.09    4.90
  -4  -2  -6  132.39    5.10
  -4  -2  -6  123.39    7.50
  -4  -2  -6  134.89    4.90
   4  -2   6  142.29    5.00
   4  -2   6  137.19    5.10
  -4  -2  -6  136.19    4.90
   4  -2   6  141.89    5.20
  -4   2  -7    0.20    0.20
  -4   2  -7    0.00    1.00
   4   2   7    0.30    0.30
  -4   2  -7    0.90    1.00
   4   2   7    0.40    0.20
   4   2   7   -0.10    0.80
   4   2   7   -0.10    0.20
  -4   2  -7    0.30    0.20
   4  -2   7    0.40    0.30
  -4  -2  -7   -0.20    0.70
  -4  -2  -7    0.50    0.20
  -4  -2  -7    0.40    0.20
  -4  -2  -7    0.20    0.30
   4  -2   7    0.20    0.30
  -4   2  -8   35.00    4.60
  -4   2  -8   41.40    1.80
   4   2   8   43.00    2.10
   4   2   8   42.70    2.00
   4   2   8   38.60    4.10
  -4   2  -8   41.50    1.80
  -4   2  -8   44.70    4.60
   4   2   8   41.20    1.80
   4  -2   8   40.70    2.00
  -4  -2  -8   42.40    1.80
  -4  -2  -8   37.80    4.20
   4  -2   8   41.00    2.00
  -4  -2  -8   44.30    2.10
  -4  -2  -8   41.60    1.80
  -4   2  -9   -0.20    0.20
   4   2   9    0.00    0.30
  -4   2  -9    0.30    0.30
   4   2   9    0.10    0.30
  -4  -2  -9    0.00    0.20
  -4  -2  -9    0.40    0.30
   4  -2   9    0.20    0.30
   4  -2   9    0.20    0.30
  -4   3   9    9.10    0.90
  -4   3   9    9.40    0.70
  -4   3   9    6.30    1.90
   4   3  -9    8.70    0.70
   4   3  -9    9.90    0.70
  -4  -3   9    9.10    0.90
   4  -3  -9    9.10    0.70
  -4  -3   9    9.50    0.90
   4  -3  -9    9.90    0.80
  -4  -3   9    9.20    0.70
   4  -3  -9    8.30    2.30
   4   3  -8    0.40    0.20
  -4   3   8    0.50    0.20
  -4   3   8    1.00    1.20
   4   3  -8    0.70    0.30
  -4   3   8    0.40    0.30
  -4   3   8    0.60    0.30
   4   3  -8    1.90    1.20
  -4  -3   8    0.30    0.90
  -4  -3   8    0.70    0.30
   4  -3  -8    0.80    1.10
  -4  -3   8    0.40    0.20
  -4  -3   8    0.30    0.30
   4  -3  -8    0.30    0.20
   4  -3  -8    0.20    0.30
   4   3  -7   75.79    5.70
  -4   3   7   79.89    3.20
   4   3  -7   81.09    3.00
  -4   3   7   86.89    6.00
   4   3  -7   83.09    3.10
  -4   3   7   82.79    3.10
  -4   3   7   81.09    3.10
  -4  -3   7   79.79    5.70
   4  -3  -7   81.09    3.30
  -4  -3   7   84.49    3.30
   4  -3  -7   78.59    5.80
   4  -3  -7   81.59    3.10
   4  -3  -7   80.39    3.20
  -4  -3   7   83.99    3.20
  -4  -3   7   80.29    3.30
  -4   3   6    2.60    1.20
   4   3  -6    1.70    0.30
   4   3  -6    1.90    0.30
   4   3  -6    0.30    0.70
  -4   3   6    2.70    0.40
  -4   3   6    2.80    0.30
  -4  -3   6    1.80    0.30
  -4  -3   6    2.10    0.40
   4  -3  -6    2.60    0.40
   4  -3  -6    2.30    0.40
  -4  -3   6    1.50    0.40
   4  -3  -6    3.10    0.50
   4  -3  -6    2.90    1.30
  -4  -3   6    1.00    0.90
  -4   3   5  233.98    8.10
   4   3  -5  222.68    7.90
   4   3  -5  236.78    7.90
   4   3  -5  236.58   10.90
  -4   3   5  228.38   10.80
  -4   3   5  226.48    7.90
   4  -3  -5  233.58    8.00
   4  -3  -5  227.78    8.10
   4  -3  -5  226.58    8.00
  -4  -3   5  221.18    8.10
   4  -3  -5  219.28   10.70
  -4  -3   5  226.48    8.10
  -4  -3   5  229.08    8.00
  -4  -3   5  219.38   10.80
  -4   3   4  183.38    8.80
   4   3  -4  183.28    8.90
  -4   3   4  184.38    6.50
   4   3  -4  182.48    6.30
   4   3  -4  179.28    6.40
  -4   3   4  181.08    6.40
  -4  -3   4  185.68    8.80
  -4  -3   4  183.98    6.60
   4  -3  -4  186.48    6.60
  -4  -3   4  186.28    6.40
   4  -3  -4  182.08    6.50
  -4  -3   4  175.68    6.50
   4  -3  -4  184.98    9.00
   4  -3  -4  183.28    6.40
  -4   3   3  355.06   14.50
   4   3  -3  351.66   14.40
   4   3  -3  341.37   12.10
  -4  -3   3  362.46   12.30
   4  -3  -3  371.76   15.00
  -4  -3   3  362.06   14.50
  -4  -3   3  344.47   12.10
   4  -3  -3  354.36   12.30
   4  -3  -3  361.06   12.30
  -4   3   2   44.00    1.70
   4   3  -2   48.00    3.10
  -4   3   2   42.90    3.30
  -4   3   2   44.00    1.70
  -4  -3   2   50.89    1.80
   4  -3  -2   44.20    1.90
  -4  -3   2   49.50    1.80
  -4  -3   2   47.80    3.00
  -4  -3   2   47.80    1.80
  -4  -3   2   46.50    1.80
   4  -3  -2   41.30    1.90
   4  -3  -2   44.10    1.80
  -4  -3   2   50.99    1.90
   4   3  -1  430.86   15.60
  -4   3   1  424.76   16.90
   4  -3  -1  426.96   14.60
  -4  -3   1  396.96   14.50
  -4  -3   1  432.66   14.40
  -4  -3   1  437.16   15.70
   4  -3  -1  422.16   17.30
   4  -3  -1  419.26   14.60
   4   3   0   16.00    1.10
  -4   3   0   16.70    2.10
   4   3   0   14.90    1.30
   4   3   0   14.90    0.70
  -4   3   0   17.70    0.70
   4  -3   0   17.40    0.90
  -4  -3   0   15.30    0.80
  -4  -3   0   15.30    0.80
  -4  -3   0   16.60    0.70
   4  -3   0   18.20    0.80
  -4  -3   0   15.50    0.80
   4  -3   0   22.90    2.50
   4  -3   0   17.70    0.80
   4  -3   0   17.00    0.90
  -4   3  -1  122.99    6.90
  -4   3  -1  119.59    4.30
   4   3   1  125.69    4.40
  -4   3  -1  125.49    4.30
   4   3   1  124.19    4.50
   4  -3   1  129.09    4.50
  -4  -3  -1  124.19    4.50
   4  -3   1  124.99    4.30
  -4  -3  -1  121.29    4.40
  -4  -3  -1  125.69    4.50
   4  -3   1  129.29    4.50
   4  -3   1  123.89    7.00
   4  -3   1  125.49    4.50
  -4   3  -2  390.86   15.70
  -4   3  -2  364.06   16.50
   4  -3   2  375.46   13.40
  -4  -3  -2  420.56   13.40
   4  -3   2  364.86   13.40
   4  -3   2  389.66   13.50
  -4  -3  -2  417.16   13.40
   4   3   3  221.58    8.70
   4   3   3  222.28    7.80
  -4   3  -3  226.78   10.30
  -4   3  -3  220.78    7.60
  -4   3  -3  215.08   11.10
   4   3   3  218.88    7.70
   4  -3   3  213.88    7.70
  -4  -3  -3  230.38    7.70
  -4  -3  -3  232.08    8.90
   4  -3   3  219.88    7.90
   4  -3   3  217.08    7.70
  -4  -3  -3  220.38    7.80
  -4  -3  -3  223.18    7.80
   4   3   4    6.40    0.50
  -4   3  -4    6.10    0.40
   4   3   4    5.80    0.40
  -4   3  -4    4.10    1.60
  -4   3  -4    5.50    0.40
  -4   3  -4    3.90    1.30
   4   3   4    6.80    1.10
   4   3   4    6.00    0.40
   4  -3   4    5.60    0.50
   4  -3   4    5.10    0.50
   4  -3   4    5.50    0.50
  -4  -3  -4    6.00    0.40
  -4  -3  -4    6.20    0.50
  -4  -3  -4    6.30    1.20
  -4  -3  -4    6.40    0.50
  -4   3  -5  180.18   10.50
  -4   3  -5  178.38    6.20
   4   3   5  170.28    6.30
   4   3   5  178.48    8.40
  -4   3  -5  173.68    6.20
   4   3   5  172.38    6.40
  -4   3  -5  177.58    9.40
   4   3   5  177.08    6.30
  -4  -3  -5  187.68    8.80
   4  -3   5  181.28    6.50
   4  -3   5  179.68    6.50
  -4  -3  -5  179.58    6.20
  -4  -3  -5  175.78    6.30
  -4  -3  -5  175.88    6.50
   4  -3   5  182.28    6.30
   4   3   6    6.30    0.60
  -4   3  -6    5.90    0.50
  -4   3  -6    6.20    0.40
  -4   3  -6    4.10    1.60
   4   3   6    7.20    1.50
   4   3   6    7.40    0.60
   4   3   6    7.10    0.50
  -4   3  -6    5.60    2.30
   4  -3   6    5.10    0.60
  -4  -3  -6    6.40    0.60
  -4  -3  -6    8.90    0.70
  -4  -3  -6    7.50    0.50
   4  -3   6    5.70    0.50
  -4  -3  -6    6.20    1.60
   4  -3   6    5.50    0.60
   4   3   7   47.50    4.30
  -4   3  -7   43.90    5.10
  -4   3  -7   48.80    2.00
   4   3   7   49.99    2.00
  -4   3  -7   51.09    4.60
   4   3   7   50.89    2.20
   4   3   7   50.49    2.20
  -4  -3  -7   48.70    2.10
   4  -3   7   47.60    2.20
  -4  -3  -7   48.10    2.30
   4  -3   7   47.90    2.30
  -4  -3  -7   51.49    4.60
  -4  -3  -7   50.89    2.00
  -4   3  -8   -0.90    1.40
  -4   3  -8    1.90    0.40
  -4   3  -8    2.50    0.40
   4   3   8    2.10    0.50
   4   3   8    1.50    0.40
   4   3   8    1.90    0.30
   4  -3   8    2.70    0.60
  -4  -3  -8    2.40    0.50
   4  -3   8    2.10    0.50
  -4  -3  -8    1.40    0.40
  -4  -3  -8    1.60    0.40
   4   3   9    7.90    0.80
   4   3   9    8.10    0.70
  -4   3  -9    8.70    0.70
  -4   3  -9    9.20    0.70
   4  -3   9    8.30    0.80
   4  -3   9    9.20    0.90
  -4  -3  -9    7.70    0.70
  -4   4   9   -0.10    0.30
   4   4  -9    0.40    0.30
  -4   4   9    0.20    0.20
   4   4  -9    0.30    0.30
  -4   4   9    2.70    1.70
  -4  -4   9    0.40    0.30
  -4  -4   9    0.20    0.30
   4  -4  -9    0.60    1.50
   4  -4  -9    0.30    0.30
   4  -4  -9    0.40    0.40
  -4   4   8   44.90    1.80
  -4   4   8   37.20    4.20
   4   4  -8   40.10    1.80
   4   4  -8   44.10    1.80
  -4   4   8   43.40    2.00
   4   4  -8   35.20    4.10
   4  -4  -8   43.20    1.90
  -4  -4   8   43.50    2.10
  -4  -4   8   43.30    2.10
  -4  -4   8   41.90    1.90
   4  -4  -8   43.60    2.00
   4  -4  -8   43.70    2.10
   4  -4  -8   35.60    4.40
  -4   4   7    3.10    1.40
   4   4  -7    4.30    0.40
   4   4  -7    4.00    1.60
   4   4  -7    3.80    0.40
  -4   4   7    4.20    0.40
  -4   4   7    4.60    0.60
   4  -4  -7    3.20    0.50
   4  -4  -7    3.20    1.50
   4  -4  -7    3.80    0.50
  -4  -4   7    4.80    1.60
  -4  -4   7    3.40    0.60
  -4  -4   7    4.30    0.60
   4  -4  -7    4.40    0.60
  -4  -4   7    4.00    0.40
  -4   4   6   19.80    1.00
   4   4  -6   20.50    1.00
   4   4  -6   22.30    1.00
  -4   4   6   20.90    1.10
  -4   4   6   20.90    2.60
   4   4  -6   15.30    2.50
  -4  -4   6   19.70    2.70
  -4  -4   6   22.40    1.10
   4  -4  -6   20.10    1.20
   4  -4  -6   19.50    2.70
  -4  -4   6   21.90    1.20
   4  -4  -6   20.50    1.00
  -4  -4   6   20.50    1.20
   4  -4  -6   23.30    1.20
   4   4  -5    2.30    1.20
   4   4  -5    2.10    0.30
  -4   4   5    3.60    1.30
   4   4  -5    3.00    0.30
  -4  -4   5    2.60    1.20
   4  -4  -5    4.30    0.50
   4  -4  -5    1.40    1.00
  -4  -4   5    2.40    0.40
   4  -4  -5    3.30    0.40
  -4  -4   5    2.60    0.30
  -4  -4   5    3.00    0.50
   4  -4  -5    4.00    0.50
   4   4  -4  160.38    5.80
  -4   4   4  167.28    8.30
  -4   4   4  165.28    5.90
   4   4  -4  162.78    8.40
   4   4  -4  162.78    5.70
  -4   4   4  169.78    5.90
   4  -4  -4  166.08    6.10
  -4  -4   4  167.58    6.00
  -4  -4   4  166.08    5.90
  -4  -4   4  161.88    6.00
   4  -4  -4  173.58    9.10
   4  -4  -4  169.28    6.00
   4  -4  -4  168.58    5.90
  -4  -4   4  163.18    5.80
  -4  -4   4  161.58    8.30
  -4   4   3  101.49    3.50
  -4   4   3   98.29    3.50
   4   4  -3   94.99    5.50
  -4   4   3   95.39    5.60
  -4  -4   3   93.79    3.60
   4  -4  -3  101.59    3.60
  -4  -4   3   95.29    3.60
  -4  -4   3   92.79    3.50
  -4  -4   3   91.39    3.60
   4  -4  -3  100.49    6.20
   4  -4  -3  100.59    3.70
  -4  -4   3   92.59    5.40
   4  -4  -3  100.79    3.70
  -4  -4   3   96.59    3.70
  -4   4   2    3.00    1.10
  -4   4   2    4.00    0.30
   4   4  -2    3.60    1.00
  -4   4   2    4.30    0.30
  -4  -4   2    3.00    0.30
   4  -4  -2    4.30    0.50
  -4  -4   2    3.20    0.30
  -4  -4   2    3.60    1.00
  -4  -4   2    2.80    0.30
  -4  -4   2    3.70    0.40
   4  -4  -2    4.50    0.40
   4  -4  -2    4.20    1.60
  -4  -4   2    3.20    0.30
  -4  -4   2    3.60    0.30
   4  -4  -2    4.70    0.50
   4   4  -1   70.29    3.80
  -4   4   1   58.59    4.40
   4   4  -1   80.69    4.50
  -4   4   1   63.79    2.40
  -4   4   1   62.19    2.50
  -4  -4   1   74.09    2.60
  -4  -4   1   76.59    2.60
  -4  -4   1   68.79    2.60
  -4  -4   1   71.79    2.60
  -4  -4   1   71.99    2.40
   4  -4  -1   59.69    2.40
   4  -4  -1   64.49    2.70
   4  -4  -1   64.79    2.60
   4  -4  -1   61.59    4.90
   4  -4  -1   63.69    2.70
  -4  -4   1   70.79    2.60
  -4   4   0  396.46   17.20
   4   4   0  394.66   14.80
   4   4   0  416.06   15.40
   4  -4   0  414.86   14.00
  -4  -4   0  414.06   14.00
  -4  -4   0  409.36   13.70
  -4  -4   0  394.06   13.90
   4  -4   0  414.56   17.40
   4  -4   0  402.26   13.90
   4  -4   0  397.56   14.10
   4   4   1    2.10    0.20
   4   4   1    1.70    0.30
  -4   4  -1    2.20    0.20
  -4   4  -1    2.10    1.00
   4  -4   1    2.80    0.30
   4  -4   1    2.90    1.10
  -4  -4  -1    2.10    0.30
   4  -4   1    3.00    0.30
   4  -4   1    1.80    0.30
  -4  -4  -1    1.80    0.30
  -4  -4  -1    1.80    0.30
  -4   4  -2   78.19    5.00
  -4   4  -2   81.49    5.90
   4   4   2   89.69    2.90
   4   4   2   82.89    3.00
  -4   4  -2   77.99    2.80
  -4   4  -2   80.09    2.90
   4  -4   2   76.59    3.00
   4  -4   2   75.89    3.10
   4  -4   2   76.69    3.10
  -4  -4  -2   80.09    3.00
  -4  -4  -2   84.89    3.10
  -4  -4  -2   79.69    3.10
   4  -4   2   77.39    2.90
  -4   4  -3  139.69    8.50
   4   4   3  139.19    4.90
  -4   4  -3  133.69    4.90
  -4   4  -3  131.39    7.40
   4   4   3  138.79    5.80
   4   4   3  145.69    5.10
   4  -4   3  134.79    5.00
  -4  -4  -3  139.29    5.00
  -4  -4  -3  142.89    5.10
   4  -4   3  134.99    5.00
  -4  -4  -3  148.19    6.40
   4  -4   3  136.69    5.10
  -4  -4  -3  142.49    5.10
  -4   4  -4  190.98    9.80
   4   4   4  185.58    6.80
  -4   4  -4  192.88    6.70
   4   4   4  187.28    6.80
  -4   4  -4  200.38   11.00
   4   4   4  189.88    6.90
  -4   4  -4  195.38    6.70
   4   4   4  192.28    8.20
  -4  -4  -4  192.18    6.80
   4  -4   4  203.18    7.10
  -4  -4  -4  192.48    7.00
  -4  -4  -4  184.58    6.70
   4  -4   4  198.28    6.90
  -4  -4  -4  194.98    8.60
   4  -4   4  196.98    6.90
   4   4   5    4.10    0.40
  -4   4  -5    5.60    0.40
   4   4   5    4.40    0.50
   4   4   5    4.00    0.40
  -4   4  -5    6.50    2.30
   4   4   5    3.60    1.20
  -4   4  -5    8.70    1.80
  -4   4  -5    5.60    0.40
  -4  -4  -5    5.00    0.40
   4  -4   5    5.70    0.50
   4  -4   5    6.30    0.60
   4  -4   5    5.80    0.50
  -4  -4  -5    2.90    1.00
  -4  -4  -5    4.30    0.50
  -4  -4  -5    4.30    0.50
  -4   4  -6   23.20    3.60
   4   4   6   30.40    1.50
   4   4   6   30.40    1.40
   4   4   6   31.00    3.00
  -4   4  -6   28.00    3.30
  -4   4  -6   27.40    1.20
   4   4   6   31.80    1.30
  -4   4  -6   29.60    1.30
  -4  -4  -6   27.80    1.50
  -4  -4  -6   26.10    3.00
  -4  -4  -6   27.30    1.30
  -4  -4  -6   30.20    1.40
   4  -4   6   29.20    1.40
   4  -4   6   29.10    1.60
   4  -4   6   28.60    1.50
  -4   4  -7    2.30    0.40
  -4   4  -7    1.60    1.60
   4   4   7    3.20    0.50
   4   4   7    3.30    0.50
   4   4   7    3.00    0.40
   4  -4   7    2.30    0.50
  -4  -4  -7    2.70    0.50
  -4  -4  -7    2.80    0.50
   4  -4   7    2.30    0.50
   4  -4   7    2.60    0.40
  -4  -4  -7    2.20    0.40
   4   4   8   20.40    1.30
   4   4   8   19.80    1.10
  -4   4  -8   21.40    1.10
  -4   4  -8   20.60    1.10
  -4  -4  -8   20.40    1.40
  -4  -4  -8   20.00    1.10
   4  -4   8   19.20    1.30
   4  -4   8   21.20    1.30
   4   5  -9   19.20    1.10
  -4   5   9   20.40    1.10
   4   5  -9   18.60    1.10
  -4   5   9   20.40    1.30
   4  -5  -9   17.70    1.20
  -4  -5   9   18.50    1.20
  -4  -5   9   18.40    1.30
   4  -5  -9   17.70    1.20
  -4   5   8    1.20    0.40
   4   5  -8    0.60    0.30
   4   5  -8    0.90    0.30
  -4   5   8    2.50    1.40
  -4   5   8    1.10    0.30
   4  -5  -8    1.10    0.40
   4  -5  -8    0.70    0.40
  -4  -5   8    1.50    0.40
  -4  -5   8    0.90    0.30
   4  -5  -8    0.50    0.40
   4  -5  -8   -1.30    1.30
  -4  -5   8    2.00    0.50
   4   5  -7    7.90    0.50
   4   5  -7    8.20    0.60
  -4   5   7    7.30    0.60
  -4   5   7    7.20    2.10
   4   5  -7   10.50    2.50
  -4   5   7    8.10    0.70
  -4  -5   7    7.50    0.60
   4  -5  -7    7.60    0.80
  -4  -5   7    7.50    0.70
   4  -5  -7    7.30    0.70
  -4  -5   7    7.70    0.80
   4  -5  -7    7.50    2.30
  -4  -5   7   10.00    2.00
   4  -5  -7   10.10    0.70
   4   5  -6    6.80    1.80
   4   5  -6    6.20    0.50
   4   5  -6    6.60    0.50
  -4   5   6    6.30    0.50
  -4   5   6    8.10    2.00
  -4   5   6    7.00    0.60
  -4  -5   6    6.70    0.60
  -4  -5   6    4.30    1.50
   4  -5  -6    8.30    2.40
   4  -5  -6    6.50    0.70
  -4  -5   6    5.90    0.60
   4  -5  -6    6.30    0.60
  -4  -5   6    5.80    0.60
   4  -5  -6    6.00    0.60
  -4   5   5  197.68    6.90
   4   5  -5  195.18    6.80
   4   5  -5  191.68    6.70
  -4   5   5  197.28    9.90
   4   5  -5  181.18    9.80
  -4   5   5  186.58    6.80
   4  -5  -5  194.98    6.90
  -4  -5   5  197.38    9.90
   4  -5  -5  184.38   10.40
  -4  -5   5  197.88    6.90
   4  -5  -5  194.38    7.00
  -4  -5   5  195.78    7.00
  -4  -5   5  188.08    7.00
   4  -5  -5  181.88    7.00
   4   5  -4   46.60    1.80
  -4   5   4   50.09    4.00
  -4   5   4   52.39    1.90
   4   5  -4   44.20    3.90
  -4   5   4   52.29    2.00
  -4  -5   4   46.50    3.90
  -4  -5   4   44.70    2.00
   4  -5  -4   52.29    2.00
  -4  -5   4   43.70    2.10
  -4  -5   4   43.70    2.10
  -4  -5   4   42.70    2.00
   4  -5  -4   53.29    2.20
   4  -5  -4   50.29    4.50
   4  -5  -4   51.99    2.20
  -4   5   3  119.19    4.30
  -4   5   3  114.29    6.70
  -4   5   3  122.99    4.30
   4   5  -3  119.49    6.60
  -4  -5   3  116.89    4.40
   4  -5  -3  121.19    4.50
  -4  -5   3  123.89    4.40
   4  -5  -3  117.39    4.40
  -4  -5   3  112.59    4.40
  -4  -5   3  121.09    4.30
   4  -5  -3  123.49    7.80
   4  -5  -3  117.59    4.50
  -4  -5   3  121.19    4.40
  -4  -5   3  118.79    4.40
   4   5  -2   37.20    3.50
  -4   5   2   39.20    1.50
  -4   5   2   39.70    1.50
  -4   5   2   36.40    3.30
   4   5  -2   39.10    3.00
  -4  -5   2   37.00    1.70
  -4  -5   2   36.50    1.60
   4  -5  -2   38.90    1.80
   4  -5  -2   41.00    1.70
  -4  -5   2   35.00    1.60
  -4  -5   2   36.50    1.50
   4  -5  -2   39.40    4.00
  -4  -5   2   36.70    1.60
   4  -5  -2   40.00    1.80
  -4  -5   2   35.50    1.60
   4   5  -1  339.87   13.60
  -4   5   1  315.57   14.80
   4   5  -1  344.97   14.60
  -4   5   1  327.37   11.70
   4  -5  -1  344.97   11.70
   4  -5  -1  335.47   11.90
  -4  -5   1  343.27   11.90
   4  -5  -1  341.27   11.80
   4  -5  -1  350.06   12.00
   4  -5  -1  338.57   15.60
  -4  -5   1  336.57   11.80
  -4  -5   1  345.47   11.60
  -4  -5   1  348.77   11.90
  -4  -5   1  352.26   11.80
  -4   5   0   27.80    1.20
  -4   5   0   27.50    1.20
   4   5   0   38.80    2.80
   4   5   0   32.20    2.20
   4   5   0   31.90    1.30
  -4   5   0   27.60    3.20
   4  -5   0   29.20    3.30
  -4  -5   0   33.60    1.40
   4  -5   0   25.20    1.40
  -4  -5   0   34.80    1.40
   4  -5   0   26.70    1.30
   4  -5   0   25.90    1.40
   4  -5   0   26.30    1.30
   4   5   1  133.29    5.60
   4   5   1  126.89    5.40
   4   5   1  129.09    4.60
   4   5   1  126.19    4.70
  -4   5  -1  127.29    4.50
  -4  -5  -1  129.39    4.80
   4  -5   1  129.69    4.70
   4  -5   1  132.29    4.90
  -4  -5  -1  133.29    4.80
   4  -5   1  133.39    4.80
   4  -5   1  122.29    4.70
   4  -5   1  123.99    4.60
  -4  -5  -1  126.19    4.70
   4  -5   1  137.09    8.00
   4   5   2   20.00    1.00
  -4   5  -2   15.90    2.20
  -4   5  -2   14.60    2.50
  -4   5  -2   18.70    0.80
  -4   5  -2   18.30    0.90
   4   5   2   20.00    0.90
   4  -5   2   17.50    0.90
   4  -5   2   18.50    1.10
   4  -5   2   18.60    1.00
  -4  -5  -2   18.90    1.00
  -4  -5  -2   19.80    1.10
   4  -5   2   18.50    0.90
  -4  -5  -2   20.90    1.00
   4   5   3   70.99    2.80
  -4   5  -3   69.99    2.60
  -4   5  -3   72.59    5.90
   4   5   3   64.29    2.60
  -4   5  -3   72.09    2.50
  -4   5  -3   72.09    5.00
  -4  -5  -3   68.79    2.80
  -4  -5  -3   66.99    2.70
   4  -5   3   72.59    2.90
   4  -5   3   69.89    2.70
  -4  -5  -3   67.49    2.90
   4  -5   3   73.89    2.80
   4  -5   3   69.49    2.80
   4   5   4   72.69    3.80
  -4   5  -4   64.79    2.40
  -4   5  -4   65.79    2.50
  -4   5  -4   57.39    5.50
   4   5   4   59.39    2.60
   4   5   4   69.29    2.50
  -4   5  -4   66.59    5.00
  -4  -5  -4   67.39    2.80
   4  -5   4   59.39    2.70
  -4  -5  -4   69.99    2.60
   4  -5   4   64.99    2.70
   4  -5   4   62.29    2.60
  -4  -5  -4   70.49    4.20
  -4   5  -5   97.89    6.70
   4   5   5  102.69    4.00
  -4   5  -5  115.09    8.00
   4   5   5  110.39    5.80
  -4   5  -5  104.79    3.80
   4   5   5  106.79    3.90
  -4   5  -5  106.69    3.80
  -4  -5  -5  102.09    3.80
   4  -5   5  103.89    3.90
   4  -5   5  108.79    4.10
  -4  -5  -5  107.09    4.20
  -4  -5  -5  102.89    6.10
   4  -5   5  100.59    4.10
  -4  -5  -5  106.69    4.00
   4   5   6    1.40    0.30
  -4   5  -6    1.90    0.30
  -4   5  -6    0.50    0.90
  -4   5  -6    1.60    1.70
   4   5   6    1.30    0.40
   4  -5   6    1.70    0.40
   4  -5   6    1.80    0.40
  -4  -5  -6    1.40    0.30
  -4  -5  -6    1.10    0.40
   4  -5   6    1.60    0.40
   4   5   7    9.80    0.80
  -4   5  -7   10.40    0.70
   4   5   7    9.60    0.70
  -4   5  -7    8.80    2.60
  -4  -5  -7    9.90    0.90
  -4  -5  -7   10.30    0.80
   4  -5   7    9.90    0.90
   4  -5   7   11.40    0.90
   4  -5   7   10.30    0.70
   4   5   8    0.30    0.30
  -4   5  -8    0.10    0.20
  -4   5  -8    0.00    0.20
   4   5   8    0.40    0.40
   4  -5   8    0.20    0.40
   4  -5   8    0.30    0.30
  -4  -5  -8    0.50    0.40
  -4  -5  -8    0.70    0.40
  -4   6   8    8.70    0.70
   4   6  -8    9.90    0.80
  -4   6   8   10.30    0.90
   4   6  -8    9.70    0.70
   4  -6  -8    9.50    1.00
  -4  -6   8   10.20    0.90
  -4  -6   8    9.90    0.90
   4  -6  -8    9.50    0.90
   4  -6  -8    9.20    0.80
  -4   6   7    2.90    1.40
  -4   6   7    3.00    0.40
   4   6  -7    2.80    0.40
   4   6  -7    1.10    1.30
  -4   6   7    3.70    0.60
   4   6  -7    3.10    0.50
   4  -6  -7    2.40    0.60
   4  -6  -7    3.20    1.90
  -4  -6   7    1.70    0.40
   4  -6  -7    3.10    0.60
  -4  -6   7    1.60    0.40
   4  -6  -7    2.70    0.50
   4   6  -6   41.30    1.70
   4   6  -6   35.50    4.40
  -4   6   6   40.30    4.20
  -4   6   6   39.70    1.70
  -4   6   6   40.70    1.90
   4   6  -6   40.30    1.60
   4   6  -6   35.40    4.00
  -4  -6   6   41.20    1.90
   4  -6  -6   40.60    1.90
   4  -6  -6   39.20    2.00
  -4  -6   6   39.80    1.90
   4  -6  -6   35.30    4.60
  -4  -6   6   38.90    1.90
   4  -6  -6   40.10    1.90
  -4   6   5    1.30    1.30
   4   6  -5    0.40    0.20
   4   6  -5    1.30    1.10
  -4   6   5    0.40    0.20
   4   6  -5    0.20    0.20
   4   6  -5    0.50    0.90
  -4   6   5    0.70    0.30
   4  -6  -5    0.40    0.30
   4  -6  -5    0.70    0.30
  -4  -6   5    0.40    0.20
   4  -6  -5    2.30    1.50
  -4  -6   5    0.80    0.40
  -4  -6   5    0.40    0.30
   4  -6  -5    0.30    0.30
  -4  -6   5    0.70    0.30
   4   6  -4   17.00    0.80
   4   6  -4   15.90    2.80
  -4   6   4   14.00    2.20
  -4   6   4   16.40    0.90
  -4   6   4   15.70    0.90
   4   6  -4   16.90    2.40
  -4  -6   4   18.50    1.10
  -4  -6   4   17.60    0.90
   4  -6  -4   15.60    1.00
  -4  -6   4   17.30    1.00
  -4  -6   4   18.00    1.00
   4  -6  -4   15.50    1.10
   4  -6  -4   15.40    1.10
  -4  -6   4   18.50    1.10
   4  -6  -4   13.40    2.70
  -4   6   3   28.70    1.20
   4   6  -3   21.40    3.10
   4   6  -3   23.10    2.70
  -4   6   3   29.00    3.10
  -4   6   3   28.30    1.20
  -4  -6   3   22.80    1.30
   4  -6  -3   28.40    1.40
  -4  -6   3   23.10    1.30
   4  -6  -3   31.30    3.70
  -4  -6   3   22.10    1.30
  -4  -6   3   22.80    1.30
   4  -6  -3   27.80    1.40
   4  -6  -3   29.30    1.30
  -4  -6   3   23.50    1.30
  -4  -6   3   23.50    1.10
  -4   6   2  170.38    5.90
   4   6  -2  173.68    8.50
  -4   6   2  168.78    5.90
   4   6  -2  154.58    9.10
  -4   6   2  167.28    8.90
   4  -6  -2  174.28   10.10
   4  -6  -2  174.28    6.30
  -4  -6   2  164.98    6.00
  -4  -6   2  167.98    6.10
  -4  -6   2  171.18    6.10
  -4  -6   2  165.98    5.90
  -4  -6   2  171.98    6.20
  -4  -6   2  161.68    6.10
   4  -6  -2  162.68    6.20
   4  -6  -2  158.08    6.00
   4   6  -1   12.10    1.60
   4   6  -1   10.30    1.90
  -4   6   1    8.40    0.50
  -4   6   1    8.40    0.50
  -4   6   1    9.50    1.90
  -4  -6   1    9.20    0.70
   4  -6  -1    8.10    0.70
  -4  -6   1   11.10    0.70
   4  -6  -1   11.40    2.20
   4  -6  -1    7.40    0.50
   4  -6  -1    7.80    0.60
  -4  -6   1   11.00    0.70
  -4  -6   1   10.50    0.80
  -4  -6   1   10.00    0.60
   4  -6  -1    7.40    0.70
  -4   6   0   63.19    2.40
   4   6   0   64.49    4.50
   4   6   0   63.59    2.40
  -4   6   0   59.39    5.20
   4   6   0   62.49    3.80
  -4   6   0   60.99    2.30
   4  -6   0   60.59    2.50
   4  -6   0   55.19    5.00
  -4  -6   0   64.19    2.60
   4  -6   0   60.49    2.70
   4  -6   0   59.39    2.40
  -4  -6   0   61.49    2.30
   4  -6   0   58.49    2.60
  -4  -6   0   67.39    2.60
  -4  -6   0   67.09    2.60
   4   6   1    5.50    0.90
   4   6   1    6.30    1.10
  -4   6  -1    4.70    0.40
  -4   6  -1    2.70    1.40
   4   6   1    5.60    0.50
   4   6   1    5.80    0.40
  -4  -6  -1    5.60    0.60
   4  -6   1    4.70    0.40
   4  -6   1    3.90    0.40
  -4  -6  -1    5.90    0.60
   4  -6   1    4.20    0.60
   4  -6   1    3.70    0.60
   4  -6   1    4.60    0.50
  -4  -6  -1    5.80    0.60
  -4   6  -2  158.58    5.50
  -4   6  -2  156.78    5.40
   4   6   2  154.38    5.60
  -4   6  -2  166.88    9.80
  -4   6  -2  157.68    8.50
   4   6   2  147.39    5.40
   4  -6   2  156.88    5.80
   4  -6   2  160.98    5.70
  -4  -6  -2  145.29    5.70
   4  -6   2  156.48    5.60
  -4  -6  -2  152.88    5.70
  -4  -6  -2  147.99    5.80
   4  -6   2  159.18    5.70
  -4   6  -3   18.10    0.90
  -4   6  -3   18.00    3.20
  -4   6  -3   17.80    0.80
  -4   6  -3   18.10    2.50
   4   6   3   18.70    1.00
   4  -6   3   16.10    1.10
  -4  -6  -3   20.30    1.10
   4  -6   3   15.80    0.90
  -4  -6  -3   20.10    1.20
  -4  -6  -3   17.70    1.00
   4  -6   3   17.20    1.00
   4  -6   3   17.30    1.10
  -4   6  -4   14.60    0.80
  -4   6  -4   12.30    2.20
   4   6   4   14.40    0.80
  -4   6  -4   15.60    2.90
  -4   6  -4   14.70    0.80
   4   6   4   14.50    0.90
  -4  -6  -4   14.50    0.90
  -4  -6  -4   15.30    1.10
   4  -6   4   14.60    0.90
   4  -6   4   13.40    1.00
   4  -6   4   13.70    0.90
  -4   6  -5    2.30    0.30
   4   6   5    2.80    0.50
  -4   6  -5    2.20    0.30
  -4   6  -5    3.30    1.40
   4   6   5    3.20    0.40
  -4   6  -5   -0.30    1.20
   4  -6   5    1.60    0.40
  -4  -6  -5    2.20    0.50
  -4  -6  -5    2.20    0.50
   4  -6   5    1.70    0.40
   4  -6   5    2.00    0.40
  -4   6  -6   17.80    3.10
  -4   6  -6   12.70    3.20
   4   6   6   16.80    1.10
  -4   6  -6   16.80    0.90
   4   6   6   17.50    1.00
   4  -6   6   17.80    1.00
  -4  -6  -6   17.10    1.20
  -4  -6  -6   16.40    1.10
   4  -6   6   18.10    1.20
   4  -6   6   17.60    1.20
   4   6   7    0.80    0.40
   4   6   7    0.60    0.30
  -4   6  -7    1.10    0.30
  -4  -6  -7    0.00    0.30
   4  -6   7    0.80    0.30
   4  -6   7    1.00    0.40
  -4  -6  -7    0.50    0.30
   4  -6   7    1.20    0.50
   4   7  -7   16.00    1.00
  -4   7   7   15.60    0.90
  -4   7   7   16.60    1.10
   4   7  -7   16.70    0.90
   4  -7  -7   16.60    1.20
   4  -7  -7   15.60    1.20
  -4  -7   7   16.20    1.10
  -4  -7   7   16.30    1.20
   4  -7  -7   15.70    1.20
  -4  -7   7   17.10    1.20
  -4   7   6    4.80    0.60
   4   7  -6    4.40    1.70
   4   7  -6    3.80    0.40
  -4   7   6    5.20    1.70
  -4   7   6    3.70    0.50
   4   7  -6    3.30    0.50
   4  -7  -6    3.60    0.70
   4  -7  -6    5.60    0.80
   4  -7  -6    4.10    0.60
  -4  -7   6    2.60    0.60
  -4  -7   6    3.10    0.60
  -4  -7   6    2.30    0.50
   4  -7  -6    3.20    2.00
   4   7  -5    9.60    0.70
  -4   7   5    9.00    2.60
  -4   7   5    9.40    0.70
   4   7  -5   11.40    2.30
   4   7  -5   10.10    0.60
  -4   7   5    8.80    0.70
   4   7  -5    8.20    2.50
  -4  -7   5    9.40    0.80
   4  -7  -5    8.80    0.90
  -4  -7   5    9.50    0.80
   4  -7  -5    4.50    2.20
  -4  -7   5   10.30    0.80
  -4  -7   5    9.30    0.80
   4  -7  -5    8.70    0.90
   4  -7  -5    8.90    0.70
   4   7  -4    6.60    2.50
   4   7  -4   11.10    2.10
  -4   7   4   10.90    0.70
  -4   7   4   10.70    0.70
  -4   7   4    9.60    2.50
   4  -7  -4   11.30    0.80
  -4  -7   4   10.80    0.80
  -4  -7   4   10.10    0.80
   4  -7  -4    9.50    0.90
  -4  -7   4   10.40    0.90
  -4  -7   4    9.80    0.80
  -4  -7   4   10.40    0.70
   4  -7  -4   10.70    3.10
   4  -7  -4   10.70    0.90
   4   7  -3   97.19    7.30
  -4   7   3   99.29    3.60
   4   7  -3   88.79    6.10
  -4   7   3   93.89    3.60
  -4   7   3   95.89    6.40
  -4  -7   3  100.29    3.90
  -4  -7   3   97.19    3.80
  -4  -7   3   94.79    3.80
   4  -7  -3   96.99    3.90
   4  -7  -3   97.69    7.60
   4  -7  -3   87.09    3.90
  -4  -7   3   99.29    3.60
  -4  -7   3   96.69    3.70
  -4  -7   3   97.39    3.80
   4  -7  -3   94.59    3.70
   4   7  -2    2.40    1.60
   4   7  -2    2.60    1.20
  -4   7   2    3.50    1.40
  -4  -7   2    3.20    0.50
  -4  -7   2    3.60    0.50
  -4  -7   2    3.10    0.50
   4  -7  -2    4.90    0.50
  -4  -7   2    3.30    0.40
  -4  -7   2    3.90    0.60
   4  -7  -2    5.60    0.70
   4  -7  -2    5.50    0.70
   4  -7  -2    4.80    1.80
  -4  -7   2    2.90    0.50
  -4   7   1   80.09    6.10
   4   7  -1   86.19    6.40
  -4   7   1   83.99    3.20
  -4   7   1   87.79    3.20
   4   7  -1   77.39    5.10
  -4  -7   1   89.79    3.60
   4  -7  -1   89.89    6.80
   4  -7  -1   83.99    3.50
   4  -7  -1   84.59    3.30
  -4  -7   1   83.69    3.40
  -4  -7   1   84.89    3.50
   4  -7  -1   85.69    3.50
   4  -7  -1   86.29    3.20
  -4  -7   1   84.79    3.40
  -4  -7   1   86.59    3.20
  -4   7   0    2.40    0.30
   4   7   0    2.80    0.40
   4   7   0    2.20    0.30
   4   7   0    1.90    1.10
  -4   7   0    3.70    1.70
  -4   7   0    2.30    0.30
   4   7   0    1.80    0.90
   4  -7   0    1.30    0.40
   4  -7   0    1.90    0.30
  -4  -7   0    2.80    0.30
   4  -7   0    2.40    0.50
   4  -7   0    2.30    0.50
  -4  -7   0    1.70    0.40
  -4  -7   0    2.40    0.50
  -4  -7   0    2.10    0.50
   4  -7   0    2.40    1.40
   4   7   1   53.19    2.20
  -4   7  -1   60.19    4.60
   4   7   1   52.79    3.70
  -4   7  -1   53.19    2.10
   4   7   1   52.39    2.10
   4   7   1   50.49    3.40
  -4   7  -1   55.59    5.20
  -4  -7  -1   51.79    2.00
   4  -7   1   53.99    2.20
   4  -7   1   57.49    2.30
  -4  -7  -1   50.19    2.30
  -4  -7  -1   51.59    2.40
   4  -7   1   53.59    2.20
  -4  -7  -1   52.89    2.40
   4  -7   1   55.69    2.50
   4  -7   1   54.19    2.40
  -4   7  -2    9.80    0.60
   4   7   2   10.10    1.40
   4   7   2   11.50    0.70
   4   7   2   12.10    1.50
  -4   7  -2    5.90    2.20
  -4   7  -2   10.90    2.10
  -4   7  -2    9.20    0.60
   4  -7   2    8.70    0.70
  -4  -7  -2   12.50    0.80
   4  -7   2    8.10    0.70
   4  -7   2    8.10    0.80
   4  -7   2    9.60    0.80
  -4  -7  -2   11.20    0.90
  -4  -7  -2   11.40    0.90
  -4   7  -3   44.40    1.80
  -4   7  -3   43.60    1.70
  -4   7  -3   43.00    4.90
  -4   7  -3   41.90    4.00
   4   7   3   43.00    1.90
   4  -7   3   42.30    2.00
  -4  -7  -3   42.10    2.00
   4  -7   3   45.60    2.10
   4  -7   3   40.80    1.90
  -4  -7  -3   41.30    2.00
   4  -7   3   41.10    1.90
  -4  -7  -3   43.10    2.10
  -4   7  -4    6.40    0.50
   4   7   4    7.20    0.60
  -4   7  -4    7.60    2.40
  -4   7  -4    7.30    2.20
  -4   7  -4    7.20    0.50
   4   7   4    8.20    0.60
   4  -7   4    6.70    0.70
   4  -7   4    6.90    0.70
   4  -7   4    6.20    0.60
  -4  -7  -4    6.10    0.80
  -4  -7  -4    7.40    0.70
  -4   7  -5   11.00    0.70
  -4   7  -5   16.60    4.60
  -4   7  -5   11.10    0.70
  -4   7  -5    7.30    2.10
   4   7   5   11.50    0.80
   4   7   5   11.70    0.90
  -4  -7  -5   11.10    1.00
  -4  -7  -5   11.00    0.90
   4  -7   5   13.00    1.00
   4  -7   5   11.20    0.80
   4  -7   5   11.30    0.90
   4   7   6    0.10    0.20
  -4   7  -6    0.30    0.20
   4   7   6    0.00    0.30
   4  -7   6    0.00    0.30
  -4  -7  -6   -0.20    0.30
  -4  -7  -6    0.40    0.30
   4  -7   6    0.10    0.20
   4  -7   6    0.10    0.30
  -4   7  -7   10.00    0.70
   4   7   7   10.10    0.90
   4   7   7   11.00    0.80
   4  -7   7    9.60    0.80
   4  -7   7    9.50    0.90
  -4  -7  -7   11.90    1.10
   4  -7   7    9.50    0.90
  -4  -7  -7   10.80    0.90
   4   8  -6   14.40    0.90
  -4   8   6   13.20    0.80
  -4   8   6   12.90    1.00
   4   8  -6   12.90    0.80
   4  -8  -6   12.60    1.00
  -4  -8   6   11.30    0.90
   4  -8  -6   12.70    1.10
  -4  -8   6   14.90    1.10
  -4  -8   6   14.60    1.10
   4  -8  -6   14.50    1.10
   4   8  -5    1.90    1.90
  -4   8   5    0.30    0.30
   4   8  -5    0.50    0.30
  -4   8   5    0.10    0.30
   4   8  -5    0.10    0.20
   4   8  -5    0.60    1.20
   4  -8  -5    0.30    0.30
   4  -8  -5    0.70    0.40
  -4  -8   5    0.30    0.30
  -4  -8   5    0.20    0.30
  -4  -8   5    0.20    0.30
   4  -8  -5    0.40    0.40
  -4   8   4   17.90    1.00
   4   8  -4   17.50    3.00
   4   8  -4   16.40    3.40
  -4   8   4   15.80    2.80
  -4   8   4   16.60    1.00
   4  -8  -4   18.40    1.30
  -4  -8   4   17.80    1.10
  -4  -8   4   16.80    1.00
   4  -8  -4   17.00    1.20
  -4  -8   4   16.80    1.10
  -4  -8   4   18.30    1.10
   4  -8  -4   17.20    1.10
   4  -8  -4   17.10    3.30
  -4  -8   4   17.50    1.20
   4   8  -3   -0.20    1.20
  -4   8   3    0.90    0.30
   4   8  -3    1.00    0.90
  -4   8   3    1.00    0.30
  -4   8   3    0.50    1.10
   4  -8  -3    0.90    0.50
  -4  -8   3    0.80    0.30
   4  -8  -3    0.10    1.20
  -4  -8   3    1.30    0.40
   4  -8  -3    0.70    0.40
  -4  -8   3    0.40    0.30
  -4  -8   3    0.40    0.20
  -4  -8   3    0.80    0.30
   4  -8  -3    1.30    0.40
  -4  -8   3    1.20    0.40
   4   8  -2   47.60    5.10
  -4   8   2   52.59    4.90
  -4   8   2   51.99    2.20
  -4   8   2   52.49    2.10
   4   8  -2   54.29    4.50
  -4  -8   2   53.89    2.20
  -4  -8   2   52.69    2.40
  -4  -8   2   56.39    2.40
   4  -8  -2   53.09    5.30
   4  -8  -2   50.49    2.40
  -4  -8   2   53.99    2.50
  -4  -8   2   54.39    2.30
   4  -8  -2   48.90    2.40
  -4  -8   2   55.89    2.50
   4  -8  -2   51.59    2.30
   4   8  -1    0.80    0.30
   4   8  -1   -0.10    0.70
   4   8  -1   -0.70    0.80
  -4   8   1    1.60    0.30
  -4   8   1    2.20    1.70
  -4   8   1    1.20    0.30
  -4  -8   1    1.20    0.30
   4  -8  -1    0.20    1.20
  -4  -8   1    0.90    0.40
   4  -8  -1    1.20    0.40
  -4  -8   1    1.30    0.40
  -4  -8   1    0.90    0.40
  -4  -8   1    0.60    0.30
   4  -8  -1    1.80    0.50
   4  -8  -1    1.70    0.40
   4   8   0   62.49    2.60
  -4   8   0   56.39    5.50
  -4   8   0   65.79    2.50
   4   8   0   66.09    2.60
   4   8   0   64.39    4.60
   4   8   0   63.79    5.00
  -4   8   0   66.19    2.50
   4  -8   0   64.89    2.60
  -4  -8   0   63.09    2.90
   4  -8   0   64.09    2.80
  -4  -8   0   66.49    2.90
   4  -8   0   66.29    2.90
  -4  -8   0   62.19    2.70
  -4  -8   0   60.09    2.50
   4  -8   0   66.69    2.70
   4   8   1   -0.80    0.60
   4   8   1    1.30    0.40
  -4   8  -1   -0.10    0.70
  -4   8  -1    1.90    1.60
  -4   8  -1    0.70    0.20
  -4   8  -1    0.70    0.20
   4   8   1    1.50    0.30
   4   8   1    1.80    1.00
   4  -8   1    1.10    0.50
  -4  -8  -1    0.70    0.30
  -4  -8  -1    0.50    0.40
  -4  -8  -1    0.70    0.40
   4  -8   1    0.40    0.30
   4  -8   1    0.40    0.20
   4  -8   1    0.60    0.30
  -4   8  -2   39.70    4.80
  -4   8  -2   45.00    1.80
  -4   8  -2   38.80    4.10
  -4   8  -2   42.60    1.80
   4   8   2   42.70    1.90
  -4  -8  -2   41.10    2.00
   4  -8   2   43.10    1.90
   4  -8   2   43.20    2.10
  -4  -8  -2   42.80    2.20
   4  -8   2   41.30    1.90
  -4  -8  -2   42.90    2.10
   4  -8   2   44.00    2.00
  -4   8  -3    1.70    0.30
  -4   8  -3    1.90    1.90
   4   8   3    2.40    0.40
   4   8   3    2.60    0.40
  -4   8  -3    1.40    1.30
  -4   8  -3    1.90    0.30
   4  -8   3    2.10    0.40
  -4  -8  -3    2.10    0.50
   4  -8   3    1.50    0.40
   4  -8   3    1.90    0.40
   4  -8   3    2.60    0.60
  -4  -8  -3    2.70    0.60
   4   8   4    7.80    0.60
  -4   8  -4    2.50    2.40
  -4   8  -4    8.60    0.60
  -4   8  -4    6.80    1.90
   4   8   4    7.10    0.70
  -4  -8  -4    8.40    0.80
   4  -8   4    7.90    0.70
  -4  -8  -4    6.80    0.90
   4  -8   4    9.50    0.90
   4  -8   4    8.00    0.70
  -4   8  -5    0.00    0.20
   4   8   5    0.00    0.20
   4   8   5    0.20    0.30
  -4   8  -5    0.00    0.20
   4  -8   5    0.20    0.30
  -4  -8  -5   -0.10    0.30
   4  -8   5    0.10    0.20
   4  -8   5    0.30    0.30
  -4  -8  -5    0.00    0.30
   4   8   6    4.00    0.50
  -4   8  -6    4.60    0.50
   4   8   6    4.80    0.60
  -4  -8  -6    5.10    0.80
   4  -8   6    3.80    0.70
   4  -8   6    5.00    0.70
   4  -8   6    4.50    0.60
  -4  -8  -6    4.50    0.70
  -4   9   5   12.20    0.80
   4   9  -5   12.20    0.80
   4   9  -5   12.90    0.80
  -4  -9   5   11.60    1.00
   4  -9  -5   10.20    0.90
   4  -9  -5   12.20    1.10
  -4  -9   5   11.80    1.00
   4  -9  -5   11.70    1.10
  -4  -9   5   12.60    1.00
   4   9  -4   -0.90    1.20
   4   9  -4    0.10    1.90
  -4   9   4    1.30    0.40
   4  -9  -4    0.90    0.40
  -4  -9   4    0.60    0.40
  -4  -9   4    0.30    0.30
  -4  -9   4    1.20    0.50
   4  -9  -4    0.90    0.50
   4  -9  -4    0.70    0.40
  -4  -9   4    0.90    0.40
  -4   9   3   18.20    1.00
   4   9  -3   17.60    2.90
  -4   9   3   12.30    3.10
   4  -9  -3   18.40    1.30
  -4  -9   3   18.90    1.20
  -4  -9   3   16.70    1.30
   4  -9  -3   15.10    4.10
  -4  -9   3   20.30    1.40
  -4  -9   3   18.00    1.00
  -4  -9   3   18.60    1.20
  -4  -9   3   19.40    1.20
   4  -9  -3   16.20    1.10
   4  -9  -3   17.60    1.30
  -4   9   2   -0.10    0.20
  -4   9   2    1.40    1.20
  -4  -9   2    0.10    0.30
   4  -9  -2    0.10    0.30
  -4  -9   2    0.30    0.30
   4  -9  -2   -0.80    1.30
  -4  -9   2   -0.10    0.30
  -4  -9   2    0.40    0.40
   4  -9  -2    0.20    0.40
  -4  -9   2    0.00    0.20
   4  -9  -2   -0.10    0.20
  -4   9   1   28.50    1.30
   4   9  -1   29.00    1.50
   4   9  -1   26.60    1.50
  -4   9   1   24.50    3.60
   4  -9  -1   27.90    1.40
   4  -9  -1   17.40    3.70
  -4  -9   1   27.80    1.50
   4  -9  -1   26.20    1.60
  -4  -9   1   27.20    1.30
  -4  -9   1   29.00    1.70
   4  -9  -1   27.10    1.60
  -4  -9   1   24.10    1.60
  -4   9   0   -0.10    0.20
  -4   9   0    0.70    1.50
   4   9   0    0.40    0.30
  -4   9   0    2.00    1.30
   4   9   0    0.50    0.30
  -4  -9   0    0.10    0.40
   4  -9   0    0.10    0.30
   4  -9   0    0.30    0.30
  -4  -9   0    0.30    0.40
  -4  -9   0    0.60    0.40
   4  -9   0    0.60    0.40
  -4   9  -1   17.90    3.50
  -4   9  -1   19.60    1.00
  -4   9  -1   16.40    2.80
   4   9   1   19.80    1.10
   4  -9   1   20.20    1.30
  -4  -9  -1   18.30    1.30
  -4  -9  -1   19.60    1.20
   4  -9   1   17.80    1.30
   4  -9   1   18.70    1.10
  -4  -9  -1   21.70    1.40
   4  -9   1   16.70    1.10
  -4   9  -2    0.90    2.00
  -4   9  -2    1.10    0.30
   4   9   2    1.70    0.40
  -4   9  -2    1.70    0.40
  -4   9  -2    1.70    1.40
  -4  -9  -2    0.70    0.40
   4  -9   2    1.70    0.50
  -4  -9  -2    2.20    0.60
   4  -9   2    1.50    0.40
   4  -9   2    1.30    0.40
   4   9   3    5.90    0.70
   4   9   3    6.10    0.60
  -4   9  -3    6.80    0.60
  -4   9  -3    7.10    2.30
  -4   9  -3    5.00    0.50
   4  -9   3    6.50    0.80
  -4  -9  -3    5.70    0.80
   4  -9   3    6.50    0.60
  -4  -9  -3    6.40    0.80
   4  -9   3    6.00    0.70
   4   9   4    0.30    0.30
   4   9   4    0.20    0.30
  -4   9  -4    0.10    0.20
  -4  -9  -4    0.70    0.40
   4  -9   4   -0.40    0.20
   4  -9   4    0.40    0.30
  -4  -9  -4    0.10    0.30
  -4  10   3    0.10    0.20
   4 -10  -3    0.70    0.50
  -4 -10   3   -0.30    0.30
   4 -10  -3    0.50    0.40
  -4 -10   3    0.20    0.40
  -4 -10   3   -0.20    0.20
   4 -10  -3    0.20    0.30
  -4 -10   3    0.00    0.20
  -4 -10   3    0.20    0.30
   4  10  -2    8.30    0.80
  -4  10   2    8.10    0.70
   4  10  -2    7.90    0.80
   4 -10  -2    8.40    1.00
  -4 -10   2    7.30    0.90
   4 -10  -2    7.40    0.90
   4 -10  -2    8.50    0.80
  -4 -10   2    8.50    0.90
  -4 -10   2    9.00    0.90
   4  10  -1   -0.10    0.20
   4  10  -1    0.00    0.30
  -4  10   1    0.50    0.30
   4 -10  -1    0.20    0.40
  -4 -10   1   -0.40    0.30
   4 -10  -1    0.30    0.40
  -4 -10   1    0.10    0.40
  -4 -10   1    0.70    0.40
   4 -10  -1   -0.10    0.20
  -4  10   0   22.20    4.10
  -4  10   0   23.70    1.20
  -4  10   0   23.20    3.70
   4  10   0   25.10    1.40
   4 -10   0   22.10    1.50
  -4 -10   0   24.20    1.60
   4 -10   0   25.20    1.60
  -4 -10   0   25.40    1.70
  -4 -10   0   25.20    1.40
   4 -10   0   24.90    1.40
  -4  10  -1   -1.00    1.20
  -4  10  -1   -0.10    0.20
   4  10   1    0.10    0.20
   4 -10   1    0.20    0.30
  -4 -10  -1    0.10    0.30
  -4 -10  -1    0.10    0.30
   4 -10   1    0.30    0.40
  -4 -10  -1   -0.50    0.30
  -4  10  -2    9.00    0.70
   4  10   2    8.50    0.80
   4  10   2    8.50    0.70
  -4  10  -2    8.30    0.70
  -4 -10  -2    8.80    1.00
  -4 -10  -2    8.20    1.00
   4 -10   2    9.50    0.80
   4 -10   2   10.30    0.90
   4 -10   2    9.90    1.00
   5   0 -10   23.30    1.30
  -5   0  10   22.80    1.40
  -5   0  10   24.40    1.40
   5   0 -10   21.90    1.20
  -5   0  10   21.80    1.20
   5   0  -9    0.20    0.20
   5   0  -9    0.10    0.20
   5   0  -9   -2.10    0.90
  -5   0   9    0.50    0.30
  -5   0   9    0.20    0.20
  -5   0   9    0.30    0.30
  -5   0   8   61.99    2.60
   5   0  -8   63.29    2.40
  -5   0   8   59.49    2.40
  -5   0   8   55.49    4.90
  -5   0   8   58.79    2.60
   5   0  -8   60.49    2.40
   5   0  -8   55.99    4.90
  -5   0   7   -0.40    0.50
   5   0  -7    0.10    0.60
   5   0  -7    0.10    0.20
  -5   0   7    0.00    0.30
  -5   0   7    0.20    0.20
   5   0  -7    0.20    0.20
  -5   0   7    0.10    0.20
   5   0  -6   63.49    2.40
  -5   0   6   61.39    2.40
   5   0  -6   67.09    4.80
  -5   0   6   64.19    2.60
  -5   0   6   60.99    2.50
  -5   0   6   67.29    4.80
   5   0  -6   64.49    2.40
  -5   0   5    1.60    0.30
   5   0  -5    1.80    0.20
  -5   0   5    0.70    0.70
   5   0  -5    1.60    0.30
  -5   0   5    1.40    0.20
  -5   0   5    1.60    0.30
   5   0  -5    1.10    0.80
   5   0  -4   11.00    1.60
  -5   0   4   10.30    0.60
   5   0  -4    7.80    0.50
   5   0  -4   10.40    0.50
  -5   0   4    9.20    0.60
  -5   0   4   12.90    1.70
  -5   0   4    9.20    0.50
  -5   0   3    0.10    0.10
   5   0  -3    0.10    0.10
   5   0  -3    0.30    0.10
   5   0  -3   -0.10    0.40
  -5   0   3    0.20    0.10
  -5   0   3    0.10    0.10
  -5   0   3    0.50    0.40
  -5   0   3    0.10    0.10
  -5   0   2    3.30    0.20
   5   0  -2    2.60    0.20
   5   0  -2    3.00    0.80
   5   0  -2    3.30    0.20
  -5   0   2    3.30    0.20
  -5   0   2    3.20    0.30
   5   0  -2    2.90    0.30
  -5   0   2    3.60    1.00
  -5   0   2    2.80    0.20
  -5   0   1    2.70    0.20
   5   0  -1    3.20    0.30
   5   0  -1    2.90    0.20
  -5   0   1    2.80    0.20
  -5   0   1    3.60    0.70
  -5   0   1    3.20    0.20
   5   0  -1    2.50    0.60
   5   0  -1    3.00    0.20
  -5   0   1    2.90    0.20
   5   0   0  240.88    9.60
  -5   0  -1    2.00    0.20
  -5   0  -1    2.00    0.20
  -5   0  -1    1.90    0.20
   5   0   1    2.00    0.20
   5   0   1    2.20    0.20
  -5   0  -1    2.00    0.70
   5   0   1    1.60    0.10
   5   0   1    2.30    0.20
   5   0   1    1.50    0.70
  -5   0  -2 1184.38   41.60
  -5   0  -2 1191.08   42.30
   5   0   3    1.00    0.20
   5   0   3    1.00    0.20
  -5   0  -3    0.50    0.60
  -5   0  -3    1.10    0.20
   5   0   3    1.00    0.20
  -5   0  -3    0.90    0.50
  -5   0  -3    1.00    0.20
  -5   0  -4  537.65   18.20
  -5   0  -4  532.75   20.70
   5   0   4  535.35   18.10
   5   0   5    0.00    0.50
   5   0   5    0.30    0.20
   5   0   5    0.20    0.20
  -5   0  -5    0.30    0.20
   5   0   5    0.10    0.10
  -5   0  -5    0.00    0.10
  -5   0  -5    0.00    0.60
   5   0   6  184.58    6.90
  -5   0  -6  195.58    9.80
   5   0   6  177.68    9.50
   5   0   6  183.88    6.50
  -5   0  -6  197.48    6.70
   5   0   6  192.28    6.90
  -5   0  -6  190.58    6.70
  -5   0  -6  189.18    6.70
  -5   0  -7    0.00    0.60
   5   0   7    0.10    0.20
  -5   0  -7    0.00    0.20
   5   0   7    0.20    0.30
  -5   0  -7    0.20    0.20
   5   0   7   -0.90    0.60
  -5   0  -7    0.30    0.20
  -5   0  -8   18.40    1.00
  -5   0  -8   19.20    1.00
   5   0   8   19.90    1.30
  -5   0  -8   16.70    3.00
   5   0   8   18.10    1.20
   5   0   9    0.10    0.30
  -5   0  -9    0.10    0.20
  -5   0  -9   -0.10    0.20
   5   0   9    0.10    0.30
   5   1 -10    0.20    0.30
   5   1 -10   -0.20    0.30
  -5   1  10    0.10    0.30
  -5   1  10    0.50    0.30
  -5   1  10   -0.10    0.30
  -5  -1  10    0.20    0.30
  -5  -1  10    0.10    0.20
   5  -1 -10   -0.20    0.20
   5  -1 -10    0.00    0.30
  -5  -1  10    0.10    0.30
  -5   1   9   21.70    1.10
   5   1  -9   20.20    1.10
   5   1  -9   20.40    1.10
  -5   1   9   22.00    1.30
  -5   1   9   21.00    1.30
   5   1  -9   20.30    3.30
  -5  -1   9   19.80    1.10
   5  -1  -9   20.70    1.10
  -5  -1   9   27.80    5.20
  -5  -1   9   19.90    1.30
   5  -1  -9   20.20    1.10
   5  -1  -9   14.70    2.90
  -5  -1   9   20.50    1.30
  -5   1   8    0.60    0.30
   5   1  -8    0.40    0.20
   5   1  -8    0.40    0.30
  -5   1   8    0.60    0.30
  -5   1   8    1.30    1.00
   5   1  -8   -0.10    0.80
  -5   1   8    1.00    0.30
   5  -1  -8    0.90    0.30
  -5  -1   8    0.60    0.20
   5  -1  -8    0.70    0.90
   5  -1  -8    1.10    0.30
  -5  -1   8    0.70    0.30
  -5  -1   8    1.70    1.00
  -5  -1   8    0.60    0.30
  -5   1   7   95.69    6.40
  -5   1   7  101.99    3.90
   5   1  -7  102.59    3.70
   5   1  -7   99.19    6.50
  -5   1   7   96.79    3.80
  -5   1   7  100.69    3.70
   5   1  -7  100.09    3.70
   5  -1  -7   97.99    6.50
   5  -1  -7  102.29    3.70
  -5  -1   7  104.69    3.90
   5  -1  -7  101.89    3.70
  -5  -1   7   97.59    3.90
  -5  -1   7   98.09    6.50
  -5  -1   7  102.39    3.70
   5   1  -6   10.70    1.80
   5   1  -6   12.60    0.70
  -5   1   6   13.60    0.80
  -5   1   6   13.20    0.70
  -5   1   6   14.00    0.80
  -5   1   6   14.30    2.20
   5   1  -6   11.60    0.70
  -5  -1   6   12.50    0.70
   5  -1  -6   14.90    2.20
   5  -1  -6   11.10    0.70
  -5  -1   6   11.50    1.90
  -5  -1   6   12.10    0.80
   5  -1  -6   13.90    0.70
  -5  -1   6   12.50    0.80
  -5   1   5  172.88    8.70
   5   1  -5  176.88    6.20
   5   1  -5  173.48    8.80
  -5   1   5  171.88    6.40
  -5   1   5  179.18    6.30
  -5   1   5  183.08    6.10
   5   1  -5  178.08    6.20
  -5   1   5  178.88    6.20
  -5  -1   5  180.68    6.20
   5  -1  -5  189.58    9.00
  -5  -1   5  180.68    6.40
   5  -1  -5  176.38    6.20
  -5  -1   5  172.08    6.40
   5  -1  -5  178.38    6.30
  -5  -1   5  183.38    8.90
  -5   1   4   26.30    1.10
  -5   1   4   26.90    1.10
   5   1  -4   25.80    2.50
   5   1  -4   27.50    1.10
  -5   1   4   25.70    1.20
  -5   1   4   28.60    2.60
   5   1  -4   30.10    1.20
  -5   1   4   24.50    1.20
  -5  -1   4   32.00    1.30
   5  -1  -4   26.90    1.20
  -5  -1   4   29.20    1.20
   5  -1  -4   26.90    1.20
  -5  -1   4   32.50    1.30
   5  -1  -4   27.90    2.70
  -5  -1   4   29.90    2.70
   5   1  -3  242.38   10.20
  -5   1   3  235.88    8.30
   5   1  -3  246.48    8.30
  -5   1   3  244.58   10.40
   5   1  -3  241.68    8.20
   5  -1  -3  246.88    8.30
   5  -1  -3  246.18   10.30
  -5  -1   3  232.68    8.40
   5  -1  -3  237.98    8.30
  -5  -1   3  231.78    8.40
  -5  -1   3  239.58   10.20
   5  -1  -3  249.48    8.30
  -5   1   2   74.49    4.10
  -5   1   2   71.99    2.50
  -5   1   2   70.59    2.50
  -5   1   2   72.89    2.50
   5   1  -2   68.39    2.50
   5   1  -2   66.09    3.70
  -5  -1   2   69.59    2.50
   5  -1  -2   74.79    4.10
   5  -1  -2   72.69    2.50
  -5  -1   2   67.59    3.70
   5  -1  -2   72.69    2.50
   5  -1  -2   72.59    2.50
  -5  -1   2   62.29    2.60
  -5  -1   2   68.39    2.50
  -5   1   1  331.47   13.10
  -5  -1   1  337.67   12.40
   5  -1  -1  348.17   13.30
   5  -1  -1  324.97   11.40
   5   1   0  517.15   17.30
  -5   1   0  467.05   18.40
   5  -1   0  455.65   18.40
  -5  -1   0  487.65   17.00
  -5   1  -1  596.44   22.70
  -5  -1  -1  608.34   21.10
   5  -1   1  614.44   22.80
  -5  -1  -1  605.44   21.40
  -5   1  -2   35.60    1.30
  -5   1  -2   36.90    3.00
   5   1   2   31.40    1.30
   5   1   2   29.70    1.20
  -5   1  -2   35.60    1.30
  -5   1  -2   36.40    2.60
   5   1   2   30.00    1.30
  -5  -1  -2   30.10    2.20
  -5  -1  -2   31.50    1.30
  -5  -1  -2   27.50    1.20
  -5  -1  -2   31.50    2.00
   5  -1   2   34.00    1.30
   5  -1   2   37.80    1.40
  -5  -1  -2   32.10    1.30
   5  -1   2   35.70    1.30
  -5   1  -3 1040.30   37.30
  -5   1  -3 1050.69   38.30
  -5  -1  -3 1002.80   36.40
   5   1   4   53.99    2.10
  -5   1  -4   49.60    1.90
   5   1   4   55.29    3.50
  -5   1  -4   50.09    1.90
   5   1   4   53.79    1.90
  -5   1  -4   51.29    3.70
  -5   1  -4   47.00    4.10
   5   1   4   53.09    2.10
   5  -1   4   49.30    2.00
   5  -1   4   47.80    2.10
  -5  -1  -4   51.39    1.90
   5  -1   4   45.90    2.00
  -5  -1  -4   52.49    3.50
  -5  -1  -4   53.79    2.00
  -5  -1  -4   51.69    1.90
   5   1   5  230.08    8.00
  -5   1  -5  234.68   11.10
  -5   1  -5  236.08    8.10
   5   1   5  237.48   10.60
  -5   1  -5  229.08   11.80
  -5   1  -5  234.18    8.10
   5   1   5  234.98    8.30
   5   1   5  228.38    8.30
   5  -1   5  226.68    8.30
   5  -1   5  232.48    8.40
   5  -1   5  233.98    8.20
  -5  -1  -5  236.18    8.20
  -5  -1  -5  231.18    8.10
  -5  -1  -5  236.58    8.10
  -5  -1  -5  241.38   10.80
   5   1   6   13.40    0.90
  -5   1  -6   14.30    0.80
  -5   1  -6   11.40    2.10
  -5   1  -6   15.30    0.80
   5   1   6   13.40    2.00
   5   1   6   13.30    0.90
  -5   1  -6   12.50    2.50
   5   1   6   13.70    0.70
   5  -1   6   14.30    0.90
  -5  -1  -6   13.20    0.80
   5  -1   6   16.00    1.00
  -5  -1  -6   13.40    2.10
  -5  -1  -6   14.20    0.80
  -5  -1  -6   13.00    0.70
   5   1   7   35.90    1.80
  -5   1  -7   35.70    1.60
  -5   1  -7   37.70    4.40
   5   1   7   36.20    3.70
   5   1   7   38.50    1.80
  -5   1  -7   37.00    1.60
   5   1   7   35.90    1.50
  -5   1  -7   36.00    3.90
  -5   1  -7   38.00    1.60
  -5  -1  -7   34.80    3.80
   5  -1   7   38.20    1.80
  -5  -1  -7   36.50    1.70
  -5  -1  -7   38.10    1.60
  -5  -1  -7   37.10    1.60
   5  -1   7   36.80    1.80
   5   1   8    1.80    0.50
  -5   1  -8    1.60    0.30
  -5   1  -8    1.60    0.30
  -5   1  -8    2.20    1.30
   5   1   8    1.90    0.50
   5   1   8    2.10    1.30
   5  -1   8    0.90    0.40
  -5  -1  -8    0.90    0.30
   5  -1   8    0.80    0.40
  -5  -1  -8    2.50    1.20
  -5  -1  -8    0.70    0.30
   5   1   9   12.40    1.00
   5   1   9   12.80    1.00
  -5   1  -9   12.10    0.80
  -5   1  -9   13.20    0.80
  -5  -1  -9   13.10    0.90
   5  -1   9   11.50    1.00
   5  -1   9   12.20    1.00
  -5  -1  -9   12.20    0.80
   5   2 -10   26.30    1.30
  -5   2  10   26.30    1.50
   5   2 -10   25.50    1.30
  -5   2  10   26.20    1.30
  -5  -2  10   24.80    1.50
  -5  -2  10   24.60    1.50
   5  -2 -10   25.30    1.40
   5  -2 -10   24.20    1.30
  -5  -2  10   22.70    1.40
  -5   2   9   -1.60    0.90
  -5   2   9   -0.10    0.20
   5   2  -9    0.00    0.20
  -5   2   9    0.40    0.30
   5   2  -9    1.30    2.10
  -5   2   9    0.30    0.30
   5   2  -9    0.00    0.20
   5  -2  -9    0.60    0.30
   5  -2  -9    1.80    1.30
  -5  -2   9    0.20    0.30
  -5  -2   9    0.00    0.20
   5  -2  -9    0.10    0.20
  -5  -2   9    0.00    0.20
   5   2  -8    9.60    2.60
  -5   2   8   11.90    0.90
   5   2  -8   10.60    0.70
   5   2  -8   10.50    0.70
  -5   2   8   10.90    0.80
  -5   2   8   11.70    2.20
  -5   2   8   11.30    0.70
   5  -2  -8   10.90    0.70
  -5  -2   8    8.80    2.20
  -5  -2   8    9.90    0.70
   5  -2  -8   11.50    0.80
  -5  -2   8   10.90    0.90
  -5  -2   8   10.20    0.90
   5  -2  -8   11.10    2.30
   5   2  -7    6.10    0.50
  -5   2   7    7.00    0.50
  -5   2   7    6.60    0.60
  -5   2   7    5.70    1.60
   5   2  -7    7.20    0.50
   5   2  -7    4.80    1.40
  -5   2   7    6.50    0.50
  -5  -2   7    5.80    0.60
   5  -2  -7    6.60    0.60
   5  -2  -7    5.80    0.60
  -5  -2   7    5.40    1.70
  -5  -2   7    6.00    0.50
   5  -2  -7    4.60    1.60
  -5  -2   7    4.90    0.60
  -5   2   6  245.68    8.80
   5   2  -6  237.18    8.50
   5   2  -6  240.58    8.60
   5   2  -6  247.88   11.80
  -5   2   6  250.17    8.60
  -5   2   6  244.48    8.60
  -5   2   6  239.88   11.50
   5  -2  -6  250.77    8.70
   5  -2  -6  258.67    8.70
  -5  -2   6  241.38    8.80
  -5  -2   6  246.48    8.60
  -5  -2   6  247.38    8.80
  -5  -2   6  247.88   11.80
   5  -2  -6  252.97   11.90
   5  -2  -6  250.97    8.60
   5   2  -5   19.40    0.90
  -5   2   5   21.70    1.00
  -5   2   5   20.50    0.90
  -5   2   5   20.70    0.90
  -5   2   5   20.90    2.40
   5   2  -5   18.80    0.80
   5   2  -5   17.40    2.20
   5  -2  -5   21.60    1.00
  -5  -2   5   19.30    2.30
   5  -2  -5   20.80    0.90
   5  -2  -5   22.80    2.60
  -5  -2   5   19.90    0.90
  -5  -2   5   18.40    1.00
   5  -2  -5   21.00    1.00
  -5  -2   5   18.50    1.10
   5   2  -4  129.09    6.70
   5   2  -4  126.39    4.50
  -5   2   4  131.39    6.70
  -5   2   4  125.99    4.50
  -5   2   4  130.79    4.60
   5   2  -4  123.69    4.40
   5  -2  -4  126.29    4.50
   5  -2  -4  125.09    6.80
   5  -2  -4  124.19    4.60
   5  -2  -4  129.49    4.60
  -5  -2   4  122.79    4.60
  -5  -2   4  125.09    6.70
  -5  -2   4  123.79    4.60
   5  -2  -4  142.69    4.50
  -5  -2   4  120.89    4.50
  -5   2   3   17.10    0.80
   5   2  -3   20.80    0.80
  -5   2   3   15.00    1.80
   5   2  -3   19.80    0.70
   5   2  -3   21.80    2.10
  -5  -2   3   20.10    0.80
   5  -2  -3   15.00    2.00
   5  -2  -3   17.70    0.80
   5  -2  -3   16.30    0.90
  -5  -2   3   20.90    0.90
  -5  -2   3   20.30    0.90
   5  -2  -3   16.50    0.90
  -5  -2   3   21.30    0.90
   5  -2  -3   17.70    0.90
  -5  -2   3   19.70    2.00
   5   2  -2  919.91   32.30
  -5   2   2  897.51   32.80
  -5  -2   2  906.61   32.30
   5  -2  -2  905.11   33.10
   5   2  -1    4.20    0.20
  -5   2   1    5.10    0.30
   5   2  -1    3.40    0.20
  -5   2   1    6.20    1.20
   5   2  -1    4.50    0.70
   5   2  -1    4.00    0.30
  -5  -2   1    3.50    0.60
  -5  -2   1    4.70    0.40
  -5  -2   1    4.30    0.30
  -5  -2   1    3.70    0.20
  -5  -2   1    3.90    0.30
   5   2   0   34.50    1.40
  -5   2   0   41.80    3.20
  -5   2   0   38.60    1.40
  -5   2   0   39.10    1.30
   5  -2   0   40.30    1.50
  -5  -2   0   34.90    1.40
  -5  -2   0   34.80    1.30
   5  -2   0   37.80    1.40
   5  -2   0   41.20    3.20
   5  -2   0   37.70    1.50
  -5  -2   0   33.10    1.40
  -5  -2   0   35.30    1.50
  -5   2  -1  269.47    8.80
  -5   2  -1  267.17   11.60
   5  -2   1  258.77    9.00
  -5  -2  -1  267.97    8.90
   5  -2   1  258.17   11.50
   5  -2   1  251.87    8.90
   5  -2   1  244.08    9.00
  -5   2  -2 1753.62   60.79
  -5   2  -2 1710.53   61.89
  -5  -2  -2 1788.62   59.09
  -5  -2  -2 1688.93   59.29
  -5   2  -3   15.70    0.70
  -5   2  -3   16.70    0.70
  -5   2  -3   19.90    2.60
   5   2   3   13.30    0.80
  -5   2  -3   21.10    2.20
   5   2   3   14.00    0.80
   5   2   3   15.70    1.40
   5  -2   3   17.90    0.80
  -5  -2  -3   16.00    1.50
  -5  -2  -3   13.30    0.80
   5  -2   3   18.00    0.80
  -5  -2  -3   14.00    0.80
  -5  -2  -3   15.60    0.60
   5  -2   3   18.60    0.90
  -5   2  -4  118.39    6.70
   5   2   4  112.79    5.70
  -5   2  -4  112.79    7.30
  -5   2  -4  116.19    4.10
  -5   2  -4  117.89    4.10
   5   2   4  117.69    4.30
   5   2   4  114.19    4.30
   5   2   4  120.89    4.10
   5  -2   4  113.89    4.30
  -5  -2  -4  115.69    5.90
   5  -2   4  113.19    4.40
   5  -2   4  117.29    4.20
  -5  -2  -4  122.69    4.20
  -5  -2  -4  116.89    4.30
  -5  -2  -4  116.49    4.10
  -5   2  -5    5.70    1.90
   5   2   5    4.80    0.40
  -5   2  -5    3.70    0.40
  -5   2  -5    4.20    0.30
  -5   2  -5    2.20    1.20
   5   2   5    5.10    0.50
   5   2   5    4.70    0.50
   5   2   5    4.90    1.30
   5  -2   5    4.10    0.50
  -5  -2  -5    4.40    0.50
   5  -2   5    4.10    0.50
  -5  -2  -5    4.50    0.30
   5  -2   5    4.10    0.40
  -5  -2  -5    3.90    0.40
  -5  -2  -5    2.10    0.90
   5   2   6  229.18    8.30
   5   2   6  229.18    8.40
  -5   2  -6  240.78    8.20
  -5   2  -6  233.68   11.60
   5   2   6  235.58    8.10
  -5   2  -6  242.18   12.90
   5   2   6  226.38   11.00
  -5   2  -6  235.58    8.10
  -5  -2  -6  235.18    8.20
  -5  -2  -6  225.58    8.20
  -5  -2  -6  231.58    8.40
   5  -2   6  240.78    8.20
   5  -2   6  233.78    8.40
  -5  -2  -6  224.98   11.20
   5  -2   6  238.88    8.40
  -5   2  -7   10.70    0.70
  -5   2  -7   14.30    2.90
   5   2   7   12.00    2.10
   5   2   7   10.30    0.80
   5   2   7   10.30    0.80
  -5   2  -7   12.90    0.70
   5   2   7   10.60    0.70
  -5   2  -7    7.20    2.10
   5  -2   7   12.00    0.90
  -5  -2  -7   11.10    2.10
  -5  -2  -7   11.50    0.70
  -5  -2  -7    9.90    0.70
   5  -2   7   12.20    0.90
  -5  -2  -7   11.10    0.80
  -5   2  -8   11.60    0.80
   5   2   8   12.30    1.00
  -5   2  -8   12.40    0.80
   5   2   8   14.10    1.00
  -5   2  -8   10.40    3.20
  -5   2  -8    8.90    2.50
   5   2   8   13.20    0.80
  -5  -2  -8   13.00    1.00
  -5  -2  -8   12.50    0.80
   5  -2   8   13.20    1.00
  -5  -2  -8   12.40    0.80
   5  -2   8   12.30    1.00
  -5   2  -9   -0.10    0.20
  -5   2  -9    0.30    0.30
   5   2   9   -0.20    0.30
   5   2   9    0.70    0.30
   5  -2   9    0.00    0.30
   5  -2   9   -0.10    0.30
  -5  -2  -9    0.00    0.20
  -5  -2  -9    0.40    0.30
  -5   3   9   12.10    2.70
   5   3  -9    9.10    0.70
  -5   3   9    9.30    0.70
  -5   3   9   10.30    0.90
   5   3  -9   10.30    0.70
   5  -3  -9    9.90    0.80
   5  -3  -9    6.20    2.50
   5  -3  -9   10.50    0.80
  -5  -3   9    9.00    0.70
  -5  -3   9    9.80    0.90
  -5  -3   9   10.10    0.90
  -5   3   8    2.90    0.50
  -5   3   8    2.50    0.40
  -5   3   8    2.80    1.40
   5   3  -8    2.30    0.40
   5   3  -8    2.60    0.40
   5   3  -8    4.60    1.80
  -5  -3   8    2.40    0.50
  -5  -3   8    2.30    0.40
  -5  -3   8   -0.30    0.90
   5  -3  -8    3.00    0.50
  -5  -3   8    2.50    0.50
   5  -3  -8    2.30    0.40
   5  -3  -8    1.40    1.30
   5   3  -7   92.89    6.40
   5   3  -7   96.09    3.60
  -5   3   7   96.89    3.60
  -5   3   7   96.59    3.80
   5   3  -7   95.29    3.50
  -5   3   7   93.29    6.40
  -5  -3   7   93.79    3.80
   5  -3  -7   96.49    3.60
  -5  -3   7   98.79    3.70
   5  -3  -7   96.69    3.80
  -5  -3   7   99.39    3.90
   5  -3  -7   98.29    3.70
   5  -3  -7  103.19    7.00
  -5  -3   7   93.99    6.50
   5  -3  -7   98.99    3.60
   5   3  -6    8.10    2.00
  -5   3   6   13.90    2.20
   5   3  -6    9.80    0.60
  -5   3   6   12.80    0.70
  -5   3   6   13.10    0.80
   5   3  -6   10.70    0.70
  -5  -3   6   11.90    2.10
   5  -3  -6   12.90    0.80
   5  -3  -6   13.60    0.70
  -5  -3   6    9.50    0.70
  -5  -3   6   10.80    0.80
   5  -3  -6   13.80    0.80
  -5  -3   6   10.70    0.80
   5  -3  -6   11.40    2.20
   5  -3  -6   14.50    0.80
  -5   3   5   80.89    3.00
  -5   3   5   82.69    5.30
   5   3  -5   77.99    3.00
   5   3  -5   74.09    5.20
   5   3  -5   81.59    2.90
  -5   3   5   80.19    3.10
  -5  -3   5   80.29    3.20
  -5  -3   5   76.09    5.30
  -5  -3   5   80.89    3.00
   5  -3  -5   80.39    5.60
   5  -3  -5   80.39    3.10
  -5  -3   5   78.79    3.20
   5  -3  -5   85.59    3.10
   5  -3  -5   78.19    3.00
   5   3  -4   27.60    1.20
   5   3  -4   26.40    2.60
   5   3  -4   27.80    1.10
  -5   3   4   29.30    1.20
  -5   3   4   30.10    1.20
  -5   3   4   27.60    2.70
   5  -3  -4   28.80    1.30
  -5  -3   4   27.00    2.70
  -5  -3   4   27.00    1.20
   5  -3  -4   29.10    1.20
  -5  -3   4   28.40    1.30
   5  -3  -4   30.90    2.90
  -5  -3   4   25.30    1.30
   5  -3  -4   30.30    1.40
   5   3  -3  160.98    5.50
  -5   3   3  165.78    8.00
  -5   3   3  156.58    5.70
   5   3  -3  162.48    7.70
   5   3  -3  162.88    5.70
  -5   3   3  157.58    5.70
  -5  -3   3  165.68    5.80
  -5  -3   3  160.88    7.70
  -5  -3   3  160.18    5.70
   5  -3  -3  165.18    5.80
  -5  -3   3  164.28    5.70
   5  -3  -3  163.88    8.30
   5  -3  -3  163.78    5.90
  -5  -3   3  163.08    5.80
   5  -3  -3  164.18    5.70
  -5   3   2  104.39    4.00
  -5   3   2  114.99    6.20
  -5   3   2  107.49    4.00
   5   3  -2  114.39    5.50
   5   3  -2  116.29    4.00
  -5  -3   2  121.89    4.10
   5  -3  -2  103.49    4.00
  -5  -3   2  118.29    4.10
   5  -3  -2  108.09    4.10
  -5  -3   2  117.69    4.10
  -5  -3   2  122.39    5.70
   5  -3  -2  107.99    4.20
   5  -3  -2  108.19    4.20
   5  -3  -2  117.99    6.70
  -5  -3   2  121.29    4.00
  -5  -3   2  125.49    4.20
   5   3  -1  146.19    6.10
   5   3  -1  141.09    4.80
  -5   3   1  138.09    4.90
   5   3  -1  153.98    5.00
  -5   3   1  137.59    7.20
  -5  -3   1  145.39    6.10
   5  -3  -1  139.19    5.10
   5  -3  -1  139.49    5.10
   5  -3  -1  140.39    5.00
   5  -3  -1  142.09    7.70
  -5  -3   1  137.19    5.00
  -5  -3   1  140.49    5.00
  -5  -3   1  137.69    5.00
  -5  -3   1  143.79    4.90
   5  -3  -1  135.49    4.90
  -5   3   0   62.29    2.30
  -5   3   0   60.49    2.20
  -5   3   0   62.99    4.50
   5   3   0   65.39    2.40
   5  -3   0   55.69    4.40
   5  -3   0   61.19    2.40
  -5  -3   0   65.79    2.40
   5  -3   0   61.39    2.50
   5  -3   0   59.49    2.40
  -5  -3   0   63.89    2.40
  -5  -3   0   68.09    2.40
  -5  -3   0   66.69    2.30
  -5   3  -1  226.98   11.10
   5   3   1  237.68    8.10
  -5   3  -1  227.58    7.90
  -5  -3  -1  233.48    8.10
  -5  -3  -1  228.78    8.00
   5  -3   1  239.18    8.20
   5  -3   1  231.88    8.10
   5  -3   1  237.88   11.10
   5  -3   1  236.88    8.10
  -5  -3  -1  231.08    8.10
   5  -3   1  231.58    8.00
  -5   3  -2  316.07   15.20
  -5   3  -2  361.16   14.50
  -5  -3  -2  355.36   11.90
  -5  -3  -2  354.46   12.00
   5  -3   2  337.77   12.00
  -5  -3  -2  356.46   12.00
   5  -3   2  346.17   12.10
  -5   3  -3  626.54   24.20
  -5   3  -3  627.34   25.40
   5   3   3  629.54   22.10
  -5  -3  -3  622.34   22.20
  -5   3  -4   21.50    0.90
   5   3   4   19.10    1.00
  -5   3  -4   25.30    3.30
  -5   3  -4   19.80    2.50
   5   3   4   21.00    1.10
  -5   3  -4   22.00    0.90
   5   3   4   19.00    1.80
   5   3   4   19.50    0.90
  -5  -3  -4   20.60    1.10
  -5  -3  -4   20.10    0.90
   5  -3   4   21.80    1.00
   5  -3   4   22.10    1.10
  -5  -3  -4   21.70    2.00
   5  -3   4   22.30    1.20
  -5   3  -5   80.99    5.70
  -5   3  -5   82.69    3.00
  -5   3  -5   80.49    6.40
  -5   3  -5   83.39    3.00
   5   3   5   79.89    3.10
   5   3   5   77.09    3.00
   5   3   5   78.49    3.20
   5   3   5   80.79    4.80
   5  -3   5   82.29    3.20
   5  -3   5   82.59    3.30
  -5  -3  -5   80.69    3.10
  -5  -3  -5   82.49    3.00
  -5  -3  -5   74.69    4.90
  -5  -3  -5   79.29    3.20
   5  -3   5   84.19    3.10
   5   3   6    6.60    1.70
   5   3   6    4.60    0.50
  -5   3  -6    5.20    1.60
   5   3   6    5.20    0.50
  -5   3  -6    4.20    0.40
  -5   3  -6    3.50    1.60
   5   3   6    4.40    0.40
  -5   3  -6    4.10    0.40
  -5  -3  -6    6.60    1.70
   5  -3   6    3.80    0.50
   5  -3   6    2.90    0.50
   5  -3   6    3.60    0.50
  -5  -3  -6    4.30    0.50
  -5  -3  -6    4.00    0.50
  -5  -3  -6    3.60    0.40
   5   3   7   39.00    1.80
   5   3   7   38.00    1.60
  -5   3  -7   37.10    4.50
  -5   3  -7   35.40    1.60
   5   3   7   36.10    3.60
   5   3   7   37.90    1.80
  -5   3  -7   32.00    3.80
  -5  -3  -7   36.50    1.70
  -5  -3  -7   36.10    1.60
   5  -3   7   39.20    1.90
  -5  -3  -7   33.20    3.80
   5  -3   7   37.30    1.90
  -5  -3  -7   38.30    1.90
   5  -3   7   37.70    1.70
  -5   3  -8    5.50    0.50
  -5   3  -8    6.00    2.30
   5   3   8    5.40    0.50
  -5   3  -8    5.50    0.50
   5   3   8    5.00    0.60
   5   3   8    4.10    0.60
   5  -3   8    5.60    0.70
  -5  -3  -8    4.40    0.70
   5  -3   8    6.20    0.70
  -5  -3  -8    4.70    0.60
   5   4  -9    0.60    0.30
  -5   4   9    1.20    0.40
   5   4  -9    0.70    0.30
  -5   4   9    0.60    0.30
  -5  -4   9    0.50    0.30
  -5  -4   9    0.40    0.30
   5  -4  -9    0.10    0.30
   5  -4  -9   -2.90    1.30
  -5  -4   9    0.50    0.40
   5  -4  -9    0.50    0.30
  -5   4   8   38.50    1.70
  -5   4   8   40.90    1.90
   5   4  -8   31.30    4.00
  -5   4   8   34.20    3.90
   5   4  -8   41.10    1.70
   5   4  -8   40.20    1.70
  -5  -4   8   36.80    1.90
   5  -4  -8   33.30    4.20
  -5  -4   8   42.80    2.00
   5  -4  -8   39.70    2.00
   5  -4  -8   39.10    1.80
   5  -4  -8   39.80    1.90
  -5  -4   8   40.40    1.80
  -5   4   7   -0.50    0.80
   5   4  -7   -0.10    0.20
   5   4  -7    0.10    0.20
  -5   4   7    0.00    0.20
  -5   4   7   -0.10    0.20
   5   4  -7    0.10    0.90
   5  -4  -7    0.20    0.20
   5  -4  -7    0.20    0.30
  -5  -4   7    0.00    0.20
   5  -4  -7    0.00    0.20
  -5  -4   7    0.10    0.30
  -5  -4   7    0.20    0.30
  -5  -4   7   -0.90    0.60
   5   4  -6   11.50    0.70
   5   4  -6   11.90    2.10
  -5   4   6    9.70    2.30
   5   4  -6   11.20    0.60
  -5   4   6   10.40    0.80
  -5   4   6   10.00    0.60
  -5  -4   6   11.70    2.00
   5  -4  -6   10.20    0.70
  -5  -4   6   11.90    0.70
   5  -4  -6   10.10    0.80
   5  -4  -6    9.10    2.30
  -5  -4   6   10.20    0.80
  -5  -4   6   11.40    0.80
   5  -4  -6    9.50    0.80
  -5   4   5   27.20    1.20
   5   4  -5   23.70    2.80
  -5   4   5   26.00    2.90
  -5   4   5   29.80    1.30
   5   4  -5   25.50    1.20
   5   4  -5   24.40    1.10
  -5  -4   5   22.80    1.20
  -5  -4   5   22.60    1.30
   5  -4  -5   31.10    1.30
  -5  -4   5   25.00    2.80
   5  -4  -5   29.90    3.20
   5  -4  -5   28.50    1.30
   5  -4  -5   27.10    1.40
  -5  -4   5   22.00    1.30
   5   4  -4  236.68   11.00
  -5   4   4  236.08    8.20
   5   4  -4  236.88    8.10
   5   4  -4  233.98    8.20
  -5   4   4  241.88   11.00
  -5   4   4  237.98    8.20
   5  -4  -4  229.18   11.50
  -5  -4   4  232.18    8.30
   5  -4  -4  240.88    8.40
  -5  -4   4  233.08    8.40
   5  -4  -4  233.98    8.30
  -5  -4   4  238.58    8.20
  -5  -4   4  230.08   10.80
   5  -4  -4  238.38    8.40
  -5  -4   4  235.88    8.40
  -5   4   3   18.40    0.90
  -5   4   3   20.40    2.40
   5   4  -3   21.60    0.90
  -5   4   3   18.50    0.90
   5   4  -3   20.70    2.20
  -5  -4   3   21.00    1.00
  -5  -4   3   22.00    1.00
  -5  -4   3   20.40    1.00
   5  -4  -3   18.60    1.10
  -5  -4   3   21.60    1.00
   5  -4  -3   17.80    1.00
   5  -4  -3   18.50    2.60
  -5  -4   3   22.60    2.30
   5  -4  -3   18.20    1.10
  -5   4   2   30.00    2.80
  -5   4   2   29.00    1.20
   5   4  -2   32.20    1.20
   5   4  -2   30.60    2.50
  -5   4   2   28.90    1.20
  -5  -4   2   29.90    1.30
   5  -4  -2   29.70    1.50
  -5  -4   2   33.50    1.40
   5  -4  -2   28.20    1.40
   5  -4  -2   33.80    3.40
   5  -4  -2   29.40    1.30
  -5  -4   2   32.30    1.40
  -5  -4   2   31.80    1.40
  -5  -4   2   34.50    1.40
  -5  -4   2   35.10    2.60
   5   4  -1    2.90    1.00
   5   4  -1    1.40    0.30
  -5   4   1    2.10    0.20
  -5   4   1    2.10    0.20
  -5   4   1    2.50    1.00
   5   4  -1    1.20    0.60
  -5  -4   1    2.20    0.30
   5  -4  -1    2.10    0.20
  -5  -4   1    2.30    0.30
   5  -4  -1    1.40    0.30
   5  -4  -1    1.80    0.40
   5  -4  -1    1.70    0.30
  -5  -4   1    2.40    0.30
  -5  -4   1    1.70    0.30
   5  -4  -1    0.70    0.70
  -5   4   0  644.64   25.40
   5   4   0  623.04   22.30
   5   4   0  638.24   22.90
  -5  -4   0  643.44   21.60
   5  -4   0  651.43   25.60
  -5  -4   0  614.14   21.70
  -5   4  -1  174.38    9.40
   5   4   1  178.18    6.00
  -5   4  -1  169.98    6.00
  -5   4  -1  160.28    5.90
   5   4   1  177.98    6.10
  -5  -4  -1  178.68    6.20
   5  -4   1  167.98    6.10
   5  -4   1  165.68    6.20
   5  -4   1  170.08    6.10
   5  -4   1  179.08    9.50
  -5  -4  -1  180.28    6.20
  -5  -4  -1  175.68    6.10
   5  -4   1  164.98    6.00
   5   4   2  117.09    4.20
  -5   4  -2  123.39    6.60
  -5   4  -2  113.79    4.10
  -5   4  -2  107.89    7.30
  -5   4  -2  111.99    4.00
   5   4   2  118.79    4.10
   5  -4   2  112.99    4.20
  -5  -4  -2  117.79    4.20
   5  -4   2  112.99    4.30
  -5  -4  -2  115.59    4.30
   5  -4   2  110.89    4.10
  -5  -4  -2  122.29    4.30
   5  -4   2  117.39    4.30
  -5   4  -3    3.00    0.30
  -5   4  -3    3.30    0.30
  -5   4  -3    4.90    1.50
   5   4   3    2.00    0.30
   5   4   3    2.60    0.40
  -5   4  -3    4.60    1.70
   5  -4   3    3.60    0.40
   5  -4   3    3.70    0.40
  -5  -4  -3    2.50    0.40
   5  -4   3    3.30    0.40
  -5  -4  -3    3.10    0.40
  -5  -4  -3    2.50    0.30
  -5   4  -4  174.88   10.10
   5   4   4  159.18    6.10
  -5   4  -4  177.28    9.10
   5   4   4  166.58    7.10
   5   4   4  162.88    6.00
  -5   4  -4  166.98    5.90
  -5   4  -4  166.28    5.90
   5  -4   4  171.28    6.10
  -5  -4  -4  166.58    7.50
   5  -4   4  174.78    6.20
  -5  -4  -4  173.18    6.10
   5  -4   4  173.58    6.10
  -5  -4  -4  169.18    6.20
  -5   4  -5    0.60    0.20
  -5   4  -5    0.30    1.00
  -5   4  -5    0.70    0.20
   5   4   5    0.30    0.60
   5   4   5    1.10    0.30
  -5   4  -5    1.40    0.90
   5   4   5    1.00    0.30
   5   4   5    0.80    0.20
  -5  -4  -5    0.70    0.30
   5  -4   5    0.50    0.30
   5  -4   5    0.80    0.30
   5  -4   5    0.30    0.30
  -5  -4  -5    1.00    0.20
  -5  -4  -5    1.00    0.70
  -5  -4  -5    0.50    0.20
   5   4   6   69.99    4.70
   5   4   6   64.79    2.60
  -5   4  -6   68.49    2.50
   5   4   6   70.29    2.70
   5   4   6   67.39    2.70
  -5   4  -6   61.49    5.20
  -5   4  -6   59.89    5.90
  -5   4  -6   64.59    2.50
   5  -4   6   62.89    2.70
   5  -4   6   59.89    2.80
  -5  -4  -6   68.99    2.90
  -5  -4  -6   66.49    2.60
  -5  -4  -6   63.99    2.50
   5  -4   6   65.89    2.60
  -5   4  -7   -0.10    1.40
   5   4   7    1.60    0.40
   5   4   7    2.00    0.40
  -5   4  -7    1.60    0.30
   5   4   7    2.10    0.40
   5  -4   7    1.80    0.50
   5  -4   7    2.60    0.50
  -5  -4  -7    2.30    0.50
  -5  -4  -7    1.10    0.40
   5   4   8   16.30    1.10
   5   4   8   15.80    1.00
  -5   4  -8   17.70    1.00
  -5   4  -8   17.20    0.90
   5  -4   8   16.50    1.20
   5  -4   8   16.70    1.20
  -5  -4  -8   16.40    1.20
  -5  -4  -8   16.70    1.00
   5   5  -9   17.50    1.00
   5   5  -9   19.90    1.00
  -5   5   9   17.40    1.00
  -5   5   9   18.20    1.30
  -5  -5   9   17.60    1.20
  -5  -5   9   16.50    1.20
   5  -5  -9   17.00    1.20
   5  -5  -9   16.60    1.10
   5   5  -8    1.80    0.30
  -5   5   8   -0.70    1.00
   5   5  -8    2.00    0.40
  -5   5   8    2.80    0.60
  -5   5   8    2.60    0.40
   5  -5  -8    2.60    1.90
  -5  -5   8    1.00    0.40
   5  -5  -8    2.20    0.50
   5  -5  -8    1.80    0.50
   5  -5  -8    2.50    0.60
  -5  -5   8    1.60    0.50
  -5  -5   8    1.10    0.40
   5   5  -7   11.00    0.70
  -5   5   7   10.00    0.80
   5   5  -7    8.20    2.10
   5   5  -7   11.40    0.70
  -5   5   7   10.20    0.70
  -5   5   7    8.50    2.30
   5  -5  -7   11.20    1.00
   5  -5  -7   11.80    3.10
  -5  -5   7   10.50    0.80
  -5  -5   7   11.30    0.90
  -5  -5   7    9.90    0.90
   5  -5  -7   10.50    0.90
  -5  -5   7   10.00    2.10
   5  -5  -7   10.50    0.80
  -5   5   6   22.00    1.20
  -5   5   6   19.90    2.80
   5   5  -6   20.90    2.90
   5   5  -6   21.40    1.00
   5   5  -6   23.20    1.10
  -5   5   6   22.30    1.10
   5  -5  -6   21.40    1.30
   5  -5  -6   21.90    1.20
   5  -5  -6   22.20    1.30
  -5  -5   6   25.90    3.00
  -5  -5   6   21.40    1.30
   5  -5  -6   21.50    3.10
  -5  -5   6   21.10    1.30
  -5  -5   6   20.90    1.10
   5   5  -5  121.19    4.20
   5   5  -5  117.39    4.30
  -5   5   5  115.59    4.40
  -5   5   5  116.29    7.10
  -5   5   5  115.59    4.30
   5   5  -5  116.99    7.20
  -5  -5   5  125.89    4.50
   5  -5  -5  118.89    4.60
  -5  -5   5  116.59    4.50
   5  -5  -5  123.79    4.50
  -5  -5   5  124.89    7.30
   5  -5  -5  114.19    7.70
  -5  -5   5  119.59    4.60
   5  -5  -5  120.49    4.60
   5   5  -4    2.10    0.30
  -5   5   4    3.40    0.40
   5   5  -4    2.70    0.30
   5   5  -4    0.80    0.80
  -5   5   4    2.30    1.10
   5  -5  -4    3.80    0.60
  -5  -5   4    2.90    1.10
  -5  -5   4    2.10    0.40
  -5  -5   4    1.50    0.30
  -5  -5   4    1.50    0.30
   5  -5  -4    2.50    1.20
  -5  -5   4    2.10    0.40
   5  -5  -4    3.80    0.50
   5  -5  -4    3.00    0.50
  -5   5   3   79.89    3.00
   5   5  -3   72.69    4.90
  -5   5   3   83.89    5.40
  -5   5   3   79.49    3.00
   5  -5  -3   79.89    3.20
   5  -5  -3   85.29    6.20
  -5  -5   3   80.79    3.10
   5  -5  -3   79.89    3.10
  -5  -5   3   81.39    3.20
   5  -5  -3   80.19    3.20
  -5  -5   3   80.39    3.10
  -5  -5   3   82.39    3.20
  -5  -5   3   85.89    5.20
  -5  -5   3   84.59    3.20
  -5   5   2    0.80    0.70
  -5   5   2    0.30    0.20
  -5   5   2    0.30    0.10
   5   5  -2    0.60    0.70
   5   5  -2    0.10    0.40
  -5  -5   2    0.60    0.20
   5  -5  -2    0.40    0.20
   5  -5  -2    0.10    0.20
  -5  -5   2    0.40    0.20
  -5  -5   2    0.30    0.20
  -5  -5   2    0.50    0.20
   5  -5  -2    0.10    0.20
  -5  -5   2    0.50    0.20
  -5  -5   2    0.50    0.20
   5  -5  -2    0.50    0.60
  -5   5   1  124.39    4.40
   5   5  -1  121.09    4.50
  -5   5   1  120.89    4.30
  -5   5   1  127.69    7.40
   5   5  -1  123.79    6.70
   5   5  -1  121.99    6.00
  -5  -5   1  123.19    4.30
  -5  -5   1  122.19    4.50
  -5  -5   1  122.69    4.60
   5  -5  -1  130.29    8.00
  -5  -5   1  123.49    4.60
   5  -5  -1  124.39    4.50
   5  -5  -1  129.39    4.70
   5  -5  -1  125.79    4.70
   5  -5  -1  125.89    4.40
  -5  -5   1  122.09    4.60
  -5   5   0  171.38    9.80
  -5   5   0  173.98    6.30
   5   5   0  189.28    7.60
   5   5   0  184.68    6.40
   5   5   0  194.98    8.30
  -5   5   0  171.88    6.40
  -5  -5   0  187.28    6.60
   5  -5   0  171.68    6.60
   5  -5   0  178.48    6.50
   5  -5   0  172.88    6.70
   5  -5   0  174.98    6.50
  -5  -5   0  205.48    6.70
   5  -5   0  179.18    9.90
  -5  -5   0  191.88    6.60
  -5  -5   0  188.68    6.30
  -5  -5   0  191.98    6.60
  -5   5  -1  110.89    4.10
   5   5   1  125.19    4.20
   5   5   1  117.79    4.20
  -5   5  -1  114.89    4.10
  -5   5  -1  115.49    7.50
  -5  -5  -1  114.79    4.20
   5  -5   1  114.99    4.40
   5  -5   1  116.99    4.30
   5  -5   1  115.69    4.30
   5  -5   1  108.79    7.40
  -5  -5  -1  114.89    4.30
  -5  -5  -1  110.19    4.30
   5  -5   1  111.09    4.10
   5   5   2   27.10    1.20
  -5   5  -2   26.70    1.00
   5   5   2   26.90    1.10
  -5   5  -2   26.50    1.10
  -5   5  -2   22.30    2.60
  -5   5  -2   24.00    3.20
  -5  -5  -2   27.30    1.30
   5  -5   2   25.20    1.30
  -5  -5  -2   26.40    1.20
   5  -5   2   24.90    1.10
   5  -5   2   25.70    1.40
   5  -5   2   24.90    1.20
  -5  -5  -2   26.00    1.30
   5   5   3  113.29    4.30
  -5   5  -3  120.09    8.10
  -5   5  -3  114.89    6.90
  -5   5  -3  114.89    4.10
   5   5   3  113.59    4.20
   5  -5   3  122.69    4.50
  -5  -5  -3  114.89    4.40
   5  -5   3  118.99    4.30
   5  -5   3  115.19    4.30
  -5  -5  -3  113.19    4.30
   5  -5   3  116.29    4.40
  -5   5  -4    2.30    1.50
   5   5   4    5.40    0.50
  -5   5  -4    1.70    1.10
   5   5   4    5.50    0.40
  -5   5  -4    3.40    0.40
  -5   5  -4    4.40    0.40
   5  -5   4    3.80    0.50
  -5  -5  -4    4.90    0.50
   5  -5   4    4.00    0.50
   5  -5   4    2.90    0.50
  -5  -5  -4    4.60    0.60
   5   5   5   40.10    1.80
  -5   5  -5   38.10    4.40
  -5   5  -5   36.80    3.80
  -5   5  -5   38.00    1.60
   5   5   5   37.30    1.60
   5   5   5   36.50    2.70
   5   5   5   38.80    1.70
  -5   5  -5   37.40    1.60
  -5  -5  -5   37.30    1.90
   5  -5   5   37.70    1.70
   5  -5   5   37.20    1.80
  -5  -5  -5   38.20    1.70
  -5  -5  -5   38.10    3.20
   5  -5   5   36.80    1.80
  -5   5  -6    8.10    2.70
  -5   5  -6    2.80    1.30
   5   5   6    3.60    0.50
   5   5   6    3.70    0.40
  -5   5  -6    4.40    0.40
   5  -5   6    5.80    0.60
  -5  -5  -6    4.70    0.60
   5  -5   6    4.40    0.50
  -5  -5  -6    4.30    0.50
   5  -5   6    4.70    0.60
   5   5   7   10.00    0.70
  -5   5  -7   11.40    0.70
   5   5   7   11.70    0.90
  -5  -5  -7   11.30    1.00
   5  -5   7   11.40    0.90
   5  -5   7   12.20    1.00
   5  -5   7   10.90    0.80
  -5  -5  -7   12.10    0.90
   5   5   8    1.00    0.40
   5   5   8    0.60    0.30
  -5   5  -8    1.50    0.40
   5  -5   8    1.40    0.50
  -5  -5  -8    1.00    0.50
  -5  -5  -8    1.10    0.40
   5  -5   8    1.10    0.40
  -5   6   8   12.30    1.00
   5   6  -8   12.60    0.80
   5   6  -8   14.10    0.90
  -5   6   8   12.40    0.80
  -5  -6   8   12.70    1.00
   5  -6  -8   12.70    1.00
  -5  -6   8   12.40    0.90
   5  -6  -8   11.90    1.00
   5  -6  -8   13.50    1.10
  -5  -6   8   13.60    1.00
   5   6  -7   -0.90    1.10
  -5   6   7    1.10    1.00
   5   6  -7    0.30    0.20
   5   6  -7    0.60    0.30
  -5   6   7    1.40    0.40
  -5   6   7    0.70    0.30
   5  -6  -7    0.60    0.40
   5  -6  -7    0.90    0.40
  -5  -6   7    0.90    0.30
  -5  -6   7    1.10    0.40
   5  -6  -7    1.10    0.40
   5  -6  -7   -0.50    1.60
  -5  -6   7    0.50    0.30
  -5  -6   7    0.50    0.90
  -5   6   6   26.40    3.20
   5   6  -6   24.10    1.20
  -5   6   6   24.20    1.30
   5   6  -6   24.40    1.10
  -5   6   6   24.10    1.20
   5   6  -6   25.30    3.20
   5  -6  -6   23.10    1.40
  -5  -6   6   22.40    1.40
  -5  -6   6   23.20    1.40
   5  -6  -6   24.60    1.30
   5  -6  -6   28.00    3.80
   5  -6  -6   26.50    1.40
  -5  -6   6   24.00    1.30
  -5   6   5    3.90    0.40
   5   6  -5    3.10    0.30
  -5   6   5    4.30    0.50
   5   6  -5    3.60    1.40
  -5   6   5    4.90    1.70
   5   6  -5    3.80    0.40
   5  -6  -5    7.40    2.40
  -5  -6   5    3.70    0.40
   5  -6  -5    4.10    0.50
   5  -6  -5    4.30    0.60
   5  -6  -5    3.90    0.60
  -5  -6   5    3.10    0.50
  -5  -6   5    2.60    0.40
  -5  -6   5    2.90    0.50
   5   6  -4   55.89    2.00
  -5   6   4   53.89    4.50
   5   6  -4   53.29    2.10
   5   6  -4   56.69    5.20
  -5   6   4   53.59    2.20
   5   6  -4   55.19    4.40
  -5   6   4   51.79    2.10
   5  -6  -4   50.49    2.20
   5  -6  -4   51.29    2.30
  -5  -6   4   52.59    2.30
  -5  -6   4   55.09    2.30
  -5  -6   4   54.29    2.30
   5  -6  -4   51.29    2.40
  -5  -6   4   55.19    2.30
   5  -6  -4   43.80    4.80
  -5   6   3    3.80    0.40
  -5   6   3    3.10    1.20
  -5   6   3    3.70    0.40
   5   6  -3    2.60    1.20
   5   6  -3    4.80    1.90
  -5  -6   3    3.90    0.40
  -5  -6   3    3.60    0.50
   5  -6  -3    3.70    0.60
   5  -6  -3    3.30    1.50
   5  -6  -3    3.50    0.60
  -5  -6   3    3.40    0.50
  -5  -6   3    4.20    0.50
   5  -6  -3    3.30    0.50
  -5  -6   3    4.80    0.50
  -5  -6   3    3.70    0.50
  -5   6   2  127.49    4.60
  -5   6   2  127.59    7.60
   5   6  -2  125.29    6.90
   5   6  -2  122.09    7.70
  -5   6   2  131.09    4.70
  -5  -6   2  132.79    4.90
  -5  -6   2  126.19    4.80
  -5  -6   2  128.69    4.80
   5  -6  -2  136.69    4.80
   5  -6  -2  137.79    5.00
  -5  -6   2  127.09    4.90
   5  -6  -2  135.09    8.70
  -5  -6   2  127.79    4.80
  -5  -6   2  127.39    4.60
   5  -6  -2  130.89    5.00
  -5   6   1    2.20    1.20
   5   6  -1    4.70    0.40
   5   6  -1    4.90    1.60
  -5   6   1    3.10    0.30
   5   6  -1    4.00    1.20
  -5   6   1    3.10    0.30
   5  -6  -1    3.30    0.30
  -5  -6   1    4.30    0.50
  -5  -6   1    4.60    0.50
  -5  -6   1    4.30    0.30
   5  -6  -1    2.70    0.40
   5  -6  -1    3.50    0.50
   5  -6  -1    2.50    1.30
   5  -6  -1    3.60    0.50
  -5  -6   1    4.80    0.50
  -5  -6   1    4.50    0.50
   5   6   0  111.99    4.10
  -5   6   0  107.89    7.50
   5   6   0  112.99    4.10
  -5   6   0  110.29    4.00
  -5   6   0  110.99    3.90
   5   6   0  111.39    5.50
   5   6   0  111.39    6.10
   5  -6   0  110.59    4.10
   5  -6   0  106.79    4.30
  -5  -6   0  106.29    4.20
  -5  -6   0  115.39    4.20
   5  -6   0  108.59    4.30
  -5  -6   0  109.19    3.90
  -5  -6   0  112.89    4.20
   5  -6   0  109.89    4.10
   5  -6   0  106.89    7.40
   5   6   1   49.50    2.00
   5   6   1   52.09    2.00
  -5   6  -1   47.20    1.90
  -5   6  -1   39.60    4.40
   5  -6   1   48.60    2.00
   5  -6   1   46.60    1.90
   5  -6   1   45.20    4.60
  -5  -6  -1   49.70    2.10
  -5  -6  -1   49.99    2.10
  -5  -6  -1   50.19    2.20
   5  -6   1   47.40    2.10
   5  -6   1   45.00    2.20
  -5   6  -2   64.19    2.30
  -5   6  -2   63.89    2.40
   5   6   2   56.99    2.40
   5   6   2   59.59    2.50
  -5   6  -2   62.89    4.80
  -5   6  -2   62.39    5.60
  -5  -6  -2   60.89    2.60
  -5  -6  -2   59.79    2.70
   5  -6   2   65.69    2.70
   5  -6   2   65.39    2.40
   5  -6   2   64.69    2.50
  -5  -6  -2   57.59    2.60
   5  -6   2   66.49    2.60
  -5   6  -3    0.90    0.20
  -5   6  -3    0.70    0.20
  -5   6  -3    1.10    1.20
  -5   6  -3    0.50    0.70
   5   6   3    0.60    0.20
   5   6   3    0.30    0.20
   5  -6   3    1.20    0.40
   5  -6   3    1.20    0.30
  -5  -6  -3    0.40    0.30
   5  -6   3    0.70    0.40
  -5  -6  -3    0.30    0.30
  -5  -6  -3    0.50    0.30
   5   6   4   26.50    1.30
  -5   6  -4   24.20    1.10
  -5   6  -4   25.60    1.10
  -5   6  -4   27.60    3.90
  -5   6  -4   25.50    3.20
   5   6   4   27.80    1.20
   5  -6   4   23.70    1.30
  -5  -6  -4   24.70    1.30
  -5  -6  -4   27.10    1.50
   5  -6   4   23.50    1.40
   5  -6   4   25.00    1.30
  -5   6  -5    4.40    0.50
  -5   6  -5    6.60    2.50
  -5   6  -5    4.00    0.40
   5   6   5    5.50    0.60
   5   6   5    5.30    0.50
  -5   6  -5    3.90    1.70
   5  -6   5    3.80    0.50
   5  -6   5    5.00    0.50
   5  -6   5    4.70    0.60
  -5  -6  -5    4.50    0.60
  -5  -6  -5    4.70    0.70
  -5   6  -6   22.20    1.10
   5   6   6   21.60    1.30
  -5   6  -6   19.50    3.20
   5   6   6   21.70    1.10
  -5  -6  -6   21.20    1.40
  -5  -6  -6   22.80    1.30
   5  -6   6   23.20    1.20
   5  -6   6   21.90    1.30
   5  -6   6   24.00    1.40
   5   6   7    4.20    0.60
  -5   6  -7    3.60    0.50
   5   6   7    4.40    0.50
   5  -6   7    4.60    0.70
  -5  -6  -7    4.20    0.70
   5  -6   7    4.20    0.70
   5  -6   7    4.50    0.50
  -5  -6  -7    3.80    0.60
  -5   7   7   22.60    1.30
  -5   7   7   20.20    1.10
   5   7  -7   22.70    1.20
   5   7  -7   21.70    1.10
  -5  -7   7   20.90    1.30
  -5  -7   7   22.80    1.40
   5  -7  -7   19.90    1.30
   5  -7  -7   20.60    1.40
   5  -7  -7   21.90    1.40
  -5  -7   7   22.60    1.40
   5   7  -6    3.50    1.70
   5   7  -6    3.40    0.40
  -5   7   6    4.20    0.60
   5   7  -6    3.10    0.50
  -5   7   6    3.20    1.50
   5   7  -6    3.60    2.00
  -5   7   6    3.90    0.50
  -5  -7   6    3.40    0.60
   5  -7  -6    4.10    0.70
   5  -7  -6    5.00    0.70
   5  -7  -6    1.40    1.70
  -5  -7   6    3.10    0.60
   5  -7  -6    2.90    0.60
  -5  -7   6    3.20    0.50
  -5   7   5   25.00    3.20
   5   7  -5   21.80    1.10
   5   7  -5   20.60    2.90
  -5   7   5   23.30    1.10
   5   7  -5   22.90    1.00
   5   7  -5   18.70    3.40
  -5   7   5   23.20    1.20
  -5  -7   5   21.40    1.30
   5  -7  -5   21.40    1.20
   5  -7  -5   20.00    3.70
   5  -7  -5   22.20    1.40
  -5  -7   5   23.40    1.30
   5  -7  -5   20.90    1.40
  -5  -7   5   22.00    1.30
  -5   7   4    1.50    0.30
   5   7  -4    1.00    0.90
   5   7  -4    1.90    0.30
  -5   7   4    1.10    1.00
  -5   7   4    1.80    0.30
   5   7  -4    2.10    0.30
   5   7  -4   -0.70    0.90
   5  -7  -4    2.40    0.50
   5  -7  -4    1.20    0.40
  -5  -7   4    1.30    0.40
  -5  -7   4    1.10    0.30
  -5  -7   4    1.40    0.40
   5  -7  -4    1.40    0.40
   5  -7  -4    0.90    1.30
  -5  -7   4    1.40    0.40
  -5   7   3  100.29    6.60
   5   7  -3   92.99    7.10
   5   7  -3   93.89    6.20
  -5   7   3   94.99    3.60
  -5   7   3   93.79    3.60
  -5  -7   3  100.79    3.60
  -5  -7   3   97.09    3.80
  -5  -7   3   93.69    3.80
   5  -7  -3   97.19    3.90
   5  -7  -3   96.99    3.80
  -5  -7   3   94.99    3.80
  -5  -7   3   98.39    3.80
   5  -7  -3  101.59    4.00
  -5  -7   3   96.79    3.80
   5  -7  -3   85.69    7.30
   5   7  -2    4.70    2.00
  -5   7   2    3.70    0.40
   5   7  -2    5.10    1.50
  -5   7   2    3.70    0.40
  -5   7   2    2.10    1.30
  -5  -7   2    5.10    0.60
  -5  -7   2    6.00    0.60
   5  -7  -2    4.30    1.80
  -5  -7   2    6.20    0.70
   5  -7  -2    4.20    0.70
   5  -7  -2    4.00    0.70
   5  -7  -2    3.70    0.50
  -5   7   1   56.39    2.10
   5   7  -1   50.39    3.90
  -5   7   1   54.69    2.10
   5   7  -1   51.69    2.20
   5   7  -1   50.49    4.70
  -5   7   1   49.90    4.90
   5  -7  -1   56.09    2.30
  -5  -7   1   53.39    2.30
   5  -7  -1   48.70    2.10
   5  -7  -1   57.49    5.30
   5  -7  -1   52.19    2.40
  -5  -7   1   54.79    2.40
  -5  -7   1   52.39    2.30
   5  -7  -1   54.69    2.50
  -5  -7   1   54.59    2.10
  -5  -7   1   52.09    2.40
  -5   7   0    5.80    0.40
   5   7   0    5.80    1.20
   5   7   0    6.20    0.50
   5   7   0    6.10    0.60
  -5   7   0    6.00    0.40
  -5   7   0    3.80    1.70
   5   7   0    6.70    1.80
   5  -7   0    5.20    0.70
  -5  -7   0    6.20    0.70
  -5  -7   0    6.20    0.60
   5  -7   0    5.30    0.70
   5  -7   0    5.80    0.60
   5  -7   0    5.30    0.50
  -5  -7   0    5.30    0.40
   5  -7   0    4.60    1.80
  -5  -7   0    5.40    0.70
   5   7   1   42.10    1.80
  -5   7  -1   40.50    3.90
  -5   7  -1   43.90    4.80
   5   7   1   41.80    1.90
  -5   7  -1   43.60    1.70
   5   7   1   45.30    2.90
   5   7   1   43.60    2.90
   5  -7   1   44.90    1.90
  -5  -7  -1   39.20    1.90
  -5  -7  -1   40.20    2.00
  -5  -7  -1   43.80    2.00
   5  -7   1   45.10    1.90
   5  -7   1   43.30    2.10
   5   7   2   21.90    1.00
   5   7   2   22.30    1.10
  -5   7  -2   19.80    2.70
  -5   7  -2   19.50    1.00
  -5   7  -2   18.60    3.20
  -5   7  -2   19.20    1.00
   5  -7   2   19.20    1.10
   5  -7   2   19.90    1.00
   5  -7   2   20.20    1.20
  -5  -7  -2   20.00    1.20
  -5  -7  -2   22.10    1.30
  -5  -7  -2   21.80    1.30
   5  -7   2   20.90    1.30
  -5   7  -3   38.30    1.60
  -5   7  -3   34.60    3.80
  -5   7  -3   38.00    4.60
  -5   7  -3   35.80    1.50
   5   7   3   38.90    1.80
  -5  -7  -3   41.60    1.90
   5  -7   3   38.60    1.70
   5  -7   3   38.50    1.90
   5  -7   3   37.10    1.80
   5  -7   3   35.70    1.70
  -5  -7  -3   37.70    1.80
  -5  -7  -3   36.90    1.90
  -5   7  -4    0.40    0.20
   5   7   4    0.10    0.20
   5   7   4    0.10    0.20
  -5   7  -4    0.50    0.20
  -5   7  -4   -0.30    0.70
  -5   7  -4    1.00    1.40
   5  -7   4    0.70    0.30
  -5  -7  -4    0.10    0.30
  -5  -7  -4    0.20    0.30
   5  -7   4    0.50    0.30
   5  -7   4    0.40    0.30
   5   7   5    7.90    0.70
  -5   7  -5    7.50    0.60
   5   7   5    7.10    0.60
  -5   7  -5    3.60    1.60
  -5   7  -5    8.20    0.60
   5  -7   5    7.90    0.80
   5  -7   5    7.50    0.60
   5  -7   5    8.50    0.80
  -5  -7  -5    8.20    0.80
  -5  -7  -5    7.50    0.80
  -5   7  -6    0.50    0.30
   5   7   6    0.30    0.20
   5   7   6    0.30    0.30
   5  -7   6    0.30    0.30
   5  -7   6    0.50    0.30
  -5  -7  -6    0.60    0.40
  -5  -7  -6    0.50    0.40
   5  -7   6    0.20    0.30
  -5   8   6   11.60    1.00
  -5   8   6   10.70    0.80
   5   8  -6   11.50    0.70
   5   8  -6   10.80    0.80
   5  -8  -6   11.00    0.90
  -5  -8   6   11.70    0.90
  -5  -8   6   12.50    1.00
   5  -8  -6    9.90    1.00
  -5  -8   6   10.60    0.90
   5  -8  -6   11.70    1.00
   5   8  -5    3.60    1.80
  -5   8   5    3.40    2.00
   5   8  -5    5.00    2.30
   5   8  -5    3.20    0.50
  -5   8   5    3.60    0.50
   5   8  -5    3.30    0.40
  -5   8   5    3.60    0.50
   5  -8  -5    3.80    0.60
   5  -8  -5    2.80    2.20
  -5  -8   5    3.50    0.50
  -5  -8   5    2.90    0.60
  -5  -8   5    2.50    0.50
   5  -8  -5    2.80    0.60
   5  -8  -5    3.00    0.60
   5   8  -4   19.80    2.90
  -5   8   4   21.00    3.30
  -5   8   4   21.50    1.10
  -5   8   4   20.50    1.10
   5   8  -4   21.90    1.10
   5   8  -4   18.70    3.50
  -5  -8   4   20.70    1.20
   5  -8  -4   20.70    1.40
   5  -8  -4   19.70    3.80
  -5  -8   4   21.40    1.30
   5  -8  -4   20.90    1.40
   5  -8  -4   21.50    1.30
  -5  -8   4   23.50    1.30
  -5  -8   4   21.30    1.40
   5   8  -3   -0.90    0.70
   5   8  -3    2.50    1.60
  -5   8   3    0.50    0.20
  -5   8   3    2.30    1.30
  -5   8   3    0.40    0.20
   5  -8  -3    0.40    0.40
  -5  -8   3    0.90    0.30
  -5  -8   3    0.50    0.40
  -5  -8   3    0.70    0.30
   5  -8  -3    0.10    0.30
  -5  -8   3    0.70    0.40
   5  -8  -3   -0.10    1.10
   5  -8  -3    0.40    0.30
  -5  -8   3    0.80    0.30
  -5  -8   3    0.90    0.40
  -5   8   2   46.50    2.00
  -5   8   2   47.30    4.70
  -5   8   2   49.40    2.00
   5   8  -2   44.60    5.00
   5   8  -2   48.60    4.30
   5  -8  -2   48.60    2.30
  -5  -8   2   51.29    2.20
   5  -8  -2   46.50    2.30
   5  -8  -2   51.09    2.20
  -5  -8   2   49.40    2.30
  -5  -8   2   50.39    2.00
   5  -8  -2   44.90    5.10
  -5  -8   2   50.89    2.20
  -5  -8   2   50.59    2.40
  -5   8   1    0.80    0.30
   5   8  -1   -0.30    0.70
  -5   8   1    0.10    1.00
   5   8  -1    0.60    0.30
   5   8  -1    2.90    1.30
  -5  -8   1    1.40    0.50
   5  -8  -1    0.30    0.40
   5  -8  -1    1.90    1.40
  -5  -8   1    1.10    0.40
   5  -8  -1    0.30    0.30
  -5  -8   1    0.70    0.20
  -5  -8   1    1.00    0.30
  -5  -8   1    1.00    0.40
   5  -8  -1    0.60    0.40
   5   8   0   41.00    3.50
  -5   8   0   44.50    4.70
   5   8   0   43.80    1.90
  -5   8   0   45.90    1.80
   5   8   0   42.80    3.90
   5   8   0   43.90    2.00
   5  -8   0   47.10    2.00
   5  -8   0   46.20    2.20
  -5  -8   0   43.70    1.80
  -5  -8   0   44.40    2.20
  -5  -8   0   43.50    2.20
   5  -8   0   46.40    2.00
   5  -8   0   42.60    4.90
  -5  -8   0   43.00    2.00
   5  -8   0   39.90    2.10
  -5   8  -1    0.30    1.10
   5   8   1    2.30    0.40
  -5   8  -1    1.10    1.10
  -5   8  -1    1.10    0.30
  -5   8  -1    1.30    0.30
   5  -8   1    1.50    0.50
  -5  -8  -1    1.90    0.50
   5  -8   1    1.70    0.40
   5  -8   1    1.00    0.30
  -5  -8  -1    2.30    0.60
  -5  -8  -1    1.80    0.50
  -5   8  -2   10.60    3.00
  -5   8  -2    8.30    0.60
  -5   8  -2    7.40    2.10
   5   8   2    8.10    0.70
  -5   8  -2    8.60    0.60
  -5  -8  -2    8.90    0.90
  -5  -8  -2    9.20    0.80
   5  -8   2    8.90    0.90
   5  -8   2    9.20    0.80
   5  -8   2    7.80    0.70
  -5  -8  -2   10.00    0.80
  -5   8  -3    1.80    0.30
   5   8   3    2.70    0.50
  -5   8  -3    2.70    2.20
  -5   8  -3    1.90    0.30
  -5   8  -3    1.30    1.00
   5  -8   3    2.20    0.50
  -5  -8  -3    1.70    0.50
  -5  -8  -3    3.00    0.60
   5  -8   3    1.30    0.50
   5  -8   3    2.20    0.50
  -5   8  -4    6.10    0.50
   5   8   4    5.20    0.50
  -5   8  -4    5.40    0.50
   5   8   4    5.30    0.60
  -5   8  -4    6.40    2.20
  -5  -8  -4    5.30    0.70
  -5  -8  -4    4.70    0.70
   5  -8   4    6.00    0.60
   5  -8   4    5.60    0.70
   5   8   5    0.60    0.30
  -5   8  -5    1.30    0.30
   5   8   5    1.20    0.30
  -5   8  -5    1.00    0.30
   5  -8   5    0.90    0.30
   5  -8   5    1.40    0.50
  -5  -8  -5    0.30    0.30
  -5  -8  -5    0.10    0.40
   5   9  -5   21.50    1.10
  -5   9   5   20.60    1.10
   5   9  -5   22.50    1.20
   5  -9  -5   21.40    1.50
  -5  -9   5   20.90    1.40
   5  -9  -5   20.30    1.30
  -5  -9   5   22.50    1.40
   5  -9  -5   21.80    1.50
  -5  -9   5   20.30    1.30
  -5   9   4    0.30    0.20
   5   9  -4   -0.10    0.20
  -5  -9   4    0.30    0.30
   5  -9  -4    0.10    0.40
   5  -9  -4    0.30    0.40
  -5  -9   4    0.00    0.30
  -5  -9   4   -0.10    0.30
   5  -9  -4    0.20    0.30
  -5  -9   4    0.00    0.30
  -5   9   3   19.30    1.00
  -5  -9   3   17.90    1.20
   5  -9  -3   17.10    1.30
   5  -9  -3    9.80    3.10
  -5  -9   3   17.30    1.10
  -5  -9   3   17.80    1.20
  -5  -9   3   17.00    1.20
   5  -9  -3   18.60    1.30
  -5  -9   3   19.60    1.30
   5  -9  -3   18.90    1.20
   5   9  -2    0.50    0.30
  -5   9   2    0.50    0.20
  -5   9   2   -0.30    1.30
   5  -9  -2    0.20    0.30
  -5  -9   2    0.70    0.40
  -5  -9   2    0.60    0.40
  -5  -9   2    0.60    0.30
  -5  -9   2    0.30    0.30
  -5  -9   2    0.70    0.30
   5  -9  -2    0.20    0.40
   5  -9  -2    0.10    0.40
  -5   9   1   19.80    1.10
  -5   9   1   16.20    2.90
   5   9  -1   19.90    1.20
   5   9  -1   19.90    1.20
   5  -9  -1   19.50    1.30
  -5  -9   1   21.80    1.40
   5  -9  -1   16.70    3.90
   5  -9  -1   19.40    1.40
  -5  -9   1   20.20    1.40
   5  -9  -1   20.40    1.20
  -5  -9   1   19.30    1.20
   5   9   0    0.20    0.20
   5   9   0    0.20    0.30
  -5   9   0   -0.30    0.80
  -5   9   0    0.40    1.20
  -5   9   0    0.10    0.20
  -5  -9   0   -0.20    0.30
   5  -9   0    0.30    0.30
  -5  -9   0    0.00    0.30
  -5  -9   0    0.40    0.40
   5  -9   0    0.10    0.40
   5  -9   0    0.40    0.40
  -5   9  -1   18.50    1.00
  -5   9  -1   22.70    3.70
  -5   9  -1   18.00    1.00
   5   9   1   18.00    1.10
  -5   9  -1   16.20    2.90
  -5  -9  -1   17.50    1.30
   5  -9   1   19.00    1.30
  -5  -9  -1   17.40    1.30
   5  -9   1   16.90    1.10
  -5  -9  -1   17.80    1.20
   5  -9   1   18.40    1.20
   5   9   2    3.10    0.50
  -5   9  -2    3.70    0.50
  -5   9  -2    3.60    0.40
  -5   9  -2    1.10    1.90
  -5   9  -2    3.90    1.80
  -5  -9  -2    3.40    0.50
   5  -9   2    3.20    0.60
  -5  -9  -2    4.60    0.80
  -5  -9  -2    4.30    0.70
   5  -9   2    3.30    0.60
   5  -9   2    3.40    0.50
   5   9   3    4.80    0.60
  -5   9  -3    4.90    0.50
   5   9   3    5.00    0.60
  -5  -9  -3    4.50    0.70
  -5  -9  -3    4.60    0.80
   5  -9   3    4.70    0.70
   5  -9   3    4.80    0.60
   5  -9   3    5.40    0.80
  -5   9  -4    0.50    0.30
   5   9   4    0.00    0.20
   5   9   4    0.30    0.30
  -5   9  -4    0.60    0.30
   5  -9   4    0.80    0.40
  -5  -9  -4    0.10    0.30
  -5  -9  -4    0.20    0.40
   5  -9   4    0.40    0.30
  -5  10   3    0.20    0.30
   5  10  -3   -0.10    0.30
   5  10  -3    0.20    0.30
  -5 -10   3    0.50    0.40
   5 -10  -3    0.50    0.40
  -5 -10   3    0.50    0.40
  -5 -10   3    0.50    0.40
  -5 -10   3    0.30    0.30
   5 -10  -3    0.50    0.40
   5 -10  -3    0.10    0.40
   5  10  -2   10.20    0.90
  -5  10   2   11.50    0.80
   5  10  -2   11.00    0.90
   5 -10  -2    9.90    1.00
   5 -10  -2    9.60    1.10
   5 -10  -2   11.40    0.90
  -5 -10   2   10.70    1.10
  -5 -10   2   11.30    1.00
  -5 -10   2   11.00    1.00
   5  10  -1    0.40    0.30
   5  10  -1    0.00    0.30
  -5  10   1    0.00    0.20
   5 -10  -1    0.00    0.30
  -5 -10   1    0.00    0.30
  -5 -10   1    0.50    0.50
   5 -10  -1    0.30    0.50
  -5 -10   1    0.10    0.40
   5 -10  -1    0.20    0.30
   5  10   0   17.50    1.10
  -5  10   0   16.40    1.00
  -5  10   0   14.60    3.00
  -5 -10   0   16.80    1.10
  -5 -10   0   18.20    1.40
   5 -10   0   15.40    1.10
   5 -10   0   16.40    1.30
  -5 -10   0   16.80    1.30
   5  10   1    0.20    0.30
  -5  10  -1    0.20    0.20
  -5  10  -1    0.10    0.20
   5 -10   1    0.50    0.50
  -5 -10  -1    0.00    0.30
  -5 -10  -1    0.30    0.40
  -5 -10  -1    0.10    0.30
   5 -10   1    0.30    0.30
  -5  10  -2    1.70    0.40
  -5  10  -2    1.70    0.40
   5  10   2    2.20    0.50
   5  10   2    2.00    0.40
   5 -10   2    2.50    0.50
   5 -10   2    1.70    0.60
  -5 -10  -2    2.40    0.60
  -5 -10  -2    2.80    0.70
   5 -10   2    2.60    0.60
  -6   0  10    5.70    0.70
  -6   0  10    4.50    0.70
  -6   0  10    4.70    0.60
   6   0 -10    4.60    0.50
   6   0 -10    4.80    0.60
  -6   0   9    0.20    0.30
  -6   0   9    0.20    0.30
  -6   0   9    0.40    0.30
   6   0  -9    0.10    0.20
   6   0  -9    0.50    1.40
   6   0  -9    0.20    0.20
   6   0  -8   55.99    4.80
  -6   0   8   59.49    2.50
   6   0  -8   52.49    2.30
  -6   0   8   55.29    5.50
  -6   0   8   56.09    2.30
   6   0  -8   57.89    2.30
  -6   0   7    0.10    0.20
   6   0  -7   -0.20    0.70
  -6   0   7    0.30    0.20
   6   0  -7    0.00    0.20
   6   0  -7    0.10    0.20
  -6   0   7    0.10    0.20
  -6   0   7    0.80    0.90
   6   0  -6   40.60    3.70
  -6   0   6   42.20    1.80
   6   0  -6   40.40    1.70
  -6   0   6   39.70    3.70
  -6   0   6   39.10    1.60
   6   0  -6   39.30    1.60
  -6   0   6   40.40    1.80
  -6   0   5    1.20    0.30
  -6   0   5    1.40    0.20
  -6   0   5    1.70    0.90
  -6   0   5    1.80    0.30
   6   0  -5    1.50    0.90
   6   0  -5    1.20    0.20
   6   0  -5    1.50    0.30
   6   0  -4  552.34   20.90
   6   0  -4  525.45   18.20
  -6   0   4  540.35   20.90
  -6   0   4  529.75   18.30
   6   0  -3    1.40    0.20
  -6   0   3    0.70    0.20
   6   0  -3    1.30    0.20
   6   0  -3    0.90    0.20
   6   0  -3    0.10    0.40
  -6   0   3    1.20    0.20
  -6   0   3    0.90    0.20
  -6   0   3    1.20    0.60
   6   0  -2  123.49    4.20
  -6   0   2  124.89    5.90
   6   0  -2  117.09    4.30
  -6   0   2  118.39    4.20
   6   0  -2  125.89    4.20
  -6   0   2  116.49    4.20
   6   0  -2  124.09    5.80
  -6   0   2  124.39    4.30
  -6   0   1    2.60    0.20
  -6   0   1    2.20    0.20
  -6   0   1    2.30    0.20
   6   0  -1    1.50    0.70
   6   0  -1    2.60    0.20
  -6   0   1    2.80    0.80
   6   0  -1    2.30    0.30
  -6   0   1    2.30    0.20
   6   0  -1    2.30    0.20
   6   0   0 5373.56  250.17
  -6   0   0 5060.89  250.57
   6   0   0 4076.69  226.58
  -6   0   0 4900.31  237.68
  -6   0  -1    2.20    0.20
  -6   0  -1    1.80    0.20
   6   0   1    1.60    0.20
  -6   0  -1    1.80    0.70
  -6   0  -1    1.70    0.20
   6   0   1    2.00    0.30
   6   0   1    2.20    0.70
   6   0   1    1.80    0.20
   6   0   2  229.58    8.00
  -6   0  -2  230.38    9.50
  -6   0  -2  226.58   10.10
   6   0   2  235.58    8.00
  -6   0  -2  236.98    7.90
   6   0   2  225.58    7.90
   6   0   3    0.10    0.10
   6   0   3    0.00    0.10
  -6   0  -3    0.00    0.60
   6   0   3    0.10    0.10
  -6   0  -3    0.30    0.10
  -6   0  -3    0.10    0.30
  -6   0  -3    0.10    0.10
  -6   0  -4 1008.60   36.80
  -6   0  -4 1003.90   37.70
  -6   0  -5    0.20    0.60
  -6   0  -5    0.10    0.10
   6   0   5    0.00    0.20
   6   0   5    0.20    0.20
   6   0   5    0.10    0.10
  -6   0  -5    0.30    0.50
  -6   0  -5    0.00    0.10
   6   0   6   24.20    1.30
  -6   0  -6   23.70    1.10
  -6   0  -6   20.70    3.00
   6   0   6   23.10    1.30
  -6   0  -6   24.00    2.90
  -6   0  -6   24.20    1.10
  -6   0  -6   24.20    1.20
  -6   0  -7    0.20    0.20
  -6   0  -7    0.00    0.20
  -6   0  -7   -1.00    1.00
   6   0   7   -0.10    0.20
   6   0   7    0.10    0.30
  -6   0  -7    0.20    0.20
  -6   0  -7    1.20    1.00
  -6   0  -8   11.50    0.80
   6   0   8   11.70    0.90
  -6   0  -8    8.40    2.40
  -6   0  -8   11.10    0.80
   6   0   8   11.60    0.90
   6   0   9    0.40    0.30
  -6   0  -9   -0.20    0.20
  -6   0  -9    0.00    0.20
   6   0   9   -0.10    0.30
  -6   1  10    0.30    0.30
   6   1 -10    0.40    0.30
  -6   1  10    0.60    0.30
  -6   1  10    0.50    0.40
   6   1 -10    0.50    0.30
  -6  -1  10    0.40    0.30
   6  -1 -10    0.60    0.30
  -6  -1  10    0.50    0.40
   6  -1 -10    0.20    0.30
  -6  -1  10    0.10    0.20
   6   1  -9   42.30    1.90
  -6   1   9   43.00    1.90
  -6   1   9   42.50    2.00
  -6   1   9   45.50    2.10
   6   1  -9   41.80    1.80
   6   1  -9   37.80    4.30
   6  -1  -9   42.20    1.90
  -6  -1   9   44.40    2.10
  -6  -1   9   42.30    2.00
  -6  -1   9   42.60    1.90
   6  -1  -9   43.00    1.90
  -6   1   8    2.20    1.30
   6   1  -8    0.80    0.30
  -6   1   8    1.00    0.40
  -6   1   8    1.30    0.30
  -6   1   8    1.20    0.30
   6   1  -8    2.10    1.20
   6   1  -8    1.00    0.30
   6  -1  -8    1.20    0.30
  -6  -1   8    1.50    0.30
   6  -1  -8    1.50    0.40
   6  -1  -8    0.80    1.00
  -6  -1   8    1.50    0.40
  -6  -1   8    1.90    0.50
  -6  -1   8    0.50    0.90
  -6   1   7   38.40    1.60
   6   1  -7   37.00    1.60
  -6   1   7   38.00    1.70
   6   1  -7   36.30    3.70
  -6   1   7   39.10    1.80
  -6   1   7   37.20    3.80
   6   1  -7   37.90    1.60
  -6  -1   7   38.00    1.80
  -6  -1   7   38.60    1.60
   6  -1  -7   36.10    3.80
  -6  -1   7   40.30    3.80
   6  -1  -7   37.50    1.60
  -6  -1   7   38.70    1.80
   6  -1  -7   38.00    1.60
  -6   1   6   22.60    1.10
  -6   1   6   20.00    0.80
  -6   1   6   19.30    2.50
   6   1  -6   18.20    2.50
  -6   1   6   20.00    1.00
   6   1  -6   20.60    1.00
   6   1  -6   18.80    0.90
  -6   1   6   21.00    1.00
  -6  -1   6   19.40    1.10
   6  -1  -6   20.60    1.00
   6  -1  -6   21.40    1.00
  -6  -1   6   20.70    1.00
   6  -1  -6   24.10    2.80
  -6  -1   6   20.10    1.10
  -6  -1   6   19.30    2.50
   6   1  -5  148.69    8.00
  -6   1   5  151.78    5.40
  -6   1   5  154.68    5.30
   6   1  -5  151.78    5.30
   6   1  -5  151.08    5.40
  -6   1   5  149.99    7.90
  -6   1   5  151.88    5.50
  -6   1   5  150.18    5.40
  -6  -1   5  150.38    5.50
   6  -1  -5  153.38    5.40
   6  -1  -5  159.08    8.20
  -6  -1   5  153.78    5.50
  -6  -1   5  151.68    5.40
   6  -1  -5  152.88    5.40
  -6  -1   5  161.18    8.10
   6   1  -4   60.59    2.20
   6   1  -4   70.29    4.30
  -6   1   4   60.39    4.10
   6   1  -4   62.29    2.30
  -6   1   4   56.89    2.20
  -6   1   4   58.59    2.20
  -6   1   4   55.19    2.30
   6  -1  -4   56.29    2.20
   6  -1  -4   57.69    2.30
  -6  -1   4   65.79    2.40
  -6  -1   4   61.19    4.10
  -6  -1   4   62.99    2.30
   6  -1  -4   62.39    4.20
   6  -1  -4   56.69    2.20
  -6  -1   4   61.99    2.30
  -6   1   3   85.39    3.00
   6   1  -3   81.99    4.70
  -6   1   3   85.39    3.10
   6   1  -3   83.09    2.90
  -6   1   3   82.49    3.00
   6   1  -3   86.19    3.00
  -6   1   3   88.69    4.90
  -6  -1   3   82.09    3.10
  -6  -1   3   84.39    4.70
   6  -1  -3   84.59    3.00
  -6  -1   3   80.49    2.90
   6  -1  -3   83.09    3.00
   6  -1  -3   87.49    4.90
  -6  -1   3   86.29    2.90
  -6  -1   3   81.19    3.10
   6  -1  -3   84.69    3.00
  -6  -1   3   85.99    3.00
  -6   1   2   37.30    2.80
   6   1  -2   32.00    1.40
   6   1  -2   34.30    1.30
  -6   1   2   38.20    1.30
   6   1  -2   35.70    2.50
  -6   1   2   35.00    1.30
  -6   1   2   38.60    1.30
  -6  -1   2   34.00    1.40
   6  -1  -2   36.10    1.40
  -6  -1   2   33.80    1.30
   6  -1  -2   36.40    2.70
   6  -1  -2   36.30    1.40
  -6  -1   2   34.80    2.50
  -6  -1   2   32.30    1.40
   6  -1  -2   34.20    1.40
   6   1  -1  634.44   22.00
  -6   1   1  584.54   22.50
  -6  -1   1  611.34   21.90
   6  -1  -1  606.54   22.80
  -6   1   0  525.75   21.10
   6   1   0  593.44   20.30
  -6  -1   0  562.34   19.90
   6  -1   0  559.14   21.50
  -6   1  -1 2361.76   82.89
   6   1   1 2410.36   81.49
   6  -1   1 2375.36   82.89
  -6  -1  -1 2389.16   81.49
   6   1   2  105.89    3.90
  -6   1  -2  112.69    3.80
   6   1   2  107.09    3.90
  -6   1  -2  110.69    5.60
   6   1   2  104.89    3.80
  -6   1  -2  119.69    6.30
  -6   1  -2  109.89    3.80
  -6  -1  -2  104.79    3.90
  -6  -1  -2  105.19    4.90
   6  -1   2  114.99    3.90
   6  -1   2  108.09    3.90
   6  -1   2  112.29    4.00
  -6  -1  -2  107.09    3.80
  -6  -1  -2  107.69    5.30
  -6  -1  -2  103.49    3.80
  -6   1  -3  467.95   18.20
  -6   1  -3  464.05   19.10
   6   1   3  459.15   15.80
  -6  -1  -3  458.55   18.20
   6  -1   3  465.35   15.90
  -6  -1  -3  465.45   15.80
  -6  -1  -3  470.65   17.60
   6   1   4   39.30    1.60
  -6   1  -4   34.50    3.10
   6   1   4   38.20    1.40
  -6   1  -4   37.70    1.50
   6   1   4   37.90    1.60
  -6   1  -4   36.70    1.50
  -6   1  -4   35.80    3.70
   6  -1   4   37.90    1.70
  -6  -1  -4   38.70    3.00
   6  -1   4   35.60    1.50
  -6  -1  -4   39.50    1.50
  -6  -1  -4   37.10    1.50
  -6  -1  -4   37.60    3.30
   6  -1   4   36.10    1.60
  -6  -1  -4   40.20    1.60
  -6   1  -5  169.18    9.90
  -6   1  -5  179.78    6.20
   6   1   5  174.58    6.40
  -6   1  -5  177.48    6.20
   6   1   5  182.68    6.20
  -6   1  -5  186.48    9.20
   6   1   5  171.28    6.40
   6  -1   5  180.18    6.30
   6  -1   5  177.68    6.40
   6  -1   5  178.08    6.50
  -6  -1  -5  170.38    6.30
  -6  -1  -5  182.08    8.80
  -6  -1  -5  175.98    6.20
  -6  -1  -5  179.68    6.30
   6   1   6   24.20    1.00
  -6   1  -6   24.80    1.10
  -6   1  -6   22.00    3.30
  -6   1  -6   23.00    2.90
   6   1   6   23.10    1.30
   6   1   6   23.40    1.30
  -6   1  -6   23.80    1.10
  -6  -1  -6   24.40    2.90
  -6  -1  -6   22.70    1.10
  -6  -1  -6   23.60    1.10
  -6  -1  -6   24.60    1.20
   6  -1   6   23.90    1.30
   6  -1   6   24.70    1.30
  -6   1  -7   22.80    1.10
  -6   1  -7   22.70    1.10
  -6   1  -7   23.70    3.30
   6   1   7   21.20    1.30
  -6   1  -7   24.40    3.70
   6   1   7   21.40    1.00
  -6   1  -7   22.20    1.10
   6   1   7   22.20    1.30
   6  -1   7   22.00    1.30
  -6  -1  -7   17.90    2.70
  -6  -1  -7   21.10    1.10
  -6  -1  -7   21.50    1.10
   6  -1   7   21.60    1.30
  -6  -1  -7   21.80    1.20
   6   1   8    1.90    0.50
  -6   1  -8    0.70    0.30
  -6   1  -8    2.20    1.40
  -6   1  -8    1.30    0.30
   6   1   8    1.50    0.40
  -6  -1  -8    0.40    1.00
   6  -1   8    1.00    0.40
  -6  -1  -8    1.60    0.30
  -6  -1  -8    1.20    0.30
   6  -1   8    0.90    0.40
  -6   1  -9    7.00    0.60
  -6   1  -9    7.30    0.60
   6   1   9    7.70    0.80
   6   1   9    6.20    0.70
   6  -1   9    7.00    0.80
   6  -1   9    6.60    0.80
  -6  -1  -9    7.80    0.70
  -6  -1  -9    6.00    0.60
  -6   2  10   14.20    1.10
   6   2 -10   13.30    0.90
   6   2 -10   12.20    0.90
  -6   2  10   14.40    0.90
  -6  -2  10   14.60    1.10
  -6  -2  10   11.70    0.90
  -6  -2  10   13.50    1.10
   6  -2 -10   14.60    0.90
   6  -2 -10   13.60    1.00
  -6   2   9   -1.70    0.80
  -6   2   9    0.40    0.30
   6   2  -9    0.10    0.20
   6   2  -9   -0.20    0.20
  -6   2   9    0.20    0.20
  -6   2   9   -0.10    0.20
   6  -2  -9    0.20    0.30
   6  -2  -9    0.20    0.20
  -6  -2   9    0.40    0.30
   6  -2  -9    0.20    1.20
  -6  -2   9    0.00    0.20
  -6  -2   9    0.50    0.30
  -6   2   8    9.90    2.30
   6   2  -8   10.50    0.70
  -6   2   8   10.30    0.70
  -6   2   8   10.20    0.70
   6   2  -8    7.70    2.10
  -6   2   8   10.20    0.90
   6   2  -8   10.00    0.70
  -6  -2   8   10.90    2.10
  -6  -2   8   10.10    0.70
   6  -2  -8    9.00    2.30
  -6  -2   8   11.10    0.90
   6  -2  -8   11.00    0.80
   6  -2  -8   10.30    0.70
  -6  -2   8   10.80    0.80
  -6   2   7    6.60    0.40
  -6   2   7    6.60    1.70
  -6   2   7    6.10    0.50
   6   2  -7    4.70    0.40
  -6   2   7    6.90    0.60
   6   2  -7    3.00    1.30
  -6   2   7    6.40    0.50
   6   2  -7    5.30    0.50
  -6  -2   7    4.30    0.60
   6  -2  -7    5.90    1.70
  -6  -2   7    4.80    0.50
   6  -2  -7    6.50    0.50
   6  -2  -7    6.30    0.60
  -6  -2   7    4.40    1.60
  -6   2   6   56.99    2.10
  -6   2   6   56.69    2.20
   6   2  -6   54.19    2.20
  -6   2   6   57.09    4.50
   6   2  -6   55.09    4.40
   6   2  -6   57.29    2.10
  -6   2   6   55.89    2.30
   6  -2  -6   56.49    2.20
  -6  -2   6   56.29    4.50
  -6  -2   6   57.49    2.20
  -6  -2   6   53.89    2.40
  -6  -2   6   54.69    2.30
   6  -2  -6   54.19    4.50
   6  -2  -6   59.19    2.30
  -6   2   5   11.90    0.70
   6   2  -5   12.60    0.60
   6   2  -5   13.30    1.90
  -6   2   5   13.00    2.00
  -6   2   5   11.60    0.60
   6   2  -5   13.20    0.70
   6  -2  -5   13.80    2.00
   6  -2  -5   13.10    0.70
  -6  -2   5   13.80    2.00
  -6  -2   5   13.20    0.80
  -6  -2   5   13.50    0.70
  -6  -2   5   13.30    0.80
   6  -2  -5   11.20    0.70
   6  -2  -5   12.90    0.70
   6   2  -4   23.50    2.40
  -6   2   4   19.60    0.90
  -6   2   4   19.10    0.90
   6   2  -4   18.70    0.80
  -6   2   4   22.20    2.40
   6   2  -4   21.00    0.90
   6  -2  -4   18.20    0.90
  -6  -2   4   21.40    2.30
  -6  -2   4   23.50    1.10
   6  -2  -4   19.30    0.90
   6  -2  -4   19.20    0.90
  -6  -2   4   20.60    1.00
   6  -2  -4   20.80    2.40
  -6  -2   4   20.60    0.90
  -6   2   3    6.70    0.40
  -6   2   3    6.30    0.40
   6   2  -3    5.10    0.40
  -6   2   3    7.50    0.40
  -6   2   3    8.00    1.40
   6   2  -3    5.40    0.30
   6   2  -3    5.50    1.20
  -6  -2   3    6.30    0.40
   6  -2  -3    7.00    0.40
   6  -2  -3    7.20    0.50
  -6  -2   3    6.70    0.40
  -6  -2   3    5.60    1.10
   6  -2  -3    8.50    1.50
  -6  -2   3    7.70    0.50
  -6  -2   3    8.30    0.50
   6  -2  -3    7.20    0.40
   6   2  -2  500.55   19.00
  -6   2   2  526.35   19.80
  -6  -2   2  510.65   19.10
   6  -2  -2  514.65   17.40
   6  -2  -2  498.05   19.90
   6   2  -1  293.47   10.10
   6   2  -1  303.07   11.10
   6   2  -1  298.67    9.90
  -6   2   1  284.17   12.30
  -6  -2   1  291.47   10.00
   6  -2  -1  292.47   12.90
  -6  -2   1  295.47   11.10
   6  -2  -1  287.47   10.10
   6  -2  -1  289.57   10.10
   6   2   0  845.72   28.90
  -6   2   0  870.51   31.40
  -6  -2   0  844.02   28.80
   6  -2   0  791.52   31.20
  -6   2  -1   60.19    2.10
  -6   2  -1   58.59    4.30
  -6   2  -1   59.49    2.10
   6   2   1   54.59    2.20
   6   2   1   54.69    2.20
  -6  -2  -1   57.19    2.10
   6  -2   1   60.39    2.30
  -6  -2  -1   61.09    2.20
   6  -2   1   58.79    2.30
   6  -2   1   64.19    4.50
   6  -2   1   58.99    2.10
  -6  -2  -1   54.39    2.20
   6  -2   1   64.59    2.30
   6  -2   1   61.49    2.10
  -6   2  -2  733.43   28.20
  -6   2  -2  723.63   27.10
  -6   2  -3   15.30    1.90
  -6   2  -3   12.40    0.60
   6   2   3   12.70    0.70
   6   2   3   13.10    0.70
  -6   2  -3   13.20    0.60
  -6   2  -3   10.30    1.90
  -6  -2  -3   12.60    0.70
   6  -2   3   12.50    0.70
  -6  -2  -3   12.30    0.70
  -6  -2  -3   11.90    1.40
  -6  -2  -3   14.10    1.40
  -6  -2  -3   12.30    0.60
   6  -2   3   11.40    0.70
   6  -2   3   11.60    0.70
  -6  -2  -3   12.80    0.50
  -6   2  -4  467.95   19.30
   6   2   4  466.85   16.10
  -6   2  -4  454.95   20.30
   6   2   4  469.75   16.20
  -6   2  -4  476.25   16.10
   6  -2   4  473.25   16.40
  -6  -2  -4  468.55   16.20
  -6  -2  -4  483.85   18.20
  -6  -2  -4  483.05   16.00
   6   2   5   27.00    1.40
  -6   2  -5   25.90    3.00
   6   2   5   26.30    1.20
  -6   2  -5   27.90    3.50
   6   2   5   25.20    1.30
   6   2   5   30.90    2.70
  -6   2  -5   27.80    1.20
  -6   2  -5   28.90    1.20
  -6  -2  -5   28.30    1.30
   6  -2   5   27.40    1.40
   6  -2   5   28.50    1.30
  -6  -2  -5   28.70    1.20
  -6  -2  -5   29.50    2.80
   6  -2   5   29.30    1.40
  -6  -2  -5   27.70    1.30
  -6   2  -6   44.50    4.90
  -6   2  -6   47.60    4.40
   6   2   6   50.89    4.20
   6   2   6   52.69    2.10
   6   2   6   51.59    2.30
   6   2   6   52.49    2.30
  -6   2  -6   55.29    2.10
  -6   2  -6   56.09    2.10
  -6  -2  -6   52.39    2.20
   6  -2   6   56.89    2.20
  -6  -2  -6   54.29    2.10
  -6  -2  -6   52.59    2.30
   6  -2   6   54.99    2.30
   6  -2   6   57.59    2.40
  -6  -2  -6   53.29    4.40
   6   2   7    0.70    0.20
   6   2   7    1.10    0.40
  -6   2  -7    1.40    0.30
  -6   2  -7   -0.10    1.10
   6   2   7    0.90    0.30
  -6   2  -7    1.10    0.30
  -6   2  -7    0.30    0.90
  -6  -2  -7    0.40    0.30
   6  -2   7    1.00    0.40
   6  -2   7    0.50    0.30
  -6  -2  -7    0.90    1.10
  -6  -2  -7    0.50    0.20
  -6  -2  -7    0.70    0.30
  -6   2  -8   12.30    0.80
  -6   2  -8   13.00    0.80
   6   2   8   12.70    1.00
   6   2   8   12.80    1.00
  -6   2  -8   12.30    2.90
   6  -2   8   12.70    1.00
  -6  -2  -8   12.30    1.00
   6  -2   8   12.70    1.00
  -6  -2  -8   12.60    0.80
  -6  -2  -8   12.80    0.80
  -6   3   9    7.70    0.80
   6   3  -9    7.80    0.60
  -6   3   9    7.20    0.60
   6   3  -9    7.70    0.60
   6  -3  -9    3.20    1.80
  -6  -3   9    8.40    0.70
  -6  -3   9    7.30    0.80
  -6  -3   9    8.10    0.80
   6  -3  -9    6.70    0.70
   6  -3  -9    7.30    0.70
  -6   3   8    3.20    0.40
   6   3  -8    1.10    1.20
  -6   3   8    2.80    0.50
   6   3  -8    2.70    0.40
   6   3  -8    2.70    0.40
  -6   3   8    6.80    1.90
  -6  -3   8    3.60    0.60
  -6  -3   8    3.60    0.50
   6  -3  -8    3.50    0.50
   6  -3  -8    2.70    1.50
  -6  -3   8    2.80    1.50
  -6  -3   8    3.20    0.40
   6  -3  -8    3.10    0.50
  -6   3   7   61.49    5.00
  -6   3   7   63.09    2.70
   6   3  -7   64.69    2.50
   6   3  -7   66.29    2.40
  -6   3   7   62.49    2.50
   6   3  -7   59.09    5.00
  -6  -3   7   61.99    5.00
  -6  -3   7   70.29    2.80
  -6  -3   7   64.89    2.70
   6  -3  -7   66.99    2.70
   6  -3  -7   61.79    2.50
   6  -3  -7   62.89    2.50
   6  -3  -7   64.39    5.30
  -6  -3   7   64.19    2.60
  -6   3   6    1.70    0.40
   6   3  -6    2.20    0.40
  -6   3   6    2.10    0.30
   6   3  -6    2.50    0.30
   6   3  -6    1.80    1.00
  -6   3   6    0.60    0.70
  -6  -3   6    3.90    1.40
   6  -3  -6    1.50    0.30
  -6  -3   6    2.20    0.30
   6  -3  -6    1.60    0.30
  -6  -3   6    2.50    0.50
   6  -3  -6    1.00    1.00
  -6   3   5   31.30    3.10
   6   3  -5   30.40    3.00
   6   3  -5   32.20    1.30
  -6   3   5   31.10    1.30
   6   3  -5   30.70    1.20
  -6   3   5   32.40    1.40
   6  -3  -5   32.10    1.30
  -6  -3   5   29.30    1.50
  -6  -3   5   31.80    3.20
  -6  -3   5   28.70    1.50
   6  -3  -5   30.50    1.30
   6  -3  -5   31.70    1.40
   6  -3  -5   31.10    3.20
   6  -3  -5   31.40    1.50
  -6  -3   5   30.80    1.40
  -6   3   4    1.20    0.30
  -6   3   4    1.20    0.20
  -6   3   4    1.60    0.90
   6   3  -4    0.50    0.20
   6   3  -4    0.60    0.10
   6   3  -4    0.40    0.50
  -6  -3   4    0.60    0.20
   6  -3  -4    1.00    0.20
   6  -3  -4    1.10    0.30
  -6  -3   4    0.40    0.50
  -6  -3   4    0.50    0.20
   6  -3  -4    0.60    0.70
   6  -3  -4    0.50    0.20
  -6  -3   4    0.40    0.20
   6  -3  -4    0.80    0.30
  -6   3   3  164.98    5.70
   6   3  -3  163.88    5.60
   6   3  -3  158.88    5.50
   6   3  -3  163.78    7.80
  -6   3   3  158.08    5.60
  -6   3   3  171.08    8.20
  -6  -3   3  160.18    5.80
   6  -3  -3  162.08    5.80
  -6  -3   3  168.88    5.80
  -6  -3   3  159.78    7.70
   6  -3  -3  159.18    5.70
   6  -3  -3  159.18    5.80
  -6  -3   3  165.58    5.70
   6  -3  -3  150.88    5.60
  -6  -3   3  165.78    5.80
   6  -3  -3  163.78    8.50
  -6   3   2  289.97   10.50
  -6   3   2  311.17   13.40
   6   3  -2  302.27   10.50
   6   3  -2  314.57   12.40
   6   3  -2  319.77   10.60
  -6  -3   2  313.87   10.70
   6  -3  -2  304.17   10.60
   6  -3  -2  301.67   10.80
   6  -3  -2  309.97   13.90
  -6  -3   2  326.07   10.60
  -6  -3   2  321.57   12.50
  -6  -3   2  312.27   10.70
  -6   3   1  256.57   11.50
   6   3  -1  255.87    9.80
   6   3  -1  259.47    8.60
   6   3  -1  251.97    8.80
  -6   3   1  249.78    8.60
  -6  -3   1  246.38    8.70
   6  -3  -1  257.37   11.90
  -6  -3   1  251.87    8.60
   6  -3  -1  252.97    8.90
   6  -3  -1  250.97    8.80
   6  -3  -1  241.88    8.70
  -6  -3   1  253.87    9.80
  -6   3   0   12.60    0.60
   6   3   0   13.40    0.70
  -6   3   0   14.00    2.10
  -6   3   0   12.60    0.60
   6  -3   0   12.90    0.70
  -6  -3   0   14.40    0.70
  -6  -3   0   13.70    0.60
  -6  -3   0   13.30    0.70
   6  -3   0   11.90    0.70
  -6  -3   0   13.70    0.70
   6  -3   0   12.00    0.80
   6  -3   0   14.10    2.10
  -6   3  -1  857.31   32.50
   6  -3   1  840.52   32.40
  -6   3  -2   58.69    4.10
   6   3   2   62.69    2.30
  -6   3  -2   58.29    2.20
  -6   3  -2   49.99    4.50
   6   3   2   58.89    2.20
   6  -3   2   54.89    2.30
  -6  -3  -2   64.29    2.30
   6  -3   2   56.59    2.40
   6  -3   2   57.69    2.20
   6  -3   2   58.39    2.40
  -6  -3  -2   61.99    2.30
  -6  -3  -2   59.79    2.20
  -6   3  -3  212.98    7.20
   6   3   3  202.68    7.30
   6   3   3  202.08    7.30
  -6   3  -3  211.48    7.20
  -6   3  -3  209.88   11.00
  -6   3  -3  209.88    9.90
   6  -3   3  206.18    7.30
   6  -3   3  203.88    7.30
  -6  -3  -3  206.08    7.30
   6  -3   3  204.68    7.40
  -6  -3  -3  202.98    7.40
  -6  -3  -3  223.88    7.40
  -6   3  -4   67.59    2.50
  -6   3  -4   68.79    4.90
   6   3   4   64.49    2.60
  -6   3  -4   66.89    2.50
  -6   3  -4   61.09    5.40
  -6  -3  -4   63.69    2.40
  -6  -3  -4   65.09    2.70
   6  -3   4   68.49    2.60
  -6  -3  -4   66.29    3.80
  -6  -3  -4   69.19    2.60
   6  -3   4   69.19    2.60
   6  -3   4   65.99    2.70
  -6   3  -5   66.29    5.00
  -6   3  -5   63.19    2.40
   6   3   5   67.19    2.50
   6   3   5   61.49    2.60
   6   3   5   65.89    4.10
  -6   3  -5   65.59    5.80
  -6   3  -5   62.89    2.40
   6   3   5   59.79    2.60
  -6  -3  -5   65.79    4.30
   6  -3   5   64.29    2.50
   6  -3   5   63.39    2.70
  -6  -3  -5   60.59    2.50
  -6  -3  -5   62.39    2.30
  -6  -3  -5   65.19    2.70
   6  -3   5   62.39    2.60
  -6   3  -6    0.90    1.30
  -6   3  -6    0.00    0.10
   6   3   6    0.30    0.20
   6   3   6    0.00    0.50
   6   3   6    0.40    0.30
  -6   3  -6    0.20    0.20
   6   3   6    0.40    0.20
  -6   3  -6    1.00    0.90
   6  -3   6    0.50    0.30
   6  -3   6    0.40    0.30
  -6  -3  -6    0.20    0.20
  -6  -3  -6    1.20    0.90
  -6  -3  -6    1.00    0.20
   6  -3   6    0.70    0.30
  -6  -3  -6    0.10    0.20
  -6   3  -7   16.00    2.80
  -6   3  -7   16.10    3.30
  -6   3  -7   18.00    0.90
   6   3   7   17.80    1.10
   6   3   7   17.40    0.90
   6   3   7   17.70    1.10
  -6  -3  -7   17.70    0.90
  -6  -3  -7   17.00    1.20
   6  -3   7   17.20    1.10
   6  -3   7   16.70    1.10
   6  -3   7   17.00    1.00
  -6  -3  -7   17.50    1.00
   6   3   8    1.80    0.50
   6   3   8    2.30    0.40
   6   3   8    2.00    0.50
  -6   3  -8    2.60    0.40
  -6   3  -8    2.50    0.40
  -6  -3  -8    1.70    0.40
   6  -3   8    2.70    0.50
   6  -3   8    3.30    0.60
  -6  -3  -8    2.80    0.60
  -6   4   9    0.40    0.20
  -6   4   9    0.50    0.40
   6   4  -9    0.10    0.30
   6   4  -9    0.10    0.30
  -6  -4   9    0.30    0.30
  -6  -4   9    0.20    0.30
   6  -4  -9   -0.10    0.30
   6  -4  -9    0.10    0.30
  -6  -4   9    0.60    0.30
   6   4  -8   32.10    1.50
  -6   4   8   26.40    3.60
  -6   4   8   35.00    1.50
   6   4  -8   35.40    1.50
   6   4  -8   26.10    3.60
  -6   4   8   32.60    1.70
   6  -4  -8   34.80    4.20
  -6  -4   8   32.30    1.70
   6  -4  -8   33.20    1.70
   6  -4  -8   34.30    1.60
  -6  -4   8   32.30    1.70
  -6  -4   8   33.30    1.60
  -6   4   7    2.50    0.40
   6   4  -7    2.40    0.30
  -6   4   7    1.20    1.00
  -6   4   7    2.60    0.50
   6   4  -7    2.30    0.40
   6   4  -7    0.30    0.90
  -6  -4   7    2.30    0.50
   6  -4  -7    2.10    0.40
  -6  -4   7    2.60    1.30
  -6  -4   7    2.10    0.40
   6  -4  -7    2.90    0.50
  -6  -4   7    1.90    0.40
   6  -4  -7    3.10    0.50
   6  -4  -7    1.90    1.30
  -6   4   6   12.60    0.80
  -6   4   6   14.30    2.30
   6   4  -6   15.60    2.40
   6   4  -6   12.80    0.80
  -6   4   6   11.80    0.70
   6   4  -6   13.00    0.70
  -6  -4   6   14.60    2.30
  -6  -4   6   13.80    0.80
  -6  -4   6   13.30    0.90
   6  -4  -6   13.30    0.90
   6  -4  -6   12.30    0.80
  -6  -4   6   13.80    0.90
   6  -4  -6   13.30    0.90
   6  -4  -6   12.90    2.90
  -6   4   5    1.80    0.40
   6   4  -5    1.80    0.20
  -6   4   5    2.20    0.30
  -6   4   5    2.70    1.10
   6   4  -5    2.00    0.30
   6   4  -5    2.00    1.00
  -6  -4   5    2.70    0.50
   6  -4  -5    1.00    1.00
   6  -4  -5    2.00    0.40
   6  -4  -5    2.20    0.40
   6  -4  -5    2.20    0.40
  -6  -4   5    2.20    0.40
  -6  -4   5    1.50    0.80
  -6  -4   5    2.30    0.40
   6   4  -4  205.78    7.20
   6   4  -4  204.98    7.30
  -6   4   4  216.68    7.30
  -6   4   4  209.88   10.10
  -6   4   4  204.68    7.30
   6   4  -4  212.18   10.00
  -6  -4   4  202.58    7.50
  -6  -4   4  205.28    7.40
   6  -4  -4  213.18    7.40
   6  -4  -4  216.28    7.60
  -6  -4   4  209.58    7.50
  -6  -4   4  210.58   10.00
  -6  -4   4  212.38    7.40
   6  -4  -4  214.28   10.80
  -6   4   3    6.10    0.40
   6   4  -3    6.80    0.40
  -6   4   3    6.10    1.60
   6   4  -3    7.80    1.40
   6   4  -3    7.10    0.30
   6  -4  -3    5.70    0.60
  -6  -4   3    7.50    0.50
  -6  -4   3    7.60    0.50
   6  -4  -3    7.00    1.90
   6  -4  -3    6.80    0.50
   6  -4  -3    6.00    0.60
  -6  -4   3    7.60    0.50
  -6  -4   3    7.80    0.60
  -6  -4   3    8.50    1.40
  -6   4   2   85.59    3.10
  -6   4   2   86.29    3.20
  -6   4   2   82.69    5.40
   6   4  -2   88.99    3.10
   6   4  -2   94.39    4.90
  -6  -4   2   89.79    3.30
  -6  -4   2   91.89    3.30
   6  -4  -2   87.79    3.40
  -6  -4   2   84.89    3.20
   6  -4  -2   89.19    3.30
   6  -4  -2   82.49    5.90
  -6  -4   2   88.79    4.80
  -6  -4   2   91.29    3.20
   6  -4  -2   84.79    3.40
   6  -4  -2   83.19    3.10
  -6  -4   2   90.39    3.30
  -6   4   1  170.38    8.90
   6   4  -1  175.08    7.20
   6   4  -1  172.78    6.00
  -6   4   1  160.08    5.90
   6   4  -1  166.48    5.80
  -6  -4   1  183.38    6.10
  -6  -4   1  174.38    6.00
   6  -4  -1  160.58    9.20
   6  -4  -1  161.28    5.90
  -6  -4   1  176.48    6.10
   6  -4  -1  167.08    6.00
   6  -4  -1  159.38    6.10
  -6   4   0  557.94   23.10
  -6  -4   0  553.74   19.40
   6  -4   0  581.14   23.40
  -6  -4   0  571.34   19.50
   6  -4   0  581.84   19.60
  -6   4  -1    6.00    1.80
   6   4   1    2.50    0.30
   6   4   1    3.20    0.40
  -6   4  -1    3.60    0.30
  -6   4  -1    3.80    0.20
   6  -4   1    4.20    0.40
   6  -4   1    3.40    0.50
  -6  -4  -1    3.00    0.30
  -6  -4  -1    2.90    0.40
  -6  -4  -1    2.70    0.40
   6  -4   1    4.30    0.30
   6  -4   1    4.20    0.40
   6  -4   1    5.60    1.80
  -6   4  -2  114.89    7.50
  -6   4  -2  129.79    7.10
   6   4   2  123.09    4.40
   6   4   2  122.79    4.50
  -6   4  -2  119.39    4.40
  -6  -4  -2  121.19    4.40
   6  -4   2  121.29    4.60
   6  -4   2  128.39    4.60
   6  -4   2  121.49    4.50
  -6  -4  -2  121.69    4.60
   6  -4   2  119.19    4.40
  -6  -4  -2  134.79    4.60
   6   4   3   24.70    1.20
  -6   4  -3   24.90    3.30
   6   4   3   24.60    1.10
  -6   4  -3   24.40    1.10
  -6   4  -3   22.30    1.00
  -6   4  -3   24.00    2.80
  -6  -4  -3   25.70    1.20
   6  -4   3   27.30    1.30
   6  -4   3   24.10    1.10
  -6  -4  -3   26.60    1.30
   6  -4   3   22.80    1.20
  -6  -4  -3   23.80    1.10
  -6   4  -4  313.47   10.70
   6   4   4  306.87   10.90
  -6   4  -4  302.57   14.20
   6   4   4  308.97   10.80
  -6   4  -4  318.57   15.60
   6  -4   4  305.87   11.00
  -6  -4  -4  313.47   10.90
   6  -4   4  312.57   10.80
  -6  -4  -4  305.47   11.00
  -6  -4  -4  312.67   10.80
   6  -4   4  316.87   10.90
   6   4   5   49.10    2.20
  -6   4  -5   49.20    2.00
  -6   4  -5   51.89    2.00
  -6   4  -5   57.99    5.40
   6   4   5   47.60    2.00
  -6   4  -5   54.49    4.60
   6   4   5   47.50    2.10
  -6  -4  -5   49.30    2.10
   6  -4   5   51.29    2.30
  -6  -4  -5   49.99    2.20
  -6  -4  -5   49.00    3.60
   6  -4   5   52.79    2.20
   6  -4   5   53.39    2.10
  -6   4  -6   26.90    3.80
   6   4   6   27.40    1.40
  -6   4  -6   25.30    1.20
  -6   4  -6   24.00    3.20
   6   4   6   27.30    1.40
  -6   4  -6   28.60    1.20
   6   4   6   27.10    1.30
  -6  -4  -6   29.50    1.50
  -6  -4  -6   28.60    1.40
   6  -4   6   25.80    1.40
   6  -4   6   26.30    1.30
   6  -4   6   27.00    1.50
   6   4   7    1.20    0.30
  -6   4  -7    1.60    0.30
   6   4   7    1.40    0.40
  -6   4  -7    1.80    1.40
   6   4   7    2.20    0.50
  -6   4  -7    3.50    1.60
  -6  -4  -7    1.90    0.40
  -6  -4  -7    1.70    0.50
   6  -4   7    1.50    0.40
   6  -4   7    1.50    0.40
   6  -4   7    1.60    0.50
  -6   4  -8   16.30    0.90
   6   4   8   15.80    0.90
  -6   4  -8   16.50    0.90
   6   4   8   16.10    1.10
  -6  -4  -8   14.10    1.20
   6  -4   8   15.60    1.10
  -6  -4  -8   14.60    1.00
   6  -4   8   16.80    1.20
  -6   5   9   14.80    0.90
   6   5  -9   15.00    0.90
   6   5  -9   14.80    0.90
  -6   5   9   12.60    1.10
   6  -5  -9   14.40    1.00
   6  -5  -9   16.30    1.10
  -6  -5   9   14.80    1.10
  -6  -5   9   13.70    1.10
  -6   5   8    2.00    0.50
   6   5  -8    1.20    0.30
   6   5  -8    0.70    0.30
  -6   5   8    1.80    0.40
  -6   5   8    0.20    1.00
   6  -5  -8    1.90    0.50
  -6  -5   8    1.10    0.40
   6  -5  -8    1.40    0.40
  -6  -5   8    1.20    0.40
  -6  -5   8    1.00    0.40
   6  -5  -8    1.90    0.50
   6   5  -7   17.50    0.90
  -6   5   7   16.50    0.90
   6   5  -7   17.70    1.00
  -6   5   7   15.30    2.70
   6   5  -7   17.10    2.80
  -6   5   7   17.60    1.10
   6  -5  -7   13.60    2.80
   6  -5  -7   16.90    1.00
  -6  -5   7   17.40    1.10
   6  -5  -7   17.80    1.20
  -6  -5   7   18.50    2.80
  -6  -5   7   17.00    1.10
  -6  -5   7   17.60    1.00
   6  -5  -7   18.00    1.20
  -6   5   6    2.60    0.40
   6   5  -6    2.40    0.40
   6   5  -6    2.40    0.30
  -6   5   6    3.00    0.50
   6   5  -6    0.90    1.10
  -6   5   6    2.10    1.30
  -6  -5   6    2.00    0.40
  -6  -5   6    4.10    1.50
   6  -5  -6    2.40    0.50
   6  -5  -6    2.80    0.50
  -6  -5   6    2.40    0.50
   6  -5  -6    3.10    0.60
  -6  -5   6    2.20    0.50
   6  -5  -6    2.50    1.50
  -6   5   5   71.19    2.80
  -6   5   5   64.19    5.00
   6   5  -5   72.99    2.60
   6   5  -5   64.59    5.00
   6   5  -5   71.09    2.70
  -6   5   5   70.79    2.70
   6  -5  -5   70.79    2.90
   6  -5  -5   68.99    5.70
   6  -5  -5   71.09    3.00
  -6  -5   5   70.09    5.20
  -6  -5   5   69.39    2.90
  -6  -5   5   68.09    2.90
  -6  -5   5   73.49    2.80
   6  -5  -5   73.09    2.80
   6   5  -4   27.40    2.90
   6   5  -4   24.50    1.00
  -6   5   4   22.10    2.70
  -6   5   4   21.80    1.10
  -6   5   4   21.50    1.10
   6   5  -4   24.90    1.10
   6  -5  -4   21.90    1.30
   6  -5  -4   23.00    1.20
  -6  -5   4   27.70    1.30
   6  -5  -4   16.20    2.80
   6  -5  -4   20.20    1.30
  -6  -5   4   27.30    1.20
  -6  -5   4   28.40    1.30
  -6  -5   4   26.90    1.30
  -6  -5   4   22.90    2.70
   6   5  -3   78.79    2.90
  -6   5   3   84.79    5.50
  -6   5   3   81.59    2.90
  -6   5   3   80.19    3.00
   6   5  -3   80.79    5.10
  -6  -5   3   75.89    3.10
  -6  -5   3   81.19    3.00
   6  -5  -3   78.99    3.10
   6  -5  -3   84.79    3.30
  -6  -5   3   80.49    3.10
  -6  -5   3   77.79    3.10
   6  -5  -3   74.89    6.00
  -6  -5   3   81.89    5.10
  -6  -5   3   79.99    3.20
   6  -5  -3   82.09    3.20
   6   5  -2   27.20    2.40
  -6   5   2   24.00    1.00
  -6   5   2   25.00    1.10
   6   5  -2   29.70    2.90
   6   5  -2   25.80    1.10
  -6   5   2   25.00    2.80
  -6  -5   2   27.90    1.30
  -6  -5   2   27.30    1.30
   6  -5  -2   25.70    1.40
  -6  -5   2   25.30    1.20
  -6  -5   2   27.60    1.30
   6  -5  -2   24.50    3.30
  -6  -5   2   25.30    1.20
   6  -5  -2   24.60    1.20
  -6   5   1   99.89    3.60
   6   5  -1  100.49    3.80
  -6   5   1   95.99    6.40
   6   5  -1  104.59    5.80
   6   5  -1  103.09    5.10
   6   5  -1   98.59    3.50
   6  -5  -1  100.19    3.70
  -6  -5   1  101.69    3.80
  -6  -5   1  103.09    3.80
   6  -5  -1  104.79    4.00
   6  -5  -1  103.59    3.80
  -6  -5   1   98.09    3.80
   6  -5  -1  103.39    3.90
   6  -5  -1   97.69    6.90
  -6  -5   1  100.49    3.80
  -6   5   0  148.19    5.50
  -6   5   0  148.39    9.00
  -6   5   0  148.89    5.40
   6   5   0  158.98    5.50
   6  -5   0  153.98    5.60
   6  -5   0  153.38    5.80
   6  -5   0  151.88    5.60
  -6  -5   0  163.78    5.70
  -6  -5   0  163.08    5.60
  -6  -5   0  158.88    5.60
   6   5   1  197.38    7.10
  -6   5  -1  196.98    7.00
   6   5   1  195.38    7.00
  -6   5  -1  198.78    6.90
  -6   5  -1  194.08   10.70
   6  -5   1  209.28   11.10
  -6  -5  -1  200.18    7.10
  -6  -5  -1  193.18    7.20
   6  -5   1  208.08    7.30
   6  -5   1  202.28    7.20
   6  -5   1  207.18    7.20
  -6  -5  -1  203.68    7.20
   6  -5   1  196.28    6.90
  -6   5  -2   11.80    0.50
  -6   5  -2   11.60    1.90
   6   5   2   10.40    0.60
  -6   5  -2   12.30    0.60
   6   5   2   11.60    0.70
  -6   5  -2   11.00    2.20
  -6  -5  -2   10.20    0.70
  -6  -5  -2   10.10    0.80
  -6  -5  -2   10.30    0.70
   6  -5   2   10.90    0.80
   6  -5   2   10.70    0.80
   6  -5   2   11.90    0.60
   6  -5   2   12.50    0.80
  -6   5  -3   43.20    4.70
   6   5   3   41.60    1.80
  -6   5  -3   42.70    1.70
   6   5   3   42.20    1.70
  -6   5  -3   42.10    3.80
   6  -5   3   46.10    2.00
   6  -5   3   45.50    2.00
  -6  -5  -3   38.90    1.90
  -6  -5  -3   41.50    1.80
   6  -5   3   44.70    1.80
   6  -5   3   41.80    1.80
  -6  -5  -3   40.20    1.90
   6   5   4    0.10    0.20
  -6   5  -4    0.40    0.20
   6   5   4    0.20    0.20
  -6   5  -4    1.20    1.00
  -6   5  -4    0.50    0.20
  -6   5  -4    0.00    0.80
   6  -5   4    0.30    0.20
  -6  -5  -4    0.40    0.20
  -6  -5  -4    0.30    0.30
   6  -5   4    0.50    0.30
   6  -5   4    0.80    0.30
   6   5   5   38.20    1.70
   6   5   5   38.90    1.70
  -6   5  -5   36.50    1.50
  -6   5  -5   31.70    3.80
  -6   5  -5   39.50    1.60
  -6   5  -5   35.90    4.40
   6   5   5   37.80    1.60
   6  -5   5   35.00    1.80
   6  -5   5   36.20    1.80
  -6  -5  -5   37.10    1.80
  -6  -5  -5   36.00    1.70
   6  -5   5   35.10    1.70
  -6   5  -6   10.00    2.90
   6   5   6    9.90    0.70
  -6   5  -6   10.90    0.70
   6   5   6    9.90    0.80
  -6   5  -6    9.70    0.70
  -6   5  -6    8.40    2.30
  -6  -5  -6    9.50    0.90
   6  -5   6   10.10    0.70
   6  -5   6    9.80    0.90
   6  -5   6   11.40    0.90
  -6  -5  -6    9.80    0.80
   6   5   7    5.80    0.70
   6   5   7    5.40    0.50
  -6   5  -7    5.60    0.50
   6  -5   7    5.60    0.70
   6  -5   7    5.20    0.70
  -6  -5  -7    5.60    0.80
   6  -5   7    5.70    0.60
  -6  -5  -7    5.70    0.60
  -6   6   8    8.00    0.80
   6   6  -8    9.80    0.70
  -6   6   8    8.10    0.60
   6   6  -8    8.90    0.70
   6  -6  -8    9.50    0.90
  -6  -6   8    7.40    0.80
  -6  -6   8    7.40    0.80
   6  -6  -8    7.60    0.90
  -6  -6   8    8.80    0.90
   6  -6  -8    9.70    0.80
   6   6  -7    4.40    0.50
  -6   6   7    5.00    0.50
  -6   6   7    5.70    2.00
   6   6  -7    4.80    0.50
   6   6  -7    1.60    1.60
  -6   6   7    6.10    0.70
   6  -6  -7    3.10    2.20
   6  -6  -7    5.10    0.60
   6  -6  -7    5.30    0.80
  -6  -6   7    3.10    0.60
   6  -6  -7    5.10    0.70
  -6  -6   7    4.40    0.70
  -6  -6   7    4.90    0.60
  -6  -6   7    4.00    1.70
   6   6  -6   25.00    3.40
  -6   6   6   30.80    3.60
  -6   6   6   32.30    1.60
  -6   6   6   31.70    1.40
   6   6  -6   32.80    1.40
   6   6  -6   31.20    1.30
   6  -6  -6   33.50    1.80
  -6  -6   6   31.60    1.70
  -6  -6   6   30.00    1.60
   6  -6  -6   32.50    1.60
   6  -6  -6   32.20    4.20
  -6  -6   6   27.90    3.40
  -6  -6   6   33.00    1.60
   6  -6  -6   32.80    1.70
  -6   6   5    1.80    0.40
   6   6  -5    2.30    0.30
   6   6  -5    1.90    0.30
  -6   6   5    1.80    1.10
   6   6  -5    2.50    1.30
  -6   6   5    1.60    0.30
   6  -6  -5    1.90    0.40
  -6  -6   5    2.40    0.40
  -6  -6   5    1.60    1.00
  -6  -6   5    2.00    0.40
   6  -6  -5    1.00    0.40
  -6  -6   5    1.80    0.40
   6  -6  -5    1.30    0.40
   6  -6  -5    1.30    1.20
  -6  -6   5    1.90    0.40
   6   6  -4   40.40    1.70
  -6   6   4   38.80    3.80
   6   6  -4   43.40    1.60
  -6   6   4   39.40    1.70
   6   6  -4   40.20    3.70
  -6   6   4   38.90    1.70
   6  -6  -4   38.30    4.50
  -6  -6   4   40.90    1.80
  -6  -6   4   40.30    1.90
   6  -6  -4   39.00    1.90
  -6  -6   4   39.30    1.80
   6  -6  -4   40.30    2.00
   6  -6  -4   38.70    1.80
  -6  -6   4   41.20    1.80
  -6   6   3    0.60    0.20
  -6   6   3    0.50    0.80
   6   6  -3    1.40    0.90
   6   6  -3    0.90    0.20
   6   6  -3    0.50    0.70
  -6   6   3    0.10    0.20
  -6  -6   3    0.80    0.30
   6  -6  -3    0.60    0.30
   6  -6  -3    0.40    0.30
   6  -6  -3    0.60    0.30
   6  -6  -3    0.70    1.00
  -6  -6   3    1.10    0.30
  -6  -6   3    1.00    0.30
  -6  -6   3    1.10    0.30
  -6  -6   3    0.90    0.30
  -6   6   2  171.48    9.50
   6   6  -2  175.78    6.20
   6   6  -2  175.48    9.70
  -6   6   2  182.78    6.20
  -6   6   2  182.58    6.30
   6   6  -2  179.88    8.60
   6  -6  -2  172.68    6.60
  -6  -6   2  172.48    6.40
   6  -6  -2  171.68   10.40
   6  -6  -2  182.08    6.40
  -6  -6   2  169.98    6.40
   6  -6  -2  179.38    6.60
  -6  -6   2  177.38    6.50
  -6  -6   2  177.78    6.40
  -6   6   1   40.70    1.70
  -6   6   1   43.00    4.10
   6   6  -1   48.00    3.90
   6   6  -1   42.60    1.80
   6   6  -1   39.00    3.00
  -6  -6   1   41.90    1.80
  -6  -6   1   44.00    1.90
  -6  -6   1   42.40    1.90
   6  -6  -1   39.80    1.80
   6  -6  -1   42.60    4.50
   6  -6  -1   37.90    1.90
  -6  -6   1   44.90    1.90
   6  -6  -1   37.20    2.00
   6  -6  -1   39.60    1.70
   6   6   0   25.60    2.00
  -6   6   0   25.70    3.30
  -6   6   0   25.90    1.10
   6   6   0   27.50    1.20
   6   6   0   26.30    1.30
   6   6   0   27.80    2.40
  -6  -6   0   27.10    1.40
   6  -6   0   24.70    1.30
   6  -6   0   26.10    1.30
   6  -6   0   25.30    3.40
  -6  -6   0   26.10    1.30
  -6  -6   0   27.00    1.30
   6  -6   0   25.10    1.40
  -6   6  -1    0.90    0.20
   6   6   1    1.20    0.30
  -6   6  -1    0.80    1.10
   6   6   1    1.80    0.40
  -6   6  -1    1.30    0.20
  -6  -6  -1    1.60    0.30
   6  -6   1   -0.30    0.60
   6  -6   1    1.00    0.20
  -6  -6  -1    1.60    0.40
   6  -6   1    1.10    0.40
   6  -6   1    1.20    0.30
   6  -6   1    1.00    0.30
  -6  -6  -1    1.40    0.40
  -6   6  -2   82.49    5.60
   6   6   2   75.39    3.00
  -6   6  -2   81.89    3.00
  -6   6  -2   81.59    2.90
   6   6   2   77.89    3.10
  -6   6  -2   77.99    6.50
  -6  -6  -2   76.69    3.20
   6  -6   2   81.99    3.10
  -6  -6  -2   77.09    3.30
  -6  -6  -2   77.49    3.20
   6  -6   2   84.19    3.20
   6  -6   2   83.89    3.00
   6  -6   2   77.69    3.30
   6   6   3    0.50    0.20
   6   6   3    0.40    0.30
  -6   6  -3    1.40    1.50
  -6   6  -3   -0.30    0.70
  -6   6  -3    0.50    0.20
  -6  -6  -3    0.50    0.30
  -6  -6  -3    0.20    0.30
   6  -6   3    0.30    0.30
   6  -6   3    0.40    0.30
   6  -6   3    0.50    0.20
  -6  -6  -3    0.70    0.30
   6  -6   3    0.40    0.30
  -6   6  -4   37.70    4.60
  -6   6  -4   36.10    3.90
   6   6   4   34.60    1.80
  -6   6  -4   37.40    1.60
   6   6   4   40.40    1.70
  -6   6  -4   42.50    1.60
  -6  -6  -4   41.30    2.00
   6  -6   4   36.60    1.70
  -6  -6  -4   40.80    1.80
   6  -6   4   40.00    1.80
   6  -6   4   38.00    1.90
  -6   6  -5    1.30    1.20
  -6   6  -5    3.10    0.40
   6   6   5    3.00    0.40
  -6   6  -5    2.90    0.40
   6   6   5    2.60    0.50
  -6   6  -5    3.20    2.40
   6  -6   5    3.40    0.50
   6  -6   5    2.60    0.50
  -6  -6  -5    2.60    0.50
   6  -6   5    2.40    0.50
  -6  -6  -5    2.30    0.50
   6   6   6   20.20    1.20
   6   6   6   20.20    1.10
  -6   6  -6   21.30    1.10
  -6  -6  -6   19.00    1.40
   6  -6   6   22.30    1.30
  -6  -6  -6   20.50    1.20
   6  -6   6   21.70    1.30
   6  -6   6   21.30    1.10
   6   6   7    1.60    0.40
   6   6   7    1.40    0.40
  -6   6  -7    2.40    0.40
  -6  -6  -7    1.10    0.50
   6  -6   7    2.30    0.60
  -6  -6  -7    1.30    0.40
   6  -6   7    1.90    0.40
   6  -6   7    2.40    0.60
  -6   7   7   27.30    1.40
   6   7  -7   29.50    1.40
  -6   7   7   30.50    1.60
   6  -7  -7   27.00    1.60
  -6  -7   7   28.70    1.60
   6  -7  -7   30.00    1.70
   6  -7  -7   30.70    1.80
  -6  -7   7   30.10    1.60
  -6  -7   7   27.90    1.60
   6   7  -6    1.20    1.40
   6   7  -6    1.70    1.40
   6   7  -6    0.40    0.20
   6   7  -6    0.40    0.30
  -6   7   6    0.50    0.30
  -6   7   6    0.50    0.20
  -6  -7   6    0.50    0.40
   6  -7  -6    0.70    0.40
  -6  -7   6    0.40    0.30
   6  -7  -6    0.70    1.80
   6  -7  -6    1.30    0.50
   6  -7  -6    0.40    0.40
  -6  -7   6    0.80    0.40
  -6   7   5   23.20    1.20
   6   7  -5   21.80    1.00
   6   7  -5   23.50    1.10
   6   7  -5   19.10    3.40
  -6   7   5   19.10    2.90
  -6   7   5   22.70    1.10
   6   7  -5   19.50    3.00
   6  -7  -5   22.40    1.40
   6  -7  -5   21.90    1.40
  -6  -7   5   21.80    1.30
  -6  -7   5   22.30    1.30
   6  -7  -5   22.20    1.30
   6  -7  -5   19.20    3.60
  -6  -7   5   23.10    1.30
   6   7  -4    1.10    1.10
   6   7  -4    0.20    0.20
   6   7  -4    0.30    0.20
  -6   7   4    0.70    1.10
   6   7  -4    1.10    0.90
  -6   7   4    0.30    0.20
  -6   7   4    0.00    0.20
  -6  -7   4    0.20    0.30
   6  -7  -4    0.10    0.30
   6  -7  -4   -0.10    0.30
  -6  -7   4    0.00    0.20
  -6  -7   4    0.50    0.30
  -6  -7   4    0.30    0.30
   6  -7  -4   -1.10    0.80
   6  -7  -4    0.30    0.30
   6   7  -3   50.59    5.10
  -6   7   3   52.39    2.10
   6   7  -3   53.29    4.40
  -6   7   3   52.19    4.60
  -6   7   3   51.49    2.10
   6   7  -3   52.19    2.10
  -6  -7   3   52.79    2.30
   6  -7  -3   47.70    5.20
   6  -7  -3   53.09    2.50
  -6  -7   3   53.19    2.30
  -6  -7   3   54.79    2.30
  -6  -7   3   53.39    2.40
   6  -7  -3   53.89    2.50
   6  -7  -3   51.39    2.30
  -6  -7   3   53.59    2.30
   6   7  -2   13.40    2.50
  -6   7   2   13.10    0.70
  -6   7   2   14.50    0.80
  -6   7   2   12.90    2.50
   6   7  -2   15.90    1.00
   6   7  -2   16.40    2.20
   6   7  -2   15.50    0.80
   6  -7  -2   13.20    3.30
  -6  -7   2   16.20    1.00
  -6  -7   2   14.60    1.00
   6  -7  -2   13.30    0.90
  -6  -7   2   16.20    1.10
  -6  -7   2   15.70    1.00
   6  -7  -2   12.90    1.00
   6  -7  -2   13.90    1.10
   6   7  -1   40.90    1.80
  -6   7   1   43.50    1.70
   6   7  -1   44.50    3.40
  -6   7   1   41.60    4.30
   6   7  -1   39.90    3.90
   6  -7  -1   42.50    1.90
  -6  -7   1   39.90    2.00
   6  -7  -1   42.00    4.70
   6  -7  -1   41.70    2.00
  -6  -7   1   40.20    1.90
   6  -7  -1   42.80    1.80
  -6  -7   1   37.10    1.80
  -6  -7   1   39.20    2.00
   6  -7  -1   39.90    2.00
   6   7   0   17.90    1.00
   6   7   0   17.80    1.90
   6   7   0   18.10    2.10
  -6   7   0   14.40    2.80
  -6   7   0   16.20    0.90
   6   7   0   18.10    1.00
  -6  -7   0   17.30    1.10
   6  -7   0   17.60    1.20
  -6  -7   0   18.10    1.10
  -6  -7   0   16.90    1.10
   6  -7   0   17.10    3.10
   6  -7   0   16.40    1.00
   6  -7   0   17.10    1.00
  -6   7  -1   28.80    3.90
  -6   7  -1   31.20    1.40
   6   7   1   30.30    1.40
  -6   7  -1   30.90    1.30
   6   7   1   30.70    1.50
   6  -7   1   31.90    1.50
  -6  -7  -1   32.40    1.60
   6  -7   1   32.50    1.60
  -6  -7  -1   28.80    1.50
   6  -7   1   30.70    1.70
  -6  -7  -1   30.20    1.70
   6   7   2    0.40    0.20
   6   7   2    0.40    0.20
  -6   7  -2    0.30    0.20
  -6   7  -2   -0.20    0.60
  -6   7  -2    0.10    0.10
  -6   7  -2   -0.20    1.20
   6  -7   2    0.40    0.20
   6  -7   2    0.40    0.30
  -6  -7  -2    0.50    0.30
  -6  -7  -2    0.30    0.30
   6  -7   2    0.40    0.30
  -6  -7  -2    0.80    0.30
   6   7   3   25.50    1.30
  -6   7  -3   29.10    1.40
  -6   7  -3   24.60    1.20
  -6   7  -3   26.70    3.30
  -6  -7  -3   25.40    1.40
   6  -7   3   24.20    1.40
  -6  -7  -3   24.70    1.40
   6  -7   3   24.50    1.40
   6  -7   3   25.00    1.30
   6  -7   3   24.10    1.30
  -6  -7  -3   26.60    1.50
   6   7   4    0.30    0.20
   6   7   4    0.10    0.30
  -6   7  -4    0.30    0.20
  -6   7  -4    0.80    0.30
  -6  -7  -4    0.10    0.30
   6  -7   4    0.50    0.30
   6  -7   4    0.90    0.30
   6  -7   4    0.40    0.30
  -6  -7  -4    0.50    0.40
  -6   7  -5    8.10    0.60
   6   7   5    8.10    0.60
  -6   7  -5    7.80    0.60
   6   7   5    8.60    0.80
   6  -7   5    8.30    0.80
  -6  -7  -5    7.80    0.80
   6  -7   5    7.90    0.70
  -6  -7  -5    8.00    0.80
   6  -7   5    8.30    0.80
   6   7   6    1.60    0.30
  -6   7  -6    2.90    0.40
   6   7   6    1.80    0.40
   6  -7   6    2.70    0.50
  -6  -7  -6    2.40    0.50
   6  -7   6    2.70    0.50
   6  -7   6    2.80    0.60
  -6  -7  -6    2.40    0.60
  -6   8   6   14.40    0.90
   6   8  -6   10.10    3.00
   6   8  -6   15.80    0.90
   6  -8  -6   13.90    1.10
  -6  -8   6   15.60    1.10
  -6  -8   6   14.20    1.00
   6  -8  -6   12.40    1.00
  -6  -8   6   15.50    1.10
   6  -8  -6   14.00    1.20
  -6   8   5    0.40    0.20
   6   8  -5    0.50    1.50
   6   8  -5    1.40    1.20
   6   8  -5    0.50    0.20
   6   8  -5    0.40    0.30
  -6   8   5    0.00    1.10
  -6  -8   5    0.10    0.30
  -6  -8   5    0.00    0.30
   6  -8  -5    0.40    0.30
   6  -8  -5    0.40    2.00
   6  -8  -5    0.70    0.40
  -6  -8   5    0.30    0.30
   6   8  -4   22.90    1.10
   6   8  -4   23.70    1.20
  -6   8   4   24.80    1.20
   6   8  -4   17.40    2.90
   6   8  -4   17.60    3.50
  -6   8   4   19.70    3.10
   6  -8  -4   23.30    1.30
  -6  -8   4   22.60    1.40
  -6  -8   4   22.10    1.30
  -6  -8   4   22.90    1.30
   6  -8  -4   22.10    4.00
  -6  -8   4   22.30    1.40
   6  -8  -4   24.00    1.50
   6  -8  -4   24.20    1.50
   6   8  -3    0.70    1.50
   6   8  -3    2.00    0.30
  -6   8   3    1.70    0.30
   6   8  -3    1.00    1.10
  -6  -8   3    2.70    0.60
   6  -8  -3    1.00    0.50
  -6  -8   3    2.60    0.50
   6  -8  -3    2.00    0.50
  -6  -8   3    2.20    0.50
   6  -8  -3    2.00    0.60
  -6  -8   3    2.60    0.50
   6  -8  -3    1.70    1.60
  -6  -8   3    2.00    0.40
   6   8  -2   43.80    3.90
   6   8  -2   46.60    2.10
  -6   8   2   46.20    1.90
   6   8  -2   49.90    5.20
   6   8  -2   45.40    1.80
  -6   8   2   39.00    4.30
  -6  -8   2   44.10    2.20
  -6  -8   2   45.40    2.10
   6  -8  -2   49.10    5.30
   6  -8  -2   44.40    2.10
  -6  -8   2   45.70    2.10
   6  -8  -2   45.20    2.30
  -6  -8   2   48.90    2.30
   6  -8  -2   44.00    2.20
  -6   8   1    0.80    1.30
   6   8  -1    1.50    0.80
   6   8  -1    1.80    0.40
   6   8  -1    1.90    1.30
  -6   8   1    1.20    0.30
   6  -8  -1    0.90    0.40
   6  -8  -1    1.30    0.40
  -6  -8   1    1.80    0.50
  -6  -8   1    1.80    0.50
   6  -8  -1    1.00    0.50
   6  -8  -1    1.20    1.40
  -6  -8   1    1.00    0.40
   6   8   0    6.30    0.60
   6   8   0    5.80    0.60
  -6   8   0    7.20    0.60
  -6   8   0    7.90    2.80
   6  -8   0    7.30    0.60
  -6  -8   0    5.80    0.70
   6  -8   0    5.10    2.10
   6  -8   0    6.50    0.60
  -6  -8   0    6.20    0.80
   6  -8   0    6.20    0.80
  -6  -8   0    6.80    0.70
  -6   8  -1    1.10    0.90
   6   8   1    0.20    0.30
   6   8   1    0.10    0.20
  -6   8  -1    0.50    0.20
  -6   8  -1    0.10    0.20
  -6   8  -1    2.70    1.70
  -6  -8  -1   -0.10    0.20
   6  -8   1    0.10    0.20
   6  -8   1   -0.10    0.20
  -6  -8  -1    0.40    0.40
  -6  -8  -1    0.10    0.30
   6  -8   1    0.10    0.30
   6   8   2   10.80    0.80
  -6   8  -2   10.80    0.70
  -6   8  -2   10.10    2.70
  -6   8  -2   10.40    0.70
  -6   8  -2   12.20    2.30
   6  -8   2   10.90    0.90
  -6  -8  -2   10.80    0.90
  -6  -8  -2   10.80    1.00
  -6  -8  -2   10.60    0.80
   6  -8   2   10.60    0.90
   6  -8   2    9.60    0.80
   6   8   3    0.50    0.30
  -6   8  -3    0.70    0.30
  -6   8  -3   -0.30    1.00
   6  -8   3    0.70    0.40
   6  -8   3    0.50    0.30
  -6  -8  -3    0.80    0.50
   6  -8   3    0.40    0.40
  -6  -8  -3    1.00    0.40
  -6  -8  -3    1.10    0.40
  -6   8  -4    4.60    0.50
  -6   8  -4    6.50    0.50
   6   8   4    4.90    0.50
   6   8   4    3.90    0.60
  -6  -8  -4    4.50    0.70
  -6  -8  -4    4.80    0.70
   6  -8   4    5.60    0.70
   6  -8   4    5.10    0.60
  -6   8  -5    1.80    0.40
   6   8   5    1.90    0.40
  -6   8  -5    2.50    0.40
   6   8   5    2.30    0.50
   6  -8   5    3.20    0.60
  -6  -8  -5    1.00    0.50
   6  -8   5    2.50    0.50
  -6  -8  -5    2.10    0.50
   6   9  -5   23.00    1.20
  -6   9   5   20.70    1.10
   6  -9  -5   20.90    1.50
   6  -9  -5   21.90    1.30
  -6  -9   5   22.70    1.40
   6  -9  -5   17.50    1.40
  -6  -9   5   21.10    1.30
  -6  -9   5   20.40    1.30
   6   9  -4    0.30    0.20
  -6   9   4    0.20    0.20
   6   9  -4    0.30    0.20
  -6  -9   4    0.70    0.40
  -6  -9   4    0.20    0.30
  -6  -9   4    0.00    0.30
   6  -9  -4    0.40    0.40
  -6  -9   4    0.30    0.30
   6  -9  -4    0.00    0.40
   6  -9  -4    0.40    0.30
  -6   9   3    9.40    0.70
   6   9  -3    9.40    0.70
   6   9  -3   10.10    0.90
  -6   9   3    9.40    2.80
   6  -9  -3    7.80    0.80
  -6  -9   3    8.10    0.80
   6  -9  -3   10.30    3.30
  -6  -9   3    9.40    0.80
   6  -9  -3    8.30    1.00
  -6  -9   3    8.60    0.80
   6  -9  -3    8.80    0.90
  -6  -9   3   10.00    1.00
  -6   9   2    0.10    1.20
  -6   9   2    1.00    0.30
   6   9  -2    1.30    0.40
   6  -9  -2    0.70    0.40
  -6  -9   2    1.10    0.40
  -6  -9   2    0.90    0.40
  -6  -9   2    1.00    0.40
   6  -9  -2    0.60    0.30
  -6  -9   2    1.40    0.40
   6  -9  -2    1.20    1.80
   6  -9  -2    1.50    0.50
  -6   9   1   17.40    1.00
  -6   9   1   17.60    3.00
   6   9  -1   18.20    1.10
   6   9  -1   19.60    1.20
   6  -9  -1   17.90    1.30
  -6  -9   1   18.40    1.30
   6  -9  -1   18.00    1.10
  -6  -9   1   16.90    1.10
   6  -9  -1   16.50    1.20
  -6  -9   1   15.60    1.20
   6  -9  -1   14.40    3.60
  -6   9   0    2.10    0.40
  -6   9   0    1.20    1.20
  -6   9   0    1.40    1.30
   6   9   0    2.30    0.50
   6   9   0    2.40    0.50
  -6  -9   0    1.80    0.60
  -6  -9   0    2.50    0.60
   6  -9   0    2.20    0.50
  -6  -9   0    1.70    0.50
   6  -9   0    1.20    0.50
  -6   9  -1   13.20    3.30
  -6   9  -1   14.00    2.60
   6   9   1   10.50    0.80
  -6   9  -1   11.20    0.70
  -6   9  -1   11.20    0.70
   6  -9   1   11.40    0.90
  -6  -9  -1    9.70    0.90
  -6  -9  -1   10.80    1.00
  -6  -9  -1   10.60    1.00
   6  -9   1   11.00    1.10
   6  -9   1   11.50    0.90
  -6   9  -2    0.30    0.20
   6   9   2    0.40    0.30
  -6   9  -2    0.50    1.30
  -6   9  -2    0.00    0.20
   6  -9   2    0.10    0.20
  -6  -9  -2    0.30    0.40
  -6  -9  -2    0.50    0.40
   6  -9   2   -0.30    0.40
  -6  -9  -2    0.50    0.30
   6  -9   2    0.30    0.30
  -6   9  -3    4.50    0.50
   6   9   3    5.10    0.60
  -6  -9  -3    6.10    0.80
   6  -9   3    5.10    0.80
   6  -9   3    5.00    0.70
   6  -9   3    5.60    0.60
  -6  -9  -3    5.30    0.80
  -6   9  -4   -0.20    0.20
   6   9   4    0.20    0.30
  -6   9  -4    0.10    0.30
   6   9   4    0.20    0.30
   6  -9   4    0.40    0.30
  -6  -9  -4    0.70    0.40
  -6  -9  -4   -0.20    0.40
   6  -9   4    0.00    0.30
  -6  10   3    0.10    0.20
   6  10  -3    0.20    0.30
   6 -10  -3    0.00    0.40
  -6 -10   3    0.10    0.40
   6 -10  -3    0.10    0.40
  -6 -10   3    0.60    0.40
  -6 -10   3    0.40    0.30
  -6 -10   3    0.60    0.40
   6 -10  -3    0.50    0.40
  -6  10   2    7.80    0.70
   6  10  -2    7.70    0.80
   6  10  -2    7.40    0.80
  -6 -10   2    8.00    0.80
   6 -10  -2    6.90    0.90
  -6 -10   2    6.70    0.90
   6 -10  -2    7.60    0.80
  -6 -10   2    7.60    0.90
   6 -10  -2    8.00    1.00
   6  10  -1   -0.30    0.20
  -6  10   1    0.50    1.80
   6  10  -1    0.10    0.30
  -6  10   1   -0.20    0.20
  -6 -10   1   -0.10    0.30
   6 -10  -1    0.10    0.20
   6 -10  -1    0.40    0.50
  -6 -10   1   -0.10    0.30
  -6 -10   1   -0.10    0.30
   6  10   0    5.00    0.60
  -6  10   0    5.20    0.60
  -6  10   0    5.30    0.60
  -6 -10   0    5.30    0.90
   6 -10   0    4.80    0.60
   6 -10   0    3.90    0.80
  -6 -10   0    6.00    0.70
  -6 -10   0    5.70    0.80
   6  10   1   -0.10    0.20
  -6  10  -1    0.40    0.20
  -6  10  -1    0.20    0.20
   6 -10   1   -0.70    0.30
  -6 -10  -1    0.20    0.30
  -6 -10  -1    0.50    0.40
   6 -10   1    0.00    0.20
  -6 -10  -1    0.10    0.40
   7   0 -10    3.20    0.50
  -7   0  10    3.30    0.50
   7   0 -10    3.20    0.50
  -7   0  10    3.50    0.60
  -7   0  10    3.80    0.60
   7   0  -9    1.50    1.20
  -7   0   9    0.40    0.40
   7   0  -9    0.60    0.30
   7   0  -9    0.30    0.30
  -7   0   9    0.40    0.30
  -7   0   9    0.70    0.30
   7   0  -8   38.50    1.70
   7   0  -8   32.60    3.70
   7   0  -8   39.80    1.70
  -7   0   8   39.70    1.80
  -7   0   8   35.70    3.90
  -7   0   8   39.40    1.70
  -7   0   8   38.90    1.90
  -7   0   7    0.40    0.30
   7   0  -7    0.10    0.20
   7   0  -7    0.30    0.20
  -7   0   7    0.10    0.20
  -7   0   7    0.60    0.80
  -7   0   7    0.10    0.20
   7   0  -7   -1.30    0.60
   7   0  -6    9.60    0.60
   7   0  -6    9.90    0.60
  -7   0   6   10.40    0.60
  -7   0   6    9.90    0.70
  -7   0   6   10.40    1.90
   7   0  -6   10.30    1.90
  -7   0   6   10.10    0.70
   7   0  -5    1.80    0.20
  -7   0   5    1.50    0.30
  -7   0   5    1.20    0.70
  -7   0   5    1.80    0.30
  -7   0   5    1.80    0.30
   7   0  -5    2.10    1.10
   7   0  -5    2.00    0.30
  -7   0   4  388.56   15.70
   7   0  -4  376.96   13.00
   7   0  -4  380.86   15.70
  -7   0   4  380.76   13.10
   7   0  -4  375.56   13.00
   7   0  -3    1.20    0.70
  -7   0   3    0.90    0.20
  -7   0   3    1.10    0.20
  -7   0   3    1.40    0.20
   7   0  -3    1.20    0.20
   7   0  -3    0.90    0.20
   7   0  -3    1.00    0.20
  -7   0   3    0.90    0.60
  -7   0   2 1162.78   40.80
   7   0  -2 1132.09   40.70
   7   0  -1    1.80    0.20
  -7   0   1    1.50    0.60
  -7   0   1    2.30    0.20
  -7   0   1    2.20    0.20
   7   0  -1    2.00    0.20
   7   0  -1    2.20    0.30
   7   0  -1    2.10    0.80
  -7   0   1    1.80    0.20
   7   0   0 1068.89   38.10
  -7   0   0 1061.89   37.80
   7   0   1    0.00    0.10
   7   0   1   -0.10    0.10
   7   0   1    0.00    0.10
  -7   0  -1    0.10    0.30
  -7   0  -1   -0.10    0.10
  -7   0  -1    0.00    0.10
   7   0   1    0.20    0.40
  -7   0  -1    0.00    0.10
  -7   0  -2 2195.98   77.09
  -7   0  -2 2214.88   76.09
   7   0   3    0.00    0.10
   7   0   3    0.00    0.10
   7   0   3    0.10    0.10
  -7   0  -3    0.10    0.10
  -7   0  -3    0.00    0.10
  -7   0  -3   -0.10    0.30
  -7   0  -3    0.40    0.50
  -7   0  -3    0.10    0.10
  -7   0  -4   98.29    6.30
   7   0   4  103.99    3.50
  -7   0  -4  101.09    3.60
   7   0   4   99.59    3.80
   7   0   4  101.19    3.60
  -7   0  -4   96.69    5.80
   7   0   4   99.19    3.80
  -7   0  -4   98.89    3.60
  -7   0  -5    0.80    0.80
   7   0   5    0.10    0.20
   7   0   5   -0.10    0.20
  -7   0  -5    0.20    0.20
   7   0   5    0.10    0.20
  -7   0  -5    0.00    0.10
  -7   0  -5    0.80    0.90
  -7   0  -6   56.39    4.70
   7   0   6   61.29    2.60
   7   0   6   63.39    2.60
  -7   0  -6   60.19    2.40
  -7   0  -6   57.19    2.30
  -7   0  -6   57.59    2.30
  -7   0  -6   51.39    5.20
  -7   0  -7    0.10    0.20
  -7   0  -7    1.30    1.20
   7   0   7    0.10    0.30
   7   0   7    0.20    0.30
  -7   0  -7    0.90    1.60
  -7   0  -7    0.30    0.20
  -7   0  -7    0.10    0.20
  -7   0  -8    4.20    0.50
   7   0   8    3.70    0.60
   7   0   8    4.20    0.60
  -7   0  -8    3.90    0.50
  -7   0  -8    4.40    2.10
  -7   1  10    0.10    0.20
  -7   1  10    0.60    0.30
   7   1 -10    0.80    0.30
  -7   1  10    0.20    0.40
   7   1 -10    1.10    0.40
  -7  -1  10    0.50    0.40
  -7  -1  10    0.60    0.30
   7  -1 -10    0.50    0.30
  -7  -1  10    0.80    0.30
   7  -1 -10    0.50    0.30
  -7   1   9   19.60    1.20
   7   1  -9   18.80    1.00
   7   1  -9   17.50    1.00
  -7   1   9   19.30    1.20
   7   1  -9   14.80    3.10
  -7   1   9   16.90    1.00
   7  -1  -9   17.30    1.00
   7  -1  -9   19.70    3.40
  -7  -1   9   18.10    1.10
   7  -1  -9   17.80    1.10
  -7  -1   9   19.80    1.30
  -7  -1   9   19.90    1.20
   7   1  -8    0.70    0.30
   7   1  -8    0.90    0.30
   7   1  -8    0.00    1.00
  -7   1   8    0.80    0.30
  -7   1   8    0.00    0.90
  -7   1   8    1.30    0.40
  -7   1   8    0.70    0.30
   7  -1  -8    0.80    0.30
  -7  -1   8    0.90    0.30
  -7  -1   8    1.00    0.40
   7  -1  -8    1.00    0.30
  -7  -1   8    1.60    0.90
   7  -1  -8   -0.50    1.00
  -7  -1   8    1.20    0.40
   7   1  -7   23.00    1.10
   7   1  -7   23.70    1.10
  -7   1   7   24.70    1.10
  -7   1   7   24.40    1.20
   7   1  -7   20.40    2.90
  -7   1   7   23.90    2.90
  -7   1   7   24.90    1.30
  -7  -1   7   23.50    1.10
  -7  -1   7   23.50    1.30
   7  -1  -7   22.90    3.00
   7  -1  -7   26.20    1.20
  -7  -1   7   21.50    2.80
  -7  -1   7   23.60    1.30
   7  -1  -7   23.30    1.20
  -7   1   6    8.10    1.70
  -7   1   6    8.00    0.50
  -7   1   6    7.60    0.50
   7   1  -6    7.40    2.00
  -7   1   6    7.50    0.40
  -7   1   6    8.00    0.60
   7   1  -6    6.40    0.40
   7   1  -6    6.00    0.50
   7  -1  -6    6.70    0.50
  -7  -1   6    5.60    0.60
  -7  -1   6    6.60    0.50
  -7  -1   6    7.00    0.60
   7  -1  -6    7.60    1.90
  -7  -1   6    6.00    1.70
   7  -1  -6    7.20    0.50
   7   1  -5   54.09    2.10
   7   1  -5   55.69    2.00
   7   1  -5   54.89    4.10
  -7   1   5   50.89    2.20
  -7   1   5   54.39    2.10
  -7   1   5   50.09    4.00
  -7   1   5   53.39    2.00
  -7  -1   5   54.29    2.20
  -7  -1   5   54.29    2.20
   7  -1  -5   53.39    2.10
  -7  -1   5   54.49    2.10
   7  -1  -5   54.39    2.10
   7  -1  -5   51.39    2.10
  -7  -1   5   58.09    4.20
   7  -1  -5   51.09    4.10
   7   1  -4  102.69    5.90
  -7   1   4   99.39    3.70
  -7   1   4  101.19    3.80
  -7   1   4  104.89    6.00
   7   1  -4  110.99    3.80
   7   1  -4  109.99    3.70
  -7   1   4   98.59    3.90
   7  -1  -4  103.99    3.80
   7  -1  -4  101.09    5.90
   7  -1  -4  103.99    3.80
  -7  -1   4  110.89    3.70
   7  -1  -4  103.09    3.80
  -7  -1   4  112.69    3.90
  -7  -1   4  113.29    3.90
  -7  -1   4  111.79    6.00
  -7  -1   4  110.59    3.80
  -7   1   3  301.47   10.40
  -7   1   3  300.97   10.50
   7   1  -3  299.67   10.50
   7   1  -3  310.87   10.30
   7   1  -3  305.37   10.40
   7   1  -3  306.77   12.60
  -7   1   3  300.77   12.70
   7  -1  -3  306.47   10.50
   7  -1  -3  320.67   12.90
  -7  -1   3  305.17   12.60
  -7  -1   3  298.47   10.50
   7  -1  -3  300.37   10.50
   7  -1  -3  303.27   10.50
  -7   1   2   47.20    1.70
  -7   1   2   47.00    3.30
   7   1  -2   45.60    1.80
   7   1  -2   46.10    3.10
   7   1  -2   42.80    1.70
  -7   1   2   48.00    1.70
  -7   1   2   50.39    1.80
   7  -1  -2   49.50    3.40
  -7  -1   2   45.30    1.80
  -7  -1   2   42.90    1.80
   7  -1  -2   49.90    1.80
   7  -1  -2   50.29    1.80
   7  -1  -2   48.90    1.80
  -7  -1   2   46.50    3.10
  -7  -1   2   44.50    1.70
   7   1  -1 2443.06   83.09
  -7   1   1 2406.86   83.89
  -7   1   0  197.28    9.80
   7   1   0  238.48    9.40
   7   1   0  248.78    7.90
   7  -1   0  223.78    8.00
   7  -1   0  222.58   10.40
  -7  -1   0  244.78    9.10
   7  -1   0  234.18    8.00
   7   1   1  492.95   18.30
  -7   1  -1  487.65   19.50
  -7  -1  -1  508.15   18.20
   7  -1   1  491.75   19.60
   7   1   2  284.57    9.60
   7   1   2  274.47    9.40
  -7   1  -2  266.77   12.40
  -7   1  -2  279.97   11.60
  -7  -1  -2  272.57    9.50
  -7  -1  -2  262.97   11.20
  -7  -1  -2  281.77   10.80
   7  -1   2  279.47    9.50
   7  -1   2  273.87    9.50
   7   1   3  358.06   12.30
  -7   1  -3  353.56   15.60
   7   1   3  352.36   12.10
  -7   1  -3  367.26   14.70
  -7  -1  -3  347.37   12.20
   7  -1   3  347.77   12.20
   7  -1   3  349.27   12.20
  -7  -1  -3  341.97   12.10
  -7  -1  -3  351.96   12.10
  -7  -1  -3  366.76   14.00
  -7  -1  -3  367.26   14.70
  -7   1  -4   15.50    2.40
   7   1   4   14.90    0.80
  -7   1  -4   14.20    0.70
  -7   1  -4   13.60    0.70
   7   1   4   15.60    0.90
  -7   1  -4   11.90    1.80
   7   1   4   14.40    0.60
  -7  -1  -4   14.10    0.70
   7  -1   4   12.00    0.80
  -7  -1  -4   14.80    1.80
   7  -1   4   12.80    0.70
  -7  -1  -4   14.70    0.80
  -7  -1  -4   13.10    2.00
   7  -1   4   13.30    0.80
  -7   1  -5   14.10    0.70
  -7   1  -5   12.60    2.00
  -7   1  -5   15.70    2.60
   7   1   5   14.70    0.70
  -7   1  -5   14.00    0.70
   7   1   5   14.90    0.90
   7   1   5   15.40    0.90
  -7  -1  -5   13.20    2.00
   7  -1   5   13.10    0.90
   7  -1   5   14.10    0.90
   7  -1   5   13.60    0.80
  -7  -1  -5   13.80    0.80
  -7  -1  -5   14.00    0.80
  -7  -1  -5   13.90    0.70
  -7  -1  -5   17.30    2.50
  -7   1  -6   28.20    1.30
   7   1   6   26.10    1.40
  -7   1  -6   25.20    3.70
   7   1   6   26.50    1.40
   7   1   6   27.70    1.20
  -7   1  -6   28.80    3.30
  -7   1  -6   27.20    1.30
  -7  -1  -6   28.60    3.80
  -7  -1  -6   27.30    1.40
  -7  -1  -6   27.40    1.30
   7  -1   6   28.60    1.50
  -7  -1  -6   30.60    3.20
  -7  -1  -6   27.60    1.20
   7  -1   6   30.20    1.30
   7  -1   6   30.30    1.50
  -7   1  -7   17.30    1.00
  -7   1  -7   18.20    2.80
  -7   1  -7   16.50    0.90
  -7   1  -7   16.30    0.90
   7   1   7   16.90    1.10
   7   1   7   16.80    1.10
  -7  -1  -7   16.80    1.10
  -7  -1  -7   17.60    0.90
   7  -1   7   17.70    1.10
  -7  -1  -7   15.80    0.90
  -7  -1  -7   15.30    2.60
   7  -1   7   18.00    1.10
   7   1   8    2.70    0.50
   7   1   8    2.40    0.50
  -7   1  -8    2.20    0.40
  -7   1  -8    2.20    0.40
  -7   1  -8    4.70    1.80
  -7   1  -8    2.00    1.80
   7  -1   8    1.50    0.40
   7  -1   8    1.90    0.50
  -7  -1  -8    1.70    0.40
  -7  -1  -8    2.30    0.40
   7   2 -10   11.70    0.80
  -7   2  10   10.50    0.80
   7   2 -10   11.10    0.80
  -7   2  10   11.90    1.00
  -7  -2  10   10.60    0.90
  -7  -2  10   11.30    1.00
   7  -2 -10   10.80    0.80
   7  -2 -10   11.00    0.90
  -7  -2  10   10.70    0.90
   7   2  -9    0.60    0.30
   7   2  -9    0.20    0.30
  -7   2   9    0.60    0.40
  -7   2   9    0.60    0.30
  -7  -2   9    0.10    0.20
   7  -2  -9    0.30    0.30
   7  -2  -9    0.60    0.30
  -7  -2   9    0.40    0.30
  -7  -2   9    0.20    0.30
   7  -2  -9    0.20    0.30
   7  -2  -9    0.60    1.40
   7   2  -8    0.70    0.90
  -7   2   8    2.50    0.50
   7   2  -8    2.00    0.40
  -7   2   8    2.30    0.40
   7   2  -8    2.10    0.40
  -7   2   8    1.30    1.30
  -7  -2   8    2.30    0.40
  -7  -2   8    2.40    0.50
   7  -2  -8    1.80    1.00
  -7  -2   8    2.00    0.50
   7  -2  -8    2.80    0.40
  -7  -2   8    0.90    1.20
   7  -2  -8    2.40    0.50
   7  -2  -8    2.50    0.40
  -7   2   7    2.60    0.50
  -7   2   7    3.20    0.30
  -7   2   7    1.40    1.00
   7   2  -7    2.80    0.40
  -7   2   7    2.60    0.40
   7   2  -7    1.40    1.20
   7   2  -7    2.50    0.30
  -7  -2   7    2.20    1.20
  -7  -2   7    3.60    0.50
   7  -2  -7    2.90    0.40
   7  -2  -7    2.60    0.40
  -7  -2   7    2.80    0.40
   7  -2  -7    3.20    1.40
   7  -2  -7    2.60    0.40
  -7  -2   7    3.50    0.50
  -7   2   6  136.29    5.00
   7   2  -6  126.49    7.60
   7   2  -6  139.69    4.80
  -7   2   6  135.19    4.70
  -7   2   6  134.99    7.80
   7   2  -6  129.09    4.80
  -7   2   6  135.79    4.80
   7  -2  -6  127.69    4.80
   7  -2  -6  131.99    7.70
  -7  -2   6  131.59    7.70
  -7  -2   6  135.59    4.90
   7  -2  -6  138.29    4.90
   7  -2  -6  138.79    4.90
  -7  -2   6  136.59    5.00
  -7  -2   6  135.69    5.00
   7   2  -5    1.70    0.20
   7   2  -5    1.60    0.30
  -7   2   5    0.90    0.30
  -7   2   5    1.40    0.90
  -7   2   5    1.00    0.20
   7   2  -5    1.70    0.80
  -7   2   5    0.80    0.20
  -7  -2   5    1.40    0.30
   7  -2  -5   -0.20    0.60
   7  -2  -5    0.70    0.20
  -7  -2   5    1.60    0.90
  -7  -2   5    1.70    0.40
   7  -2  -5    1.00    0.20
   7  -2  -5    1.10    0.20
  -7  -2   5    1.60    0.30
  -7   2   4   16.70    0.70
  -7   2   4   16.50    0.80
   7   2  -4   18.30    2.20
  -7   2   4   16.80    2.10
  -7   2   4   15.10    0.80
   7   2  -4   16.90    0.70
   7   2  -4   16.90    0.80
   7  -2  -4   15.50    0.80
  -7  -2   4   17.70    0.80
  -7  -2   4   16.10    2.00
   7  -2  -4   15.50    2.10
  -7  -2   4   17.30    0.90
   7  -2  -4   15.80    0.80
   7  -2  -4   16.50    0.80
  -7  -2   4   16.80    0.90
   7   2  -3  101.39    3.50
  -7   2   3   96.59    3.50
  -7   2   3   92.99    3.50
  -7   2   3   93.19    5.60
  -7   2   3   93.19    3.50
   7   2  -3  102.99    5.50
   7  -2  -3   98.39    3.50
   7  -2  -3   93.89    3.50
   7  -2  -3   94.49    3.60
  -7  -2   3  104.59    5.50
  -7  -2   3  102.89    3.50
  -7  -2   3  102.69    3.60
   7  -2  -3   90.99    5.60
  -7  -2   3  101.39    3.60
  -7  -2   3  101.79    3.60
   7   2  -2 1761.02   61.69
  -7   2   2 1804.32   62.79
  -7  -2   2 1749.22   61.69
   7  -2  -2 1798.32   62.99
  -7   2   1   25.70    1.00
   7   2  -1   22.80    0.90
   7   2  -1   24.10    1.80
  -7   2   1   25.60    1.00
  -7   2   1   24.50    2.40
   7   2  -1   22.50    1.10
  -7  -2   1   22.20    1.10
   7  -2  -1   27.10    1.10
  -7  -2   1   21.40    1.00
   7  -2  -1   26.30    1.10
  -7  -2   1   23.50    1.80
  -7  -2   1   22.40    1.00
   7  -2  -1   31.70    3.00
  -7   2   0  261.27   11.70
   7   2   0  269.77   10.00
   7  -2   0  263.17    9.10
   7  -2   0  267.47    9.10
  -7  -2   0  249.48    9.10
   7  -2   0  257.27    9.10
  -7  -2   0  266.67    9.70
   7  -2   0  261.37   11.90
  -7  -2   0  260.37    8.90
  -7  -2   0  262.97    9.10
   7   2   1   69.09    2.50
  -7   2  -1   69.49    4.80
  -7   2  -1   65.99    2.30
  -7   2  -1   66.29    2.40
   7   2   1   67.89    2.50
   7  -2   1   60.79    2.50
  -7  -2  -1   68.59    2.50
   7  -2   1   67.59    2.40
   7  -2   1   64.69    4.70
  -7  -2  -1   68.19    2.50
  -7  -2  -1   67.89    2.40
   7  -2   1   66.39    2.50
   7  -2   1   64.49    2.60
  -7   2  -2 2065.29   75.19
  -7  -2  -2 2136.79   72.19
  -7  -2  -2 2158.78   72.49
  -7   2  -3  103.29    6.70
   7   2   3   98.19    3.70
  -7   2  -3  102.19    5.90
  -7   2  -3  100.09    3.60
   7   2   3  101.09    3.70
  -7   2  -3  101.59    3.60
  -7  -2  -3   99.89    4.80
  -7  -2  -3  105.49    5.30
  -7  -2  -3   95.79    3.50
  -7  -2  -3  100.69    3.70
  -7  -2  -3   97.59    3.70
   7  -2   3  104.19    3.80
   7  -2   3  103.59    3.70
   7  -2   3   99.99    3.70
  -7  -2  -3   98.09    3.60
  -7   2  -4   34.70    1.40
  -7   2  -4   35.10    3.80
  -7   2  -4   34.40    1.40
  -7   2  -4   32.30    3.20
   7   2   4   34.30    1.60
   7   2   4   33.70    1.50
  -7  -2  -4   33.90    1.30
   7  -2   4   34.80    1.50
  -7  -2  -4   36.80    1.50
  -7  -2  -4   35.40    3.10
  -7  -2  -4   34.20    1.50
  -7  -2  -4   33.50    2.70
   7  -2   4   35.70    1.60
   7  -2   4   34.10    1.50
  -7   2  -5   11.40    2.00
  -7   2  -5    5.30    1.90
  -7   2  -5   10.60    0.60
   7   2   5   10.30    0.70
   7   2   5   11.00    0.60
   7   2   5   10.90    0.80
  -7   2  -5    9.80    0.60
   7  -2   5   10.10    0.70
  -7  -2  -5    9.50    2.20
  -7  -2  -5   11.30    0.60
   7  -2   5    9.70    0.80
  -7  -2  -5   10.90    0.70
   7  -2   5   10.70    0.70
  -7  -2  -5   10.10    0.60
  -7  -2  -5   10.30    1.70
  -7   2  -6   54.79    4.70
   7   2   6   50.39    2.00
  -7   2  -6   53.89    2.10
   7   2   6   50.59    2.20
  -7   2  -6   51.19    5.20
   7   2   6   52.09    2.30
  -7   2  -6   51.39    2.00
  -7  -2  -6   47.70    4.20
   7  -2   6   53.49    2.30
   7  -2   6   51.89    2.30
  -7  -2  -6   49.60    2.10
   7  -2   6   50.79    2.10
  -7  -2  -6   50.19    2.20
  -7  -2  -6   51.99    2.00
   7   2   7    2.10    0.30
  -7   2  -7    1.90    1.30
  -7   2  -7    2.70    1.90
  -7   2  -7    1.80    0.30
   7   2   7    1.60    0.40
   7   2   7    2.30    0.50
   7  -2   7    3.00    0.50
  -7  -2  -7    2.00    0.40
  -7  -2  -7    1.90    0.40
   7  -2   7    2.30    0.50
  -7  -2  -7    2.50    0.40
  -7   2  -8    3.70    1.60
  -7   2  -8    2.10    0.40
   7   2   8    1.80    0.50
   7   2   8    2.10    0.50
  -7   2  -8    2.00    0.40
  -7  -2  -8    2.90    0.60
  -7  -2  -8    2.00    0.50
   7  -2   8    1.90    0.50
  -7  -2  -8    1.90    0.40
   7  -2   8    1.70    0.50
   7   3  -9    7.50    0.70
   7   3  -9    7.20    0.60
  -7   3   9    8.60    0.80
  -7   3   9    8.10    0.60
   7  -3  -9    8.60    0.70
  -7  -3   9    8.20    0.80
   7  -3  -9    7.20    2.50
   7  -3  -9    8.90    0.80
  -7  -3   9    8.90    0.80
  -7  -3   9    8.30    0.70
  -7   3   8    1.50    1.10
  -7   3   8    3.20    0.60
   7   3  -8    3.10    1.40
  -7   3   8    2.10    0.40
   7   3  -8    2.30    0.40
   7   3  -8    2.90    0.40
   7  -3  -8    2.30    0.50
   7  -3  -8    1.60    1.40
  -7  -3   8    1.90    0.40
  -7  -3   8    1.70    0.50
  -7  -3   8    2.20    0.40
  -7  -3   8    1.00    1.10
   7  -3  -8    2.40    0.40
   7   3  -7   48.70    2.00
   7   3  -7   47.70    1.90
  -7   3   7   49.50    1.90
   7   3  -7   42.80    4.10
  -7   3   7   47.40    2.10
  -7   3   7   46.70    1.90
  -7   3   7   43.60    4.20
   7  -3  -7   47.80    1.90
  -7  -3   7   49.60    4.40
   7  -3  -7   48.10    2.00
  -7  -3   7   50.99    2.20
  -7  -3   7   41.70    2.00
   7  -3  -7   48.70    2.10
   7  -3  -7   48.30    4.60
  -7   3   6   18.80    2.60
  -7   3   6   16.70    0.90
   7   3  -6   20.10    2.60
   7   3  -6   19.30    0.80
  -7   3   6   16.20    1.00
   7   3  -6   18.80    0.90
  -7   3   6   17.10    0.90
  -7  -3   6   20.70    1.10
   7  -3  -6   17.30    1.00
   7  -3  -6   17.50    2.60
   7  -3  -6   17.20    0.90
  -7  -3   6   19.50    1.00
  -7  -3   6   17.90    2.60
   7  -3  -6   18.40    1.00
  -7  -3   6   21.10    1.10
  -7   3   5   53.69    2.20
   7   3  -5   55.89    4.30
   7   3  -5   53.29    2.00
  -7   3   5   55.09    2.10
  -7   3   5   58.59    4.40
   7   3  -5   53.09    2.10
  -7  -3   5   52.89    2.30
  -7  -3   5   52.69    4.20
   7  -3  -5   53.29    2.00
  -7  -3   5   53.19    2.20
   7  -3  -5   57.49    4.50
  -7  -3   5   52.99    2.30
   7  -3  -5   54.09    2.10
   7  -3  -5   55.09    2.30
   7   3  -4    1.40    0.20
  -7   3   4    1.00    0.20
  -7   3   4    1.40    0.30
   7   3  -4    1.40    0.90
   7  -3  -4    0.40    0.60
  -7  -3   4    2.10    0.30
   7  -3  -4    1.10    0.20
  -7  -3   4    1.90    0.20
  -7  -3   4    2.00    0.30
  -7  -3   4    1.70    0.30
   7  -3  -4    0.90    0.30
  -7  -3   4    1.50    0.80
   7  -3  -4    0.70    0.20
   7   3  -3  221.28    9.70
   7   3  -3  210.08    7.40
  -7   3   3  213.58    7.40
  -7   3   3  219.88    7.40
  -7   3   3  219.78   10.20
  -7  -3   3  216.08    9.60
  -7  -3   3  214.08    7.40
  -7  -3   3  214.28    7.50
   7  -3  -3  209.58    7.40
  -7  -3   3  203.88    7.50
   7  -3  -3  212.48    7.60
   7  -3  -3  215.78    7.50
   7  -3  -3  216.88   10.50
   7   3  -2  343.77   11.80
  -7   3   2  318.07   11.50
   7   3  -2  349.96   11.60
   7   3  -2  356.76   13.60
  -7   3   2  338.27   14.60
  -7  -3   2  340.77   11.70
   7  -3  -2  335.77   11.80
   7  -3  -2  343.17   15.30
   7  -3  -2  332.07   11.80
  -7  -3   2  346.67   13.50
   7  -3  -2  341.77   11.60
   7   3  -1  849.02   29.80
  -7   3   1  858.71   31.80
   7  -3  -1  838.62   32.40
  -7  -3   1  847.72   29.70
  -7  -3   1  820.02   28.40
  -7   3   0   90.69    5.80
  -7   3   0   80.79    2.80
  -7   3   0   79.99    2.90
   7   3   0   79.29    3.00
  -7  -3   0   78.39    3.00
  -7  -3   0   77.09    3.00
   7  -3   0   83.99    3.00
   7  -3   0   83.49    3.10
   7  -3   0   81.39    3.00
   7  -3   0   85.09    5.70
  -7  -3   0   73.59    3.00
  -7  -3   0   75.29    2.80
  -7   3  -1  277.67    9.70
  -7   3  -1  286.37   13.30
   7  -3   1  283.67    9.80
   7  -3   1  287.27   10.00
  -7  -3  -1  293.47   10.00
   7  -3   1  295.97   10.00
  -7  -3  -1  282.07    9.80
   7  -3   1  289.87   10.00
  -7  -3  -1  279.27    9.90
   7  -3   1  292.37   13.50
  -7   3  -2    7.90    0.50
   7   3   2    9.20    0.60
  -7   3  -2    9.60    1.90
   7   3   2    8.80    0.60
   7  -3   2    9.00    0.60
  -7  -3  -2    9.00    0.50
  -7  -3  -2    8.80    0.60
   7  -3   2    9.40    0.50
  -7  -3  -2    9.40    0.60
   7  -3   2    8.30    0.60
   7  -3   2    8.90    0.70
   7   3   3  187.58    6.80
  -7   3  -3  192.78    6.70
  -7   3  -3  187.58    6.60
  -7   3  -3  195.58    9.50
   7   3   3  200.38    6.80
  -7   3  -3  190.68   10.50
  -7  -3  -3  197.08    6.80
   7  -3   3  181.68    6.80
   7  -3   3  189.38    6.70
  -7  -3  -3  191.18    6.80
  -7  -3  -3  187.18    6.70
  -7   3  -4   87.39    5.90
  -7   3  -4   88.59    3.30
   7   3   4   86.79    3.40
  -7   3  -4   96.09    7.00
   7   3   4   87.19    3.50
  -7   3  -4   91.79    3.30
  -7  -3  -4   91.79    3.40
   7  -3   4   89.89    3.40
   7  -3   4   94.49    3.40
  -7  -3  -4   87.49    5.00
  -7  -3  -4   87.59    3.40
   7  -3   4   91.19    3.60
  -7  -3  -4   89.19    4.60
   7   3   5   39.10    1.80
  -7   3  -5   44.70    4.00
   7   3   5   40.80    1.70
  -7   3  -5   40.90    1.60
  -7   3  -5   33.80    4.20
  -7   3  -5   41.40    1.70
   7   3   5   38.90    1.80
  -7  -3  -5   36.70    3.10
   7  -3   5   42.50    1.80
  -7  -3  -5   42.10    3.70
  -7  -3  -5   40.50    1.80
   7  -3   5   42.00    1.80
  -7  -3  -5   40.70    1.70
  -7  -3  -5   40.30    1.60
   7  -3   5   41.80    1.90
   7   3   6    2.20    0.40
   7   3   6    2.20    0.40
  -7   3  -6    1.30    0.90
  -7   3  -6    1.80    0.30
  -7   3  -6    1.50    0.30
   7   3   6    1.80    0.30
  -7   3  -6    2.40    1.60
   7  -3   6    2.40    0.50
   7  -3   6    1.80    0.40
  -7  -3  -6    2.10    0.40
  -7  -3  -6    1.90    0.30
   7  -3   6    2.00    0.40
  -7  -3  -6    1.70    0.40
  -7   3  -7   18.90    3.30
  -7   3  -7   21.50    1.10
   7   3   7   22.80    1.30
   7   3   7   22.00    1.10
  -7   3  -7   15.50    3.20
   7   3   7   21.60    1.30
  -7  -3  -7   22.30    1.20
   7  -3   7   20.20    1.30
   7  -3   7   20.50    1.10
  -7  -3  -7   21.30    1.30
   7  -3   7   20.00    1.30
  -7   3  -8    0.60    0.30
   7   3   8    0.30    0.30
   7   3   8    0.20    0.20
  -7   3  -8    0.10    0.20
   7   3   8    0.40    0.40
  -7  -3  -8    0.10    0.30
   7  -3   8    0.20    0.30
  -7  -3  -8    0.30    0.30
   7  -3   8    0.40    0.30
   7   4  -9    2.90    0.50
   7   4  -9    2.90    0.50
  -7   4   9    2.60    0.40
  -7   4   9    3.00    0.60
  -7  -4   9    2.20    0.50
   7  -4  -9    2.10    0.50
  -7  -4   9    1.70    0.50
   7  -4  -9    2.60    0.50
  -7  -4   9    2.20    0.50
  -7   4   8   13.10    0.80
   7   4  -8   12.20    0.80
  -7   4   8   11.70    0.90
   7   4  -8   13.70    0.80
   7   4  -8    8.60    2.30
  -7   4   8   13.80    2.60
  -7   4   8   13.40    0.80
   7  -4  -8    8.70    2.60
   7  -4  -8   14.10    0.90
  -7  -4   8   13.00    0.90
  -7  -4   8   13.50    1.00
  -7  -4   8   12.80    1.00
   7  -4  -8   13.10    1.00
  -7   4   7    2.20    0.50
   7   4  -7    2.60    0.30
   7   4  -7    3.10    0.40
  -7   4   7    2.30    1.20
   7   4  -7    4.10    1.60
  -7   4   7    2.50    0.40
  -7  -4   7    3.20    0.50
   7  -4  -7    2.00    1.40
   7  -4  -7    2.60    0.40
  -7  -4   7    3.60    1.50
  -7  -4   7    3.30    0.40
   7  -4  -7    2.20    0.50
  -7  -4   7    3.00    0.50
  -7   4   6   23.50    2.90
  -7   4   6   21.20    1.10
   7   4  -6   21.70    2.90
   7   4  -6   23.00    1.10
  -7   4   6   20.60    1.20
   7   4  -6   21.70    0.90
  -7  -4   6   21.70    1.20
   7  -4  -6   21.60    1.20
  -7  -4   6   21.10    2.80
  -7  -4   6   23.20    1.10
  -7  -4   6   22.80    1.20
   7  -4  -6   21.80    1.10
   7  -4  -6   19.00    2.90
   7  -4  -6   21.20    1.20
  -7   4   5    0.60    0.20
   7   4  -5    0.50    0.20
  -7   4   5    2.10    1.10
  -7   4   5    0.70    0.20
   7   4  -5    0.60    0.70
   7   4  -5    0.60    0.10
  -7  -4   5    0.30    0.60
   7  -4  -5    0.60    0.30
  -7  -4   5    1.00    0.30
   7  -4  -5    0.10    0.80
  -7  -4   5    1.10    0.30
  -7  -4   5    1.10    0.30
   7  -4  -5    1.00    0.30
   7  -4  -5    0.40    0.30
   7   4  -4  180.08    6.20
  -7   4   4  182.28    9.40
   7   4  -4  174.18    6.40
  -7   4   4  182.68    6.40
   7   4  -4  177.88    9.00
  -7   4   4  186.88    6.40
   7  -4  -4  185.78    6.60
  -7  -4   4  185.18    6.50
   7  -4  -4  190.18    6.50
  -7  -4   4  179.28    6.60
  -7  -4   4  174.68    6.50
   7  -4  -4  185.48    9.90
   7  -4  -4  186.48    6.70
  -7  -4   4  178.78    6.50
  -7  -4   4  187.08    9.20
  -7   4   3  129.59    4.70
  -7   4   3  136.79    4.80
   7   4  -3  143.09    7.10
   7   4  -3  133.39    4.60
   7   4  -3  139.69    4.80
  -7   4   3  134.29    7.40
   7  -4  -3  113.79    4.90
  -7  -4   3  143.69    4.90
  -7  -4   3  145.09    7.10
   7  -4  -3  128.49    5.00
   7  -4  -3  137.09    4.90
  -7  -4   3  137.69    5.00
  -7  -4   3  134.09    4.90
  -7  -4   3  133.49    4.90
   7  -4  -3  130.29    8.10
   7   4  -2  123.59    6.20
  -7   4   2  125.29    4.50
  -7   4   2  124.29    7.20
   7   4  -2  136.39    4.70
   7   4  -2  122.69    4.40
   7  -4  -2  124.49    4.80
  -7  -4   2  131.19    6.30
   7  -4  -2  124.09    4.50
   7  -4  -2  131.49    7.90
   7  -4  -2  126.79    4.60
  -7  -4   2  127.99    4.70
  -7  -4   2  126.99    4.70
  -7  -4   2  128.29    4.60
  -7  -4   2  126.39    4.50
   7   4  -1    3.60    0.40
  -7   4   1    4.30    0.30
  -7   4   1    7.70    2.10
  -7   4   1    4.20    0.30
   7   4  -1    4.90    1.00
   7   4  -1    3.40    0.20
   7  -4  -1    4.70    0.50
   7  -4  -1    3.90    0.30
  -7  -4   1    2.60    0.70
   7  -4  -1    4.90    1.80
  -7  -4   1    2.90    0.40
  -7  -4   1    3.00    0.30
   7  -4  -1    4.60    0.40
  -7  -4   1    3.40    0.40
  -7  -4   1    2.70    0.40
  -7   4   0  442.56   19.00
   7  -4   0  454.35   19.30
   7  -4   0  444.26   15.20
   7  -4   0  450.65   15.30
  -7  -4   0  417.26   15.10
  -7  -4   0  433.56   15.00
   7   4   1   12.20    0.70
   7   4   1   11.70    0.70
  -7   4  -1   10.60    2.00
  -7   4  -1   10.00    0.50
  -7  -4  -1   11.50    0.70
   7  -4   1    8.80    0.60
   7  -4   1    8.60    0.70
   7  -4   1    9.80    0.50
   7  -4   1   10.70    2.10
  -7  -4  -1   11.60    0.70
  -7  -4  -1   11.10    0.60
   7  -4   1    9.10    0.60
   7   4   2  282.87    9.80
   7   4   2  285.27    9.70
  -7   4  -2  280.07    9.60
  -7   4  -2  263.37   13.60
  -7  -4  -2  285.67    9.80
  -7  -4  -2  286.67    9.80
   7  -4   2  272.47    9.70
   7  -4   2  269.87    9.80
   7  -4   2  274.27    9.60
  -7  -4  -2  278.57    9.70
   7  -4   2  284.17    9.90
  -7   4  -3   74.59    5.20
  -7   4  -3   72.89    2.60
  -7   4  -3   72.49    2.60
  -7   4  -3   80.89    6.20
   7   4   3   70.79    2.80
   7   4   3   68.79    2.70
  -7  -4  -3   73.59    2.70
  -7  -4  -3   69.89    2.90
   7  -4   3   73.09    2.70
   7  -4   3   73.59    2.80
  -7  -4  -3   67.49    2.80
   7  -4   3   66.39    2.90
  -7   4  -4   82.89    2.90
   7   4   4   75.09    3.10
   7   4   4   76.19    3.10
  -7   4  -4   81.39    5.70
  -7   4  -4   79.49    2.90
  -7   4  -4   70.49    6.20
   7  -4   4   80.49    3.20
   7  -4   4   79.89    3.10
   7  -4   4   81.29    3.10
  -7  -4  -4   77.99    3.10
  -7  -4  -4   78.09    3.20
  -7  -4  -4   80.09    3.00
   7   4   5    0.80    0.30
   7   4   5    1.00    0.20
   7   4   5    0.70    0.30
  -7   4  -5    1.30    0.30
  -7   4  -5    1.40    1.30
  -7   4  -5    0.80    0.20
  -7   4  -5    1.20    1.00
  -7  -4  -5    1.50    0.40
  -7  -4  -5    0.80    0.30
   7  -4   5    1.40    0.30
   7  -4   5    1.40    0.40
   7  -4   5    1.20    0.40
   7   4   6   21.40    1.20
   7   4   6   21.10    1.00
  -7   4  -6   20.30    1.00
  -7   4  -6   22.80    3.50
  -7   4  -6   19.10    1.00
   7   4   6   20.60    1.20
  -7  -4  -6   20.70    1.20
   7  -4   6   19.60    1.10
   7  -4   6   19.40    1.20
   7  -4   6   18.80    1.20
  -7  -4  -6   20.80    1.10
   7   4   7    0.20    0.20
   7   4   7    0.10    0.20
   7   4   7    0.50    0.30
  -7   4  -7    0.50    0.20
  -7   4  -7    1.10    1.50
   7  -4   7    0.40    0.30
   7  -4   7    0.50    0.30
  -7  -4  -7    0.60    0.40
   7  -4   7    0.70    0.40
  -7  -4  -7    0.20    0.30
   7   4   8    1.10    0.40
  -7   4  -8    1.70    0.40
   7   4   8    1.40    0.30
   7  -4   8    1.40    0.50
   7  -4   8    1.60    0.50
  -7  -4  -8    1.30    0.40
  -7  -4  -8    0.70    0.40
  -7   5   9   18.60    1.30
   7   5  -9   18.30    1.00
  -7   5   9   19.40    1.00
   7  -5  -9   17.20    1.20
  -7  -5   9   18.10    1.20
   7  -5  -9   17.40    1.20
  -7  -5   9   18.50    1.30
  -7  -5   9   19.00    1.20
  -7   5   8    0.40    0.30
   7   5  -8    0.50    0.30
  -7   5   8    2.80    1.50
   7   5  -8    0.80    0.30
  -7   5   8    0.60    0.40
   7  -5  -8   -0.30    1.20
  -7  -5   8    0.70    0.40
   7  -5  -8    0.50    0.40
  -7  -5   8    0.80    0.40
  -7  -5   8    0.90    0.30
   7  -5  -8    0.50    0.40
  -7   5   7   15.70    2.40
  -7   5   7   13.50    0.80
  -7   5   7   13.20    0.90
   7   5  -7   13.10    0.70
   7   5  -7   10.20    2.40
   7   5  -7   13.00    0.80
  -7  -5   7   12.90    1.00
   7  -5  -7   12.90    1.00
   7  -5  -7   12.40    1.00
  -7  -5   7   11.90    2.30
   7  -5  -7   12.90    0.90
  -7  -5   7   12.30    1.00
   7  -5  -7   13.00    2.70
  -7  -5   7   12.70    0.90
   7   5  -6   -0.80    0.90
  -7   5   6    0.80    0.80
  -7   5   6    0.20    0.20
  -7   5   6    0.20    0.20
   7   5  -6    0.20    0.20
   7   5  -6    0.30    0.20
   7  -5  -6    0.10    0.30
  -7  -5   6    0.30    0.30
  -7  -5   6    0.20    0.20
  -7  -5   6    0.20    0.80
   7  -5  -6    1.70    1.40
   7  -5  -6    0.40    0.30
   7  -5  -6    0.10    0.20
  -7  -5   6    0.20    0.30
  -7   5   5   71.99    5.40
  -7   5   5   71.79    2.80
   7   5  -5   71.29    2.70
  -7   5   5   71.19    2.80
   7   5  -5   76.89    5.40
   7   5  -5   72.69    2.60
  -7  -5   5   76.39    2.90
   7  -5  -5   71.49    3.10
  -7  -5   5   71.39    3.00
  -7  -5   5   71.89    5.20
   7  -5  -5   70.59    2.90
  -7  -5   5   75.59    2.80
  -7  -5   5   72.39    3.00
   7  -5  -5   71.19    5.90
   7  -5  -5   71.69    3.00
   7   5  -4   40.70    1.50
  -7   5   4   35.20    3.60
  -7   5   4   37.60    1.60
   7   5  -4   46.30    3.80
   7   5  -4   40.50    1.60
  -7   5   4   39.40    1.70
   7  -5  -4   35.60    1.80
  -7  -5   4   44.40    1.90
  -7  -5   4   41.60    1.80
   7  -5  -4   33.60    4.10
  -7  -5   4   43.00    3.70
  -7  -5   4   44.50    1.80
   7  -5  -4   37.70    1.90
   7  -5  -4   35.70    1.80
  -7  -5   4   41.30    1.80
  -7   5   3   61.49    2.30
   7   5  -3   61.49    4.20
  -7   5   3   60.19    4.60
  -7   5   3   62.99    2.30
   7   5  -3   59.99    2.30
   7  -5  -3   63.69    2.50
  -7  -5   3   60.89    4.30
  -7  -5   3   61.69    2.50
   7  -5  -3   62.89    2.60
  -7  -5   3   58.49    2.50
  -7  -5   3   59.69    2.30
  -7  -5   3   57.89    2.50
   7  -5  -3   59.69    5.30
   7  -5  -3   62.69    2.60
  -7  -5   3   59.09    2.40
   7   5  -2   27.50    2.40
  -7   5   2   26.70    3.00
  -7   5   2   26.10    1.10
   7   5  -2   25.80    1.10
   7   5  -2   25.90    1.30
   7  -5  -2   25.80    1.40
   7  -5  -2   28.10    3.60
  -7  -5   2   26.70    1.30
   7  -5  -2   26.80    1.30
  -7  -5   2   26.60    1.20
  -7  -5   2   26.90    1.30
  -7  -5   2   28.80    1.30
   7  -5  -2   25.60    1.40
   7  -5  -2   27.30    1.10
  -7   5   1  202.38   10.60
  -7   5   1  209.78    7.10
   7   5  -1  206.48    7.00
   7   5  -1  200.18    7.20
  -7   5   1  204.48    7.20
   7   5  -1  199.48    8.60
   7   5  -1  203.98    9.40
   7  -5  -1  200.38    7.50
  -7  -5   1  207.68    7.30
   7  -5  -1  205.88    7.30
   7  -5  -1  208.28    7.20
  -7  -5   1  197.98    7.30
  -7  -5   1  210.08    7.30
  -7  -5   1  205.48    7.30
  -7   5   0    6.50    2.00
  -7   5   0    7.40    0.50
   7   5   0    9.20    0.60
  -7   5   0    7.40    0.50
  -7  -5   0    9.80    0.60
   7  -5   0    7.70    0.70
   7  -5   0    7.90    2.10
   7  -5   0    6.20    0.60
  -7  -5   0    9.20    0.60
  -7  -5   0    9.30    0.70
   7  -5   0    6.90    0.60
   7   5   1  117.39    4.40
   7   5   1  114.09    4.30
  -7   5  -1  123.59    7.80
  -7   5  -1  117.39    4.20
  -7   5  -1  116.59    4.20
  -7  -5  -1  112.09    4.40
   7  -5   1  120.89    4.40
  -7  -5  -1  120.99    4.40
   7  -5   1  121.79    4.40
   7  -5   1  110.59    7.70
   7  -5   1  121.59    4.50
   7   5   2   28.90    1.30
  -7   5  -2   32.50    3.30
  -7   5  -2   31.00    1.10
   7   5   2   26.40    1.40
  -7   5  -2   31.10    3.90
  -7   5  -2   30.40    1.30
   7  -5   2   30.20    1.50
   7  -5   2   31.40    1.30
  -7  -5  -2   27.80    1.40
   7  -5   2   32.70    1.50
  -7  -5  -2   29.00    1.40
  -7  -5  -2   28.20    1.50
   7  -5   2   29.70    1.40
  -7   5  -3   54.89    4.50
   7   5   3   52.09    2.20
  -7   5  -3   51.09    5.10
  -7   5  -3   50.89    2.00
   7   5   3   54.89    2.20
   7  -5   3   51.19    2.20
   7  -5   3   53.69    2.20
  -7  -5  -3   52.59    2.20
   7  -5   3   51.29    2.30
  -7  -5  -3   55.49    2.30
  -7  -5  -3   52.29    2.30
  -7   5  -4    4.90    1.60
  -7   5  -4    4.50    0.40
  -7   5  -4    4.90    0.50
   7   5   4    4.30    0.50
  -7   5  -4    5.60    2.50
   7   5   4    4.40    0.50
  -7  -5  -4    4.50    0.60
   7  -5   4    5.40    0.50
   7  -5   4    5.40    0.60
   7  -5   4    5.00    0.50
  -7  -5  -4    4.90    0.50
  -7  -5  -4    4.80    0.50
   7   5   5   48.40    2.10
  -7   5  -5   48.10    2.00
  -7   5  -5   44.90    5.10
  -7   5  -5   49.99    2.00
   7   5   5   49.99    2.20
   7   5   5   50.69    2.00
  -7   5  -5   47.80    4.50
  -7  -5  -5   48.30    2.30
   7  -5   5   48.50    2.30
   7  -5   5   49.60    2.10
   7  -5   5   48.90    2.20
  -7  -5  -5   48.40    2.10
  -7   5  -6    4.70    0.50
   7   5   6    4.20    0.60
  -7   5  -6    3.30    1.50
   7   5   6    3.90    0.40
  -7   5  -6    5.30    0.50
   7  -5   6    5.20    0.60
   7  -5   6    4.20    0.60
  -7  -5  -6    4.50    0.60
  -7  -5  -6    4.00    0.50
   7  -5   6    4.80    0.50
   7   5   7   10.50    0.70
   7   5   7   10.10    0.90
  -7   5  -7   10.60    0.70
   7  -5   7   11.10    0.90
  -7  -5  -7   10.10    1.00
   7  -5   7   10.30    0.80
  -7  -5  -7   11.20    0.80
   7  -5   7   10.60    0.90
  -7   6   8    6.50    0.80
  -7   6   8    7.60    0.60
   7   6  -8    8.30    0.70
  -7  -6   8    8.70    0.80
  -7  -6   8    7.70    0.80
  -7  -6   8    8.30    0.80
   7  -6  -8    6.80    0.80
   7  -6  -8    5.20    2.80
   7  -6  -8    8.00    0.90
  -7   6   7    1.20    0.40
  -7   6   7    0.80    1.50
   7   6  -7   -1.40    1.00
  -7   6   7    1.30    0.30
   7   6  -7    0.90    0.30
   7  -6  -7   -0.10    1.50
  -7  -6   7    0.50    0.30
   7  -6  -7    0.50    0.30
   7  -6  -7    0.80    0.40
   7  -6  -7    0.60    0.40
  -7  -6   7    0.50    0.40
  -7  -6   7   -0.70    0.90
  -7  -6   7    0.00    0.20
  -7   6   6   32.10    1.60
   7   6  -6   33.10    1.40
   7   6  -6   33.90    3.90
  -7   6   6   35.20    3.60
   7   6  -6   34.50    1.50
  -7   6   6   32.50    1.50
  -7  -6   6   33.20    1.70
   7  -6  -6   35.10    1.80
   7  -6  -6   38.20    4.80
   7  -6  -6   36.10    1.80
   7  -6  -6   33.80    1.70
  -7  -6   6   32.50    1.70
  -7  -6   6   32.10    1.70
  -7  -6   6   30.50    3.50
  -7   6   5    7.30    2.10
  -7   6   5    6.40    0.50
   7   6  -5    4.20    1.60
  -7   6   5    6.60    0.60
   7   6  -5    6.60    0.40
   7   6  -5    6.20    0.50
  -7  -6   5    4.90    1.60
  -7  -6   5    7.20    0.70
   7  -6  -5    7.90    2.60
   7  -6  -5    6.00    0.70
  -7  -6   5    6.90    0.60
   7  -6  -5    6.00    0.70
  -7  -6   5    6.80    0.60
  -7  -6   5    6.50    0.70
   7  -6  -5    5.90    0.60
   7   6  -4   59.19    2.10
  -7   6   4   58.29    2.30
  -7   6   4   56.09    4.80
  -7   6   4   54.99    2.30
   7   6  -4   58.59    2.30
   7   6  -4   58.29    4.60
  -7  -6   4   57.29    2.40
  -7  -6   4   59.99    2.50
   7  -6  -4   58.19    2.60
  -7  -6   4   56.79    2.50
  -7  -6   4   59.89    2.40
   7  -6  -4   57.89    2.60
   7  -6  -4   57.79    2.50
   7  -6  -4   53.49    5.40
   7   6  -3   13.10    2.30
   7   6  -3   12.70    2.00
  -7   6   3   10.40    0.60
   7   6  -3   12.00    0.70
  -7   6   3   12.20    0.70
  -7   6   3   12.40    2.20
  -7  -6   3   12.50    0.80
  -7  -6   3   13.30    0.80
   7  -6  -3   12.30    0.90
   7  -6  -3   11.70    3.00
  -7  -6   3   13.60    0.90
   7  -6  -3   10.90    0.90
  -7  -6   3   13.80    0.90
  -7  -6   3   12.80    0.80
   7  -6  -3   11.00    0.80
   7   6  -2   52.69    2.00
   7   6  -2   48.90    3.80
   7   6  -2   50.69    4.40
   7   6  -2   50.19    2.20
  -7   6   2   53.99    4.60
  -7   6   2   55.99    2.10
   7  -6  -2   53.49    5.20
  -7  -6   2   50.29    2.30
  -7  -6   2   48.90    2.30
  -7  -6   2   50.39    2.20
  -7  -6   2   52.09    2.20
   7  -6  -2   57.69    2.40
   7  -6  -2   53.59    2.40
   7  -6  -2   57.89    2.30
   7   6  -1    1.40    0.30
  -7   6   1    1.10    0.20
  -7   6   1   -0.30    0.70
   7   6  -1    1.60    0.80
   7   6  -1    1.20    0.80
   7   6  -1    1.30    0.20
  -7  -6   1    1.60    0.40
   7  -6  -1    1.00    0.30
   7  -6  -1    1.40    0.50
   7  -6  -1    0.90    0.40
  -7  -6   1    1.40    0.30
  -7  -6   1    1.20    0.30
   7  -6  -1    1.10    1.20
  -7  -6   1    1.00    0.30
  -7   6   0   48.70    4.80
   7   6   0   55.49    2.20
  -7   6   0   53.79    2.10
  -7   6   0   51.79    2.00
   7   6   0   54.29    2.20
   7  -6   0   51.49    5.10
  -7  -6   0   52.49    2.20
  -7  -6   0   52.79    2.30
   7  -6   0   50.29    2.20
  -7  -6   0   52.99    2.30
   7  -6   0   51.39    2.40
   7  -6   0   52.29    2.20
  -7   6  -1    0.80    0.20
   7   6   1    1.30    0.30
  -7   6  -1    0.80    0.20
  -7   6  -1    2.50    1.30
   7   6   1    1.40    0.30
   7  -6   1    1.60    1.20
  -7  -6  -1    1.30    0.30
   7  -6   1    0.50    0.30
   7  -6   1    0.80    0.30
  -7  -6  -1    1.80    0.40
   7  -6   1    1.00    0.40
  -7  -6  -1    1.00    0.30
   7   6   2   62.49    2.50
  -7   6  -2   67.79    5.10
  -7   6  -2   66.79    5.90
  -7   6  -2   66.29    2.40
   7   6   2   63.99    2.60
  -7   6  -2   65.99    2.50
   7  -6   2   64.99    2.60
  -7  -6  -2   58.79    2.70
  -7  -6  -2   62.79    2.70
   7  -6   2   65.49    2.50
  -7  -6  -2   63.89    2.70
   7  -6   2   65.99    2.80
   7  -6   2   65.79    2.70
  -7   6  -3   40.40    1.60
  -7   6  -3   40.40    3.90
   7   6   3   35.80    1.80
   7   6   3   38.70    1.70
  -7   6  -3   44.20    4.80
  -7  -6  -3   35.00    1.80
   7  -6   3   39.70    1.70
  -7  -6  -3   36.10    1.90
  -7  -6  -3   37.10    1.80
   7  -6   3   41.20    1.90
   7  -6   3   40.40    1.90
   7  -6   3   42.60    1.80
   7   6   4   41.10    1.80
  -7   6  -4   37.70    3.90
  -7   6  -4   41.30    1.70
  -7   6  -4   41.10    1.60
   7   6   4   41.10    1.80
  -7   6  -4   36.40    4.60
   7  -6   4   39.50    1.80
  -7  -6  -4   41.70    1.90
   7  -6   4   38.40    1.80
   7  -6   4   40.10    2.00
  -7  -6  -4   39.70    1.90
  -7  -6  -4   32.30    1.90
  -7   6  -5    0.30    0.20
   7   6   5    0.40    0.30
   7   6   5    0.50    0.20
  -7   6  -5    0.10    0.30
  -7   6  -5    0.80    1.10
  -7   6  -5    0.30    1.40
   7  -6   5    0.80    0.40
  -7  -6  -5    0.50    0.40
   7  -6   5    0.30    0.20
   7  -6   5    0.40    0.30
  -7  -6  -5    1.00    0.40
   7   6   6   15.40    0.90
  -7   6  -6   17.00    0.90
   7   6   6   16.40    1.10
   7  -6   6   17.80    1.00
   7  -6   6   17.70    1.20
  -7  -6  -6   18.10    1.10
  -7  -6  -6   16.20    1.20
   7  -6   6   16.30    1.20
   7   6   7    2.60    0.40
  -7   6  -7    3.60    0.40
   7   6   7    3.10    0.60
  -7  -6  -7    3.10    0.60
   7  -6   7    4.40    0.70
   7  -6   7    3.10    0.60
  -7  -6  -7    1.90    0.50
   7  -6   7    3.80    0.50
   7   7  -7   23.30    1.20
  -7   7   7   23.50    1.20
  -7   7   7   17.90    3.80
  -7   7   7   23.20    1.40
   7  -7  -7   24.00    1.50
   7  -7  -7   24.10    1.50
  -7  -7   7   24.30    1.40
  -7  -7   7   23.70    1.40
   7  -7  -7   23.60    1.40
  -7  -7   7   23.50    1.40
   7   7  -6   -0.60    1.30
   7   7  -6   -1.10    1.00
   7   7  -6    0.80    0.30
  -7   7   6   -0.80    1.10
  -7   7   6    0.20    0.20
  -7   7   6    0.70    0.40
   7  -7  -6    0.20    0.30
  -7  -7   6    0.70    0.40
  -7  -7   6    1.10    0.40
   7  -7  -6    0.70    0.40
  -7  -7   6    1.00    0.40
   7  -7  -6    1.40    1.80
   7  -7  -6    0.50    0.40
   7   7  -5    9.90    2.40
   7   7  -5    9.90    0.60
   7   7  -5    8.30    2.50
   7   7  -5   10.60    0.70
  -7   7   5   10.80    2.20
  -7   7   5   11.90    0.80
  -7   7   5   11.40    0.70
   7  -7  -5    7.10    2.60
   7  -7  -5   11.70    1.00
  -7  -7   5   10.00    0.80
   7  -7  -5   10.90    0.90
  -7  -7   5    9.80    0.80
  -7  -7   5   12.10    0.90
   7  -7  -5   11.30    1.00
   7   7  -4    3.00    1.30
  -7   7   4    3.60    1.70
   7   7  -4    4.60    0.40
  -7   7   4    4.70    0.50
  -7   7   4    4.30    0.50
   7   7  -4    4.10    0.40
   7   7  -4    5.70    2.10
  -7  -7   4    6.00    0.60
   7  -7  -4    3.70    0.70
  -7  -7   4    4.90    0.60
  -7  -7   4    4.60    0.60
  -7  -7   4    5.60    0.60
   7  -7  -4    4.30    0.70
   7  -7  -4    4.50    0.60
   7  -7  -4    3.10    1.80
   7   7  -3   34.90    3.40
   7   7  -3   34.50    4.20
  -7   7   3   39.10    1.60
   7   7  -3   38.50    1.60
  -7   7   3   33.00    3.80
  -7  -7   3   37.80    1.80
  -7  -7   3   37.70    1.80
   7  -7  -3   39.40    2.00
   7  -7  -3   37.30    1.90
  -7  -7   3   40.10    1.90
   7  -7  -3   37.50    1.80
   7  -7  -3   32.60    4.30
  -7  -7   3   39.40    1.80
   7   7  -2   25.50    2.70
   7   7  -2   29.70    3.50
   7   7  -2   27.10    1.40
   7   7  -2   29.30    1.20
  -7   7   2   26.00    1.20
  -7   7   2   25.30    3.30
   7  -7  -2   24.20    1.50
   7  -7  -2   22.60    3.60
  -7  -7   2   26.80    1.40
  -7  -7   2   27.80    1.40
   7  -7  -2   24.30    1.40
  -7  -7   2   26.50    1.40
  -7  -7   2   28.80    1.50
   7  -7  -2   25.50    1.50
   7   7  -1   35.90    3.00
  -7   7   1   34.70    1.50
   7   7  -1   36.90    1.60
   7   7  -1   37.30    1.40
  -7   7   1   34.40    3.80
   7   7  -1   36.60    3.60
   7  -7  -1   36.10    1.70
   7  -7  -1   34.50    4.30
   7  -7  -1   36.20    1.60
  -7  -7   1   35.50    1.80
  -7  -7   1   34.00    1.70
  -7  -7   1   35.30    1.70
  -7  -7   1   35.90    1.80
   7  -7  -1   35.60    1.90
   7   7   0    0.30    0.20
  -7   7   0    0.70    0.20
  -7   7   0    1.70    1.30
   7   7   0    0.30    0.30
  -7   7   0    0.70    0.20
  -7  -7   0    0.40    0.30
   7  -7   0    1.30    0.40
   7  -7   0    0.60    0.40
  -7  -7   0    0.40    0.30
  -7  -7   0    0.30    0.30
   7  -7   0    1.00    0.30
   7  -7   0   -0.30    1.10
  -7   7  -1   20.90    1.00
   7   7   1   19.60    1.10
  -7   7  -1   20.60    3.40
  -7   7  -1   19.10    1.00
   7   7   1   20.30    1.10
   7  -7   1   19.00    1.20
   7  -7   1   20.20    1.20
  -7  -7  -1   19.60    1.20
  -7  -7  -1   18.90    1.20
   7  -7   1   18.10    3.20
   7  -7   1   19.20    1.10
  -7  -7  -1   19.40    1.20
  -7   7  -2    0.50    0.80
   7   7   2    0.70    0.30
   7   7   2    0.50    0.30
  -7   7  -2    0.00    1.10
  -7   7  -2    0.60    0.20
  -7   7  -2    0.70    0.20
  -7  -7  -2    1.30    0.40
  -7  -7  -2    0.90    0.30
  -7  -7  -2    0.50    0.30
   7  -7   2    0.70    0.40
   7  -7   2    0.40    0.30
   7  -7   2    0.70    0.30
   7   7   3   21.40    1.20
  -7   7  -3   22.90    3.20
  -7   7  -3   18.60    3.50
  -7   7  -3   21.80    1.10
   7  -7   3   21.30    1.30
   7  -7   3   21.10    1.30
  -7  -7  -3   22.10    1.30
   7  -7   3   21.40    1.20
  -7  -7  -3   21.50    1.40
  -7  -7  -3   22.00    1.30
  -7   7  -4    6.50    3.00
   7   7   4    7.50    0.70
  -7   7  -4    9.30    0.60
  -7   7  -4    7.80    2.20
  -7   7  -4    8.70    0.60
  -7  -7  -4    7.90    0.80
   7  -7   4    9.40    0.80
  -7  -7  -4    8.00    0.80
   7   7   5    8.60    0.80
   7   7   5    9.40    0.70
  -7   7  -5    8.20    0.70
  -7   7  -5    9.00    0.60
   7  -7   5    9.20    0.70
  -7  -7  -5    8.50    0.80
  -7  -7  -5    8.70    0.90
   7  -7   5    9.30    0.90
   7   7   6    0.30    0.30
  -7   7  -6    0.50    0.30
   7   7   6    0.00    0.20
   7  -7   6    0.60    0.30
   7  -7   6    0.70    0.40
  -7  -7  -6   -0.10    0.30
  -7  -7  -6    0.00    0.30
   7   8  -6   14.60    0.90
  -7   8   6   15.30    0.90
   7   8  -6   13.40    3.40
   7  -8  -6   15.60    1.10
   7  -8  -6   15.50    1.20
  -7  -8   6   14.30    1.10
  -7  -8   6   14.90    1.10
   7  -8  -6   13.90    1.20
  -7  -8   6   14.70    1.10
   7   8  -5   -2.30    1.00
   7   8  -5    0.30    0.30
   7   8  -5    2.70    1.90
  -7   8   5    0.90    1.40
  -7   8   5    0.10    0.20
  -7  -8   5   -0.10    0.30
  -7  -8   5   -0.10    0.20
   7  -8  -5    0.40    0.40
  -7  -8   5    0.40    0.30
   7  -8  -5   -1.30    1.90
   7  -8  -5    0.50    0.50
   7  -8  -5    0.40    0.30
   7   8  -4   32.70    3.80
  -7   8   4   32.40    3.70
   7   8  -4   29.90    4.10
   7   8  -4   26.70    1.20
  -7   8   4   28.30    1.30
   7   8  -4   28.70    1.30
  -7  -8   4   28.40    1.70
  -7  -8   4   26.70    1.50
   7  -8  -4   30.40    1.70
  -7  -8   4   27.20    1.60
   7  -8  -4   23.20    4.50
  -7  -8   4   27.10    1.50
   7  -8  -4   27.60    1.50
   7  -8  -4   29.60    1.70
  -7   8   3    3.30    1.50
   7   8  -3    2.80    1.80
   7   8  -3    2.20    1.30
   7   8  -3    2.30    0.50
   7   8  -3    1.90    0.30
  -7   8   3    1.40    0.30
   7  -8  -3   -0.50    1.30
  -7  -8   3    1.80    0.50
   7  -8  -3    2.10    0.50
  -7  -8   3    2.40    0.60
  -7  -8   3    1.90    0.50
   7  -8  -3    2.50    0.60
  -7  -8   3    1.80    0.40
   7  -8  -3    2.00    0.50
  -7   8   2    3.70    1.80
   7   8  -2    7.00    0.50
   7   8  -2    9.00    2.10
  -7   8   2    7.60    0.60
   7   8  -2    7.80    0.70
   7  -8  -2    7.60    0.90
  -7  -8   2    7.30    0.70
   7  -8  -2    6.50    2.40
  -7  -8   2    9.00    0.80
  -7  -8   2    7.60    0.70
  -7  -8   2    6.90    0.80
   7  -8  -2    6.30    0.70
   7  -8  -2    5.70    0.80
  -7   8   1   -0.50    0.80
  -7   8   1    0.10    0.20
   7   8  -1    0.20    0.30
   7  -8  -1    0.30    0.40
  -7  -8   1    0.00    0.30
   7  -8  -1    2.50    1.50
   7  -8  -1    0.00    0.20
  -7  -8   1    0.10    0.20
  -7  -8   1    0.10    0.30
   7   8   0   14.10    0.90
  -7   8   0   13.70    0.80
   7   8   0   14.40    0.90
  -7   8   0   14.30    0.80
  -7   8   0   13.00    2.60
   7  -8   0   15.10    1.00
   7  -8   0   14.00    1.00
  -7  -8   0   12.20    0.90
   7  -8   0   13.40    1.10
  -7  -8   0   13.60    1.00
   7  -8   0   12.50    3.10
  -7  -8   0   12.40    1.00
  -7   8  -1   -0.40    0.70
  -7   8  -1    0.20    0.20
  -7   8  -1    0.10    0.20
  -7   8  -1    1.10    0.90
   7   8   1    0.50    0.30
   7   8   1    0.10    0.30
   7  -8   1    0.40    0.40
  -7  -8  -1    0.60    0.30
  -7  -8  -1    0.20    0.30
  -7  -8  -1    0.40    0.40
   7  -8   1    0.20    0.30
   7  -8   1    0.50    0.30
  -7   8  -2    8.10    2.10
   7   8   2   10.60    0.80
  -7   8  -2   12.20    0.70
  -7   8  -2   10.30    0.70
  -7   8  -2   13.30    3.50
   7  -8   2    9.80    0.90
  -7  -8  -2   10.70    0.90
   7  -8   2   10.50    0.80
   7  -8   2   10.30    0.90
  -7  -8  -2   11.10    0.90
  -7  -8  -2   11.30    1.00
   7   8   3    0.30    0.30
  -7   8  -3    0.60    0.30
  -7   8  -3   -0.50    0.80
  -7  -8  -3    0.50    0.40
   7  -8   3    0.10    0.30
  -7  -8  -3    0.40    0.40
   7  -8   3    0.70    0.30
  -7  -8  -3    0.70    0.30
   7  -8   3    1.50    0.40
   7   8   4   20.40    1.20
   7   8   4   19.80    1.10
  -7   8  -4   20.40    1.00
  -7   8  -4   20.50    1.10
   7  -8   4   20.20    1.30
   7  -8   4   21.20    1.20
  -7  -8  -4   18.30    1.30
  -7  -8  -4   19.30    1.30
  -7   8  -5    0.80    0.30
  -7   8  -5    0.70    0.30
   7   8   5    0.40    0.30
   7   8   5    0.50    0.30
   7  -8   5    0.70    0.40
   7  -8   5    0.80    0.40
  -7  -8  -5    0.50    0.40
  -7  -8  -5    1.20    0.50
   7   9  -5   13.20    0.90
  -7   9   5   11.10    0.80
   7  -9  -5   13.00    1.10
   7  -9  -5   12.40    1.20
  -7  -9   5   13.70    1.00
   7  -9  -5   12.80    1.00
  -7  -9   5   12.90    1.00
  -7  -9   5   13.00    1.00
  -7   9   4    3.30    3.10
  -7   9   4    0.10    0.20
   7   9  -4    0.50    0.40
   7   9  -4    0.10    0.20
  -7  -9   4    0.50    0.40
   7  -9  -4    0.20    0.30
   7  -9  -4    3.90    2.80
   7  -9  -4    0.20    0.40
  -7  -9   4    0.10    0.40
  -7  -9   4    0.10    0.40
   7  -9  -4    0.50    0.40
   7   9  -3    8.00    0.80
  -7   9   3    5.40    2.20
  -7   9   3    6.40    0.60
   7   9  -3    6.40    0.60
   7  -9  -3    7.60    0.70
   7  -9  -3    6.20    0.80
  -7  -9   3    7.30    0.80
   7  -9  -3    5.50    2.30
  -7  -9   3    5.00    0.80
  -7  -9   3    5.60    0.70
   7  -9  -3    5.50    0.80
  -7  -9   3    6.70    0.80
   7   9  -2    3.10    0.50
  -7   9   2    3.20    0.50
  -7   9   2    2.00    1.40
   7  -9  -2    3.60    0.80
  -7  -9   2    3.20    0.50
   7  -9  -2    2.50    2.20
   7  -9  -2    3.00    0.50
  -7  -9   2    2.70    0.60
  -7  -9   2    3.40    0.60
   7  -9  -2    2.70    0.60
  -7  -9   2    3.80    0.70
  -7   9   1    7.30    2.50
  -7   9   1   10.30    0.70
   7   9  -1   10.30    0.80
   7   9  -1   11.00    0.90
  -7  -9   1   10.20    1.00
  -7  -9   1    9.80    1.00
  -7  -9   1   10.60    0.90
   7  -9  -1   10.50    1.00
   7  -9  -1   10.10    3.20
   7  -9  -1   11.60    0.90
  -7   9   0    0.30    0.20
   7   9   0    0.10    0.30
   7   9   0    0.40    0.30
  -7   9   0    0.40    0.20
  -7   9   0    0.20    1.20
  -7  -9   0    0.30    0.40
  -7  -9   0    0.50    0.40
   7  -9   0    0.30    0.40
  -7  -9   0    0.10    0.30
   7  -9   0    0.20    0.20
   7   9   1    5.30    0.60
  -7   9  -1    5.80    0.50
  -7   9  -1    4.00    1.70
  -7   9  -1    5.40    0.50
   7  -9   1    5.70    0.60
  -7  -9  -1    4.30    0.70
   7  -9   1    4.80    0.80
  -7  -9  -1    5.90    0.80
  -7  -9  -1    4.80    0.70
   7  -9   1    5.60    0.70
  -7   9  -2    0.00    0.20
   7   9   2    0.20    0.30
   7  -9   2    0.10    0.40
  -7  -9  -2    0.80    0.40
  -7  -9  -2    0.40    0.30
   7  -9   2    0.00    0.30
  -7  -9  -2    0.20    0.40
   7  -9   2    0.10    0.30
   7   9   3    4.20    0.60
  -7   9  -3    3.40    0.50
  -7  -9  -3    4.00    0.70
   7  -9   3    3.90    0.70
  -7  -9  -3    5.30    0.80
   7  -9   3    4.70    0.80
   7  -9   3    4.30    0.60
  -7  10   2    3.00    0.50
   7  10  -2    1.90    0.50
   7  10  -2    3.10    0.60
  -7 -10   2    2.20    0.50
  -7 -10   2    2.00    0.60
   7 -10  -2    2.40    0.70
   7 -10  -2    2.40    0.50
  -7 -10   2    2.50    0.60
   7  10  -1    0.20    0.30
  -7  10   1    0.00    0.20
  -7  10   1    0.00    0.20
   7  10  -1    0.20    0.30
  -7 -10   1    0.30    0.30
  -7 -10   1    0.30    0.30
   7 -10  -1    0.20    0.30
   7 -10  -1   -0.20    0.40
  -7 -10   1    0.10    0.40
  -7  10   0    3.80    0.50
  -7  10   0    3.70    0.50
   7  10   0    4.00    0.60
   7 -10   0    4.10    0.80
  -7 -10   0    3.90    0.80
  -7 -10   0    3.80    0.70
  -7 -10   0    4.30    0.70
   7 -10   0    3.50    0.60
  -7  10  -1    0.20    0.30
   7  10   1    0.50    0.30
  -7  10  -1    0.00    0.20
  -7 -10  -1    0.00    0.40
  -7 -10  -1    0.40    0.30
   7 -10   1    0.50    0.50
  -7 -10  -1    0.20    0.40
   7 -10   1    0.30    0.30
   8   0 -10    3.50    0.60
  -8   0  10    3.80    0.50
  -8   0  10    3.70    0.60
  -8   0  10    4.00    0.70
   8   0 -10    3.30    0.50
   8   0  -9    0.50    0.30
  -8   0   9    0.40    0.30
  -8   0   9    0.10    0.30
   8   0  -9    1.60    1.40
  -8   0   9    0.00    0.20
   8   0  -9    0.70    0.30
   8   0  -8   44.40    2.00
  -8   0   8   45.20    1.90
  -8   0   8   46.40    2.10
   8   0  -8   43.10    4.40
   8   0  -8   46.50    1.90
  -8   0   8   47.70    4.30
  -8   0   8   46.30    2.10
  -8   0   7    0.40    0.20
  -8   0   7    0.90    0.80
   8   0  -7    0.10    0.80
  -8   0   7    0.30    0.20
   8   0  -7    0.20    0.20
   8   0  -7    0.40    0.20
  -8   0   7   -0.10    0.20
  -8   0   6   17.60    1.00
  -8   0   6   17.20    0.90
   8   0  -6   16.30    2.40
  -8   0   6   18.10    0.90
   8   0  -6   17.60    0.90
   8   0  -6   16.20    0.90
  -8   0   6   16.50    2.30
   8   0  -5    1.90    1.10
   8   0  -5    1.30    0.20
  -8   0   5    1.00    0.30
  -8   0   5    1.90    1.00
  -8   0   5    1.20    0.20
  -8   0   5    1.20    0.20
   8   0  -5    1.30    0.20
   8   0  -4 1144.89   41.60
  -8   0   4 1141.59   41.60
   8   0  -3    0.60    0.60
   8   0  -3    0.70    0.20
   8   0  -3    0.90    0.20
  -8   0   3    1.00    0.20
  -8   0   3    0.70    0.20
  -8   0   3    1.00    0.20
  -8   0   3    0.90    0.60
   8   0  -3    0.80    0.20
   8   0  -2  236.78    8.10
   8   0  -2  229.38    8.20
  -8   0   2  225.88    8.10
  -8   0   2  223.58   10.00
   8   0  -2  264.87   10.40
  -8   0   1    0.30    0.40
  -8   0   1    0.00    0.10
   8   0  -1    0.10    0.10
  -8   0   1    0.00    0.10
   8   0  -1    0.00    0.10
   8   0  -1   -0.10    0.40
  -8   0   0 5939.71  302.17
   8   0   0 5901.21  308.87
  -8   0   0 6454.65  323.27
  -8   0  -1    0.40    0.50
   8   0   1    0.20    0.40
  -8   0  -1    0.50    0.10
   8   0   1    1.20    0.20
  -8   0  -2    3.60    1.20
  -8   0  -2    3.80    0.30
  -8   0  -2    2.80    0.80
  -8   0  -2    3.70    0.30
   8   0   2    3.50    0.40
  -8   0  -2    3.50    0.30
   8   0   2    2.90    0.30
   8   0   2    3.40    0.30
   8   0   3    0.00    0.10
   8   0   3   -0.10    0.10
  -8   0  -3    0.20    0.10
  -8   0  -3    0.40    0.50
  -8   0  -3    0.00    0.10
  -8   0  -3    0.50    0.60
   8   0   3    0.10    0.20
  -8   0  -3    0.00    0.10
   8   0   4  317.17   11.00
   8   0   4  334.47   11.20
  -8   0  -4  330.47   11.20
  -8   0  -4  307.97   14.70
  -8   0  -4  315.87   11.10
  -8   0  -4  334.57   13.90
   8   0   4  329.37   11.30
   8   0   4  319.47   11.40
   8   0   5    0.20    0.20
   8   0   5    0.30    0.20
   8   0   5    0.30    0.20
  -8   0  -5    1.10    0.90
  -8   0  -5    0.20    0.20
  -8   0  -5    0.50    0.20
  -8   0  -5    0.80    0.80
   8   0   6    6.10    0.60
  -8   0  -6    7.30    2.00
   8   0   6    6.40    0.70
  -8   0  -6    5.90    0.50
  -8   0  -6    5.80    0.50
  -8   0  -6    6.80    0.50
  -8   0  -6    5.40    2.10
  -8   0  -7   -0.10    0.20
   8   0   7    0.10    0.30
  -8   0  -7    0.40    0.20
   8   0   7    0.40    0.30
  -8   0  -7    0.30    0.20
  -8   0  -8   10.00    0.70
   8   0   8    9.90    0.90
  -8   0  -8    9.00    0.70
   8   0   8    9.80    0.90
  -8   1  10    0.20    0.30
   8   1 -10   -0.10    0.30
   8   1 -10   -0.10    0.30
  -8   1  10    0.30    0.40
  -8  -1  10    0.40    0.40
  -8  -1  10    0.20    0.30
   8  -1 -10    0.20    0.30
  -8  -1  10    0.00    0.30
   8  -1 -10    0.00    0.30
   8  -1 -10   -0.20    0.20
   8   1  -9   11.80    0.80
  -8   1   9   11.80    0.80
   8   1  -9    5.50    3.50
  -8   1   9   10.90    0.90
   8   1  -9   10.70    0.70
   8  -1  -9   11.00    0.80
  -8  -1   9   10.90    0.90
   8  -1  -9    9.50    2.70
   8  -1  -9    9.80    0.80
  -8  -1   9   10.80    0.80
  -8  -1   9    9.90    0.90
  -8   1   8    2.20    1.40
  -8   1   8    3.10    0.60
   8   1  -8    1.90    1.30
  -8   1   8    3.40    0.40
   8   1  -8    3.80    0.50
   8   1  -8    3.40    0.40
  -8  -1   8    3.20    0.40
   8  -1  -8    2.20    1.30
   8  -1  -8    3.30    0.50
  -8  -1   8    3.50    0.60
  -8  -1   8    2.40    1.40
   8  -1  -8    2.60    0.50
  -8  -1   8    4.00    0.50
  -8   1   7   24.20    3.00
   8   1  -7   26.10    1.20
   8   1  -7   23.40    3.00
  -8   1   7   25.40    1.20
   8   1  -7   26.10    1.20
  -8   1   7   26.60    1.40
   8  -1  -7   30.80    3.40
  -8  -1   7   25.70    1.30
   8  -1  -7   26.10    1.20
  -8  -1   7   24.20    3.00
  -8  -1   7   27.10    1.20
   8  -1  -7   26.10    1.30
   8   1  -6    3.70    1.40
  -8   1   6    6.20    0.60
   8   1  -6    4.20    0.40
  -8   1   6    5.20    0.40
  -8   1   6    4.70    0.30
   8   1  -6    4.50    0.40
  -8   1   6    3.80    1.30
   8  -1  -6    4.20    0.50
  -8  -1   6    4.20    0.50
  -8  -1   6    4.20    0.50
   8  -1  -6    4.90    0.50
   8  -1  -6    2.80    1.30
   8  -1  -6    5.00    0.50
  -8  -1   6    4.10    0.40
  -8  -1   6    5.50    1.50
  -8   1   5  142.09    5.00
  -8   1   5  140.49    4.90
  -8   1   5  135.99    5.10
   8   1  -5  139.09    5.00
   8   1  -5  143.89    4.90
  -8   1   5  136.29    7.60
   8   1  -5  143.99    7.70
  -8  -1   5  138.49    5.10
   8  -1  -5  139.69    5.00
  -8  -1   5  144.99    5.00
  -8  -1   5  140.49    5.10
   8  -1  -5  142.29    5.10
   8  -1  -5  133.29    7.60
  -8  -1   5  147.99    7.80
   8  -1  -5  135.69    5.00
   8   1  -4  116.89    4.10
  -8   1   4  107.49    4.00
   8   1  -4  116.59    4.00
   8   1  -4  115.99    4.20
  -8   1   4  111.59    6.30
  -8   1   4  110.89    4.10
  -8   1   4  111.49    4.00
   8   1  -4  121.49    6.40
   8  -1  -4  109.19    4.10
  -8  -1   4  114.09    6.30
   8  -1  -4  112.29    6.50
   8  -1  -4  110.29    4.10
  -8  -1   4  117.29    4.10
   8  -1  -4  109.99    4.10
  -8  -1   4  113.89    3.90
  -8  -1   4  116.99    4.20
  -8   1   3 1096.29   39.70
   8   1  -3 1093.29   39.40
  -8  -1   3 1052.69   39.20
   8  -1  -3 1122.59   39.80
  -8   1   2  154.88    7.60
   8   1  -2  156.08    7.20
   8   1  -2  159.08    5.50
  -8   1   2  164.28    5.50
   8   1  -2  156.68    5.60
  -8   1   2  158.58    5.50
  -8   1   2  158.18    5.50
   8  -1  -2  158.78    5.50
  -8  -1   2  158.08    7.30
  -8  -1   2  146.29    5.60
   8  -1  -2  167.58    8.00
   8  -1  -2  163.78    5.60
   8  -1  -2  158.98    5.60
  -8  -1   2  151.88    5.50
  -8   1   1  429.06   17.60
   8   1  -1  453.05   17.10
  -8  -1   1  468.75   17.10
   8  -1  -1  454.85   18.30
  -8  -1   1  449.56   15.30
  -8   1   0   36.20    1.40
   8   1   0   37.60    1.50
  -8   1   0   35.70    1.40
  -8   1   0   41.30    3.10
   8   1   0   35.60    1.40
   8   1   0   39.20    2.70
   8   1   0   36.70    1.40
   8  -1   0   35.60    1.50
  -8  -1   0   34.70    1.30
   8  -1   0   34.40    1.50
   8  -1   0   39.00    3.30
  -8  -1   0   36.30    1.40
  -8  -1   0   36.90    1.40
  -8  -1   0   35.60    2.40
   8  -1   0   35.30    1.30
   8  -1   0   34.40    1.50
   8   1   1  289.27   10.00
  -8   1  -1  290.77   12.70
   8   1   1  297.97   11.90
   8  -1   1  301.47   13.00
  -8  -1  -1  286.97   10.10
  -8  -1  -1  286.37   10.00
   8  -1   1  299.27   10.20
   8  -1   1  291.57   10.10
  -8  -1  -1  301.97   11.60
  -8   1  -2  184.88    6.30
  -8   1  -2  177.68    9.20
  -8   1  -2  177.88    6.30
   8   1   2  182.08    6.40
   8   1   2  179.58    6.30
  -8   1  -2  180.58    8.50
   8  -1   2  177.08    6.40
  -8  -1  -2  179.38    6.30
  -8  -1  -2  192.18    8.40
  -8  -1  -2  183.08    6.40
   8  -1   2  186.28    6.40
   8  -1   2  184.78    6.50
  -8  -1  -2  180.58    6.40
  -8  -1  -2  189.58    7.80
  -8   1  -3   17.40    2.10
  -8   1  -3   19.40    0.80
  -8   1  -3   20.20    0.90
  -8   1  -3   17.80    2.50
   8   1   3   18.20    0.90
   8   1   3   17.80    0.80
   8   1   3   18.60    1.00
   8  -1   3   18.40    0.90
  -8  -1  -3   17.60    0.90
  -8  -1  -3   19.50    0.90
   8  -1   3   19.50    0.90
  -8  -1  -3   19.50    0.90
  -8  -1  -3   21.30    2.30
   8  -1   3   19.00    1.00
  -8   1  -4   13.60    0.70
   8   1   4   13.60    0.90
   8   1   4   14.80    0.70
   8   1   4   14.80    0.70
  -8   1  -4   13.70    2.40
   8   1   4   13.70    0.80
  -8   1  -4   14.40    0.70
  -8   1  -4   17.10    2.10
  -8  -1  -4   13.90    0.70
  -8  -1  -4   16.60    2.00
  -8  -1  -4   16.40    2.20
   8  -1   4   13.30    0.90
   8  -1   4   13.20    0.80
  -8  -1  -4   15.90    0.80
   8  -1   4   13.60    0.80
  -8   1  -5   45.60    4.50
  -8   1  -5   40.30    3.80
  -8   1  -5   42.20    1.80
   8   1   5   44.10    2.00
   8   1   5   44.60    1.90
  -8   1  -5   45.60    1.80
   8   1   5   43.90    1.70
  -8  -1  -5   44.60    3.70
   8  -1   5   45.80    1.90
  -8  -1  -5   45.50    4.30
  -8  -1  -5   44.20    1.90
   8  -1   5   41.20    2.00
  -8  -1  -5   44.90    1.70
   8  -1   5   43.20    1.90
  -8  -1  -5   43.90    1.80
  -8   1  -6    3.90    1.80
  -8   1  -6    3.30    0.40
   8   1   6    2.70    0.50
  -8   1  -6    3.50    0.40
  -8   1  -6    4.70    1.70
   8   1   6    2.70    0.50
   8   1   6    2.70    0.30
   8  -1   6    2.90    0.40
  -8  -1  -6    2.50    0.40
   8  -1   6    3.30    0.50
  -8  -1  -6    1.30    1.10
  -8  -1  -6    2.60    0.30
  -8  -1  -6    2.90    0.40
  -8  -1  -6    3.80    1.70
   8  -1   6    3.70    0.50
  -8   1  -7   16.70    0.90
  -8   1  -7   16.70    1.00
  -8   1  -7   16.40    0.90
   8   1   7   16.10    1.10
   8   1   7   15.80    1.10
  -8   1  -7   16.00    2.80
   8  -1   7   14.60    1.00
  -8  -1  -7   14.60    0.90
   8  -1   7   16.30    1.10
  -8  -1  -7   19.80    3.00
  -8  -1  -7   16.00    1.00
  -8  -1  -7   15.90    0.90
  -8   1  -8    4.70    1.80
   8   1   8    2.30    0.50
  -8   1  -8    1.80    0.40
  -8   1  -8    1.70    0.40
   8   1   8    1.90    0.50
   8  -1   8    1.50    0.50
   8  -1   8    1.30    0.40
  -8  -1  -8    1.50    0.30
  -8  -1  -8    1.60    0.40
   8   2 -10    7.20    0.70
  -8   2  10    8.40    0.90
  -8   2  10    8.10    0.70
   8   2 -10    7.20    0.70
   8  -2 -10    7.10    0.70
  -8  -2  10    6.40    0.70
  -8  -2  10    7.10    0.80
   8  -2 -10    7.70    0.80
  -8  -2  10    7.00    0.80
   8   2  -9    0.60    0.30
  -8   2   9    0.40    0.30
  -8   2   9    0.30    0.30
   8   2  -9    0.50    0.30
   8  -2  -9    0.10    1.30
   8  -2  -9    0.50    0.30
   8  -2  -9    0.10    0.20
  -8  -2   9    0.80    0.30
   8  -2  -9    0.30    0.30
  -8  -2   9    1.00    0.40
  -8  -2   9    0.60    0.30
  -8   2   8   12.00    2.60
   8   2  -8    8.70    2.30
   8   2  -8    9.90    0.70
  -8   2   8    9.40    0.80
  -8   2   8    9.80    0.70
   8   2  -8    9.60    0.70
   8  -2  -8    7.20    2.00
  -8  -2   8   10.00    0.80
  -8  -2   8    9.50    0.70
  -8  -2   8    9.30    2.30
   8  -2  -8    8.80    0.70
   8  -2  -8    9.90    0.80
   8  -2  -8    9.10    0.70
  -8  -2   8    8.40    0.80
  -8   2   7    1.20    0.30
   8   2  -7    1.50    1.00
   8   2  -7    1.20    0.30
  -8   2   7    0.20    0.70
   8   2  -7    1.40    0.30
  -8   2   7    0.70    0.20
  -8   2   7    1.40    0.40
   8  -2  -7    1.10    0.30
  -8  -2   7    0.50    0.30
   8  -2  -7    1.10    0.30
  -8  -2   7    0.70    0.30
   8  -2  -7    1.00    0.30
  -8  -2   7    0.90    0.40
  -8  -2   7    0.10    0.70
   8  -2  -7    0.30    0.80
  -8   2   6  122.29    4.40
  -8   2   6  125.59    4.50
   8   2  -6  126.39    4.40
   8   2  -6  124.99    7.40
  -8   2   6  125.09    4.60
  -8   2   6  124.19    7.40
   8   2  -6  124.49    4.50
   8  -2  -6  116.99    4.50
  -8  -2   6  123.29    7.40
   8  -2  -6  127.19    4.50
   8  -2  -6  108.99    7.40
   8  -2  -6  130.29    4.60
  -8  -2   6  127.09    4.50
  -8  -2   6  118.39    4.60
  -8  -2   6  126.49    4.70
   8   2  -5   40.80    3.60
   8   2  -5   40.10    1.60
  -8   2   5   35.90    1.60
  -8   2   5   36.40    1.70
  -8   2   5   42.70    3.70
  -8   2   5   38.70    1.50
   8   2  -5   38.70    1.50
   8  -2  -5   37.60    1.70
   8  -2  -5   39.90    1.60
  -8  -2   5   41.00    1.60
  -8  -2   5   40.90    1.70
  -8  -2   5   40.60    3.60
   8  -2  -5   34.90    3.50
   8  -2  -5   37.30    1.60
  -8  -2   5   41.60    1.80
  -8   2   4  264.87    9.00
   8   2  -4  256.17   11.50
  -8   2   4  255.17    9.10
   8   2  -4  260.37    9.00
  -8   2   4  272.97   12.00
   8  -2  -4  262.67    9.10
   8  -2  -4  264.87    9.10
  -8  -2   4  266.07    9.20
  -8  -2   4  253.07    9.10
  -8  -2   4  264.87    9.00
  -8  -2   4  260.47   11.70
   8  -2  -4  255.87    9.10
   8  -2  -4  265.57   12.00
   8   2  -3    8.00    1.40
  -8   2   3   10.00    0.50
   8   2  -3    7.90    0.50
   8   2  -3    7.10    0.60
  -8   2   3   10.20    0.50
  -8   2   3    9.50    0.50
  -8   2   3    9.10    1.60
   8  -2  -3   10.10    0.60
  -8  -2   3    7.50    0.50
   8  -2  -3    8.70    1.60
  -8  -2   3    7.60    0.50
   8  -2  -3   10.60    0.60
  -8  -2   3    6.90    1.60
   8  -2  -3   10.80    0.60
  -8  -2   3    7.40    0.60
   8   2  -2  729.93   26.70
  -8   2   2  743.13   27.90
  -8  -2   2  709.43   26.60
   8  -2  -2  737.93   28.00
   8   2  -1   32.60    2.30
  -8   2   1   34.70    3.10
   8   2  -1   34.90    1.30
  -8   2   1   32.70    1.30
  -8   2   1   31.40    1.30
   8   2  -1   34.40    1.40
  -8  -2   1   32.60    1.40
   8  -2  -1   29.50    3.00
   8  -2  -1   31.60    1.40
   8  -2  -1   34.30    1.50
  -8  -2   1   32.80    1.30
  -8  -2   1   34.60    2.30
   8  -2  -1   34.30    1.40
  -8  -2   1   32.10    1.40
   8   2   0 1918.71   65.79
  -8   2   0 1907.91   67.89
   8  -2   0 1880.51   68.19
  -8  -2   0 1955.00   65.49
  -8   2  -1  127.59    4.50
  -8   2  -1  126.09    4.40
   8   2   1  123.99    4.60
  -8   2  -1  128.19    7.20
   8   2   1  128.29    4.60
   8  -2   1  129.59    4.60
   8  -2   1  129.69    4.60
   8  -2   1  130.09    4.60
  -8  -2  -1  125.49    4.40
  -8  -2  -1  125.99    4.50
   8  -2   1  127.69    4.40
  -8  -2  -1  124.19    4.60
   8  -2   1  127.39    7.40
   8   2   2  103.59    3.90
  -8   2  -2  108.59    3.80
  -8   2  -2  109.69    3.80
   8   2   2  106.59    3.90
  -8   2  -2  108.69    6.80
  -8  -2  -2  103.69    3.90
  -8  -2  -2  106.49    4.80
  -8  -2  -2  107.49    3.90
   8  -2   2  105.99    3.90
   8  -2   2  108.19    3.80
  -8  -2  -2  108.69    3.80
   8  -2   2  108.59    4.00
  -8   2  -3    9.10    0.50
   8   2   3   11.10    0.70
  -8   2  -3    9.80    0.50
   8   2   3   10.40    0.70
  -8   2  -3   11.10    1.80
  -8   2  -3   12.50    2.10
  -8  -2  -3   10.10    0.60
  -8  -2  -3   10.10    0.50
  -8  -2  -3   10.00    0.60
   8  -2   3   10.30    0.60
  -8  -2  -3   10.40    1.40
   8  -2   3   10.40    0.70
  -8  -2  -3    9.30    0.60
   8  -2   3   10.50    0.60
  -8  -2  -3   10.30    1.20
  -8   2  -4  105.79    7.30
  -8   2  -4  106.59    3.90
  -8   2  -4  105.19    6.50
   8   2   4  112.69    4.20
  -8   2  -4  110.49    4.00
   8   2   4  115.69    4.20
  -8  -2  -4  108.89    4.10
  -8  -2  -4  110.09    4.10
  -8  -2  -4  113.09    4.00
  -8  -2  -4  111.09    3.90
   8  -2   4  106.99    4.10
   8  -2   4  110.39    4.10
  -8  -2  -4  115.99    5.80
   8  -2   4  102.19    4.20
  -8  -2  -4  112.99    6.40
  -8   2  -5    1.90    0.30
  -8   2  -5    1.90    0.30
   8   2   5    1.10    0.30
  -8   2  -5    2.60    1.10
  -8   2  -5    0.90    1.10
   8   2   5    1.40    0.30
   8   2   5    2.00    0.30
   8  -2   5    1.90    0.40
  -8  -2  -5    1.70    0.40
   8  -2   5    2.20    0.40
  -8  -2  -5    1.30    1.10
  -8  -2  -5    2.50    1.00
  -8  -2  -5    1.80    0.30
  -8  -2  -5    1.60    0.30
   8  -2   5    2.30    0.40
   8   2   6    0.20    0.30
  -8   2  -6    0.10    0.20
  -8   2  -6    0.30    1.20
   8   2   6    0.30    0.30
  -8   2  -6    1.10    1.00
   8   2   6    0.40    0.20
  -8   2  -6    0.30    0.20
  -8  -2  -6    0.40    0.30
   8  -2   6    0.30    0.30
  -8  -2  -6    0.40    0.20
   8  -2   6    0.20    0.30
  -8  -2  -6    0.40    0.20
   8  -2   6    0.30    0.20
  -8  -2  -6   -0.20    1.50
  -8  -2  -6    0.10    0.60
   8   2   7    1.40    0.40
   8   2   7    1.20    0.30
  -8   2  -7    1.10    0.30
  -8   2  -7   -0.80    1.70
  -8   2  -7    1.10    1.10
  -8   2  -7    1.10    0.30
   8   2   7    1.10    0.40
  -8  -2  -7    1.10    0.30
  -8  -2  -7    1.90    0.50
  -8  -2  -7    1.40    0.30
   8  -2   7    1.30    0.40
   8  -2   7    1.60    0.50
   8   2   8   10.00    0.90
  -8   2  -8    9.00    0.70
   8   2   8   10.10    0.90
  -8   2  -8    9.10    0.70
  -8  -2  -8    8.80    0.70
   8  -2   8    9.80    0.90
  -8  -2  -8    8.80    0.90
   8  -2   8    8.60    0.90
  -8   3   9    7.40    0.60
   8   3  -9    6.70    0.60
  -8   3   9    8.30    0.80
   8   3  -9    6.80    0.60
   8  -3  -9    7.50    0.70
  -8  -3   9    6.60    0.70
   8  -3  -9    8.00    0.80
  -8  -3   9    7.30    0.70
  -8  -3   9    7.70    0.80
  -8   3   8    1.00    0.40
   8   3  -8    0.30    0.30
  -8   3   8    0.70    0.30
   8   3  -8   -0.50    1.00
   8   3  -8    0.40    0.20
  -8   3   8    0.80    0.80
  -8  -3   8    1.60    1.20
  -8  -3   8    0.20    0.20
  -8  -3   8    0.50    0.30
   8  -3  -8    0.50    0.30
  -8  -3   8    0.60    0.40
   8  -3  -8    0.50    0.30
   8  -3  -8   -0.70    0.90
  -8   3   7   34.80    1.50
   8   3  -7   34.90    1.60
   8   3  -7   35.90    1.50
  -8   3   7   35.50    1.70
   8   3  -7   34.90    3.70
  -8   3   7   35.10    1.50
  -8   3   7   34.20    3.60
   8  -3  -7   33.80    1.60
  -8  -3   7   38.20    1.70
   8  -3  -7   34.30    1.70
   8  -3  -7   37.60    1.60
   8  -3  -7   28.20    3.50
  -8  -3   7   39.60    3.90
  -8  -3   7   36.10    1.80
  -8  -3   7   36.20    1.70
  -8   3   6   27.90    1.40
   8   3  -6   31.20    3.30
  -8   3   6   26.50    3.20
  -8   3   6   28.90    1.30
  -8   3   6   30.20    1.30
   8   3  -6   30.40    1.20
   8   3  -6   30.60    1.30
   8  -3  -6   29.80    1.30
  -8  -3   6   29.10    3.20
   8  -3  -6   28.80    1.40
  -8  -3   6   33.50    1.50
   8  -3  -6   28.60    3.40
  -8  -3   6   33.70    1.40
   8  -3  -6   28.70    1.50
  -8  -3   6   31.70    1.50
   8   3  -5   67.79    2.60
  -8   3   5   72.39    2.70
   8   3  -5   69.79    2.50
  -8   3   5   71.59    2.60
  -8   3   5   69.09    2.60
   8   3  -5   68.19    5.00
  -8   3   5   57.89    4.80
  -8  -3   5   66.49    2.80
  -8  -3   5   71.79    5.00
  -8  -3   5   70.89    2.70
  -8  -3   5   68.09    2.80
   8  -3  -5   71.19    2.60
   8  -3  -5   70.19    2.80
   8  -3  -5   72.19    5.30
   8  -3  -5   74.59    2.70
  -8   3   4    2.80    0.30
  -8   3   4    3.00    0.30
   8   3  -4    3.90    0.30
  -8   3   4    3.40    1.30
   8   3  -4    5.00    1.50
  -8   3   4    2.70    0.30
  -8  -3   4    4.10    0.30
  -8  -3   4    4.00    0.40
  -8  -3   4    5.00    1.50
   8  -3  -4    3.50    0.30
   8  -3  -4    3.10    0.40
  -8  -3   4    3.70    0.40
   8  -3  -4    2.80    1.30
  -8  -3   4    4.10    0.40
   8  -3  -4    3.20    0.40
  -8   3   3  623.64   24.20
   8   3  -3  626.34   23.60
   8  -3  -3  601.04   21.20
  -8  -3   3  606.94   21.10
  -8  -3   3  626.34   23.60
   8  -3  -3  633.74   24.80
  -8   3   2   41.60    1.70
  -8   3   2   42.70    1.70
   8   3  -2   44.60    1.70
   8   3  -2   48.30    1.90
  -8   3   2   45.30    3.80
   8   3  -2   47.00    3.10
  -8  -3   2   47.70    3.10
  -8  -3   2   50.49    1.90
  -8  -3   2   45.40    1.80
   8  -3  -2   42.50    1.70
  -8  -3   2   44.70    1.80
   8  -3  -2   43.50    1.90
   8  -3  -2   37.60    3.90
   8  -3  -2   41.90    1.80
   8   3  -1  330.37   11.10
  -8   3   1  313.87   14.10
   8   3  -1  310.77   12.20
   8   3  -1  298.27   10.80
   8   3  -1  308.67   10.80
   8  -3  -1  327.07   11.20
   8  -3  -1  320.87   14.80
  -8  -3   1  332.97   12.30
  -8  -3   1  314.77   10.90
  -8  -3   1  313.27   11.00
   8  -3  -1  327.17   11.10
   8  -3  -1  331.67   11.00
   8   3   0  207.48    7.30
  -8   3   0  204.88    7.20
  -8   3   0  205.68    7.10
  -8   3   0  209.38   10.30
   8  -3   0  206.98    7.30
   8  -3   0  196.18   10.60
  -8  -3   0  206.58    7.30
   8  -3   0  210.28    7.30
  -8  -3   0  211.18    7.10
  -8  -3   0  207.38    7.30
   8  -3   0  212.58    7.40
  -8   3  -1  320.47   10.90
  -8   3  -1  326.77   14.70
   8  -3   1  323.27   11.20
  -8  -3  -1  328.37   11.00
   8  -3   1  322.77   10.90
  -8  -3  -1  328.47   11.20
   8  -3   1  303.87   11.20
   8  -3   1  316.17   11.20
   8  -3   1  324.67   15.00
   8   3   2    3.90    0.40
   8   3   2    3.70    0.40
  -8   3  -2    3.50    1.30
  -8   3  -2    4.60    0.40
   8  -3   2    4.80    0.30
   8  -3   2    5.20    0.50
   8  -3   2    5.20    1.90
  -8  -3  -2    3.50    0.40
  -8  -3  -2    3.60    0.40
   8  -3   2    4.80    0.40
  -8  -3  -2    3.60    0.30
  -8   3  -3   98.99    6.10
   8   3   3   91.39    3.60
  -8   3  -3   94.29    3.40
  -8   3  -3   83.19    6.60
  -8   3  -3   93.49    3.40
   8   3   3   95.99    3.60
  -8  -3  -3   96.79    3.50
  -8  -3  -3   96.39    3.60
   8  -3   3  101.09    3.60
  -8  -3  -3   97.89    3.60
   8  -3   3   91.59    3.50
   8  -3   3   89.99    3.70
   8   3   4   60.89    2.60
  -8   3  -4   58.29    4.70
   8   3   4   65.39    2.60
  -8   3  -4   67.39    2.50
  -8   3  -4   65.69    5.80
  -8   3  -4   64.29    2.50
  -8  -3  -4   65.29    3.60
  -8  -3  -4   62.59    2.60
  -8  -3  -4   65.49    4.00
   8  -3   4   66.19    2.70
  -8  -3  -4   64.89    2.60
   8  -3   4   69.89    2.70
  -8  -3  -4   65.39    2.50
   8  -3   4   69.69    2.60
  -8   3  -5   40.80    1.70
  -8   3  -5   45.50    4.80
   8   3   5   41.10    1.90
   8   3   5   43.00    1.70
   8   3   5   41.20    1.90
  -8   3  -5   37.80    3.90
  -8   3  -5   43.20    1.70
   8  -3   5   43.70    2.00
   8  -3   5   43.10    1.90
  -8  -3  -5   43.50    1.80
  -8  -3  -5   40.80    3.20
  -8  -3  -5   42.90    1.90
   8  -3   5   42.60    1.80
  -8  -3  -5   42.30    1.60
   8   3   6   13.00    0.90
  -8   3  -6   13.10    2.50
  -8   3  -6   10.30    3.00
   8   3   6   14.00    0.80
  -8   3  -6   13.90    0.80
   8   3   6   13.90    0.90
  -8   3  -6   13.30    0.80
  -8  -3  -6   13.50    1.00
   8  -3   6   12.40    0.90
   8  -3   6   11.30    0.90
  -8  -3  -6   13.10    0.80
   8  -3   6   13.40    0.80
  -8   3  -7   19.90    3.20
   8   3   7   21.10    1.10
   8   3   7   22.10    1.30
  -8   3  -7   14.30    3.50
   8   3   7   21.70    1.30
  -8   3  -7   21.20    1.10
   8  -3   7   21.70    1.30
   8  -3   7   21.20    1.10
   8  -3   7   20.40    1.30
  -8  -3  -7   20.90    1.30
   8   3   8   -0.10    0.20
  -8   3  -8    0.20    0.20
   8   3   8    0.10    0.30
  -8   3  -8    0.50    0.30
   8  -3   8    0.50    0.40
   8  -3   8    0.30    0.30
  -8  -3  -8    0.00    0.30
  -8  -3  -8    0.70    0.30
  -8   4   9    0.10    0.30
   8   4  -9    0.30    0.30
  -8   4   9    0.30    0.40
  -8  -4   9    0.30    0.30
   8  -4  -9   -0.10    0.30
   8  -4  -9    0.30    0.30
  -8  -4   9    0.10    0.30
  -8  -4   9    0.20    0.30
  -8   4   8   23.20    1.10
  -8   4   8   22.30    1.10
   8   4  -8   20.00    1.10
   8   4  -8   22.00    1.10
   8   4  -8   13.80    2.80
  -8   4   8   23.50    1.30
  -8  -4   8   23.60    3.30
  -8  -4   8   22.70    1.40
   8  -4  -8   23.60    3.60
   8  -4  -8   21.00    1.20
  -8  -4   8   22.40    1.20
  -8  -4   8   22.90    1.30
   8  -4  -8   22.50    1.30
   8   4  -7    3.00    1.50
  -8   4   7    2.60    0.50
  -8   4   7    3.90    0.40
   8   4  -7    3.10    0.40
  -8   4   7    3.00    0.40
   8   4  -7    3.50    0.40
  -8   4   7    2.90    1.20
  -8  -4   7    3.30    0.50
  -8  -4   7    1.70    1.20
   8  -4  -7    3.70    0.60
   8  -4  -7    2.30    1.40
  -8  -4   7    3.80    0.50
  -8  -4   7    3.90    0.60
   8  -4  -7    2.80    0.50
  -8   4   6   30.20    1.50
  -8   4   6   31.60    3.40
  -8   4   6   31.50    1.40
   8   4  -6   31.30    1.20
   8   4  -6   31.30    1.40
   8   4  -6   29.30    3.30
  -8   4   6   30.80    1.40
   8  -4  -6   26.90    3.50
   8  -4  -6   28.50    1.50
  -8  -4   6   31.50    1.50
  -8  -4   6   32.40    1.50
  -8  -4   6   31.30    3.40
   8  -4  -6   29.50    1.40
  -8  -4   6   31.00    1.60
  -8   4   5   18.70    1.00
   8   4  -5   22.90    2.80
  -8   4   5   18.80    0.90
  -8   4   5   19.40    1.00
   8   4  -5   19.50    0.80
   8   4  -5   22.20    1.00
  -8   4   5   21.70    2.70
   8  -4  -5   19.30    1.20
   8  -4  -5   20.20    2.90
   8  -4  -5   19.80    1.10
  -8  -4   5   20.90    2.60
  -8  -4   5   22.40    1.20
  -8  -4   5   20.90    1.10
  -8  -4   5   22.20    1.10
   8   4  -4  186.38    9.40
   8   4  -4  185.48    6.60
   8   4  -4  179.18    6.50
  -8   4   4  198.58    6.70
  -8   4   4  192.98    6.70
  -8   4   4  191.58    6.70
  -8   4   4  194.78    9.80
  -8  -4   4  187.88    6.80
   8  -4  -4  200.18    6.90
  -8  -4   4  179.88    6.80
  -8  -4   4  192.78    9.50
  -8  -4   4  185.48    6.70
   8  -4  -4  191.28   10.30
  -8  -4   4  182.58    6.90
   8  -4  -4  203.08    6.80
  -8   4   3    0.80    0.20
   8   4  -3    0.60    0.20
   8   4  -3    0.50    0.20
  -8   4   3    0.60    0.20
   8   4  -3    1.10    0.70
  -8   4   3    1.20    0.80
  -8   4   3    1.20    0.20
  -8  -4   3    0.40    0.60
   8  -4  -3    1.10    0.30
   8  -4  -3    0.90    0.20
  -8  -4   3    0.80    0.20
  -8  -4   3    0.70    0.30
  -8  -4   3    0.60    0.20
   8  -4  -3    2.40    1.30
   8  -4  -3    1.50    0.40
  -8   4   2  127.49    7.40
   8   4  -2  133.69    4.60
  -8   4   2  126.59    4.70
  -8   4   2  129.59    4.70
   8   4  -2  136.09    6.40
   8  -4  -2  135.79    4.90
  -8  -4   2  130.79    4.80
   8  -4  -2  132.89    8.20
  -8  -4   2  129.09    4.60
   8  -4  -2  131.89    4.80
  -8  -4   2  132.29    4.80
   8  -4  -2  132.89    4.70
  -8  -4   2  130.29    4.80
  -8  -4   2  135.09    6.50
   8   4  -1    6.90    0.30
   8   4  -1    7.50    1.00
   8   4  -1    6.70    0.50
  -8   4   1    8.10    2.00
  -8   4   1    5.60    0.40
  -8   4   1    6.40    0.40
  -8  -4   1    6.60    1.00
  -8  -4   1    6.80    0.50
   8  -4  -1    7.50    2.20
   8  -4  -1    6.60    0.50
  -8  -4   1    6.30    0.50
   8  -4  -1    5.60    0.40
   8  -4  -1    5.90    0.60
  -8  -4   1    7.30    0.60
  -8  -4   1    6.50    0.40
  -8   4   0  433.86   14.90
  -8   4   0  448.46   18.90
   8   4   0  419.66   15.10
   8  -4   0  431.36   19.30
  -8  -4   0  432.16   15.10
   8  -4   0  443.16   15.10
   8  -4   0  452.55   15.10
  -8  -4   0  443.46   15.00
   8  -4   0  452.05   15.20
  -8  -4   0  424.86   15.10
   8   4   1  179.38    6.50
   8   4   1  177.18    6.50
  -8   4  -1  181.58    6.30
  -8   4  -1  180.38   10.00
  -8   4  -1  185.48    6.40
   8  -4   1  189.38    6.70
  -8  -4  -1  183.28    6.50
   8  -4   1  186.28    6.60
   8  -4   1  193.18    6.60
  -8  -4  -1  176.68    6.60
  -8  -4  -1  178.78    6.60
   8  -4   1  191.98   10.40
   8   4   2   89.19    3.40
  -8   4  -2   89.09    3.30
   8   4   2   95.39    3.40
  -8   4  -2   83.79    6.50
  -8  -4  -2   93.39    3.50
   8  -4   2   84.69    3.40
   8  -4   2   87.99    3.20
   8  -4   2   86.49    3.50
  -8  -4  -2   90.39    3.40
  -8  -4  -2   91.29    3.30
   8  -4   2   87.69    3.50
   8   4   3    4.20    0.50
   8   4   3    4.40    0.40
  -8   4  -3    4.30    1.40
  -8   4  -3    3.10    0.40
  -8   4  -3    3.20    0.40
  -8   4  -3    3.80    1.50
   8  -4   3    3.50    0.40
  -8  -4  -3    3.90    0.50
   8  -4   3    3.40    0.40
  -8  -4  -3    4.50    0.50
  -8  -4  -3    4.00    0.40
   8   4   4   35.30    1.60
  -8   4  -4   36.40    1.50
  -8   4  -4   37.70    4.30
  -8   4  -4   34.70    3.50
   8   4   4   35.40    1.70
  -8   4  -4   35.30    1.50
   8  -4   4   34.10    1.70
  -8  -4  -4   35.90    1.60
   8  -4   4   35.70    1.60
   8  -4   4   38.20    1.60
  -8  -4  -4   35.90    1.70
  -8  -4  -4   37.10    1.70
  -8   4  -5    7.90    0.50
   8   4   5    7.30    0.60
  -8   4  -5    8.50    2.50
  -8   4  -5    8.10    0.50
   8   4   5    6.40    0.60
  -8   4  -5    9.40    1.90
   8   4   5    7.10    0.50
  -8  -4  -5    6.80    0.70
  -8  -4  -5    6.80    0.60
   8  -4   5    7.80    0.70
   8  -4   5    8.10    0.70
   8  -4   5    7.50    0.60
   8   4   6    7.10    0.70
   8   4   6    7.10    0.60
  -8   4  -6    6.00    0.50
   8   4   6    7.10    0.70
  -8   4  -6    6.90    0.50
  -8   4  -6    9.80    3.00
  -8   4  -6    4.60    1.70
  -8  -4  -6    7.00    0.70
  -8  -4  -6    8.30    0.70
   8  -4   6    6.20    0.70
   8  -4   6    5.60    0.60
   8  -4   6    6.40    0.60
   8   4   7    5.30    0.70
   8   4   7    5.10    0.60
   8   4   7    4.60    0.50
  -8   4  -7    4.50    0.50
   8  -4   7    3.70    0.60
  -8  -4  -7    5.00    0.60
   8  -4   7    4.20    0.60
   8  -4   7    4.60    0.50
  -8  -4  -7    5.30    0.70
  -8   5   8    1.30    0.30
  -8   5   8    0.70    0.30
   8   5  -8    0.70    0.30
  -8   5   8    0.20    0.30
  -8  -5   8    1.50    0.50
  -8  -5   8    1.40    0.40
  -8  -5   8    1.50    0.40
   8  -5  -8    2.00    1.50
   8  -5  -8    0.80    0.40
   8  -5  -8    0.70    0.40
   8   5  -7    5.60    1.80
  -8   5   7    7.70    0.70
  -8   5   7    7.90    2.10
   8   5  -7    6.30    0.60
  -8   5   7    7.20    0.60
  -8   5   7    7.10    0.60
  -8  -5   7    6.40    0.70
   8  -5  -7    7.10    0.80
  -8  -5   7    5.80    0.60
  -8  -5   7    6.00    0.70
   8  -5  -7    5.50    2.20
   8  -5  -7    6.70    0.70
  -8  -5   7    7.00    2.00
   8   5  -6    1.40    0.30
  -8   5   6    0.10    0.70
  -8   5   6    1.20    0.30
   8   5  -6    1.60    0.20
  -8   5   6    1.20    0.40
   8   5  -6    0.20    1.00
  -8  -5   6    2.10    0.40
   8  -5  -6   -0.60    0.90
   8  -5  -6    0.90    0.40
  -8  -5   6    1.40    0.40
  -8  -5   6    1.60    0.40
  -8  -5   6    0.20    0.80
   8  -5  -6    1.70    0.50
   8   5  -5   68.99    2.50
   8   5  -5   62.99    4.90
  -8   5   5   59.69    5.00
  -8   5   5   62.89    2.50
   8   5  -5   64.29    2.40
  -8   5   5   67.79    2.60
  -8  -5   5   60.79    4.80
  -8  -5   5   66.19    2.80
  -8  -5   5   67.69    2.60
  -8  -5   5   62.49    2.70
   8  -5  -5   56.59    5.40
   8  -5  -5   68.79    2.80
  -8  -5   5   67.39    2.70
   8  -5  -5   65.79    2.70
   8  -5  -5   65.09    2.80
   8   5  -4   66.59    4.90
  -8   5   4   68.29    2.70
   8   5  -4   72.59    2.70
   8   5  -4   69.39    2.50
  -8   5   4   68.59    2.70
  -8   5   4   63.99    5.20
  -8  -5   4   69.69    2.80
   8  -5  -4   70.59    2.80
  -8  -5   4   70.29    2.90
  -8  -5   4   73.29    2.80
   8  -5  -4   69.49    2.90
  -8  -5   4   77.09    5.20
  -8  -5   4   75.09    2.80
   8  -5  -4   62.29    5.70
   8  -5  -4   68.89    2.90
  -8   5   3  137.49    4.70
   8   5  -3  122.39    4.70
   8   5  -3  132.09    4.90
  -8   5   3  125.29    7.60
   8   5  -3  134.89    7.20
  -8   5   3  137.39    4.60
   8  -5  -3  139.79    4.90
  -8  -5   3  123.39    4.90
   8  -5  -3  132.59    5.00
   8  -5  -3  130.59    8.50
  -8  -5   3  130.19    4.90
  -8  -5   3  132.99    4.90
  -8  -5   3  135.99    7.20
   8   5  -2   15.50    0.90
  -8   5   2   15.50    0.80
  -8   5   2   13.70    2.20
   8   5  -2   16.50    1.90
   8   5  -2   15.60    0.70
  -8   5   2   15.60    0.80
   8  -5  -2   15.90    0.90
  -8  -5   2   16.20    1.80
   8  -5  -2   15.70    0.80
   8  -5  -2   22.30    3.20
  -8  -5   2   15.00    0.90
  -8  -5   2   13.80    0.80
  -8  -5   2   15.10    0.90
  -8  -5   2   14.50    0.90
   8  -5  -2   15.10    1.00
  -8   5   1  112.29    3.90
   8   5  -1  106.09    3.80
   8   5  -1  109.19    5.30
   8   5  -1  108.99    4.10
  -8   5   1  113.69    7.20
  -8   5   1  111.19    4.00
   8   5  -1  110.29    5.80
  -8  -5   1  108.39    4.10
   8  -5  -1  106.09    4.30
   8  -5  -1  118.99    7.90
  -8  -5   1  110.09    4.20
  -8  -5   1  103.49    4.10
   8  -5  -1  111.29    4.10
   8  -5  -1  114.39    4.10
  -8   5   0    5.10    1.80
   8   5   0    4.50    0.50
  -8   5   0    3.70    0.40
  -8   5   0    3.30    0.30
   8   5   0    4.10    0.40
  -8  -5   0    4.70    0.50
  -8  -5   0    4.60    0.50
   8  -5   0    1.90    1.20
   8  -5   0    3.20    0.40
   8  -5   0    3.10    0.40
   8  -5   0    3.40    0.50
  -8  -5   0    4.50    0.40
   8   5   1  136.79    5.00
   8   5   1  140.79    5.10
  -8   5  -1  139.09    8.80
  -8   5  -1  137.89    4.80
  -8   5  -1  134.69    4.90
  -8  -5  -1  137.99    5.00
  -8  -5  -1  141.09    5.10
   8  -5   1  139.29    5.10
  -8  -5  -1  133.79    5.10
   8  -5   1  138.29    5.20
   8  -5   1  136.09    5.10
   8  -5   1  144.49    9.00
   8   5   2  110.89    4.30
  -8   5  -2  117.09    4.10
  -8   5  -2  119.49    8.00
  -8   5  -2  117.09    7.10
   8   5   2  108.09    4.20
   8  -5   2  109.39    4.40
  -8  -5  -2  110.79    4.30
   8  -5   2  122.29    4.10
   8  -5   2  119.79    4.40
  -8  -5  -2  108.59    4.30
  -8  -5  -2  114.39    4.20
   8  -5   2  119.19    4.30
  -8   5  -3   60.89    4.90
  -8   5  -3   57.49    2.30
   8   5   3   60.39    2.50
   8   5   3   62.69    2.50
  -8   5  -3   59.79    2.30
  -8   5  -3   56.59    5.50
   8  -5   3   60.79    2.40
   8  -5   3   58.89    2.50
  -8  -5  -3   55.19    2.50
  -8  -5  -3   60.79    2.50
   8  -5   3   60.29    2.60
  -8  -5  -3   60.29    2.40
   8   5   4    1.70    0.30
  -8   5  -4    3.10    1.80
   8   5   4    1.20    0.30
  -8   5  -4    1.90    1.10
  -8   5  -4    2.00    0.40
  -8   5  -4    2.80    0.40
   8  -5   4    2.20    0.40
  -8  -5  -4    1.80    0.40
   8  -5   4    2.20    0.50
   8  -5   4    1.80    0.40
  -8  -5  -4    1.70    0.40
  -8  -5  -4    2.00    0.40
  -8   5  -5   38.00    4.00
  -8   5  -5   36.60    1.60
  -8   5  -5   35.70    4.70
   8   5   5   37.10    1.70
   8   5   5   37.40    1.60
   8   5   5   36.50    1.70
  -8   5  -5   36.30    1.50
  -8  -5  -5   35.80    1.80
   8  -5   5   36.40    1.70
   8  -5   5   33.60    1.80
   8  -5   5   34.30    1.70
  -8  -5  -5   37.40    1.70
  -8   5  -6    0.60    0.20
   8   5   6    0.20    0.30
  -8   5  -6   -0.10    1.10
   8   5   6    0.30    0.20
  -8   5  -6    0.40    0.20
   8   5   6    0.40    0.30
   8  -5   6    0.70    0.30
   8  -5   6    1.10    0.40
  -8  -5  -6    0.70    0.40
   8  -5   6    0.50    0.30
  -8  -5  -6    0.20    0.30
   8   5   7   16.30    1.00
   8   5   7   16.50    1.10
  -8   5  -7   16.50    0.90
   8  -5   7   16.70    1.20
  -8  -5  -7   16.70    1.10
  -8  -5  -7   15.10    1.20
   8  -5   7   17.10    1.00
   8  -5   7   16.80    1.20
  -8   6   8   10.20    0.70
   8   6  -8    9.60    0.80
  -8   6   8   11.20    0.90
  -8   6   8   10.20    0.70
  -8  -6   8   10.00    0.90
  -8  -6   8   10.80    0.90
   8  -6  -8    9.60    0.90
  -8  -6   8   11.10    0.90
   8  -6  -8    9.20    0.90
  -8   6   7   -2.10    1.00
   8   6  -7   -1.50    1.00
   8   6  -7    0.00    0.20
  -8   6   7    0.40    0.30
  -8   6   7    0.30    0.20
   8  -6  -7    0.60    0.40
  -8  -6   7    0.40    0.30
  -8  -6   7    0.30    0.30
   8  -6  -7    0.50    0.40
  -8  -6   7    0.10    0.30
   8  -6  -7    1.10    1.50
  -8  -6   7   -0.30    1.10
  -8   6   6   38.50    1.80
  -8   6   6   34.80    3.90
  -8   6   6   36.90    1.60
   8   6  -6   36.70    1.60
   8   6  -6   32.80    3.90
   8  -6  -6   36.80    1.90
   8  -6  -6   36.90    1.90
  -8  -6   6   35.20    1.80
  -8  -6   6   36.20    1.80
  -8  -6   6   35.20    1.80
  -8  -6   6   33.90    3.80
   8  -6  -6   29.80    4.60
   8  -6  -6   36.30    1.80
   8   6  -5   11.60    2.30
  -8   6   5   12.00    0.70
   8   6  -5   13.20    0.70
   8   6  -5   13.00    0.60
  -8   6   5   13.40    3.20
  -8   6   5   12.70    0.80
  -8  -6   5   13.10    2.30
   8  -6  -5   11.60    1.00
   8  -6  -5   12.60    1.00
  -8  -6   5   14.10    1.00
  -8  -6   5   10.20    0.80
  -8  -6   5   11.80    0.90
   8  -6  -5    8.70    2.50
   8  -6  -5   12.10    0.90
  -8  -6   5   14.20    0.90
   8   6  -4   12.80    0.70
   8   6  -4   11.00    2.20
  -8   6   4   12.50    0.70
   8   6  -4   13.30    0.60
  -8   6   4   12.80    0.80
  -8   6   4   15.80    2.50
  -8  -6   4   12.80    0.90
   8  -6  -4   13.00    1.00
  -8  -6   4   13.90    0.90
  -8  -6   4   13.10    0.90
  -8  -6   4   14.20    2.30
   8  -6  -4   11.30    3.10
   8  -6  -4   13.10    0.90
  -8  -6   4   14.10    0.90
   8  -6  -4   15.10    1.00
   8   6  -3    1.70    0.30
   8   6  -3    0.70    0.90
   8   6  -3    1.40    0.30
  -8   6   3    1.90    1.10
   8   6  -3    1.60    1.10
  -8   6   3    2.10    0.30
  -8  -6   3    0.90    0.40
  -8  -6   3    1.20    0.40
  -8  -6   3    0.70    0.30
   8  -6  -3    0.70    1.10
   8  -6  -3    2.00    0.50
   8  -6  -3    1.50    0.40
   8  -6  -3    1.70    0.40
  -8  -6   3    1.40    0.30
   8   6  -2   76.29    3.10
  -8   6   2   79.69    2.90
  -8   6   2   80.19    2.90
   8   6  -2   76.99    2.80
  -8   6   2   75.89    5.70
   8   6  -2   76.09    4.80
   8   6  -2   78.29    5.60
   8  -6  -2   79.19    3.10
   8  -6  -2   86.59    6.80
  -8  -6   2   77.49    3.20
  -8  -6   2   74.49    3.00
   8  -6  -2   77.19    3.20
  -8  -6   2   70.99    3.10
  -8  -6   2   74.19    3.10
   8  -6  -2   79.59    2.90
  -8   6   1    0.70    1.10
   8   6  -1    2.60    0.40
   8   6  -1    1.30    0.90
   8   6  -1    2.90    0.20
  -8   6   1    2.40    0.40
  -8   6   1    1.90    0.30
   8   6  -1    4.00    1.10
   8  -6  -1    1.60    0.30
  -8  -6   1    3.10    0.50
  -8  -6   1    2.90    0.50
  -8  -6   1    2.60    0.50
   8  -6  -1    1.90    1.30
   8  -6  -1    1.30    0.30
  -8  -6   1    2.50    0.50
   8  -6  -1    2.60    0.60
  -8   6   0   36.20    1.50
  -8   6   0   34.80    1.50
  -8   6   0   36.50    4.00
   8   6   0   36.90    1.60
   8   6   0   39.40    1.70
   8  -6   0   37.70    1.70
   8  -6   0   36.10    1.80
   8  -6   0   34.90    1.70
  -8  -6   0   38.90    1.80
  -8  -6   0   37.30    1.70
  -8  -6   0   37.10    1.70
   8  -6   0   35.80    4.30
   8   6   1   36.90    1.70
  -8   6  -1   41.40    1.70
  -8   6  -1   42.60    1.60
  -8   6  -1   41.20    4.50
   8   6   1   36.50    1.70
   8  -6   1   41.80    1.80
  -8  -6  -1   37.00    1.90
  -8  -6  -1   36.50    1.80
   8  -6   1   43.70    1.80
   8  -6   1   41.20    1.90
   8  -6   1   47.80    4.90
  -8  -6  -1   37.70    1.80
  -8   6  -2  106.59    3.90
   8   6   2  101.89    4.10
  -8   6  -2  107.69    3.80
  -8   6  -2  112.79    8.00
   8   6   2  103.39    4.00
  -8   6  -2  109.59    7.00
  -8  -6  -2  113.19    4.20
  -8  -6  -2  107.99    4.20
   8  -6   2  110.19    4.10
   8  -6   2  102.59    4.20
   8  -6   2  117.99    4.30
  -8  -6  -2  103.39    4.20
  -8   6  -3    1.20    1.20
   8   6   3    1.00    0.30
  -8   6  -3    0.70    0.80
  -8   6  -3    1.60    0.30
   8   6   3    1.30    0.30
  -8  -6  -3    1.20    0.40
  -8  -6  -3    0.80    0.30
  -8  -6  -3    0.70    0.30
   8  -6   3    1.70    0.50
   8  -6   3    1.30    0.30
   8  -6   3    0.80    0.30
   8   6   4   21.90    1.20
  -8   6  -4   20.50    1.00
  -8   6  -4   22.40    1.00
  -8   6  -4   14.30    2.70
   8   6   4   22.70    1.20
  -8   6  -4   14.60    3.40
  -8  -6  -4   21.30    1.20
   8  -6   4   18.90    1.10
   8  -6   4   19.00    1.20
  -8  -6  -4   20.60    1.20
  -8  -6  -4   22.60    1.30
   8  -6   4   18.70    1.10
  -8   6  -5    0.50    1.30
  -8   6  -5    0.40    0.30
  -8   6  -5    0.10    0.20
   8   6   5    0.30    0.30
   8   6   5    0.20    0.20
  -8  -6  -5    0.80    0.40
  -8  -6  -5   -0.10    0.20
   8  -6   5    0.50    0.30
   8  -6   5    0.40    0.30
   8  -6   5    0.10    0.20
  -8   6  -6    9.40    0.60
   8   6   6    7.70    0.80
   8   6   6    8.40    0.70
   8  -6   6    9.00    0.70
  -8  -6  -6    7.40    0.90
  -8  -6  -6    8.30    0.80
   8  -6   6    9.10    0.80
   8  -6   6    8.60    0.90
   8   7  -7   16.60    1.00
  -8   7   7   16.60    1.00
  -8  -7   7   16.50    1.10
  -8  -7   7   15.90    1.10
   8  -7  -7   19.20    1.30
   8  -7  -7   13.20    4.30
   8  -7  -7   16.40    1.20
  -8  -7   7   16.90    1.20
  -8   7   6    2.50    1.50
  -8   7   6    1.40    0.40
   8   7  -6    2.60    0.40
   8   7  -6    3.00    1.80
   8   7  -6    0.30    1.50
   8  -7  -6    1.60    0.50
   8  -7  -6    1.50    0.50
   8  -7  -6    1.50    0.40
  -8  -7   6    2.40    0.50
   8  -7  -6   -4.10    2.20
  -8  -7   6    2.80    0.60
  -8  -7   6    2.70    0.50
  -8   7   5    7.70    1.90
   8   7  -5    4.10    2.00
   8   7  -5    6.70    2.10
   8   7  -5    7.80    0.60
  -8   7   5    7.60    0.60
   8  -7  -5    8.20    0.70
  -8  -7   5    7.80    0.70
   8  -7  -5    9.60    0.90
   8  -7  -5    6.10    2.60
  -8  -7   5    7.80    0.70
  -8  -7   5    8.00    0.80
   8  -7  -5    8.70    0.90
  -8   7   4    7.70    2.40
   8   7  -4    4.60    1.60
   8   7  -4    7.20    0.50
   8   7  -4    7.50    0.60
  -8   7   4    7.40    0.60
   8   7  -4    7.50    2.50
   8  -7  -4    6.40    0.70
  -8  -7   4    8.00    0.70
   8  -7  -4    7.50    0.80
  -8  -7   4    8.20    0.70
   8  -7  -4    8.30    0.90
  -8  -7   4   10.50    0.90
   8   7  -3   50.39    4.20
  -8   7   3   35.60    4.00
   8   7  -3   42.50    1.70
  -8   7   3   43.00    1.80
   8   7  -3   40.10    4.50
   8   7  -3   40.30    1.90
   8  -7  -3   39.50    1.90
  -8  -7   3   40.60    1.90
  -8  -7   3   43.00    2.00
  -8  -7   3   42.70    1.90
  -8  -7   3   39.60    1.90
   8  -7  -3   42.20    2.00
   8  -7  -3   43.10    2.10
   8  -7  -3   38.80    4.70
  -8   7   2   -0.60    0.60
   8   7  -2    0.10    1.00
  -8   7   2    0.00    0.20
   8   7  -2    0.60    0.80
   8   7  -2    0.50    0.20
   8   7  -2    0.10    0.20
  -8  -7   2    0.20    0.20
   8  -7  -2    0.50    0.40
  -8  -7   2    0.70    0.30
  -8  -7   2    0.20    0.20
   8  -7  -2    0.30    0.30
   8  -7  -2    0.50    1.10
  -8  -7   2    0.50    0.30
  -8   7   1   15.60    0.80
   8   7  -1   16.60    2.40
   8   7  -1   15.60    1.00
  -8   7   1   16.50    0.90
  -8   7   1   17.80    2.90
   8   7  -1   15.10    0.70
   8   7  -1   17.90    2.10
   8  -7  -1   13.80    2.90
  -8  -7   1   15.00    1.10
   8  -7  -1   15.80    0.90
  -8  -7   1   15.30    1.00
  -8  -7   1   15.20    1.00
   8  -7  -1   15.20    1.10
   8  -7  -1   15.50    1.00
  -8  -7   1   13.40    0.90
  -8   7   0    2.80    0.30
   8   7   0    1.70    0.40
   8   7   0    1.50    0.40
  -8   7   0    0.40    1.00
  -8   7   0    3.00    0.40
  -8  -7   0    2.30    0.50
   8  -7   0    1.90    0.50
   8  -7   0    2.50    1.60
   8  -7   0    2.60    0.40
  -8  -7   0    2.20    0.50
   8  -7   0    3.10    0.50
  -8  -7   0    1.70    0.50
   8   7   1   23.20    1.20
  -8   7  -1   20.40    3.30
  -8   7  -1   22.60    1.00
   8   7   1   21.30    1.20
  -8   7  -1   22.20    1.10
   8  -7   1   22.10    3.50
   8  -7   1   20.90    1.30
   8  -7   1   20.40    1.20
  -8  -7  -1   21.50    1.30
   8  -7   1   23.20    1.30
  -8  -7  -1   22.10    1.30
  -8  -7  -1   22.40    1.30
   8   7   2   10.70    0.80
  -8   7  -2   13.80    2.40
  -8   7  -2   14.00    0.80
   8   7   2   11.50    0.80
  -8   7  -2   13.50    0.70
  -8  -7  -2   12.50    0.90
   8  -7   2   11.50    1.00
   8  -7   2   13.40    1.00
  -8  -7  -2   11.80    0.90
  -8  -7  -2   11.60    1.00
   8  -7   2   13.80    0.90
   8   7   3   24.50    1.30
  -8   7  -3   26.50    3.40
  -8   7  -3   30.60    5.80
  -8   7  -3   24.20    1.20
  -8  -7  -3   25.60    1.40
   8  -7   3   24.80    1.30
   8  -7   3   24.90    1.40
  -8  -7  -3   26.30    1.50
   8  -7   3   24.50    1.40
  -8  -7  -3   25.80    1.40
   8   7   4    1.50    0.40
  -8   7  -4    2.90    1.50
  -8   7  -4    2.70    0.40
  -8   7  -4    2.70    0.40
  -8  -7  -4    2.00    0.50
  -8  -7  -4    1.90    0.50
   8  -7   4    2.80    0.50
   8  -7   4    3.10    0.60
   8   7   5   12.80    1.00
   8   7   5   14.50    0.90
  -8   7  -5   15.20    0.90
  -8   7  -5   15.20    0.90
   8  -7   5   15.30    1.00
   8  -7   5   14.80    1.10
  -8  -7  -5   16.90    1.10
  -8  -7  -5   13.10    1.10
   8   8  -6   14.80    0.90
  -8   8   6   14.70    0.90
   8  -8  -6   15.60    1.10
   8  -8  -6   13.00    1.10
   8  -8  -6   14.70    1.20
  -8  -8   6   16.70    1.10
  -8  -8   6   15.70    1.10
  -8  -8   6   15.10    1.10
  -8   8   5    0.20    0.20
   8   8  -5    1.10    2.20
  -8   8   5    0.00    1.00
   8   8  -5    0.20    0.30
   8  -8  -5    0.50    0.40
   8  -8  -5    2.00    2.10
   8  -8  -5    1.00    0.50
   8  -8  -5    0.10    0.30
  -8  -8   5    0.40    0.40
  -8  -8   5    0.30    0.30
  -8   8   4    7.50    0.60
  -8   8   4    7.30    2.50
   8   8  -4    7.70    3.20
   8   8  -4    8.00    0.60
   8   8  -4    7.50    0.80
  -8  -8   4    5.90    0.80
  -8  -8   4    7.00    0.70
   8  -8  -4    9.20    3.30
   8  -8  -4    6.10    0.80
   8  -8  -4    8.20    0.80
   8  -8  -4    8.00    0.90
  -8  -8   4    7.00    0.70
   8   8  -3    1.80    0.40
  -8   8   3    1.40    0.30
   8   8  -3    1.90    0.40
  -8   8   3    2.20    1.30
   8  -8  -3    1.90    1.80
   8  -8  -3    1.60    0.40
  -8  -8   3    2.30    0.50
  -8  -8   3    1.90    0.60
  -8  -8   3    2.40    0.50
   8  -8  -3    1.60    0.50
   8  -8  -3    2.10    0.60
  -8  -8   3    2.70    0.50
  -8   8   2   10.20    2.50
  -8   8   2   11.20    0.70
   8   8  -2   15.20    0.80
   8   8  -2   13.10    0.90
   8  -8  -2   11.50    0.90
  -8  -8   2   12.30    1.00
  -8  -8   2   13.40    1.00
   8  -8  -2   13.40    3.60
   8  -8  -2   10.30    1.00
  -8  -8   2   12.10    0.90
  -8  -8   2   12.70    0.90
  -8   8   1    0.60    0.30
   8   8  -1    0.40    0.30
  -8   8   1    0.00    0.90
  -8   8   1    0.10    0.20
   8   8  -1    0.30    0.30
   8  -8  -1    0.00    0.40
   8  -8  -1   -0.60    1.10
  -8  -8   1    0.40    0.40
  -8  -8   1    0.80    0.40
  -8  -8   1    0.70    0.40
   8  -8  -1    0.30    0.30
   8   8   0   16.40    1.00
  -8   8   0   16.80    0.90
  -8   8   0   17.40    0.90
  -8   8   0   13.90    2.90
   8   8   0   16.30    1.00
   8  -8   0   17.20    1.10
   8  -8   0   18.00    1.10
  -8  -8   0   14.40    1.10
  -8  -8   0   15.10    1.10
   8  -8   0   16.40    3.70
  -8  -8   0   15.50    1.10
   8  -8   0   17.20    1.20
  -8   8  -1    6.30    1.90
   8   8   1    4.10    0.60
  -8   8  -1    4.90    0.50
  -8   8  -1    7.00    2.20
   8   8   1    3.70    0.60
  -8   8  -1    4.90    0.50
   8  -8   1    5.90    0.60
   8  -8   1    4.60    0.70
  -8  -8  -1    4.00    0.60
   8  -8   1    5.20    0.60
  -8  -8  -1    3.60    0.70
  -8  -8  -1    3.60    0.60
  -8   8  -2   30.00    3.60
   8   8   2   31.20    1.50
  -8   8  -2   30.80    1.40
   8  -8   2   30.20    1.50
  -8  -8  -2   29.90    1.60
  -8  -8  -2   28.90    1.70
  -8  -8  -2   29.90    1.70
   8  -8   2   29.90    1.70
   8  -8   2   28.00    1.60
   8   8   3    1.00    0.30
  -8   8  -3    0.90    0.30
   8  -8   3    0.20    0.40
  -8  -8  -3    1.20    0.40
  -8  -8  -3    0.60    0.40
   8  -8   3    0.90    0.40
  -8  -8  -3    0.40    0.40
   8  -8   3    0.40    0.30
   8   8   4   14.50    1.00
  -8   8  -4   15.80    0.90
   8   8   4   16.10    1.00
  -8   8  -4   15.10    0.90
   8  -8   4   16.90    1.20
  -8  -8  -4   14.80    1.20
  -8  -8  -4   15.20    1.20
   8  -8   4   17.10    1.00
   8   9  -4    0.40    0.30
   8   9  -4    0.20    0.30
  -8   9   4   -0.10    0.20
  -8  -9   4    0.40    0.40
  -8  -9   4    0.30    0.40
   8  -9  -4    5.20    2.60
   8  -9  -4    0.00    0.30
   8  -9  -4    0.40    0.40
  -8  -9   4   -0.10    0.30
   8  -9  -4    0.30    0.30
   8   9  -3    4.40    0.60
  -8   9   3    3.40    2.00
  -8   9   3    5.00    0.50
   8  -9  -3    2.00    2.30
   8  -9  -3    5.00    0.70
  -8  -9   3    4.20    0.80
   8  -9  -3    4.00    0.80
  -8  -9   3    3.40    0.60
  -8  -9   3    3.90    0.60
  -8   9   2    0.20    0.20
   8   9  -2    0.10    0.30
  -8   9   2    0.70    1.20
  -8   9   2    0.20    0.20
  -8  -9   2    0.50    0.40
   8  -9  -2    0.00    0.30
  -8  -9   2    0.30    0.30
   8  -9  -2    2.00    2.00
  -8  -9   2    0.50    0.40
  -8  -9   2    0.10    0.30
   8  -9  -2    0.10    0.40
  -8   9   1    5.20    0.50
   8   9  -1    5.00    0.60
  -8   9   1    4.80    0.50
   8   9  -1    5.00    0.60
   8  -9  -1    4.60    0.60
   8  -9  -1    5.20    0.90
  -8  -9   1    4.10    0.60
  -8  -9   1    5.40    0.80
   8  -9  -1    6.70    2.80
  -8  -9   1    4.40    0.70
   8   9   0    0.20    0.30
   8   9   0    0.50    0.30
  -8   9   0    0.70    0.30
  -8   9   0    1.00    0.30
   8  -9   0    0.40    0.40
  -8  -9   0    0.00    0.30
   8  -9   0    0.50    0.30
  -8  -9   0    0.30    0.40
  -8  -9   0    0.30    0.30
   8   9   1    5.40    0.60
  -8   9  -1    5.50    0.50
  -8   9  -1    6.00    0.50
  -8  -9  -1    5.30    0.70
  -8  -9  -1    5.20    0.80
   8  -9   1    5.50    0.70
   8  -9   1    5.40    0.60
  -8  -9  -1    6.10    1.00
   8  -9   1    5.50    0.80
  -8   9  -2    0.50    0.30
   8   9   2    0.60    0.30
  -8  -9  -2    0.20    0.40
   8  -9   2    0.60    0.30
  -8  -9  -2    0.00    0.30
   8  -9   2    0.30    0.40
  -8  -9  -2    0.10    0.30
   8  -9   2    0.60    0.40
   8   9   3    4.90    0.60
  -8   9  -3    5.10    0.50
  -8  -9  -3    4.10    0.80
  -8  -9  -3    4.80    0.80
   8  -9   3    4.80    0.70
  -8  -9  -3    4.90    0.70
   8  -9   3    6.10    0.70
   8  -9   3    5.30    0.80
   8  10  -1    0.20    0.30
  -8  10   1    0.20    0.20
  -8  10   1    0.00    0.20
   8  10  -1    0.10    0.30
  -8 -10   1    0.80    0.40
   8 -10  -1   -0.10    0.40
  -8 -10   1    0.00    0.30
   8 -10  -1    0.00    0.30
  -8 -10   1    0.40    0.40
  -8  10   0    5.30    0.60
   8  10   0    4.70    0.60
  -8  10   0    4.90    0.50
   8 -10   0    4.30    0.60
  -8 -10   0    4.50    0.80
   8 -10   0    4.10    0.80
  -8 -10   0    5.50    0.70
  -8 -10   0    3.00    0.80
   9   0 -10    4.60    0.60
  -9   0  10    4.70    0.70
  -9   0  10    5.70    0.60
   9   0 -10    5.10    0.60
  -9   0   9    0.00    0.20
  -9   0   9    0.00    0.30
   9   0  -9    0.10    0.30
   9   0  -9    0.20    0.30
  -9   0   8   40.90    2.00
   9   0  -8   42.50    1.80
  -9   0   8   41.00    1.70
  -9   0   8   39.40    3.90
   9   0  -8   34.10    4.00
   9   0  -8   40.40    1.80
  -9   0   7    0.00    0.30
   9   0  -7   -0.10    0.90
  -9   0   7   -0.70    0.70
  -9   0   7    0.10    0.20
   9   0  -7    0.40    0.20
   9   0  -7    0.20    0.20
   9   0  -6  119.29    4.40
  -9   0   6  110.19    6.90
   9   0  -6  118.09    7.20
  -9   0   6  116.19    4.30
   9   0  -6  118.19    4.30
  -9   0   6  117.79    4.40
   9   0  -6  119.79    4.30
   9   0  -5    1.40    0.90
  -9   0   5    1.30    0.70
  -9   0   5    0.60    0.20
   9   0  -5    1.20    0.20
  -9   0   5    0.50    0.10
  -9   0   5    1.10    0.30
   9   0  -5    0.40    0.20
   9   0  -5    0.50    0.20
   9   0  -4  541.45   18.00
   9   0  -4  540.15   18.10
  -9   0   4  515.05   20.90
   9   0  -4  522.55   20.90
  -9   0   4  516.85   18.10
  -9   0   3    0.00    0.10
   9   0  -3    0.00    0.10
   9   0  -3   -0.10    0.10
  -9   0   3    0.10    0.10
   9   0  -3    0.80    0.80
   9   0  -3   -0.10    0.10
  -9   0   3   -0.30    0.40
  -9   0   3    0.20    0.10
   9   0  -2 2375.26   81.39
  -9   0   2 2300.27   81.19
   9   0  -1    0.60    0.20
   9   0  -1    0.10    0.10
  -9   0   1   -0.30    0.20
  -9   0   1    0.20    0.10
   9   0  -1    0.20    0.50
  -9   0   1    0.20    0.10
  -9   0   1    0.00    0.10
   9   0   0   26.00    2.60
  -9   0   0   28.10    1.10
   9   0   0   26.00    1.10
  -9   0   0   28.30    1.00
  -9   0   0   27.30    1.10
   9   0   0   28.80    1.20
   9   0   0   26.30    1.10
  -9   0   0   29.10    2.40
   9   0   1    0.00    0.10
   9   0   1    0.00    0.40
  -9   0  -1   -0.20    0.30
   9   0   1    0.10    0.10
  -9   0  -1    0.10    0.10
   9   0   1    0.30    0.20
  -9   0  -1    0.00    0.10
  -9   0  -1    0.10    0.10
  -9   0  -2  256.87   11.70
   9   0   2  259.97    9.10
   9   0   2  254.57    8.90
  -9   0  -2  253.67    8.80
  -9   0  -2  263.37   10.90
  -9   0  -2  257.07    8.90
   9   0   2  254.67    8.90
   9   0   3    1.00    0.30
  -9   0  -3    0.50    0.20
   9   0   3    1.10    0.30
  -9   0  -3    0.90    0.70
  -9   0  -3    0.60    0.20
   9   0   3    0.90    0.20
  -9   0  -3    1.10    0.20
   9   0   4  124.29    4.40
  -9   0  -4  127.79    6.90
  -9   0  -4  121.39    4.40
   9   0   4  118.69    4.60
   9   0   4  121.49    4.50
  -9   0  -4  122.19    4.40
  -9   0  -4  126.19    7.70
  -9   0  -5    0.40    0.20
  -9   0  -5    0.20    0.20
  -9   0  -5    0.70    0.90
   9   0   5    0.30    0.20
   9   0   5    0.40    0.30
   9   0   5    0.40    0.20
  -9   0  -5    0.50    0.90
   9   0   6   36.90    1.80
   9   0   6   36.70    1.80
  -9   0  -6   37.80    1.70
  -9   0  -6   39.30    3.90
  -9   0  -6   35.90    1.60
  -9   0  -6   36.30    1.60
  -9   0  -7    0.10    0.20
  -9   0  -7    0.30    0.20
  -9   0  -7    0.30    0.30
   9   0   7    0.00    0.30
   9   0   7   -0.10    0.20
  -9   0  -7    0.80    1.10
   9   0   8    5.70    0.70
  -9   0  -8    5.40    0.60
  -9   0  -8    5.00    0.50
   9   0   8    5.40    0.70
  -9   1  10    0.70    0.30
   9   1 -10   -0.10    0.30
   9   1 -10    0.30    0.30
  -9   1  10    0.40    0.40
   9  -1 -10    0.40    0.30
  -9  -1  10    0.10    0.30
   9  -1 -10    0.40    0.30
  -9  -1  10    0.20    0.30
  -9  -1  10    0.30    0.30
   9  -1 -10    0.30    0.30
   9   1  -9   12.20    0.90
  -9   1   9   13.90    1.00
   9   1  -9   12.90    0.80
  -9   1   9   12.00    0.80
  -9  -1   9   13.10    0.90
  -9  -1   9   13.70    1.00
  -9  -1   9   12.50    0.90
   9  -1  -9   12.80    0.90
   9  -1  -9   12.20    0.80
   9  -1  -9   12.50    0.90
  -9   1   8    4.90    0.50
  -9   1   8    4.60    1.60
  -9   1   8    4.50    0.60
   9   1  -8    2.90    1.30
   9   1  -8    6.10    0.60
   9   1  -8    4.30    0.50
   9  -1  -8    5.20    0.60
  -9  -1   8    3.80    1.50
  -9  -1   8    6.40    0.70
  -9  -1   8    6.20    0.60
  -9  -1   8    5.40    0.50
   9  -1  -8    3.90    0.50
   9  -1  -8    3.20    1.60
   9  -1  -8    4.70    0.50
   9   1  -7   42.40    1.70
  -9   1   7   37.40    3.80
  -9   1   7   42.10    1.80
  -9   1   7   43.10    1.90
   9   1  -7   41.00    1.70
   9   1  -7   37.80    3.90
  -9  -1   7   40.80    1.80
  -9  -1   7   43.00    1.90
   9  -1  -7   44.70    1.90
  -9  -1   7   40.70    1.90
  -9  -1   7   39.80    4.00
   9  -1  -7   40.00    3.90
   9  -1  -7   42.50    1.80
   9  -1  -7   40.80    1.80
   9   1  -6    6.20    0.40
  -9   1   6    6.70    0.40
   9   1  -6    6.40    0.50
  -9   1   6    9.00    1.80
  -9   1   6    6.10    0.50
  -9   1   6    7.70    0.60
   9   1  -6    5.70    1.60
  -9  -1   6    5.90    0.50
  -9  -1   6    5.60    0.60
  -9  -1   6    5.60    0.50
   9  -1  -6    7.40    1.90
   9  -1  -6    6.10    0.50
   9  -1  -6    5.80    0.50
   9  -1  -6    6.50    0.50
  -9  -1   6    7.00    1.80
   9   1  -5  411.06   14.20
  -9   1   5  419.16   17.50
   9   1  -5  414.26   17.30
  -9   1   5  405.06   14.20
   9   1  -5  403.36   14.10
   9   1  -5  418.36   14.00
  -9   1   5  408.06   14.00
  -9  -1   5  399.96   17.20
  -9  -1   5  411.86   14.30
   9  -1  -5  416.36   14.20
   9  -1  -5  404.36   17.30
  -9  -1   5  413.66   13.90
   9  -1  -5  412.36   14.10
   9  -1  -5  408.36   14.10
   9   1  -4   48.10    1.80
  -9   1   4   47.50    1.80
  -9   1   4   46.70    3.80
  -9   1   4   45.40    1.80
   9   1  -4   47.20    3.80
   9   1  -4   48.20    2.00
  -9   1   4   44.00    1.90
   9   1  -4   54.29    1.90
   9  -1  -4   47.90    1.90
   9  -1  -4   45.70    3.90
  -9  -1   4   48.90    1.80
   9  -1  -4   45.70    1.90
   9  -1  -4   46.90    1.90
  -9  -1   4   47.10    3.70
  -9  -1   4   49.60    2.00
  -9  -1   4   50.89    1.90
   9   1  -3  409.56   13.90
   9   1  -3  415.36   16.40
  -9   1   3  416.86   16.70
  -9   1   3  402.06   13.90
   9   1  -3  410.16   14.00
   9  -1  -3  415.26   14.00
   9  -1  -3  413.56   14.00
   9  -1  -3  402.56   16.70
  -9  -1   3  392.16   16.30
  -9  -1   3  396.86   14.00
   9  -1  -3  399.26   13.90
   9   1  -2  138.69    6.80
   9   1  -2  139.79    5.00
   9   1  -2  138.59    4.90
  -9   1   2  137.99    4.90
  -9   1   2  137.39    4.90
  -9   1   2  134.79    4.80
  -9   1   2  142.89    7.20
   9  -1  -2  148.89    5.00
   9  -1  -2  143.19    4.90
  -9  -1   2  130.59    4.80
   9  -1  -2  144.09    7.40
   9  -1  -2  139.09    4.90
  -9  -1   2  133.19    4.90
  -9  -1   2  131.59    6.70
  -9  -1   2  137.99    4.90
  -9   1   1  291.97   12.10
   9   1  -1  277.87    9.40
   9   1  -1  282.77    9.60
   9   1  -1  277.97   11.50
  -9   1   1  274.07    9.40
  -9  -1   1  271.17    9.50
   9  -1  -1  277.47    9.50
  -9  -1   1  271.67   11.20
  -9  -1   1  253.37    9.40
  -9  -1   1  264.07    9.30
   9  -1  -1  279.97   12.70
   9  -1  -1  292.37    9.60
  -9   1   0   58.49    2.20
  -9   1   0   58.99    2.10
   9   1   0   56.39    2.20
  -9   1   0   60.09    4.10
   9   1   0   58.39    2.30
   9   1   0   58.09    3.80
   9   1   0   58.19    2.20
   9  -1   0   60.49    2.20
  -9  -1   0   60.09    2.20
  -9  -1   0   58.59    2.10
   9  -1   0   60.29    4.50
  -9  -1   0   55.49    2.20
   9  -1   0   59.19    2.10
   9  -1   0   58.49    2.30
  -9  -1   0   55.59    3.40
   9  -1   0   59.79    2.30
   9   1   1  182.88    6.30
  -9   1  -1  178.88    9.20
   9   1   1  176.58    6.20
  -9   1  -1  175.28    6.20
  -9   1  -1  176.38    6.20
   9   1   1  174.48    6.30
   9   1   1  175.38    8.10
  -9   1  -1  177.88    6.20
  -9  -1  -1  174.48    6.10
   9  -1   1  180.08    6.40
  -9  -1  -1  176.28    6.30
   9  -1   1  180.88    6.20
   9  -1   1  185.08    9.20
   9  -1   1  174.88    6.30
  -9  -1  -1  180.98    6.30
  -9  -1  -1  189.48    8.00
  -9   1  -2   88.89    3.20
  -9   1  -2   91.59    3.30
  -9   1  -2  101.39    6.20
   9   1   2   92.89    3.50
   9   1   2   90.29    3.40
   9   1   2   89.89    3.20
   9  -1   2   93.49    3.50
   9  -1   2   92.39    3.40
  -9  -1  -2   88.49    3.30
  -9  -1  -2   86.79    4.60
   9  -1   2   91.49    3.30
  -9  -1  -2   89.49    3.30
  -9  -1  -2   87.79    3.20
  -9  -1  -2   89.89    5.20
  -9   1  -3   70.49    5.30
  -9   1  -3   65.59    4.40
  -9   1  -3   66.09    2.50
   9   1   3   68.19    2.40
   9   1   3   66.19    2.60
  -9   1  -3   66.79    2.50
   9   1   3   66.19    2.60
   9  -1   3   63.19    2.50
  -9  -1  -3   64.29    2.50
  -9  -1  -3   70.99    4.70
   9  -1   3   62.89    2.60
   9  -1   3   66.99    2.50
  -9  -1  -3   64.29    2.50
  -9  -1  -3   68.59    4.10
  -9  -1  -3   64.99    2.50
  -9   1  -4   47.30    4.00
   9   1   4   48.90    1.90
  -9   1  -4   45.50    1.90
  -9   1  -4   46.60    1.90
   9   1   4   51.39    2.10
   9   1   4   48.10    2.00
  -9   1  -4   47.60    4.60
  -9  -1  -4   49.80    1.90
  -9  -1  -4   49.50    3.70
   9  -1   4   47.50    1.90
  -9  -1  -4   47.30    2.00
  -9  -1  -4   46.60    4.10
   9  -1   4   44.70    2.00
   9  -1   4   44.30    2.00
   9   1   5   95.09    3.80
  -9   1  -5   97.49    3.60
  -9   1  -5   94.59    3.60
   9   1   5   93.79    3.50
  -9   1  -5   92.09    6.30
   9   1   5   97.79    3.80
  -9   1  -5   89.89    7.00
  -9  -1  -5   99.69    6.90
  -9  -1  -5  104.29    6.30
  -9  -1  -5   95.89    3.70
  -9  -1  -5   94.99    3.60
   9  -1   5   96.99    3.80
   9  -1   5   99.09    3.70
  -9  -1  -5   99.09    3.50
   9  -1   5  101.29    3.80
   9   1   6    1.50    0.40
  -9   1  -6    2.40    1.80
  -9   1  -6    2.30    0.40
  -9   1  -6    1.60    1.30
  -9   1  -6    2.60    0.40
   9   1   6    1.20    0.30
   9  -1   6    2.60    0.50
  -9  -1  -6    1.90    0.30
  -9  -1  -6    2.00    0.40
  -9  -1  -6    1.60    1.10
   9  -1   6    2.20    0.50
   9  -1   6    2.50    0.40
  -9  -1  -6    1.70    0.30
  -9   1  -7   17.50    1.00
  -9   1  -7   18.00    1.00
  -9   1  -7   16.00    3.40
   9   1   7   17.30    1.20
   9   1   7   17.50    1.10
  -9   1  -7   16.20    0.90
  -9  -1  -7   19.60    1.10
   9  -1   7   17.60    1.10
  -9  -1  -7   16.00    0.90
   9  -1   7   17.20    1.20
  -9  -1  -7   16.10    0.90
   9   1   8    2.20    0.60
  -9   1  -8    1.60    0.40
  -9   1  -8    1.50    0.40
   9   1   8    1.80    0.50
  -9  -1  -8    1.80    0.40
  -9  -1  -8    1.30    0.50
  -9  -1  -8    1.20    0.40
   9  -1   8    0.90    0.40
   9  -1   8    1.50    0.50
   9   2  -9    0.70    0.30
  -9   2   9    0.50    0.40
   9   2  -9    1.10    0.30
  -9   2   9    0.40    0.30
   9  -2  -9    0.50    0.30
   9  -2  -9    0.90    0.40
  -9  -2   9    0.80    0.40
  -9  -2   9    1.10    0.30
   9  -2  -9    0.80    0.30
  -9  -2   9    0.50    0.30
   9   2  -8   15.00    0.90
  -9   2   8   14.30    0.90
   9   2  -8   13.50    2.70
  -9   2   8   14.70    1.00
  -9   2   8   12.40    2.40
   9   2  -8   15.50    0.90
  -9  -2   8   16.40    1.00
   9  -2  -8   15.10    1.00
   9  -2  -8   11.50    2.80
  -9  -2   8   15.20    0.90
  -9  -2   8   15.70    1.10
   9  -2  -8   14.60    0.90
  -9  -2   8   18.10    2.70
   9  -2  -8   15.60    1.00
   9   2  -7    3.00    1.40
  -9   2   7    1.60    1.10
   9   2  -7    2.10    0.30
  -9   2   7    1.60    0.40
  -9   2   7    2.10    0.40
  -9   2   7    1.40    0.30
   9   2  -7    3.00    0.40
  -9  -2   7    2.40    0.40
  -9  -2   7    3.10    1.40
  -9  -2   7    3.30    0.50
   9  -2  -7    2.00    0.40
   9  -2  -7    1.50    0.40
  -9  -2   7    3.10    0.50
   9  -2  -7    1.80    0.40
   9  -2  -7    1.80    1.20
  -9   2   6  196.48    7.00
   9   2  -6  196.48    7.00
   9   2  -6  200.88    6.90
  -9   2   6  201.68   10.30
   9   2  -6  192.68   10.10
  -9   2   6  200.48    6.90
  -9   2   6  203.08    7.20
   9  -2  -6  205.08    7.10
  -9  -2   6  190.88   10.10
  -9  -2   6  200.88    7.10
   9  -2  -6  204.18    7.20
  -9  -2   6  198.68    7.20
   9  -2  -6  196.58   10.40
  -9  -2   6  196.88    7.20
   9  -2  -6  195.98    7.10
   9   2  -5    0.30    0.10
  -9   2   5   -0.10    0.60
  -9   2   5    0.40    0.20
   9   2  -5    0.20    0.20
  -9   2   5    0.40    0.20
   9   2  -5    0.10    0.70
  -9   2   5    0.30    0.10
   9  -2  -5    0.20    0.20
   9  -2  -5    0.30    0.20
   9  -2  -5    0.80    0.90
  -9  -2   5    0.30    0.20
  -9  -2   5    0.00    0.60
   9  -2  -5    0.20    0.20
  -9  -2   5    0.10    0.20
  -9  -2   5    0.20    0.20
  -9   2   4  132.99    4.70
   9   2  -4  130.79    4.90
  -9   2   4  131.69    4.80
  -9   2   4  132.89    4.70
   9   2  -4  138.89    7.30
   9   2  -4  130.19    4.70
  -9   2   4  135.89    7.40
   9  -2  -4  126.49    7.50
   9  -2  -4  130.29    4.80
   9  -2  -4  129.89    4.80
   9  -2  -4  135.49    4.80
  -9  -2   4  133.79    4.90
  -9  -2   4  132.19    7.20
  -9  -2   4  134.69    4.80
  -9  -2   4  135.89    4.70
   9   2  -3    5.00    1.40
   9   2  -3    3.60    0.30
  -9   2   3    2.70    0.30
  -9   2   3    2.60    0.30
   9   2  -3    3.30    0.40
  -9   2   3    1.20    0.80
  -9  -2   3    3.40    0.30
  -9  -2   3    4.80    1.30
  -9  -2   3    3.50    0.40
   9  -2  -3    3.40    0.40
   9  -2  -3    1.80    1.00
  -9  -2   3    2.90    0.30
   9  -2  -3    2.80    0.40
   9  -2  -3    3.20    0.30
  -9   2   2 1874.51   68.69
   9   2  -2 1956.70   67.49
   9  -2  -2 1981.90   69.19
  -9  -2   2 1944.51   67.49
   9   2  -1  194.98    7.10
   9   2  -1  190.28    6.90
   9   2  -1  203.38    8.50
  -9   2   1  210.08    9.70
   9  -2  -1  199.98    7.10
   9  -2  -1  195.88   10.10
   9  -2  -1  204.38    7.10
  -9  -2   1  204.98    7.00
  -9  -2   1  203.18    7.10
   9  -2  -1  191.58    7.00
  -9  -2   1  211.98    8.50
   9   2   0   17.60    0.90
   9   2   0   18.90    1.70
   9   2   0   16.90    0.80
  -9   2   0   17.20    0.70
  -9   2   0   14.70    2.10
  -9   2   0   16.70    0.80
   9   2   0   17.70    0.70
  -9  -2   0   16.70    1.40
   9  -2   0   16.60    0.90
   9  -2   0   17.50    0.90
  -9  -2   0   17.60    0.80
   9  -2   0   17.00    2.40
   9  -2   0   16.30    0.70
  -9  -2   0   17.50    0.90
  -9  -2   0   18.10    0.70
   9  -2   0   18.80    0.90
  -9   2  -1   10.10    0.50
  -9   2  -1    9.80    0.50
   9   2   1    9.80    0.60
   9   2   1    9.20    0.60
  -9   2  -1    8.80    1.80
  -9  -2  -1   11.10    0.60
   9  -2   1    9.60    0.60
  -9  -2  -1    9.40    0.50
  -9  -2  -1    9.60    0.60
   9  -2   1    9.30    2.30
  -9  -2  -1    9.50    1.00
   9  -2   1    9.90    0.60
   9  -2   1   10.00    0.50
  -9   2  -2  264.67   13.10
  -9   2  -2  270.17    9.30
   9   2   2  265.87    9.50
   9   2   2  277.37    9.50
  -9   2  -2  272.87    9.30
  -9  -2  -2  275.47   10.30
   9  -2   2  266.87    9.50
  -9  -2  -2  274.17   10.60
  -9  -2  -2  274.87    9.50
   9  -2   2  268.47    9.40
  -9  -2  -2  264.67    9.30
  -9  -2  -2  272.87    9.40
   9  -2   2  269.07    9.50
   9  -2   2  278.37   13.00
  -9   2  -3   25.10    2.70
   9   2   3   23.70    1.20
  -9   2  -3   30.20    3.40
  -9   2  -3   25.30    1.10
  -9   2  -3   25.20    1.10
   9   2   3   24.30    1.20
  -9  -2  -3   25.20    1.20
  -9  -2  -3   25.40    2.30
  -9  -2  -3   23.90    1.10
   9  -2   3   28.00    1.20
   9  -2   3   29.20    1.20
  -9  -2  -3   24.50    2.00
  -9  -2  -3   24.90    1.20
   9  -2   3   27.60    1.30
  -9   2  -4   17.80    0.90
  -9   2  -4   18.50    0.90
   9   2   4   17.90    1.00
   9   2   4   17.20    1.00
  -9   2  -4   19.00    2.50
  -9   2  -4   17.60    2.90
  -9  -2  -4   18.30    1.00
   9  -2   4   19.70    1.10
   9  -2   4   19.70    1.00
  -9  -2  -4   17.00    2.00
  -9  -2  -4   17.60    0.90
   9  -2   4   20.20    1.00
  -9  -2  -4   18.50    1.00
  -9  -2  -4   19.10    0.80
  -9  -2  -4   17.00    2.30
  -9   2  -5    3.50    0.40
   9   2   5    5.10    0.60
   9   2   5    4.50    0.40
  -9   2  -5    3.50    1.70
  -9   2  -5    4.80    1.70
  -9   2  -5    3.20    0.40
   9   2   5    5.30    0.50
  -9  -2  -5    5.00    0.50
   9  -2   5    3.90    0.50
  -9  -2  -5    5.30    1.60
  -9  -2  -5    4.60    0.40
  -9  -2  -5    4.60    0.40
   9  -2   5    3.80    0.50
   9  -2   5    4.10    0.50
   9   2   6   26.20    1.40
  -9   2  -6   24.30    3.20
  -9   2  -6   26.90    1.30
  -9   2  -6   30.00    4.20
  -9   2  -6   27.10    1.20
   9   2   6   26.00    1.50
   9   2   6   26.50    1.20
   9  -2   6   27.80    1.50
  -9  -2  -6   25.30    1.30
  -9  -2  -6   27.20    3.90
   9  -2   6   27.00    1.30
  -9  -2  -6   27.00    1.20
   9  -2   6   27.40    1.50
  -9   2  -7    0.50    0.20
  -9   2  -7   -0.60    1.20
  -9   2  -7    0.30    0.20
   9   2   7    0.50    0.30
   9   2   7    0.70    0.30
  -9  -2  -7    0.20    0.20
   9  -2   7    0.40    0.30
   9  -2   7    0.50    0.30
  -9  -2  -7    0.20    0.30
   9  -2   7    0.30    0.30
  -9   2  -8   12.20    0.80
   9   2   8   10.60    1.00
  -9   2  -8   12.50    0.80
   9   2   8   11.80    1.00
  -9  -2  -8   10.50    0.80
  -9  -2  -8   11.60    1.00
   9  -2   8   11.20    1.00
   9  -2   8   11.80    1.00
  -9   3   9    3.60    0.50
  -9   3   9    3.80    0.70
   9   3  -9    3.90    0.50
   9  -3  -9    4.00    0.60
  -9  -3   9    3.60    0.60
  -9  -3   9    4.00    0.50
  -9  -3   9    2.80    0.60
   9  -3  -9    3.30    0.50
  -9   3   8    0.40    1.00
  -9   3   8    0.20    0.30
   9   3  -8    0.20    0.20
   9   3  -8    1.60    1.30
  -9   3   8    0.20    0.20
   9   3  -8    0.30    0.20
  -9  -3   8    0.20    0.30
  -9  -3   8    0.00    0.20
   9  -3  -8    0.40    1.10
   9  -3  -8   -0.10    0.30
   9  -3  -8    0.20    0.30
  -9  -3   8    0.10    0.30
   9   3  -7   43.80    1.90
  -9   3   7   45.30    1.80
  -9   3   7   45.50    2.10
   9   3  -7   44.20    4.20
  -9   3   7   40.20    4.10
  -9   3   7   46.10    1.90
   9   3  -7   44.60    1.80
  -9  -3   7   48.30    2.10
  -9  -3   7   45.50    2.10
   9  -3  -7   43.20    1.90
  -9  -3   7   49.20    2.00
  -9  -3   7   43.00    4.10
   9  -3  -7   38.60    4.20
   9  -3  -7   44.30    1.90
   9  -3  -7   46.20    2.10
  -9   3   6   39.70    3.90
  -9   3   6   35.10    1.70
  -9   3   6   37.70    1.60
   9   3  -6   36.50    3.60
  -9   3   6   36.70    1.60
   9   3  -6   38.80    1.50
   9   3  -6   40.50    1.60
   9  -3  -6   33.10    3.80
   9  -3  -6   37.10    1.80
  -9  -3   6   40.10    1.70
  -9  -3   6   40.80    1.80
  -9  -3   6   37.10    3.70
  -9  -3   6   40.80    1.80
   9  -3  -6   36.50    1.70
   9  -3  -6   38.80    1.60
  -9   3   5  208.88    7.10
  -9   3   5  205.18    7.30
  -9   3   5  204.48    7.20
  -9   3   5  205.88   10.40
   9   3  -5  198.28    7.20
   9   3  -5  201.68   10.10
  -9  -3   5  207.18    7.30
   9  -3  -5  205.58    7.20
   9  -3  -5  210.78    7.40
   9  -3  -5  205.38    7.20
  -9  -3   5  198.48    7.30
  -9  -3   5  217.28   10.50
   9  -3  -5  194.98   10.50
  -9  -3   5  194.38    7.30
  -9   3   4   35.10    1.40
  -9   3   4   34.30    1.40
  -9   3   4   28.70    3.10
   9   3  -4   32.60    1.40
  -9   3   4   33.30    1.40
   9   3  -4   33.40    3.10
   9   3  -4   33.10    1.50
   9  -3  -4   33.80    1.60
  -9  -3   4   31.50    1.50
   9  -3  -4   36.10    1.40
  -9  -3   4   32.00    1.50
   9  -3  -4   34.00    3.60
  -9  -3   4   37.50    3.30
   9  -3  -4   34.80    1.50
  -9  -3   4   32.20    1.40
   9   3  -3  204.68    9.30
  -9   3   3  209.78   10.10
   9   3  -3  195.08    7.00
  -9   3   3  208.08    7.10
  -9   3   3  200.08    7.00
  -9   3   3  199.78    7.00
   9   3  -3  195.98    7.20
  -9  -3   3  203.58    9.40
   9  -3  -3  207.68    7.30
  -9  -3   3  210.48    7.20
   9  -3  -3  196.98    7.20
  -9  -3   3  200.68    7.10
   9  -3  -3  207.98    7.10
  -9  -3   3  202.88    7.20
   9  -3  -3  201.68   10.40
  -9   3   2   29.40    1.20
  -9   3   2   26.70    3.00
  -9   3   2   27.90    1.20
   9   3  -2   28.50    1.10
   9   3  -2   28.80    1.30
   9   3  -2   31.80    2.50
   9  -3  -2   26.80    1.20
  -9  -3   2   31.50    2.50
  -9  -3   2   29.90    1.20
   9  -3  -2   24.70    1.30
  -9  -3   2   29.70    1.30
  -9  -3   2   29.70    1.30
   9  -3  -2   23.90    3.10
   9  -3  -2   28.90    1.30
   9   3  -1  326.77   11.90
  -9   3   1  353.36   15.40
   9   3  -1  341.77   12.10
   9   3  -1  352.86   11.90
   9   3  -1  356.86   13.50
   9  -3  -1  352.56   12.20
   9  -3  -1  359.86   12.30
  -9  -3   1  349.77   12.10
  -9  -3   1  346.67   12.20
   9  -3  -1  365.86   16.20
  -9  -3   1  361.46   13.40
  -9  -3   1  352.66   11.90
   9  -3  -1  352.46   12.10
  -9   3   0  339.57   15.30
   9   3   0  339.27   11.90
  -9   3   0  342.27   11.70
  -9  -3   0  343.67   11.70
   9  -3   0  343.67   11.90
   9  -3   0  354.86   12.00
   9  -3   0  342.57   15.90
   9  -3   0  348.47   12.00
  -9  -3   0  343.07   11.90
   9   3   1   42.20    1.70
   9   3   1   42.10    1.70
  -9   3  -1   39.10    3.90
  -9   3  -1   41.50    1.60
  -9   3  -1   40.40    1.50
  -9  -3  -1   42.00    1.60
  -9  -3  -1   40.80    1.70
   9  -3   1   40.90    1.50
   9  -3   1   40.70    1.80
  -9  -3  -1   41.30    1.70
   9  -3   1   37.10    3.90
   9  -3   1   37.70    1.70
   9  -3   1   38.80    1.80
  -9   3  -2   14.50    0.70
   9   3   2   14.20    0.80
  -9   3  -2   13.90    0.70
   9   3   2   14.60    0.80
  -9   3  -2   14.10    2.40
  -9  -3  -2   14.40    0.80
   9  -3   2   12.40    0.80
   9  -3   2   13.10    0.80
  -9  -3  -2   14.00    0.70
   9  -3   2   14.20    0.70
   9  -3   2   15.80    2.50
  -9  -3  -2   14.90    0.80
   9   3   3   91.89    3.50
  -9   3  -3   90.89    5.90
  -9   3  -3   84.49    6.50
  -9   3  -3   90.49    3.30
  -9   3  -3   89.49    3.30
   9   3   3   91.79    3.50
  -9  -3  -3   94.19    3.50
  -9  -3  -3   92.39    3.50
   9  -3   3   89.19    3.40
   9  -3   3   88.99    3.40
  -9  -3  -3   91.49    3.30
   9  -3   3   84.69    3.50
   9   3   4    3.40    0.50
  -9   3  -4    4.00    0.40
  -9   3  -4    4.00    0.40
  -9   3  -4    7.80    2.50
  -9   3  -4    7.40    1.90
   9   3   4    3.40    0.50
   9  -3   4    5.00    0.50
   9  -3   4    4.60    0.50
  -9  -3  -4    3.10    0.50
   9  -3   4    5.40    0.60
  -9  -3  -4    4.20    0.40
  -9  -3  -4    3.20    0.40
  -9   3  -5   21.30    3.40
  -9   3  -5   23.90    1.10
   9   3   5   22.80    1.30
   9   3   5   23.30    1.10
  -9   3  -5   23.30    1.10
   9   3   5   24.80    1.30
  -9   3  -5   24.90    3.10
   9  -3   5   24.60    1.20
  -9  -3  -5   21.40    2.40
  -9  -3  -5   23.50    1.20
   9  -3   5   25.30    1.30
  -9  -3  -5   23.50    1.30
   9  -3   5   23.80    1.40
  -9   3  -6   15.20    0.80
  -9   3  -6   15.50    2.70
   9   3   6   16.40    1.10
   9   3   6   16.00    1.00
  -9   3  -6   15.70    3.10
   9   3   6   15.20    0.90
  -9   3  -6   15.10    0.90
  -9  -3  -6   16.20    1.10
  -9  -3  -6   15.80    0.90
   9  -3   6   12.90    1.00
   9  -3   6   14.90    1.00
   9  -3   6   16.10    0.90
   9   3   7   10.40    0.90
  -9   3  -7    8.40    2.50
   9   3   7    9.80    0.90
  -9   3  -7    9.90    0.70
   9   3   7   10.60    0.70
  -9  -3  -7   10.70    0.90
   9  -3   7   10.40    0.80
   9  -3   7   11.40    0.90
  -9  -3  -7   10.90    0.80
   9  -3   7   10.40    0.90
  -9   4   9    0.10    0.30
   9   4  -9    0.00    0.30
  -9   4   9    0.30    0.30
  -9  -4   9    0.20    0.30
   9  -4  -9   -0.10    0.30
  -9  -4   9    0.10    0.30
  -9  -4   9    0.30    0.40
   9  -4  -9    0.00    0.30
  -9   4   8   32.00    1.70
  -9   4   8   28.20    1.30
   9   4  -8   29.60    1.40
  -9   4   8   23.70    5.00
   9   4  -8   24.40    3.50
  -9   4   8   30.00    1.40
   9  -4  -8   27.70    3.90
   9  -4  -8   31.50    1.60
  -9  -4   8   27.30    1.50
  -9  -4   8   27.80    1.50
  -9  -4   8   29.00    1.60
   9  -4  -8   29.40    1.50
  -9   4   7    9.50    0.80
  -9   4   7   11.00    2.50
  -9   4   7    7.80    0.60
   9   4  -7   13.90    2.50
  -9   4   7    9.90    0.60
   9   4  -7   10.30    0.70
  -9  -4   7    9.70    0.70
   9  -4  -7    9.60    0.70
   9  -4  -7    8.90    0.80
  -9  -4   7   11.20    0.90
   9  -4  -7    8.10    2.30
  -9  -4   7   10.30    0.80
  -9   4   6   23.30    1.10
  -9   4   6   22.50    2.90
  -9   4   6   25.10    1.30
   9   4  -6   26.10    1.10
   9   4  -6   21.80    2.80
   9   4  -6   24.50    1.20
  -9   4   6   24.00    1.20
  -9  -4   6   25.40    1.30
  -9  -4   6   26.80    1.40
  -9  -4   6   20.40    2.80
   9  -4  -6   25.90    3.40
   9  -4  -6   24.90    1.30
   9  -4  -6   25.70    1.40
  -9  -4   6   27.20    1.40
  -9   4   5    7.80    2.20
   9   4  -5    4.80    1.50
  -9   4   5    6.50    0.50
  -9   4   5    6.60    0.50
  -9   4   5    6.00    0.50
   9   4  -5    5.20    0.50
  -9  -4   5    4.30    0.60
   9  -4  -5    7.80    2.10
  -9  -4   5    4.30    0.50
   9  -4  -5    5.80    0.60
  -9  -4   5    4.40    0.50
   9  -4  -5    5.60    0.60
  -9  -4   5    5.40    0.50
  -9  -4   5    7.20    2.00
  -9   4   4  168.88    5.90
   9   4  -4  160.58    8.40
   9   4  -4  165.88    5.80
  -9   4   4  165.18    9.00
  -9   4   4  169.78    5.90
  -9   4   4  167.98    5.90
   9  -4  -4  160.18    9.50
   9  -4  -4  165.68    6.00
  -9  -4   4  152.78    6.00
  -9  -4   4  165.88    6.00
  -9  -4   4  162.28    8.60
   9  -4  -4  173.58    5.80
  -9  -4   4  162.28    5.90
   9  -4  -4  172.28    6.10
  -9   4   3   13.60    0.70
  -9   4   3   11.90    2.10
  -9   4   3   12.60    0.60
   9   4  -3   15.30    0.70
   9   4  -3   13.90    0.80
   9   4  -3   16.90    2.10
  -9   4   3   12.80    0.70
  -9  -4   3   14.60    0.80
   9  -4  -3   14.30    2.50
   9  -4  -3   13.40    0.70
  -9  -4   3   14.80    0.90
   9  -4  -3   11.50    0.90
   9  -4  -3   13.60    0.80
  -9  -4   3   14.30    0.80
  -9  -4   3   12.70    1.80
  -9   4   2  243.38   11.70
   9   4  -2  250.67    8.50
   9   4  -2  234.18    8.30
  -9   4   2  232.08    8.40
   9   4  -2  245.58   10.30
  -9   4   2  243.28    8.40
   9  -4  -2  233.68    8.40
  -9  -4   2  240.78    8.50
   9  -4  -2  238.68    8.60
   9  -4  -2  237.88   12.40
  -9  -4   2  242.18    8.50
   9  -4  -2  250.77    8.60
  -9  -4   2  246.18   10.40
  -9   4   1  198.68   10.20
  -9   4   1  189.08    6.80
   9   4  -1  198.38    8.10
  -9   4   1  200.28    6.80
   9   4  -1  188.88    6.90
   9  -4  -1  194.78   10.70
  -9  -4   1  193.48    7.00
   9  -4  -1  199.78    7.10
   9  -4  -1  200.18    7.00
   9  -4  -1  202.28    6.90
  -9  -4   1  182.78    7.00
  -9  -4   1  190.98    6.90
  -9  -4   1  190.98    6.80
  -9  -4   1  196.98    8.10
   9   4   0  249.48    8.80
  -9   4   0  249.08    8.60
   9   4   0  240.78    8.70
  -9   4   0  256.27    8.60
  -9   4   0  251.87   12.40
   9  -4   0  260.67    8.80
  -9  -4   0  236.28    8.80
   9  -4   0  251.27    8.80
  -9  -4   0  241.78    8.80
   9  -4   0  241.08   12.70
  -9  -4   0  253.27    8.60
   9  -4   0  255.57    8.90
  -9   4  -1    4.90    0.40
  -9   4  -1    8.10    2.30
  -9   4  -1    4.40    0.30
   9   4   1    6.70    0.50
   9   4   1    6.60    0.50
  -9  -4  -1    6.40    0.50
  -9  -4  -1    6.10    0.50
  -9  -4  -1    5.70    0.40
   9  -4   1    5.60    2.00
   9  -4   1    4.90    0.60
   9  -4   1    5.10    0.50
   9  -4   1    5.60    0.50
  -9   4  -2   89.59    6.60
   9   4   2   95.29    3.40
   9   4   2   88.09    3.40
  -9   4  -2   90.79    3.30
  -9  -4  -2   91.19    3.50
   9  -4   2   82.89    3.40
   9  -4   2   85.79    3.20
  -9  -4  -2   95.99    3.50
   9  -4   2   85.59    3.50
  -9  -4  -2   93.29    3.30
   9  -4   2   83.49    3.40
   9  -4   2   86.49    6.60
  -9   4  -3    8.50    0.60
  -9   4  -3    8.80    0.50
   9   4   3    7.40    0.60
  -9   4  -3    9.30    1.90
  -9   4  -3   10.40    2.90
   9  -4   3    9.50    0.60
   9  -4   3    9.80    0.70
  -9  -4  -3    6.30    0.60
  -9  -4  -3    7.00    0.60
  -9  -4  -3    7.30    0.60
   9  -4   3    7.20    0.70
  -9   4  -4   25.00    3.00
   9   4   4   22.00    1.20
  -9   4  -4   24.20    3.50
   9   4   4   22.40    1.20
  -9   4  -4   22.30    1.00
  -9   4  -4   21.90    1.00
  -9  -4  -4   22.10    1.20
  -9  -4  -4   23.30    1.10
  -9  -4  -4   22.00    1.20
   9  -4   4   20.80    1.20
   9  -4   4   22.70    1.20
  -9   4  -5    2.70    0.40
   9   4   5    2.90    0.40
  -9   4  -5    2.30    1.70
   9   4   5    2.90    0.50
  -9   4  -5    2.50    1.40
  -9   4  -5    2.20    0.30
   9   4   5    3.00    0.40
   9  -4   5    2.00    0.40
  -9  -4  -5    2.80    0.40
  -9  -4  -5    3.50    0.50
   9  -4   5    3.00    0.40
   9  -4   5    2.80    0.50
   9   4   6   15.50    1.00
  -9   4  -6   14.10    0.80
  -9   4  -6   19.10    3.50
  -9   4  -6   14.60    0.80
   9   4   6   14.80    1.00
  -9   4  -6   16.40    2.90
   9   4   6   14.80    0.80
   9  -4   6   14.10    1.10
   9  -4   6   14.00    0.90
   9  -4   6   13.50    1.00
  -9  -4  -6   14.80    0.90
  -9  -4  -6   16.40    1.10
   9   4   7    2.40    0.50
   9   4   7    2.50    0.40
   9   4   7    2.50    0.50
  -9   4  -7    2.30    0.40
  -9  -4  -7    2.20    0.50
   9  -4   7    1.70    0.50
   9  -4   7    1.60    0.40
  -9  -4  -7    2.20    0.60
   9  -4   7    1.20    0.50
  -9   5   8    1.60    0.30
  -9   5   8    1.80    0.40
   9   5  -8    2.70    0.50
  -9   5   8    2.40    0.50
   9  -5  -8    1.90    0.50
  -9  -5   8    2.80    0.60
   9  -5  -8    1.90    0.50
   9  -5  -8    6.50    3.30
  -9  -5   8    3.00    0.50
  -9  -5   8    2.90    0.50
  -9   5   7    9.10    0.70
   9   5  -7    7.20    2.00
   9   5  -7    9.00    0.70
  -9   5   7   10.80    0.80
  -9   5   7    9.90    0.70
   9  -5  -7   10.50    0.80
  -9  -5   7    8.60    0.80
   9  -5  -7   10.20    0.90
  -9  -5   7    8.20    2.10
  -9  -5   7    9.10    0.70
  -9  -5   7    9.50    0.90
   9  -5  -7   10.60    3.00
  -9   5   6    4.40    0.40
  -9   5   6    4.50    0.50
   9   5  -6    3.90    1.60
  -9   5   6    4.30    0.50
   9   5  -6    4.50    0.50
  -9   5   6    3.70    1.70
  -9  -5   6    3.50    1.50
  -9  -5   6    5.50    0.60
   9  -5  -6    4.10    2.00
   9  -5  -6    4.50    0.60
  -9  -5   6    4.30    0.60
  -9  -5   6    4.70    0.60
   9  -5  -6    4.80    0.70
   9   5  -5  105.89    3.90
   9   5  -5  105.69    6.80
  -9   5   5  107.69    3.90
  -9   5   5  109.69    4.00
  -9   5   5  108.79    3.90
  -9   5   5  110.89    7.10
  -9  -5   5  102.89    4.10
  -9  -5   5  100.99    4.10
  -9  -5   5  104.19    4.10
  -9  -5   5  107.59    6.90
   9  -5  -5   95.49    7.50
   9  -5  -5  109.49    4.20
  -9  -5   5  107.29    4.00
   9  -5  -5  108.09    4.10
   9   5  -4    2.70    1.20
  -9   5   4    2.20    0.30
  -9   5   4    2.10    0.30
  -9   5   4    2.70    0.40
   9   5  -4    3.20    0.40
  -9   5   4    1.50    1.00
  -9  -5   4    3.20    0.40
   9  -5  -4    0.80    0.90
  -9  -5   4    2.90    1.30
   9  -5  -4    2.90    0.50
  -9  -5   4    3.10    0.50
  -9  -5   4    3.40    0.40
   9  -5  -4    2.80    0.50
   9   5  -3   36.80    1.60
  -9   5   3   40.20    1.60
  -9   5   3   40.20    1.60
  -9   5   3   42.10    3.90
   9   5  -3   39.90    1.80
   9   5  -3   35.10    3.20
   9  -5  -3   40.10    4.40
   9  -5  -3   42.60    1.90
   9  -5  -3   41.50    1.80
  -9  -5   3   43.80    3.50
  -9  -5   3   39.70    1.80
  -9  -5   3   38.90    1.80
   9  -5  -3   42.70    1.60
  -9  -5   3   34.80    1.80
   9   5  -2   35.30    2.90
  -9   5   2   31.10    3.40
  -9   5   2   34.00    1.40
  -9   5   2   31.60    1.40
   9   5  -2   31.70    1.50
   9   5  -2   32.70    1.30
   9  -5  -2   32.00    1.60
   9  -5  -2   34.60    1.40
  -9  -5   2   30.60    1.50
   9  -5  -2   32.80    4.00
  -9  -5   2   30.00    1.50
  -9  -5   2   32.40    2.70
  -9  -5   2   31.70    1.60
  -9  -5   2   30.10    1.30
   9  -5  -2   34.30    1.50
   9   5  -1  136.69    6.70
  -9   5   1  140.99    4.90
  -9   5   1  139.29    4.90
  -9   5   1  132.89    8.20
   9   5  -1  141.89    5.10
   9   5  -1  138.79    6.20
   9  -5  -1  135.19    5.10
   9  -5  -1  137.69    5.20
  -9  -5   1  140.79    5.00
  -9  -5   1  138.39    5.10
  -9  -5   1  141.29    5.10
   9  -5  -1  134.99    5.00
  -9  -5   1  134.49    5.10
  -9   5   0   57.59    4.90
   9   5   0   47.60    2.10
  -9   5   0   48.90    1.90
  -9   5   0   51.19    1.90
   9   5   0   47.90    2.10
  -9  -5   0   46.50    2.00
  -9  -5   0   46.20    2.10
   9  -5   0   51.19    2.10
   9  -5   0   48.80    4.90
  -9  -5   0   47.00    2.10
   9  -5   0   54.59    2.10
   9  -5   0   47.70    2.20
  -9   5  -1   24.30    1.00
   9   5   1   27.80    1.30
   9   5   1   25.70    1.30
  -9   5  -1   24.30    3.40
  -9   5  -1   24.80    1.10
  -9  -5  -1   25.90    1.30
  -9  -5  -1   28.50    1.30
   9  -5   1   22.40    3.40
   9  -5   1   24.00    1.30
  -9  -5  -1   29.60    1.30
   9  -5   1   24.20    1.40
   9  -5   1   23.20    1.30
  -9   5  -2   54.89    5.10
  -9   5  -2   46.10    1.80
   9   5   2   40.80    1.90
   9   5   2   42.70    1.90
  -9  -5  -2   43.70    2.00
   9  -5   2   47.10    2.10
   9  -5   2   49.80    2.10
  -9  -5  -2   45.40    1.90
  -9  -5  -2   42.40    2.00
   9  -5   2   45.40    2.00
  -9   5  -3   70.49    2.70
   9   5   3   70.89    2.90
  -9   5  -3   71.29    5.40
  -9   5  -3   70.69    2.70
  -9   5  -3   73.59    6.30
   9   5   3   70.99    2.80
   9  -5   3   70.79    2.90
  -9  -5  -3   71.39    2.90
  -9  -5  -3   72.99    3.00
   9  -5   3   70.99    2.80
   9  -5   3   69.69    3.00
  -9  -5  -3   70.39    2.80
  -9   5  -4    3.00    0.40
  -9   5  -4    3.80    1.50
   9   5   4    3.40    0.50
  -9   5  -4    3.10    0.40
  -9   5  -4    2.40    1.50
   9   5   4    3.10    0.40
   9  -5   4    2.90    0.40
  -9  -5  -4    3.10    0.50
  -9  -5  -4    3.00    0.40
   9  -5   4    2.60    0.40
   9  -5   4    1.80    0.40
  -9  -5  -4    3.90    0.50
   9   5   5   21.40    1.10
   9   5   5   19.30    1.20
  -9   5  -5   20.40    1.00
  -9   5  -5   15.60    2.80
  -9   5  -5   19.40    1.00
   9   5   5   20.60    1.20
  -9  -5  -5   21.30    1.30
   9  -5   5   20.60    1.10
   9  -5   5   18.80    1.20
   9  -5   5   20.50    1.20
  -9  -5  -5   21.60    1.20
   9   5   6    0.70    0.30
   9   5   6    1.00    0.40
   9   5   6    0.40    0.30
  -9   5  -6    0.80    0.30
  -9   5  -6    0.60    0.20
   9  -5   6    0.60    0.30
  -9  -5  -6    1.20    0.40
   9  -5   6    0.60    0.40
   9  -5   6    0.50    0.30
  -9  -5  -6    0.30    0.30
   9   5   7    4.60    0.60
  -9   5  -7    5.60    0.50
   9   5   7    4.80    0.50
   9  -5   7    5.60    0.70
   9  -5   7    5.40    0.70
   9  -5   7    5.10    0.60
  -9  -5  -7    5.90    0.70
  -9  -5  -7    4.40    0.70
  -9   6   8   11.70    0.80
  -9   6   8   11.70    0.80
  -9   6   8   10.70    1.00
   9   6  -8   12.90    0.90
   9  -6  -8   11.30    0.90
  -9  -6   8   10.90    0.90
  -9  -6   8   12.10    1.00
  -9  -6   8   12.00    1.00
   9  -6  -8   12.60    1.10
  -9   6   7    0.40    0.20
   9   6  -7    0.40    0.30
  -9   6   7   -0.40    1.20
  -9   6   7    0.10    0.30
   9   6  -7    0.30    1.50
  -9   6   7    0.10    0.20
  -9  -6   7    0.40    0.30
  -9  -6   7    0.30    0.30
   9  -6  -7   -2.00    1.30
  -9  -6   7   -0.10    0.20
   9  -6  -7    1.00    0.40
   9  -6  -7    0.00    0.30
   9   6  -6   11.00    2.60
  -9   6   6   16.80    0.90
  -9   6   6   15.60    0.90
   9   6  -6   14.50    0.90
  -9   6   6   17.00    1.00
  -9   6   6   11.60    2.50
  -9  -6   6   14.10    1.00
  -9  -6   6   16.80    1.10
  -9  -6   6   15.10    1.00
   9  -6  -6   14.90    1.00
   9  -6  -6   15.40    1.10
   9  -6  -6   13.90    3.70
   9   6  -5    2.90    1.40
  -9   6   5    1.80    0.30
   9   6  -5    2.30    0.40
  -9   6   5    1.50    1.00
  -9   6   5    2.10    0.40
  -9   6   5    2.20    0.40
  -9  -6   5    2.60    0.50
   9  -6  -5   -0.10    1.00
   9  -6  -5    2.30    0.60
  -9  -6   5    2.10    0.40
  -9  -6   5    1.50    1.10
  -9  -6   5    2.40    0.50
   9  -6  -5    2.80    0.60
  -9  -6   5    2.50    0.50
   9   6  -4   25.20    3.10
  -9   6   4   29.10    1.30
  -9   6   4   27.70    3.40
   9   6  -4   29.40    1.30
  -9   6   4   28.10    1.30
   9   6  -4   28.90    1.50
   9  -6  -4   27.20    1.40
  -9  -6   4   27.30    1.50
  -9  -6   4   28.80    1.50
  -9  -6   4   29.30    1.50
   9  -6  -4   22.30    3.50
   9  -6  -4   26.50    1.60
  -9  -6   4   26.30    3.10
   9   6  -3    0.00    0.80
  -9   6   3    0.40    0.20
   9   6  -3    0.40    0.30
   9   6  -3    0.70    0.20
  -9   6   3    0.30    0.20
  -9   6   3    1.40    1.20
   9  -6  -3    0.30    0.30
  -9  -6   3    0.90    0.40
   9  -6  -3    0.70    0.30
  -9  -6   3    0.90    0.30
   9  -6  -3    0.20    1.40
  -9  -6   3    0.70    0.30
   9   6  -2   77.49    4.80
   9   6  -2   73.49    5.30
  -9   6   2   73.59    2.70
   9   6  -2   71.39    2.90
  -9   6   2   73.79    2.80
   9   6  -2   72.59    2.70
  -9   6   2   73.99    5.70
  -9  -6   2   69.69    2.80
   9  -6  -2   73.99    2.90
   9  -6  -2   76.49    3.10
   9  -6  -2   68.59    6.30
  -9  -6   2   67.89    2.90
  -9  -6   2   66.89    2.90
  -9  -6   2   67.99    2.90
   9  -6  -2   73.79    2.80
  -9   6   1   34.20    3.80
   9   6  -1   37.70    2.60
   9   6  -1   33.00    1.60
  -9   6   1   35.50    1.50
   9   6  -1   33.70    3.00
  -9   6   1   35.40    1.50
  -9  -6   1   34.80    1.70
  -9  -6   1   31.60    1.60
   9  -6  -1   35.40    1.80
  -9  -6   1   30.60    1.60
  -9  -6   1   33.90    1.70
   9  -6  -1   34.80    1.60
   9  -6  -1   37.50    1.60
   9  -6  -1   45.70    4.80
  -9   6   0  114.89    4.20
  -9   6   0  114.89    4.10
   9   6   0  117.89    4.30
  -9   6   0  116.99    7.80
   9   6   0  116.99    4.30
   9  -6   0  113.29    4.50
  -9  -6   0  117.79    4.40
  -9  -6   0  115.49    4.30
  -9  -6   0  112.69    4.40
   9  -6   0  112.39    4.40
   9  -6   0  108.89    4.40
   9  -6   0  111.19    8.20
  -9   6  -1    4.90    0.40
   9   6   1    6.70    0.60
   9   6   1    6.50    0.60
  -9   6  -1    6.30    1.90
  -9   6  -1    6.00    0.50
  -9  -6  -1    5.80    0.60
  -9  -6  -1    6.10    0.60
   9  -6   1    5.20    0.60
   9  -6   1    4.50    1.90
   9  -6   1    5.00    0.70
  -9  -6  -1    7.20    0.70
   9  -6   1    5.60    0.60
   9   6   2   45.10    1.90
   9   6   2   44.40    1.90
  -9   6  -2   45.10    1.80
  -9   6  -2   45.30    4.20
  -9   6  -2   43.30    1.60
  -9   6  -2   43.40    4.70
  -9  -6  -2   41.50    2.00
   9  -6   2   45.70    2.00
   9  -6   2   46.50    2.00
  -9  -6  -2   35.60    1.90
  -9  -6  -2   42.60    2.00
   9  -6   2   42.10    2.00
  -9   6  -3    8.10    0.60
  -9   6  -3    7.60    2.70
   9   6   3    6.90    0.60
  -9   6  -3    7.30    1.90
   9   6   3    6.90    0.70
  -9  -6  -3    6.70    0.70
  -9  -6  -3    7.80    0.70
  -9  -6  -3    7.00    0.70
   9  -6   3    8.60    0.70
   9  -6   3   10.00    0.80
   9   6   4   24.00    1.30
   9   6   4   23.70    1.30
  -9   6  -4   21.10    3.80
  -9   6  -4   20.60    3.10
  -9   6  -4   24.10    1.10
  -9   6  -4   23.80    1.20
   9  -6   4   23.60    1.30
  -9  -6  -4   27.00    1.30
   9  -6   4   21.40    1.30
  -9  -6  -4   23.60    1.30
  -9  -6  -4   22.80    1.40
  -9   6  -5   10.40    0.70
   9   6   5   10.20    0.70
  -9   6  -5    9.30    0.70
   9   6   5   10.50    0.90
   9  -6   5    8.20    0.80
   9  -6   5    8.90    0.70
  -9  -6  -5   10.00    0.90
  -9  -6  -5    9.90    0.80
  -9   6  -6    4.70    0.50
   9   6   6    4.30    0.60
   9   6   6    4.20    0.50
  -9  -6  -6    4.00    0.70
   9  -6   6    5.00    0.70
   9  -6   6    4.20    0.50
  -9  -6  -6    4.20    0.60
  -9   7   7   13.00    0.80
  -9   7   7   12.70    0.80
   9   7  -7   13.50    0.90
   9  -7  -7   12.30    1.00
  -9  -7   7   12.10    1.00
  -9  -7   7   13.10    1.00
  -9  -7   7   13.00    1.00
   9  -7  -7   12.30    1.10
  -9   7   6    1.80    0.30
  -9   7   6    3.60    1.80
  -9   7   6    2.00    0.40
   9   7  -6    2.20    0.40
   9   7  -6    3.60    1.60
  -9  -7   6    2.50    0.50
   9  -7  -6    2.30    0.60
  -9  -7   6    2.50    0.50
   9  -7  -6    1.40    0.50
  -9  -7   6    2.90    0.60
   9  -7  -6    4.90    2.30
   9   7  -5   15.20    2.80
   9   7  -5   10.00    2.50
  -9   7   5   10.70    0.70
   9   7  -5   11.70    0.80
  -9   7   5   12.30    2.50
   9  -7  -5   11.20    1.00
  -9  -7   5   11.40    0.90
   9  -7  -5    6.30    2.70
  -9  -7   5   10.00    0.90
   9  -7  -5   11.80    0.90
  -9   7   4    1.00    0.30
   9   7  -4    1.00    0.30
   9   7  -4   -0.60    1.00
   9   7  -4    0.50    1.10
   9   7  -4    0.30    0.30
  -9   7   4    1.00    0.30
  -9   7   4   -0.40    1.00
   9  -7  -4    0.50    0.30
  -9  -7   4    0.80    0.30
  -9  -7   4    0.60    0.40
   9  -7  -4    2.50    1.50
   9  -7  -4    0.50    0.40
  -9  -7   4    0.60    0.30
  -9   7   3   16.50    2.80
  -9   7   3   16.70    1.00
   9   7  -3   19.10    0.90
   9   7  -3   19.30    1.10
   9   7  -3   15.90    2.50
  -9   7   3   17.90    1.00
   9   7  -3   18.10    3.10
   9  -7  -3   18.30    1.10
  -9  -7   3   17.60    1.10
  -9  -7   3   17.90    1.20
  -9  -7   3   17.70    1.10
   9  -7  -3   16.50    4.00
   9  -7  -3   21.00    1.30
   9   7  -2    0.60    0.90
  -9   7   2    0.90    0.30
  -9   7   2    1.40    0.30
   9   7  -2    1.30    0.90
   9   7  -2    1.20    0.20
  -9   7   2    0.90    0.80
   9   7  -2    0.90    0.40
  -9  -7   2    0.90    0.30
  -9  -7   2    1.60    0.50
   9  -7  -2    1.30    0.30
  -9  -7   2    0.60    0.30
   9  -7  -2    1.40    0.50
   9  -7  -2    2.00    1.50
  -9  -7   2    0.90    0.30
  -9   7   1   23.10    1.10
   9   7  -1   22.50    2.50
  -9   7   1   19.20    1.00
  -9   7   1   22.00    3.20
   9   7  -1   22.50    1.20
  -9  -7   1   23.50    1.30
  -9  -7   1   22.90    1.30
  -9  -7   1   21.80    1.30
  -9  -7   1   23.40    1.30
   9  -7  -1   22.90    1.20
   9  -7  -1   22.50    1.40
   9  -7  -1   18.20    3.20
   9  -7  -1   24.40    1.30
  -9   7   0   26.90    1.20
  -9   7   0   22.60    3.50
   9   7   0   22.80    1.30
   9   7   0   23.80    1.30
  -9   7   0   26.60    1.20
  -9  -7   0   23.40    1.40
   9  -7   0   24.80    3.90
   9  -7   0   27.00    1.40
   9  -7   0   27.50    1.50
   9  -7   0   26.30    1.40
  -9  -7   0   24.60    1.40
  -9  -7   0   23.40    1.40
   9   7   1   30.90    1.50
  -9   7  -1   30.90    1.30
   9   7   1   30.70    1.50
  -9   7  -1   30.50    1.40
  -9  -7  -1   29.70    1.60
   9  -7   1   31.90    4.30
   9  -7   1   30.90    1.60
   9  -7   1   28.30    1.60
  -9  -7  -1   30.10    1.60
   9  -7   1   28.70    1.50
  -9  -7  -1   30.50    1.60
  -9   7  -2    8.60    2.20
   9   7   2    4.70    0.50
  -9   7  -2    4.80    2.20
   9   7   2    4.80    0.50
  -9   7  -2    5.50    0.50
  -9  -7  -2    4.40    0.60
  -9  -7  -2    4.60    0.60
   9  -7   2    5.10    0.70
  -9  -7  -2    4.30    0.60
   9  -7   2    5.60    0.60
   9  -7   2    5.30    0.60
   9   7   3   43.20    1.90
   9   7   3   40.20    1.90
  -9   7  -3   41.80    4.30
  -9   7  -3   41.70    5.00
  -9   7  -3   43.70    1.80
   9  -7   3   42.50    1.90
  -9  -7  -3   42.70    2.00
   9  -7   3   43.00    2.10
  -9  -7  -3   40.60    2.10
  -9  -7  -3   39.40    2.00
   9   7   4    0.00    0.30
  -9   7  -4    0.20    0.20
  -9   7  -4    0.00    0.20
  -9  -7  -4   -0.10    0.30
   9  -7   4    0.20    0.20
  -9  -7  -4   -0.20    0.30
  -9  -7  -4   -0.10    0.30
   9  -7   4    0.30    0.30
   9   7   5   17.80    1.20
  -9   7  -5   18.10    1.10
   9   7   5   19.00    1.10
  -9   7  -5   18.70    1.00
  -9  -7  -5   17.60    1.30
  -9  -7  -5   18.90    1.20
   9  -7   5   18.30    1.10
   9  -7   5   18.10    1.30
  -9   8   6    7.50    0.60
  -9   8   6    6.70    0.60
   9   8  -6    7.30    0.70
  -9  -8   6    7.40    0.80
   9  -8  -6    4.60    0.70
   9  -8  -6    6.80    0.90
  -9  -8   6    7.00    0.80
   9   8  -5    0.10    0.20
   9   8  -5    0.10    0.30
  -9   8   5    0.20    0.20
  -9   8   5    0.20    0.20
   9  -8  -5   -2.20    2.00
   9  -8  -5    0.10    0.30
  -9  -8   5    0.10    0.30
  -9  -8   5    0.00    0.30
   9  -8  -5   -0.10    0.40
  -9   8   4    6.10    0.60
   9   8  -4    5.80    0.50
   9   8  -4    6.00    0.70
  -9   8   4    4.90    2.10
  -9   8   4    6.70    0.60
   9  -8  -4    5.60    2.80
  -9  -8   4    6.10    0.80
   9  -8  -4    6.90    0.80
  -9  -8   4    5.80    0.70
  -9  -8   4    5.40    0.70
   9  -8  -4    6.60    0.70
  -9   8   3    0.70    0.30
  -9   8   3    0.60    0.30
   9   8  -3    0.80    0.40
  -9   8   3    1.40    1.10
   9   8  -3    1.10    0.30
   9  -8  -3    0.60    0.40
  -9  -8   3    0.50    0.40
  -9  -8   3    1.50    0.40
  -9  -8   3    1.30    0.40
   9  -8  -3    0.50    0.40
   9  -8  -3    1.80    1.80
  -9   8   2   13.90    0.80
  -9   8   2   14.00    0.80
  -9   8   2   14.90    2.70
   9   8  -2   13.00    0.90
  -9  -8   2   14.00    1.00
  -9  -8   2   14.30    1.00
  -9  -8   2   14.10    1.10
   9  -8  -2   13.10    1.10
   9  -8  -2   12.10    3.70
  -9  -8   2   12.20    1.00
   9  -8  -2   12.00    0.90
  -9   8   1    4.30    0.50
   9   8  -1    3.80    0.60
  -9   8   1    8.70    2.60
   9   8  -1    3.60    0.60
  -9   8   1    4.70    0.50
   9  -8  -1    5.50    0.80
   9  -8  -1    5.10    2.10
  -9  -8   1    4.70    0.70
  -9  -8   1    3.00    0.60
   9  -8  -1    4.60    0.60
  -9  -8   1    3.50    0.60
  -9   8   0   23.80    3.80
   9   8   0   28.50    1.50
  -9   8   0   30.20    1.40
   9   8   0   28.70    1.50
  -9   8   0   32.10    1.40
  -9  -8   0   28.20    1.60
   9  -8   0   31.10    1.70
  -9  -8   0   29.70    1.70
   9  -8   0   25.90    4.20
   9  -8   0   30.20    1.60
   9  -8   0   30.60    1.60
  -9  -8   0   28.00    1.70
  -9   8  -1    0.50    0.20
  -9   8  -1   -0.20    0.80
  -9   8  -1    1.70    1.60
  -9   8  -1    0.30    0.20
   9   8   1    0.20    0.30
   9   8   1    0.30    0.30
   9  -8   1    0.40    0.40
  -9  -8  -1    0.60    0.30
   9  -8   1    0.50    0.30
   9  -8   1    0.40    0.30
  -9  -8  -1    0.10    0.30
  -9  -8  -1    0.40    0.30
  -9   8  -2   17.30    0.90
  -9   8  -2   14.80    2.90
   9   8   2   17.90    1.10
   9  -8   2   19.20    1.20
  -9  -8  -2   17.60    1.20
  -9  -8  -2   16.90    1.20
   9  -8   2   17.80    1.30
  -9  -8  -2   18.40    1.20
   9   8   3    0.50    0.30
  -9   8  -3    0.20    0.20
  -9  -8  -3    0.10    0.30
   9  -8   3    0.10    0.30
  -9  -8  -3    0.40    0.40
  -9  -8  -3    0.20    0.30
   9  -8   3    0.40    0.30
   9  -8   3    0.60    0.40
   9   8   4    6.80    0.70
  -9   8  -4    8.00    0.60
  -9   8  -4    7.50    0.70
  -9  -8  -4    7.30    0.80
  -9  -8  -4    7.20    0.90
   9  -8   4    7.20    0.80
   9  -8   4    8.50    0.70
  -9   9   4    0.20    0.20
   9   9  -4   -0.30    0.30
  -9   9   4   -0.10    0.20
   9  -9  -4    0.10    0.40
  -9  -9   4    0.00    0.30
   9  -9  -4    0.10    0.30
  -9  -9   4   -0.60    0.30
  -9  -9   4    0.10    0.30
   9   9  -3    5.10    0.70
  -9   9   3    5.60    0.50
  -9   9   3    5.20    0.50
  -9  -9   3    5.70    0.70
   9  -9  -3    4.10    0.80
  -9  -9   3    5.30    0.70
  -9  -9   3    5.90    0.80
   9  -9  -3    5.00    0.70
  -9   9   2    0.30    0.30
   9   9  -2    0.70    0.40
  -9   9   2    0.20    0.20
   9  -9  -2   -2.60    1.80
  -9  -9   2    0.30    0.40
   9  -9  -2    0.30    0.40
   9  -9  -2    0.00    0.30
  -9  -9   2    0.50    0.30
  -9   9   1    5.80    0.60
   9   9  -1    6.00    0.70
   9   9  -1    6.00    0.70
  -9   9   1    6.10    0.60
   9  -9  -1    6.00    0.70
  -9  -9   1    7.40    0.80
   9  -9  -1    6.10    0.90
  -9  -9   1    5.50    0.70
  -9  -9   1    6.00    0.80
   9  -9  -1    1.90    2.70
  -9   9   0    1.60    0.30
  -9   9   0    1.90    0.40
   9   9   0    0.90    0.40
   9   9   0    1.20    0.40
   9  -9   0    1.50    0.50
   9  -9   0    0.60    0.40
  -9  -9   0    1.40    0.40
  -9  -9   0    1.00    0.50
  -9  -9   0    1.90    0.60
  -9   9  -1   15.50    0.90
  -9   9  -1   15.20    0.90
   9   9   1   15.10    1.00
  -9  -9  -1   14.60    1.20
  -9  -9  -1   16.00    1.20
   9  -9   1   15.10    1.20
   9  -9   1   14.20    1.10
  -9  -9  -1   13.50    1.00
  -9   9  -2    0.30    0.30
   9   9   2    0.00    0.20
  -9  -9  -2   -0.30    0.30
   9  -9   2    0.20    0.30
  -9  -9  -2    0.50    0.40
  -9  -9  -2    0.10    0.30
   9  -9   2    0.10    0.30
   9  -9   2    0.40    0.40
 -10   0  10    6.30    0.60
  10   0 -10    8.80    0.80
  10   0 -10    6.70    0.70
 -10   0  10    6.60    0.80
  10   0 -10    7.80    0.80
 -10   0   9    0.10    0.30
 -10   0   9    0.20    0.30
  10   0  -9   -0.10    0.20
  10   0  -9    0.40    0.30
  10   0  -9    0.30    0.30
  10   0  -8   59.39    5.10
  10   0  -8   56.49    2.40
 -10   0   8   48.00    4.60
 -10   0   8   55.79    2.30
 -10   0   8   55.59    2.50
  10   0  -8   56.49    2.40
  10   0  -8   54.89    2.30
 -10   0   7   -1.00    0.50
 -10   0   7    0.00    0.20
 -10   0   7    0.10    0.20
  10   0  -7    0.20    0.20
  10   0  -7   -0.10    0.60
  10   0  -7    0.10    0.20
  10   0  -7    0.40    0.30
 -10   0   6   76.49    3.00
  10   0  -6   72.79    2.80
 -10   0   6   72.59    2.80
  10   0  -6   73.49    2.90
 -10   0   6   74.79    2.60
 -10   0   6   70.79    5.30
  10   0  -6   75.09    2.80
  10   0  -6   67.99    5.20
 -10   0   5    0.00    0.20
  10   0  -5    0.00    0.10
  10   0  -5    0.10    0.20
  10   0  -5    0.00    0.20
 -10   0   5    0.10    0.20
 -10   0   5    0.10    0.10
  10   0  -5    0.50    0.70
 -10   0   5    0.40    0.60
 -10   0   4  934.71   34.80
  10   0  -4  924.61   31.40
  10   0  -4  927.41   34.70
 -10   0   3    0.00    0.10
 -10   0   3    0.60    0.60
  10   0  -3   -0.10    0.10
  10   0  -3    0.00    0.10
 -10   0   3    0.00    0.10
  10   0  -3    0.00    0.10
  10   0  -3    0.00    0.50
 -10   0   3   -0.10    0.10
  10   0  -2    2.60    1.00
 -10   0   2    2.60    0.30
  10   0  -2    2.90    0.30
  10   0  -2    2.20    0.30
  10   0  -2    2.00    0.30
 -10   0   2    2.10    0.30
 -10   0   2    1.90    0.20
 -10   0   2    2.10    0.90
 -10   0   1    1.00    0.60
 -10   0   1    0.00    0.10
  10   0  -1    0.10    0.20
 -10   0   1    0.10    0.10
 -10   0   1   -0.10    0.10
  10   0  -1   -0.20    0.30
 -10   0   1    0.00    0.10
  10   0  -1    0.20    0.10
 -10   0   0  173.58    6.20
 -10   0   0  183.08    8.50
  10   0   0  176.88    6.20
 -10   0   0  175.98    6.10
  10   0   0  181.68    6.20
  10   0   0  179.78    8.90
  10   0   0  177.28    6.30
  10   0   1    0.70    0.20
  10   0   1    0.60    0.20
 -10   0  -1    0.60    0.20
  10   0   1    0.60    0.20
  10   0   1    0.60    0.60
 -10   0  -1    0.70    0.20
 -10   0  -1    0.70    0.10
 -10   0  -1    0.30    0.50
 -10   0  -2  182.68    6.40
 -10   0  -2  187.88    8.50
 -10   0  -2  188.88    9.30
 -10   0  -2  186.08    6.40
 -10   0  -2  177.38    6.40
  10   0   2  179.58    6.50
  10   0   2  185.18    6.50
  10   0   2  186.48    6.60
 -10   0  -3    0.50    0.20
 -10   0  -3    0.00    0.60
 -10   0  -3    0.80    0.20
  10   0   3    0.50    0.20
  10   0   3    0.70    0.30
 -10   0  -3    1.00    0.60
 -10   0  -3    0.70    0.20
  10   0   3    0.40    0.20
 -10   0  -4   73.39    5.80
  10   0   4   76.39    3.10
 -10   0  -4   82.09    5.30
  10   0   4   75.79    3.00
  10   0   4   75.39    2.90
 -10   0  -4   77.29    2.90
 -10   0  -4   71.89    2.80
  10   0   5    0.10    0.20
 -10   0  -5    0.40    0.20
  10   0   5    0.30    0.30
  10   0   5    0.20    0.20
 -10   0  -5    0.00    0.90
 -10   0  -5    0.20    0.20
 -10   0  -5    0.60    0.70
 -10   0  -6   47.00    4.40
  10   0   6   48.40    2.20
  10   0   6   49.00    2.20
 -10   0  -6   47.40    2.00
 -10   0  -6   49.40    2.00
 -10   0  -6   48.90    2.10
 -10   0  -7    0.20    0.20
  10   0   7    0.50    0.30
 -10   0  -7    0.20    0.20
  10   0   7    0.20    0.30
 -10   0  -7    0.20    0.20
 -10   0  -8   20.60    1.20
  10   0   8   20.60    1.40
 -10   0  -8   21.00    1.10
  10   0   8   22.10    1.40
 -10   1   9   16.70    1.00
  10   1  -9   16.70    1.00
 -10   1   9   18.00    1.20
  10   1  -9   16.80    1.00
  10  -1  -9   16.40    1.10
  10  -1  -9   17.00    1.10
 -10  -1   9   17.10    1.00
  10  -1  -9   16.00    1.00
 -10  -1   9   15.70    1.10
  10   1  -8    6.20    0.60
  10   1  -8    3.50    1.70
 -10   1   8    6.20    0.60
 -10   1   8    4.60    1.60
  10   1  -8    5.70    0.60
 -10   1   8    5.40    0.70
 -10  -1   8    6.80    0.70
 -10  -1   8    6.10    0.60
  10  -1  -8    5.30    0.60
 -10  -1   8    6.60    2.00
  10  -1  -8    6.10    2.00
  10  -1  -8    5.50    0.60
  10  -1  -8    6.30    0.60
 -10   1   7  115.09    4.20
  10   1  -7  113.09    7.30
 -10   1   7  118.29    7.30
 -10   1   7  128.59    4.20
  10   1  -7  114.39    4.20
  10   1  -7  113.59    4.30
 -10   1   7  118.99    4.50
  10  -1  -7  118.59    4.40
  10  -1  -7  105.89    7.10
 -10  -1   7  104.29    7.10
 -10  -1   7  117.29    4.30
 -10  -1   7  114.89    4.40
  10  -1  -7  111.69    4.30
  10  -1  -7  114.49    4.40
 -10   1   6   16.70    0.90
  10   1  -6   16.50    0.90
  10   1  -6   16.00    1.00
 -10   1   6   19.00    1.00
 -10   1   6   17.60    0.80
 -10   1   6   20.40    2.70
  10   1  -6   15.70    0.80
  10   1  -6   15.60    2.40
 -10  -1   6   15.50    1.00
  10  -1  -6   16.50    0.90
 -10  -1   6   18.60    2.50
  10  -1  -6   13.70    0.90
 -10  -1   6   15.70    0.90
  10  -1  -6   17.60    2.50
  10  -1  -6   16.10    0.90
 -10   1   5  188.78    7.00
 -10   1   5  199.38    6.80
  10   1  -5  201.18    6.90
  10   1  -5  187.38    7.00
 -10   1   5  194.98    6.90
  10   1  -5  195.98   10.00
  10   1  -5  199.98    6.80
 -10   1   5  202.58   10.20
  10  -1  -5  196.18   10.10
  10  -1  -5  203.38    7.00
 -10  -1   5  189.78    9.80
  10  -1  -5  190.88    7.00
 -10  -1   5  198.28    7.10
 -10  -1   5  201.58    7.00
 -10  -1   5  200.58    6.80
  10  -1  -5  205.58    7.00
  10   1  -4   51.09    1.90
  10   1  -4   48.80    2.00
 -10   1   4   48.60    4.00
 -10   1   4   47.40    1.80
 -10   1   4   48.20    2.00
 -10   1   4   49.70    1.90
  10   1  -4   45.90    3.80
  10  -1  -4   46.90    4.00
  10  -1  -4   48.60    2.00
  10  -1  -4   50.49    2.00
 -10  -1   4   48.60    1.80
  10  -1  -4   49.20    2.00
 -10  -1   4   48.60    3.90
 -10  -1   4   52.89    2.10
 -10  -1   4   51.19    2.00
  10   1  -3  341.87   12.00
  10   1  -3  350.76   11.90
 -10   1   3  349.77   14.80
  10   1  -3  339.77   14.40
 -10   1   3  336.07   11.90
  10  -1  -3  359.86   11.90
 -10  -1   3  343.77   12.00
 -10  -1   3  340.57   14.50
  10  -1  -3  343.77   12.00
  10  -1  -3  344.97   11.90
  10  -1  -3  360.36   15.00
  10   1  -2  228.38    8.00
  10   1  -2  234.98   10.20
 -10   1   2  216.98   10.40
 -10   1   2  234.48    7.90
 -10   1   2  223.88    7.90
 -10   1   2  224.38    7.90
  10   1  -2  234.48    7.90
  10  -1  -2  219.28    8.00
 -10  -1   2  224.58    7.90
 -10  -1   2  233.98    8.00
  10  -1  -2  231.18    8.00
 -10  -1   2  246.58   10.40
 -10  -1   2  234.78    8.10
  10  -1  -2  230.38    8.10
  10   1  -1  192.78    6.50
  10   1  -1  188.38    6.60
 -10   1   1  191.88    6.50
  10   1  -1  193.78    8.80
 -10   1   1  184.88    9.00
 -10  -1   1  186.18    6.60
  10  -1  -1  190.68    6.60
 -10  -1   1  185.88    6.40
  10  -1  -1  185.88    9.60
 -10  -1   1  184.28    6.50
 -10  -1   1  188.58    8.40
  10  -1  -1  183.48    6.60
  10  -1  -1  183.78    6.60
  10   1   0   84.09    3.10
 -10   1   0   77.49    5.10
  10   1   0   83.79    3.00
  10   1   0   81.49    3.00
 -10   1   0   80.99    3.00
  10   1   0   84.09    5.00
 -10   1   0   81.79    2.90
 -10   1   0   81.99    2.90
 -10  -1   0   84.59    4.50
 -10  -1   0   82.89    3.00
  10  -1   0   81.89    3.00
 -10  -1   0   81.99    3.00
  10  -1   0   81.19    2.90
  10  -1   0   80.49    3.10
  10  -1   0   78.09    5.40
 -10  -1   0   81.59    2.90
  10   1   1   81.29    4.80
 -10   1  -1   82.19    3.00
  10   1   1   83.49    3.00
  10   1   1   80.99    3.10
 -10   1  -1   78.29    2.90
  10   1   1   90.49    3.00
 -10   1  -1   77.49    2.90
 -10   1  -1   84.99    5.60
 -10  -1  -1   80.59    3.00
 -10  -1  -1   79.49    3.00
  10  -1   1   80.49    3.00
  10  -1   1   80.29    3.10
  10  -1   1   76.79    5.40
  10  -1   1   81.79    3.10
 -10  -1  -1   78.99    2.90
 -10  -1  -1   89.79    4.60
  10   1   2   72.09    3.00
 -10   1  -2   80.89    5.60
  10   1   2   71.49    2.90
  10   1   2   70.39    2.80
 -10   1  -2   77.69    2.80
 -10   1  -2   79.39    2.70
 -10  -1  -2   73.09    2.90
  10  -1   2   78.79    2.90
  10  -1   2   80.39    3.00
  10  -1   2   80.49    2.90
 -10  -1  -2   74.59    4.80
 -10  -1  -2   78.09    2.90
 -10  -1  -2   72.59    2.80
 -10  -1  -2   77.69    4.30
 -10   1  -3  187.58    6.40
  10   1   3  181.98    6.60
 -10   1  -3  190.38   10.30
  10   1   3  174.68    6.60
  10   1   3  188.68    6.40
 -10   1  -3  188.28    6.50
 -10   1  -3  194.58    9.30
  10  -1   3  177.08    6.70
 -10  -1  -3  173.58    9.10
 -10  -1  -3  185.18    6.50
  10  -1   3  180.28    6.50
 -10  -1  -3  184.68    6.50
 -10  -1  -3  182.88    6.50
 -10  -1  -3  190.78    8.60
  10  -1   3  184.28    6.50
 -10   1  -4   36.70    1.60
 -10   1  -4   37.40    1.50
 -10   1  -4   38.00    3.50
  10   1   4   40.10    1.80
  10   1   4   39.10    1.70
  10   1   4   39.80    1.50
 -10   1  -4   35.50    4.00
 -10  -1  -4   42.30    1.70
 -10  -1  -4   37.00    3.30
 -10  -1  -4   38.60    1.60
  10  -1   4   33.00    1.70
 -10  -1  -4   39.00    3.80
  10  -1   4   33.20    1.60
 -10  -1  -4   39.70    1.60
  10  -1   4   35.00    1.60
 -10   1  -5   20.30    2.70
 -10   1  -5   20.50    1.10
  10   1   5   21.60    0.90
 -10   1  -5   20.30    3.30
 -10   1  -5   20.70    1.00
  10   1   5   23.00    1.20
  10   1   5   21.20    1.20
  10  -1   5   20.50    1.10
 -10  -1  -5   20.10    1.00
 -10  -1  -5   21.80    1.00
 -10  -1  -5   21.50    1.10
 -10  -1  -5   24.20    2.70
  10  -1   5   21.90    1.20
  10   1   6    4.90    0.60
  10   1   6    6.20    0.70
 -10   1  -6    5.80    0.50
 -10   1  -6    6.60    0.60
 -10   1  -6    5.60    1.70
 -10  -1  -6    5.50    1.90
 -10  -1  -6    6.70    0.50
  10  -1   6    7.30    0.70
 -10  -1  -6    6.20    0.60
  10  -1   6    6.70    0.60
  10  -1   6    6.70    0.70
 -10  -1  -6    4.90    0.50
 -10   1  -7   23.60    1.20
 -10   1  -7   22.10    1.10
  10   1   7   21.80    1.30
 -10   1  -7   21.10    1.10
  10   1   7   20.00    1.30
 -10   1  -7   16.30    3.30
  10  -1   7   19.90    1.30
  10  -1   7   21.90    1.40
 -10  -1  -7   20.20    1.10
 -10  -1  -7   21.20    1.30
 -10  -1  -7   20.70    1.10
 -10   1  -8    1.10    0.30
 -10   1  -8    0.70    0.30
  10   1   8    0.80    0.40
  10   1   8    1.30    0.40
  10  -1   8    0.40    0.30
 -10  -1  -8    0.60    0.30
  10  -1   8    0.60    0.40
 -10   2   9    0.90    0.30
 -10   2   9    0.90    0.40
  10   2  -9    1.50    0.40
  10  -2  -9    0.80    0.30
  10  -2  -9    0.80    0.40
 -10  -2   9    0.80    0.30
 -10  -2   9    0.70    0.40
  10  -2  -9    0.70    0.40
 -10  -2   9    1.40    0.40
  10   2  -8   18.60    1.00
 -10   2   8   18.90    1.20
 -10   2   8   16.10    2.80
  10   2  -8   19.50    1.00
  10   2  -8   20.60    3.10
 -10   2   8   19.00    1.00
  10  -2  -8   18.60    1.10
 -10  -2   8   20.50    1.10
  10  -2  -8   18.70    1.10
 -10  -2   8   17.30    2.70
 -10  -2   8   18.40    1.10
  10  -2  -8   18.00    1.10
 -10  -2   8   18.10    1.20
  10  -2  -8   13.80    2.90
 -10   2   7    2.60    0.50
  10   2  -7    1.70    0.30
 -10   2   7    2.10    1.20
  10   2  -7    1.10    0.30
 -10   2   7    1.70    0.30
  10   2  -7    0.40    0.80
 -10   2   7    1.50    0.30
 -10  -2   7    1.00    0.40
  10  -2  -7    1.50    1.10
  10  -2  -7    1.90    0.50
  10  -2  -7    1.80    0.40
  10  -2  -7    1.60    0.40
 -10  -2   7    1.60    0.30
 -10  -2   7    1.40    0.40
 -10  -2   7    2.00    1.00
  10   2  -6  138.09    4.70
  10   2  -6  122.99    7.50
 -10   2   6  134.39    4.70
 -10   2   6  135.49    7.90
  10   2  -6  125.69    4.70
 -10   2   6  134.69    4.90
 -10  -2   6  134.69    4.80
 -10  -2   6  124.09    7.60
  10  -2  -6  134.39    4.80
  10  -2  -6  142.39    4.80
  10  -2  -6  128.99    8.00
  10  -2  -6  115.69    4.80
 -10  -2   6  129.29    5.00
  10   2  -5    6.00    1.60
 -10   2   5    4.10    0.40
 -10   2   5    3.80    1.30
 -10   2   5    4.30    0.40
  10   2  -5    4.80    0.40
 -10   2   5    4.10    0.40
  10   2  -5    5.00    0.50
  10  -2  -5    4.10    0.50
  10  -2  -5    4.40    0.40
 -10  -2   5    5.20    1.50
  10  -2  -5    4.40    0.50
 -10  -2   5    5.10    0.30
  10  -2  -5    4.00    1.50
 -10  -2   5    5.10    0.50
 -10  -2   5    4.40    0.50
  10   2  -4  430.56   15.00
  10   2  -4  449.36   18.00
  10   2  -4  423.96   15.20
 -10   2   4  437.86   18.40
 -10   2   4  427.16   15.10
  10  -2  -4  436.66   18.60
 -10  -2   4  446.66   15.00
  10  -2  -4  448.46   15.10
 -10  -2   4  437.36   18.10
  10  -2  -4  437.26   15.20
  10  -2  -4  451.25   15.10
 -10  -2   4  450.75   15.20
  10   2  -3  155.68    5.50
  10   2  -3  152.08    5.70
 -10   2   3  159.38    5.50
 -10   2   3  165.98    8.50
  10   2  -3  167.08    8.00
 -10   2   3  157.98    5.60
 -10   2   3  156.98    5.60
  10  -2  -3  153.08    5.70
 -10  -2   3  161.18    5.70
  10  -2  -3  158.48    8.60
  10  -2  -3  161.48    5.70
 -10  -2   3  151.28    5.70
  10  -2  -3  163.58    5.70
 -10  -2   3  161.88    5.60
 -10  -2   3  156.38    7.80
  10   2  -2  119.29    4.30
 -10   2   2  124.99    7.10
  10   2  -2  123.49    4.50
 -10   2   2  119.99    4.30
 -10   2   2  122.99    4.30
 -10   2   2  124.49    4.30
  10   2  -2  125.09    6.30
  10  -2  -2  122.99    4.40
 -10  -2   2  121.39    4.40
  10  -2  -2  124.39    4.40
 -10  -2   2  119.29    4.30
 -10  -2   2  111.29    4.40
  10  -2  -2  126.69    4.50
  10  -2  -2  119.99    7.30
 -10  -2   2  124.99    6.30
  10   2  -1   30.20    1.20
  10   2  -1   27.90    1.30
 -10   2   1   29.70    1.20
 -10   2   1   30.60    1.20
  10   2  -1   32.10    2.50
  10  -2  -1   26.40    3.00
  10  -2  -1   29.30    1.10
 -10  -2   1   30.60    2.40
 -10  -2   1   29.80    1.30
 -10  -2   1   29.50    1.10
  10  -2  -1   26.20    1.30
  10  -2  -1   28.20    1.30
  10  -2  -1   25.50    1.30
 -10  -2   1   30.20    1.30
 -10  -2   1   30.90    1.20
 -10   2   0  198.68    6.90
  10   2   0  212.18    8.80
  10   2   0  201.18    7.10
 -10   2   0  192.58    9.80
  10   2   0  206.88    6.90
  10   2   0  203.78    7.10
  10  -2   0  187.48    6.90
 -10  -2   0  206.48    7.00
 -10  -2   0  220.78    8.40
 -10  -2   0  200.88    6.90
 -10  -2   0  201.08    7.10
  10  -2   0  203.38   10.60
  10  -2   0  191.38    7.10
  10  -2   0  193.48    7.10
  10  -2   0  197.98    7.10
 -10   2  -1   33.90    1.40
 -10   2  -1   35.10    1.30
  10   2   1   32.10    1.50
 -10   2  -1   35.20    1.30
  10   2   1   32.90    1.50
 -10   2  -1   35.70    3.60
 -10  -2  -1   33.00    1.40
 -10  -2  -1   33.40    2.20
  10  -2   1   38.00    1.50
 -10  -2  -1   29.80    1.40
  10  -2   1   40.10    3.80
  10  -2   1   36.80    1.40
  10  -2   1   35.70    1.50
 -10  -2  -1   34.20    1.30
 -10   2  -2   48.30    1.80
  10   2   2   47.80    2.00
 -10   2  -2   46.40    4.30
 -10   2  -2   47.00    1.90
  10   2   2   50.29    2.00
 -10  -2  -2   50.89    2.80
 -10  -2  -2   50.19    2.90
  10  -2   2   45.90    1.90
  10  -2   2   48.30    2.00
  10  -2   2   46.60    2.00
 -10  -2  -2   49.40    2.00
 -10  -2  -2   46.00    1.90
  10  -2   2   45.20    4.30
 -10  -2  -2   44.50    1.80
 -10   2  -3   54.79    2.00
 -10   2  -3   51.29    2.00
  10   2   3   54.69    2.20
 -10   2  -3   51.39    4.80
 -10   2  -3   53.89    4.20
  10   2   3   53.89    2.20
 -10  -2  -3   54.89    3.80
  10  -2   3   50.89    2.10
 -10  -2  -3   54.59    3.30
 -10  -2  -3   55.89    2.10
  10  -2   3   51.79    2.10
  10  -2   3   46.30    2.20
 -10  -2  -3   44.40    2.10
 -10  -2  -3   52.09    2.00
  10   2   4   78.09    3.10
  10   2   4   81.89    3.20
 -10   2  -4   79.09    5.50
 -10   2  -4   80.49    6.30
 -10   2  -4   75.59    2.90
 -10   2  -4   77.89    3.00
 -10  -2  -4   83.99    5.50
 -10  -2  -4   80.19    3.10
 -10  -2  -4   78.29    3.00
  10  -2   4   75.79    3.20
 -10  -2  -4   82.29    2.90
 -10  -2  -4   80.59    3.10
  10  -2   4   78.19    3.10
  10  -2   4   75.49    3.10
 -10  -2  -4   80.99    4.70
  10   2   5    5.90    0.60
 -10   2  -5    4.10    1.40
 -10   2  -5    5.60    0.50
  10   2   5    5.50    0.60
 -10   2  -5    4.70    0.40
  10   2   5    5.70    0.40
 -10   2  -5    6.70    2.10
  10  -2   5    4.10    0.50
 -10  -2  -5    4.20    1.30
  10  -2   5    4.10    0.50
  10  -2   5    3.60    0.50
 -10  -2  -5    4.60    0.40
 -10  -2  -5    6.10    0.60
 -10  -2  -5    5.10    0.50
 -10   2  -6   25.60    1.20
 -10   2  -6   28.30    4.20
  10   2   6   24.10    1.40
  10   2   6   24.70    1.20
 -10   2  -6   24.90    3.40
  10   2   6   25.90    1.40
 -10   2  -6   25.70    1.20
 -10  -2  -6   23.10    1.30
 -10  -2  -6   22.80    1.20
  10  -2   6   26.50    1.40
  10  -2   6   24.20    1.40
  10  -2   6   24.20    1.30
 -10   2  -7    0.40    0.20
  10   2   7    0.70    0.40
 -10   2  -7    0.30    1.30
 -10   2  -7    0.50    0.30
  10   2   7    0.60    0.30
  10  -2   7    0.70    0.40
 -10  -2  -7    0.70    0.30
 -10  -2  -7    0.70    0.30
  10  -2   7    0.90    0.30
  10  -2   7    0.80    0.40
 -10   3   9    7.20    0.60
  10   3  -9    6.60    0.60
 -10   3   9    6.60    0.80
 -10  -3   9    6.40    0.80
 -10  -3   9    7.10    0.70
  10  -3  -9    6.30    0.70
 -10  -3   9    6.20    0.70
  10  -3  -9    7.10    0.80
  10   3  -8    0.10    0.20
  10   3  -8    0.30    1.20
 -10   3   8   -0.20    0.20
 -10   3   8   -0.10    1.50
 -10   3   8    0.10    0.30
  10  -3  -8    2.00    1.50
 -10  -3   8    0.10    0.20
 -10  -3   8    0.30    0.80
  10  -3  -8    0.20    0.30
  10  -3  -8    0.10    0.30
 -10  -3   8    0.00    0.20
 -10  -3   8    0.40    0.40
  10   3  -7   91.39    3.40
 -10   3   7   91.89    6.50
 -10   3   7   91.09    3.60
 -10   3   7   90.09    3.40
  10   3  -7   93.79    6.40
 -10   3   7   90.99    3.30
 -10  -3   7   91.79    3.60
  10  -3  -7   88.69    3.50
  10  -3  -7   84.59    6.50
  10  -3  -7   89.59    3.60
 -10  -3   7   93.49    3.60
  10  -3  -7   87.99    3.40
 -10  -3   7   87.29    6.30
 -10  -3   7   89.59    3.50
 -10   3   6    6.10    1.70
  10   3  -6    5.40    0.50
  10   3  -6    6.90    1.90
 -10   3   6    5.10    0.50
 -10   3   6    4.50    0.40
 -10   3   6    5.10    0.50
 -10  -3   6    6.50    0.60
 -10  -3   6    5.20    1.60
  10  -3  -6    5.30    0.50
 -10  -3   6    6.10    0.50
  10  -3  -6    5.10    0.60
  10  -3  -6    2.80    1.40
  10  -3  -6    5.40    0.50
 -10  -3   6    6.30    0.60
 -10   3   5   74.19    5.30
 -10   3   5   69.79    2.60
  10   3  -5   66.09    2.80
  10   3  -5   60.69    4.70
  10   3  -5   66.99    2.60
 -10   3   5   71.19    2.60
 -10   3   5   68.29    2.70
 -10  -3   5   68.89    2.60
 -10  -3   5   63.79    2.80
 -10  -3   5   65.59    4.90
 -10  -3   5   68.29    2.70
  10  -3  -5   70.39    2.80
  10  -3  -5   71.09    2.60
  10  -3  -5   67.29    2.70
  10  -3  -5   69.39    5.40
 -10   3   4   44.10    1.70
  10   3  -4   41.50    3.60
 -10   3   4   46.70    4.00
  10   3  -4   40.20    1.90
 -10   3   4   43.70    1.70
  10   3  -4   41.60    1.70
 -10   3   4   45.30    1.70
 -10  -3   4   46.20    3.80
  10  -3  -4   45.60    4.20
  10  -3  -4   45.30    1.90
 -10  -3   4   41.20    1.80
 -10  -3   4   43.70    1.70
 -10  -3   4   40.70    1.90
  10  -3  -4   42.80    1.80
  10  -3  -4   46.50    1.80
 -10   3   3  195.08    6.90
 -10   3   3  199.68    7.00
  10   3  -3  202.38    9.40
 -10   3   3  204.58   10.10
  10   3  -3  198.38    6.90
  10   3  -3  194.38    7.10
 -10   3   3  200.08    6.90
  10  -3  -3  191.78    7.10
  10  -3  -3  209.38    7.00
 -10  -3   3  211.88    7.10
 -10  -3   3  200.98    7.00
  10  -3  -3  199.48    7.20
 -10  -3   3  195.68    9.40
  10  -3  -3  191.78   10.50
 -10  -3   3  194.48    7.10
 -10   3   2   15.50    0.80
  10   3  -2   16.30    0.70
 -10   3   2   17.20    2.40
  10   3  -2   14.90    0.90
  10   3  -2   15.30    1.80
 -10   3   2   16.70    0.80
 -10  -3   2   16.60    0.80
 -10  -3   2   15.70    0.90
 -10  -3   2   19.50    2.00
  10  -3  -2   15.30    0.90
  10  -3  -2   16.60    2.60
 -10  -3   2   15.40    0.90
  10  -3  -2   15.20    0.80
  10  -3  -2   14.40    0.90
 -10   3   1   22.80    1.00
 -10   3   1   22.90    1.00
 -10   3   1   22.30    2.60
  10   3  -1   24.10    1.10
  10   3  -1   22.60    1.90
  10   3  -1   23.70    0.90
  10   3  -1   21.60    0.80
  10  -3  -1   24.10    1.20
 -10  -3   1   22.60    1.10
  10  -3  -1   21.00    3.00
  10  -3  -1   22.20    1.10
  10  -3  -1   24.30    1.20
 -10  -3   1   24.20    1.20
 -10  -3   1   23.90    1.10
 -10  -3   1   26.30    2.00
 -10   3   0  107.19    3.80
 -10   3   0  107.39    3.80
  10   3   0  104.69    4.00
  10   3   0  103.49    3.90
 -10   3   0  103.79    6.70
  10  -3   0  111.49    4.00
 -10  -3   0  103.69    3.90
  10  -3   0  112.19    4.00
 -10  -3   0   94.29    4.00
  10  -3   0  116.99    7.50
 -10  -3   0  107.59    3.80
  10  -3   0  110.79    4.00
 -10   3  -1  112.79    7.70
 -10   3  -1  114.79    4.30
 -10   3  -1  117.29    4.20
  10   3   1  123.19    4.40
  10   3   1  122.49    4.40
 -10  -3  -1  125.29    4.50
  10  -3   1  122.99    4.50
  10  -3   1  118.19    4.50
  10  -3   1  122.39    4.20
 -10  -3  -1  119.59    4.40
  10  -3   1  119.29    4.50
 -10  -3  -1  123.49    4.30
  10  -3   1  120.09    7.80
 -10   3  -2   36.30    4.00
 -10   3  -2   39.30    1.60
  10   3   2   43.60    1.80
  10   3   2   42.80    1.70
 -10   3  -2   38.40    1.60
 -10  -3  -2   40.00    1.70
  10  -3   2   39.40    1.80
  10  -3   2   40.70    4.30
  10  -3   2   38.30    1.60
 -10  -3  -2   39.30    1.60
 -10  -3  -2   41.10    1.80
  10  -3   2   40.90    1.80
 -10   3  -3   59.49    4.70
 -10   3  -3   62.09    2.30
  10   3   3   62.09    2.50
 -10   3  -3   55.79    5.30
 -10   3  -3   60.09    2.30
  10   3   3   62.79    2.50
  10  -3   3   56.79    2.50
 -10  -3  -3   63.39    2.50
  10  -3   3   61.09    2.50
 -10  -3  -3   66.19    2.50
  10  -3   3   58.79    2.40
 -10  -3  -3   61.69    2.40
 -10   3  -4    0.80    1.20
 -10   3  -4    1.70    0.90
 -10   3  -4    1.00    0.20
 -10   3  -4    1.50    0.30
  10  -3   4    0.90    0.30
  10  -3   4    1.20    0.30
 -10  -3  -4    2.30    0.40
  10  -3   4    0.90    0.40
 -10  -3  -4    2.10    0.40
  10   3   5   36.90    1.60
 -10   3  -5   32.50    4.30
 -10   3  -5   34.90    3.80
 -10   3  -5   36.30    1.50
  10   3   5   37.10    1.80
  10   3   5   35.50    1.70
 -10   3  -5   35.90    1.50
 -10  -3  -5   36.30    1.60
  10  -3   5   35.50    1.80
 -10  -3  -5   37.10    1.80
  10  -3   5   38.30    1.80
  10  -3   5   35.80    1.70
  10   3   6    5.10    0.60
 -10   3  -6    5.20    2.00
  10   3   6    6.10    0.70
 -10   3  -6    5.50    0.50
 -10   3  -6    3.40    1.80
 -10   3  -6    4.70    0.50
  10   3   6    5.50    0.50
 -10  -3  -6    5.50    0.50
 -10  -3  -6    5.20    0.60
  10  -3   6    4.80    0.60
  10  -3   6    4.20    0.50
  10  -3   6    4.30    0.60
  10   3   7   10.60    0.90
 -10   3  -7   10.00    0.70
  10   3   7   10.10    0.90
  10  -3   7   10.30    0.80
 -10  -3  -7    9.00    0.70
  10  -3   7   10.60    0.90
  10  -3   7    9.30    0.90
 -10  -3  -7   10.40    0.90
 -10   4   9    0.20    0.30
  10   4  -9    0.10    0.30
 -10   4   9    0.10    0.30
 -10  -4   9    0.10    0.20
 -10  -4   9    0.10    0.30
  10  -4  -9    0.20    0.30
  10  -4  -9    0.10    0.30
 -10  -4   9    0.10    0.30
  10   4  -8   18.90    1.00
 -10   4   8   21.00    1.30
 -10   4   8   20.20    1.00
  10   4  -8   11.60    2.80
 -10   4   8   18.60    1.00
  10  -4  -8   17.20    3.40
 -10  -4   8   18.30    1.20
 -10  -4   8   17.90    1.20
 -10  -4   8   16.30    1.10
  10  -4  -8   19.30    1.10
  10  -4  -8   19.20    1.30
 -10   4   7    1.00    0.30
 -10   4   7    1.30    1.20
  10   4  -7    1.00    1.20
 -10   4   7    1.30    0.40
 -10   4   7    1.10    0.30
  10   4  -7    1.60    0.30
 -10  -4   7    1.60    0.40
 -10  -4   7    1.80    0.40
  10  -4  -7    1.50    0.50
  10  -4  -7    1.20    0.30
  10  -4  -7    1.20    1.20
 -10  -4   7    1.90    0.50
 -10   4   6   33.60    1.50
  10   4  -6   32.00    3.60
 -10   4   6   33.00    3.50
 -10   4   6   34.20    1.60
 -10   4   6   34.60    1.50
  10   4  -6   33.80    1.50
  10  -4  -6   31.90    1.60
 -10  -4   6   34.50    1.60
 -10  -4   6   33.80    1.60
  10  -4  -6   32.90    1.70
 -10  -4   6   32.80    3.50
  10  -4  -6   31.90    3.90
 -10  -4   6   35.20    1.70
  10   4  -5    1.20    0.90
 -10   4   5    0.20    0.20
 -10   4   5    0.30    0.20
 -10   4   5    0.20    0.20
 -10   4   5    1.20    0.70
  10   4  -5    0.70    0.20
  10  -4  -5    0.10    0.10
 -10  -4   5    0.40    0.30
  10  -4  -5    0.10    0.30
 -10  -4   5    0.50    0.20
  10  -4  -5    0.50    0.30
  10  -4  -5    1.20    0.90
 -10  -4   5    0.40    0.20
 -10  -4   5    1.30    0.80
 -10   4   4  286.07    9.80
  10   4  -4  294.37   13.00
  10   4  -4  283.87    9.80
 -10   4   4  284.77    9.80
  10   4  -4  269.57   10.00
 -10   4   4  294.67    9.80
 -10   4   4  277.27   13.30
  10  -4  -4  287.77    9.80
  10  -4  -4  292.17   10.10
  10  -4  -4  290.67   14.20
 -10  -4   4  281.17    9.90
  10  -4  -4  274.47   10.00
 -10  -4   4  271.47   10.00
 -10  -4   4  295.77   13.00
 -10  -4   4  270.37   10.00
  10   4  -3   77.39    3.00
 -10   4   3   84.29    5.70
  10   4  -3   76.99    3.20
 -10   4   3   81.29    3.00
 -10   4   3   83.19    3.00
  10   4  -3   86.49    5.20
 -10  -4   3   78.49    3.20
 -10  -4   3   81.09    5.10
  10  -4  -3   85.59    3.30
 -10  -4   3   78.89    3.20
  10  -4  -3   87.69    6.60
 -10  -4   3   77.29    3.10
  10  -4  -3   81.69    3.20
  10  -4  -3   87.29    3.10
 -10   4   2  103.69    6.70
 -10   4   2  106.89    3.80
 -10   4   2  102.39    3.80
  10   4  -2  106.09    3.70
  10   4  -2  104.59    5.60
  10   4  -2  103.29    3.90
 -10  -4   2  108.39    5.70
  10  -4  -2  104.89    4.10
 -10  -4   2  101.89    3.90
  10  -4  -2  100.69    3.90
  10  -4  -2  106.49    3.90
 -10  -4   2  107.89    3.90
  10  -4  -2   97.99    7.20
 -10  -4   2  104.59    4.00
 -10   4   1   12.90    2.20
  10   4  -1   13.10    0.80
 -10   4   1   12.70    0.70
 -10   4   1   11.70    0.60
  10   4  -1   14.80    1.60
 -10  -4   1   14.30    1.40
  10  -4  -1   15.40    2.60
  10  -4  -1   12.00    0.80
 -10  -4   1   14.50    0.80
  10  -4  -1   10.80    0.80
 -10  -4   1   13.50    0.80
 -10  -4   1   12.10    0.60
 -10  -4   1   14.70    0.80
  10  -4  -1   11.30    0.70
 -10   4   0  237.28   12.10
 -10   4   0  241.88    8.40
 -10   4   0  234.18    8.40
  10   4   0  242.68    8.60
  10   4   0  247.78    8.60
 -10  -4   0  243.08    8.60
  10  -4   0  240.08    8.60
  10  -4   0  242.38    8.60
 -10  -4   0  241.18    8.60
  10  -4   0  263.87   13.00
 -10  -4   0  246.58    8.40
 -10   4  -1   57.59    2.00
  10   4   1   50.39    2.20
 -10   4  -1   57.09    5.20
 -10   4  -1   53.69    2.10
  10   4   1   51.79    2.20
 -10  -4  -1   48.80    2.20
  10  -4   1   57.59    2.30
 -10  -4  -1   50.89    2.30
  10  -4   1   57.59    2.30
  10  -4   1   55.99    2.30
  10  -4   1   59.79    5.20
 -10  -4  -1   51.69    2.10
  10   4   2    4.40    0.50
 -10   4  -2    3.40    1.70
  10   4   2    3.40    0.40
 -10   4  -2    3.70    0.40
  10  -4   2    2.50    0.40
 -10  -4  -2    4.00    0.50
  10  -4   2    2.10    1.30
  10  -4   2    2.80    0.30
 -10  -4  -2    3.60    0.40
 -10  -4  -2    3.80    0.50
  10  -4   2    3.50    0.50
 -10   4  -3   47.80    1.90
 -10   4  -3   46.60    2.00
 -10   4  -3   48.00    4.30
  10   4   3   52.29    2.10
  10   4   3   50.19    2.10
 -10   4  -3   50.39    5.10
  10  -4   3   48.00    2.00
 -10  -4  -3   52.79    2.20
 -10  -4  -3   49.10    2.00
 -10  -4  -3   50.09    2.20
  10  -4   3   47.40    2.20
  10  -4   3   45.70    2.10
 -10   4  -4   37.40    4.40
  10   4   4   33.40    1.60
 -10   4  -4   34.00    1.40
  10   4   4   34.00    1.60
 -10   4  -4   33.90    1.50
 -10   4  -4   31.00    3.40
 -10  -4  -4   32.60    1.60
  10  -4   4   34.10    1.60
 -10  -4  -4   34.50    1.60
  10  -4   4   35.00    1.60
 -10  -4  -4   35.90    1.70
  10  -4   4   33.90    1.70
 -10   4  -5    2.70    1.70
 -10   4  -5   -0.40    0.80
 -10   4  -5    0.10    0.20
  10   4   5    0.30    0.30
 -10   4  -5    0.20    0.20
  10   4   5    0.10    0.20
  10   4   5    0.10    0.20
 -10  -4  -5    0.00    0.20
 -10  -4  -5    0.30    0.30
  10  -4   5    0.20    0.20
  10  -4   5    0.60    0.30
  10  -4   5    0.20    0.20
 -10   4  -6   18.10    3.00
 -10   4  -6   19.40    1.00
  10   4   6   19.40    1.20
 -10   4  -6   20.60    1.00
  10   4   6   19.60    1.00
  10   4   6   19.30    1.20
 -10   4  -6   19.30    4.60
 -10  -4  -6   20.70    1.10
  10  -4   6   18.80    1.30
  10  -4   6   19.80    1.20
 -10  -4  -6   20.10    1.30
  10  -4   6   20.50    1.10
  10   4   7    2.20    0.50
 -10   4  -7    1.70    0.30
  10   4   7    2.60    0.60
  10   4   7    2.50    0.50
  10  -4   7    1.80    0.40
 -10  -4  -7    1.80    0.40
 -10  -4  -7    2.30    0.50
  10  -4   7    1.60    0.50
  10  -4   7    2.20    0.60
 -10   5   8    1.50    0.30
 -10   5   8    1.60    0.40
 -10   5   8    1.60    0.50
  10   5  -8    1.80    0.40
 -10  -5   8    1.70    0.50
  10  -5  -8    1.80    0.50
  10  -5  -8    2.10    0.60
 -10  -5   8    2.50    0.50
 -10  -5   8    2.50    0.50
 -10   5   7   18.90    1.00
  10   5  -7   19.50    1.00
 -10   5   7   16.00    2.90
 -10   5   7   19.60    1.20
  10   5  -7   18.10    3.00
 -10   5   7   19.20    1.00
  10  -5  -7   18.80    1.30
  10  -5  -7   20.70    3.50
  10  -5  -7   19.50    1.10
 -10  -5   7   18.50    1.20
 -10  -5   7   17.50    1.20
 -10  -5   7   15.80    2.80
 -10  -5   7   17.60    1.10
  10   5  -6    2.30    1.40
 -10   5   6    3.10    0.50
  10   5  -6    2.90    0.40
 -10   5   6    2.60    0.40
 -10   5   6    3.40    1.50
 -10   5   6    2.30    0.40
  10  -5  -6    2.80    0.60
 -10  -5   6    2.70    0.50
 -10  -5   6    1.70    0.40
  10  -5  -6    3.20    0.50
  10  -5  -6    1.00    1.10
 -10  -5   6    3.90    1.50
 -10  -5   6    2.20    0.50
  10   5  -5   29.10    3.30
 -10   5   5   32.10    3.50
 -10   5   5   31.20    1.40
 -10   5   5   30.00    1.40
 -10   5   5   32.10    1.40
  10   5  -5   32.60    1.40
 -10  -5   5   32.80    1.50
  10  -5  -5   31.50    1.50
 -10  -5   5   30.20    1.60
 -10  -5   5   31.30    1.50
  10  -5  -5   30.00    1.60
  10  -5  -5   26.50    3.70
 -10  -5   5   28.50    3.30
 -10   5   4   -0.10    0.60
  10   5  -4    0.40    0.20
  10   5  -4    0.30    0.30
 -10   5   4    0.50    0.20
  10   5  -4    0.70    0.80
 -10   5   4    0.30    0.20
 -10  -5   4    0.20    0.20
  10  -5  -4    0.50    0.30
 -10  -5   4    0.20    0.20
 -10  -5   4    0.60    0.30
 -10  -5   4    1.80    1.00
  10  -5  -4   -0.70    0.80
  10  -5  -4    0.80    0.30
  10   5  -3   58.49    2.50
  10   5  -3   63.29    4.40
 -10   5   3   61.99    2.30
 -10   5   3   60.09    2.30
  10   5  -3   60.39    2.30
 -10   5   3   54.89    4.70
  10  -5  -3   59.59    2.30
 -10  -5   3   58.19    2.50
  10  -5  -3   60.49    2.60
  10  -5  -3   62.09    5.60
 -10  -5   3   60.49    4.30
 -10  -5   3   58.59    2.50
 -10  -5   3   60.19    2.50
  10  -5  -3   60.89    2.50
  10   5  -2  117.09    4.50
 -10   5   2  122.09    4.30
 -10   5   2  125.89    7.60
 -10   5   2  117.99    4.30
  10   5  -2  117.89    4.20
  10   5  -2  119.99    6.20
 -10  -5   2  118.39    6.20
  10  -5  -2  117.69    8.30
 -10  -5   2  113.59    4.50
 -10  -5   2  119.29    4.50
  10  -5  -2  122.59    4.70
 -10  -5   2  109.89    4.50
  10  -5  -2  124.89    4.40
  10   5  -1   21.40    1.10
 -10   5   1   17.60    2.70
  10   5  -1   21.50    2.10
 -10   5   1   18.90    0.90
 -10   5   1   18.80    0.90
  10  -5  -1   17.80    2.90
  10  -5  -1   18.70    1.10
  10  -5  -1   19.90    1.00
 -10  -5   1   21.80    1.20
 -10  -5   1   20.40    1.10
 -10  -5   1   21.20    1.00
 -10  -5   1   21.30    1.10
  10  -5  -1   18.30    1.20
 -10   5   0    1.50    0.20
 -10   5   0    2.10    1.30
  10   5   0    0.70    0.30
  10   5   0    1.10    0.30
 -10   5   0    1.00    0.20
  10  -5   0    1.60    0.40
  10  -5   0    1.80    0.40
  10  -5   0    2.10    1.40
 -10  -5   0    1.00    0.30
  10  -5   0    1.50    0.40
 -10  -5   0    1.50    0.30
 -10  -5   0    0.70    0.30
 -10   5  -1  145.69    9.10
 -10   5  -1  140.99    5.00
 -10   5  -1  134.79    4.90
  10   5   1  142.89    5.10
  10   5   1  148.69    5.20
 -10  -5  -1  140.39    5.10
  10  -5   1  140.19    5.20
 -10  -5  -1  134.19    5.20
  10  -5   1  136.49    5.20
  10  -5   1  135.39    9.10
  10  -5   1  135.59    5.30
 -10  -5  -1  138.49    5.20
 -10   5  -2    1.40    1.30
 -10   5  -2    0.70    0.20
  10   5   2    0.50    0.30
  10   5   2    1.00    0.30
  10  -5   2    1.20    0.30
  10  -5   2    1.30    0.30
 -10  -5  -2    0.40    0.20
  10  -5   2    1.20    0.40
 -10  -5  -2    1.00    0.40
 -10  -5  -2    0.80    0.30
  10   5   3   28.80    1.40
 -10   5  -3   28.30    1.30
 -10   5  -3   25.30    3.60
 -10   5  -3   32.50    3.50
  10   5   3   28.40    1.40
 -10   5  -3   29.50    1.30
 -10  -5  -3   27.70    1.50
  10  -5   3   29.20    1.50
 -10  -5  -3   29.10    1.50
 -10  -5  -3   28.80    1.40
  10  -5   3   31.00    1.40
 -10   5  -4   33.60    4.30
  10   5   4   25.80    1.30
 -10   5  -4   24.30    1.10
 -10   5  -4   27.30    3.40
  10   5   4   24.40    1.30
 -10   5  -4   24.90    1.20
  10  -5   4   24.00    1.30
  10  -5   4   22.70    1.40
 -10  -5  -4   26.00    1.30
 -10  -5  -4   26.00    1.40
 -10  -5  -4   25.50    1.40
  10  -5   4   23.10    1.30
  10   5   5   21.90    1.40
 -10   5  -5   25.10    1.10
 -10   5  -5   25.40    3.90
 -10   5  -5   23.40    1.20
 -10   5  -5   23.50    3.30
  10   5   5   23.00    1.30
  10   5   5   24.80    1.20
  10  -5   5   23.30    1.40
 -10  -5  -5   24.30    1.30
  10  -5   5   25.10    1.30
 -10  -5  -5   23.60    1.40
  10  -5   5   23.50    1.40
  10   5   6    1.80    0.50
  10   5   6    2.50    0.40
  10   5   6    2.30    0.50
 -10   5  -6    1.90    0.40
 -10   5  -6    1.80    0.30
 -10  -5  -6    2.10    0.50
  10  -5   6    1.60    0.40
  10  -5   6    1.60    0.40
  10  -5   6    1.40    0.40
 -10  -5  -6    2.60    0.50
  10   6  -8    7.00    0.70
 -10   6   8    7.20    0.60
 -10   6   8    6.10    0.60
 -10  -6   8    6.90    0.80
 -10  -6   8    7.60    0.80
 -10  -6   8    7.50    0.80
  10  -6  -8    7.50    0.80
  10  -6  -8    6.50    0.80
  10   6  -7    0.40    0.30
 -10   6   7    0.30    0.20
  10   6  -7    0.40    1.40
 -10   6   7    0.40    0.20
 -10  -6   7    0.10    0.30
 -10  -6   7    0.10    0.30
 -10  -6   7    0.10    0.20
  10  -6  -7    0.00    0.30
  10  -6  -7    0.30    1.90
  10  -6  -7    0.50    0.30
  10   6  -6   15.60    2.90
  10   6  -6   18.20    1.00
 -10   6   6   18.70    1.00
 -10   6   6   19.90    1.00
 -10  -6   6   17.70    1.10
  10  -6  -6   18.40    1.30
 -10  -6   6   17.20    1.20
  10  -6  -6   16.80    3.50
  10  -6  -6   19.50    1.20
  10   6  -5    3.60    0.60
  10   6  -5    6.10    1.90
 -10   6   5    3.30    1.60
 -10   6   5    3.10    0.40
  10   6  -5    2.90    0.40
 -10   6   5    3.30    0.40
 -10  -6   5    4.10    0.60
  10  -6  -5    3.60    1.80
 -10  -6   5    4.10    0.50
  10  -6  -5    3.00    0.60
  10  -6  -5    3.70    0.70
 -10  -6   5    3.60    1.60
 -10  -6   5    3.50    0.50
 -10   6   4   44.50    1.90
  10   6  -4   44.80    2.00
  10   6  -4   45.10    1.80
  10   6  -4   42.00    4.00
 -10   6   4   44.70    4.40
 -10   6   4   41.60    1.80
 -10  -6   4   43.80    2.10
  10  -6  -4   43.40    2.00
  10  -6  -4   42.60    5.00
 -10  -6   4   45.20    2.10
  10  -6  -4   43.20    2.20
 -10  -6   4   50.29    2.10
 -10   6   3   33.90    1.40
 -10   6   3   32.40    1.40
 -10   6   3   31.30    3.70
  10   6  -3   33.70    1.40
  10   6  -3   31.20    3.30
  10   6  -3   33.30    1.60
  10  -6  -3   34.70    1.80
 -10  -6   3   30.80    1.60
  10  -6  -3   31.50    4.10
 -10  -6   3   28.90    1.50
  10  -6  -3   34.90    1.60
 -10  -6   3   32.30    1.60
  10   6  -2   86.59    3.50
 -10   6   2   92.89    3.30
 -10   6   2   93.79    6.50
  10   6  -2   89.49    6.10
 -10   6   2   88.59    3.30
  10   6  -2   95.79    5.40
  10   6  -2   87.09    3.20
  10  -6  -2   88.39    3.70
 -10  -6   2   80.89    3.50
  10  -6  -2   91.29    3.50
 -10  -6   2   93.59    3.60
  10  -6  -2   86.29    7.20
  10  -6  -2   92.29    3.40
 -10  -6   2   86.09    3.30
 -10  -6   2   85.09    3.50
 -10   6   1    1.50    0.30
 -10   6   1    1.00    0.90
 -10   6   1    1.70    0.30
  10   6  -1    3.10    0.50
 -10  -6   1    2.70    0.50
 -10  -6   1    2.80    0.50
  10  -6  -1    2.30    1.50
 -10  -6   1    2.60    0.50
  10  -6  -1    2.20    0.60
  10  -6  -1    2.40    0.50
  10  -6  -1    2.10    0.40
 -10  -6   1    2.50    0.40
 -10   6   0   58.79    2.30
 -10   6   0   60.29    5.40
  10   6   0   60.49    2.50
 -10   6   0   57.19    2.20
  10   6   0   61.89    2.50
  10  -6   0   58.29    2.60
  10  -6   0   56.09    2.50
  10  -6   0   55.79    5.70
 -10  -6   0   60.89    2.50
 -10  -6   0   60.09    2.50
 -10  -6   0   58.59    2.50
  10  -6   0   53.29    2.50
 -10   6  -1    9.10    0.50
  10   6   1    7.50    0.70
 -10   6  -1    8.50    2.50
  10   6   1    8.10    0.70
 -10   6  -1    9.30    0.60
  10  -6   1    9.90    0.80
 -10  -6  -1    6.60    0.60
 -10  -6  -1    7.80    0.70
 -10  -6  -1    7.50    0.70
  10  -6   1    9.50    2.60
  10  -6   1    8.40    0.70
  10  -6   1    8.40    0.80
  10   6   2   21.80    1.20
  10   6   2   24.60    1.30
 -10   6  -2   22.00    3.00
 -10   6  -2   24.70    3.60
 -10   6  -2   25.40    1.10
 -10  -6  -2   22.00    1.30
 -10  -6  -2   23.30    1.30
  10  -6   2   24.90    1.40
  10  -6   2   25.10    1.40
  10  -6   2   25.20    1.30
 -10  -6  -2   22.80    1.30
  10   6   3    4.30    0.50
 -10   6  -3    3.60    0.40
 -10   6  -3    5.20    2.30
 -10   6  -3    3.00    0.40
 -10   6  -3    3.60    1.70
  10   6   3    4.40    0.50
  10  -6   3    3.80    0.50
  10  -6   3    3.40    0.50
 -10  -6  -3    4.10    0.60
 -10  -6  -3    3.70    0.50
 -10  -6  -3    4.20    0.60
 -10   6  -4   10.10    0.80
 -10   6  -4    6.30    2.20
  10   6   4   12.30    0.90
 -10   6  -4   12.10    0.70
  10   6   4   12.50    0.90
 -10  -6  -4   12.50    0.90
 -10  -6  -4   12.40    0.90
  10  -6   4   11.00    0.80
  10  -6   4   10.70    0.90
 -10  -6  -4   13.00    0.90
 -10   6  -5    1.40    0.30
 -10   6  -5    2.10    0.40
  10   6   5    1.50    0.40
  10   6   5    1.40    0.30
 -10  -6  -5    1.90    0.50
 -10  -6  -5    2.30    0.50
  10  -6   5    2.50    0.50
  10  -6   5    1.10    0.40
  10   6   6   10.70    0.80
  10   6   6   11.50    0.90
 -10   6  -6   12.10    0.70
 -10  -6  -6   11.00    1.00
  10  -6   6   10.90    1.00
 -10  -6  -6   11.20    0.90
  10  -6   6   12.30    0.90
 -10   7   7   12.40    0.80
 -10   7   7   11.60    0.80
  10   7  -7   12.00    0.90
 -10  -7   7   13.00    1.00
  10  -7  -7   11.30    1.00
 -10  -7   7   12.50    1.00
  10  -7  -7   11.60    1.10
 -10   7   6    0.10    0.20
  10   7  -6    0.20    0.30
 -10   7   6    0.40    0.20
  10   7  -6    0.60    1.30
  10  -7  -6    0.20    0.40
  10  -7  -6    1.30    1.90
 -10  -7   6    0.20    0.30
 -10  -7   6   -0.40    0.20
  10  -7  -6    0.00    0.40
  10   7  -5    7.70    0.80
 -10   7   5    7.60    2.40
  10   7  -5    7.60    0.60
 -10   7   5    8.00    0.60
  10   7  -5    4.50    2.30
 -10   7   5    7.90    0.60
  10   7  -5    7.60    2.30
  10  -7  -5    7.30    0.90
  10  -7  -5    9.20    2.80
  10  -7  -5    8.20    0.80
 -10  -7   5    7.20    0.80
 -10  -7   5    7.80    0.70
 -10   7   4   -0.10    0.90
  10   7  -4   -0.60    0.90
  10   7  -4    1.70    1.60
  10   7  -4    0.70    0.30
  10   7  -4    0.80    0.30
 -10   7   4    1.10    0.30
 -10   7   4    1.00    0.30
 -10  -7   4    0.70    0.40
  10  -7  -4    0.70    0.30
 -10  -7   4    0.40    0.30
 -10  -7   4    0.60    0.40
  10  -7  -4    1.00    1.70
  10  -7  -4    1.10    0.50
 -10   7   3   19.10    3.10
  10   7  -3   16.70    3.70
  10   7  -3   19.00    2.80
 -10   7   3   23.60    1.20
 -10   7   3   22.30    1.10
  10   7  -3   24.60    1.30
  10   7  -3   26.20    1.20
  10  -7  -3   16.10    4.00
 -10  -7   3   24.00    1.40
  10  -7  -3   24.80    1.50
 -10  -7   3   23.70    1.30
  10  -7  -3   22.50    1.30
 -10  -7   3   26.80    1.50
 -10   7   2    9.00    0.60
 -10   7   2    8.60    0.60
  10   7  -2    6.70    1.90
  10   7  -2    5.50    1.80
  10   7  -2    7.30    0.70
 -10   7   2    9.90    2.70
  10  -7  -2   10.10    1.00
  10  -7  -2    9.20    0.60
 -10  -7   2    7.60    0.80
  10  -7  -2    7.30    2.30
 -10  -7   2    6.50    0.70
  10  -7  -2    9.80    0.80
 -10  -7   2    6.30    0.70
 -10   7   1   36.40    1.60
  10   7  -1   36.40    1.70
 -10   7   1   38.70    1.60
 -10   7   1   39.20    4.20
 -10  -7   1   36.20    1.80
 -10  -7   1   35.70    1.80
  10  -7  -1   38.60    1.90
  10  -7  -1   34.40    1.70
 -10  -7   1   32.70    1.80
  10  -7  -1   40.60    4.80
  10  -7  -1   34.80    1.70
  10   7   0    9.10    0.80
  10   7   0    9.10    0.80
 -10   7   0   10.00    0.70
 -10   7   0    9.20    0.60
 -10  -7   0    8.40    0.80
 -10  -7   0    8.60    0.80
  10  -7   0   11.10    0.80
  10  -7   0   10.00    0.80
 -10  -7   0    8.30    0.80
  10  -7   0   11.10    0.90
  10  -7   0    4.60    2.00
 -10   7  -1   61.89    2.40
  10   7   1   59.59    2.60
 -10   7  -1   55.59    5.40
 -10   7  -1   56.89    2.30
  10   7   1   61.99    2.50
 -10  -7  -1   57.49    2.70
  10  -7   1   58.59    2.50
 -10  -7  -1   61.99    2.60
  10  -7   1   59.29    5.90
  10  -7   1   64.19    2.70
 -10  -7  -1   56.89    2.60
  10  -7   1   59.79    2.70
 -10   7  -2    1.40    0.30
 -10   7  -2    3.20    1.80
 -10   7  -2    1.20    1.00
  10   7   2    2.00    0.40
  10   7   2    1.70    0.40
 -10  -7  -2    2.00    0.50
  10  -7   2    1.30    0.50
  10  -7   2    1.80    0.40
 -10  -7  -2    1.80    0.40
  10  -7   2    1.60    0.40
 -10  -7  -2    0.80    0.40
 -10   7  -3   24.90    3.40
 -10   7  -3   29.60    1.40
  10   7   3   29.40    1.50
  10   7   3   29.20    1.50
 -10  -7  -3   30.00    1.60
 -10  -7  -3   27.30    1.60
  10  -7   3   29.10    1.60
 -10  -7  -3   27.50    1.60
  10  -7   3   29.20    1.50
  10   7   4    1.30    0.40
 -10   7  -4    0.80    0.30
 -10   7  -4    1.20    0.30
 -10  -7  -4    1.30    0.40
 -10  -7  -4    2.00    0.50
  10  -7   4    1.60    0.40
  10  -7   4    1.00    0.40
 -10  -7  -4    1.40    0.50
 -10   7  -5    6.70    0.70
  10   7   5    5.80    0.60
 -10   7  -5    6.40    0.60
  10   7   5    6.60    0.70
 -10  -7  -5    6.60    0.70
  10  -7   5    6.90    0.80
  10  -7   5    6.10    0.70
 -10  -7  -5    5.70    0.80
 -10   8   6    4.50    0.50
  10   8  -6    4.90    0.70
 -10   8   6    3.80    0.50
  10   8  -6    4.80    0.60
 -10  -8   6    4.30    0.70
  10  -8  -6    6.10    1.00
  10  -8  -6    4.10    0.70
 -10  -8   6    4.10    0.70
  10   8  -5    1.80    0.50
 -10   8   5    1.90    0.40
 -10   8   5    1.80    0.40
  10   8  -5    2.00    0.40
  10  -8  -5    1.80    0.50
  10  -8  -5    1.30    0.50
 -10  -8   5    2.10    0.50
 -10  -8   5    1.90    0.50
  10   8  -4    5.20    0.50
 -10   8   4    4.60    0.50
  10   8  -4    5.30    0.70
 -10   8   4    5.60    0.50
  10  -8  -4    4.80    0.80
 -10  -8   4    4.80    0.60
  10  -8  -4    4.90    0.70
 -10  -8   4    4.30    0.60
  10  -8  -4    2.80    2.10
 -10  -8   4    5.00    0.70
 -10   8   3    1.40    0.40
 -10   8   3    0.80    0.30
  10   8  -3    0.80    0.40
 -10   8   3    0.60    1.30
  10  -8  -3    1.40    0.40
 -10  -8   3    0.20    0.30
 -10  -8   3    0.40    0.40
  10  -8  -3    0.90    0.50
 -10  -8   3    0.30    0.30
  10  -8  -3    2.90    1.90
 -10   8   2   25.80    3.50
 -10   8   2   26.50    1.30
 -10   8   2   25.90    1.30
  10   8  -2   26.00    1.40
 -10  -8   2   25.40    1.40
  10  -8  -2   26.20    1.60
  10  -8  -2   26.50    1.40
 -10  -8   2   27.90    1.60
 -10  -8   2   24.40    1.40
  10  -8  -2   21.10    4.40
 -10   8   1    1.80    1.30
  10   8  -1    0.30    0.30
 -10   8   1    1.10    0.30
 -10   8   1    1.10    0.30
  10   8  -1    0.50    0.30
 -10  -8   1    0.60    0.40
 -10  -8   1    0.70    0.30
  10  -8  -1    0.80    0.50
 -10  -8   1    0.50    0.40
  10  -8  -1    0.60    0.30
  10  -8  -1    1.40    0.40
  10   8   0   15.00    1.00
 -10   8   0   15.50    0.90
  10   8   0   14.10    1.00
 -10  -8   0   14.30    1.10
  10  -8   0   15.40    1.20
  10  -8   0   11.30    3.10
  10  -8   0   15.50    1.10
 -10  -8   0   16.30    1.10
  10  -8   0   15.50    1.10
 -10  -8   0   14.60    1.10
  10   8   1    0.40    0.30
 -10   8  -1    0.70    0.20
  10   8   1    0.20    0.30
 -10   8  -1    0.90    0.30
 -10  -8  -1    0.20    0.30
  10  -8   1    0.80    0.50
 -10  -8  -1    0.10    0.30
  10  -8   1    0.40    0.30
 -10  -8  -1    0.20    0.30
  10  -8   1    0.80    0.30
  10   8   2   16.50    1.10
  10   8   2   17.90    1.10
 -10   8  -2   17.30    0.90
 -10  -8  -2   16.30    1.20
 -10  -8  -2   17.70    1.20
  10  -8   2   16.80    1.10
  10  -8   2   15.40    1.10
  10  -8   2   17.70    1.20
 -10  -8  -2   17.20    1.20
 -10   8  -3    1.40    0.30
  10   8   3    1.70    0.40
 -10  -8  -3    1.30    0.50
 -10  -8  -3    1.50    0.50
 -10  -8  -3    0.90    0.40
  10  -8   3    2.00    0.50
  10  -8   3    0.80    0.40
 -10   8  -4    5.80    0.60
  10   8   4    4.60    0.60
 -10   8  -4    5.30    0.50
 -10  -8  -4    4.40    0.70
  10  -8   4    5.20    0.70
  10  -8   4    4.00    0.60
 -10  -8  -4    4.50    0.70
 -10   9   4    0.10    0.20
 -10   9   4    0.10    0.20
  10   9  -4   -0.10    0.30
 -10  -9   4    0.50    0.40
 -10  -9   4   -0.50    0.30
  10  -9  -4    0.10    0.50
  10  -9  -4    0.10    0.30
 -10  -9   4   -0.10    0.30
 -10   9   3    4.10    0.50
  10   9  -3    4.10    0.60
 -10   9   3    4.50    0.50
 -10  -9   3    3.90    0.60
  10  -9  -3    3.80    0.60
 -10  -9   3    4.00    0.80
 -10  -9   3    4.50    0.70
  10  -9  -3    5.10    0.90
 -10   9   2    0.30    0.20
 -10   9   2    0.60    0.30
  10   9  -2    0.50    0.30
  10  -9  -2    0.80    0.40
 -10  -9   2    0.30    0.40
  10  -9  -2    0.50    0.50
 -10  -9   2    0.40    0.30
  10   9  -1   15.80    1.10
 -10   9   1   16.00    0.90
 -10   9   1   16.00    1.00
  10   9  -1   16.50    1.10
  10  -9  -1   15.30    1.10
  10  -9  -1   13.60    1.20
 -10  -9   1   16.00    1.10
 -10  -9   1   16.70    1.30
 -10   9   0    2.80    0.40
 -10   9   0    3.00    0.40
  10   9   0    1.60    0.40
  10   9   0    2.10    0.50
  10  -9   0    2.40    0.70
 -10  -9   0    2.20    0.60
 -10  -9   0    1.00    0.50
  10  -9   0    1.60    0.40
 -10  -9   0    2.10    0.50
  10   9   1   15.00    1.00
 -10   9  -1   15.50    0.90
 -10  -9  -1   14.60    1.10
 -10  -9  -1   13.60    1.20
  10  -9   1   15.20    1.10
  10  -9   1   14.40    1.20
  10  -9   1   15.80    1.10
 -10  -9  -1   16.30    1.20
 -10   9  -2    0.10    0.20
  10   9   2    0.10    0.20
 -10  -9  -2   -0.10    0.30
  10  -9   2   -0.10    0.20
  10  -9   2    0.20    0.40
 -10  -9  -2    0.30    0.30
  10  -9   2    0.50    0.30
 -10  -9  -2    0.00    0.30
  11   0  -9    0.20    0.30
  11   0  -9   -0.30    0.20
 -11   0   9   -0.30    0.20
 -11   0   9   -0.10    0.30
  11   0  -9    0.20    0.30
 -11   0   8   43.70    2.10
 -11   0   8   43.50    4.40
 -11   0   8   43.40    1.90
  11   0  -8   38.50    4.20
  11   0  -8   45.40    2.00
  11   0  -8   43.40    1.90
  11   0  -8   44.30    2.00
 -11   0   7    0.20    0.30
  11   0  -7    0.50    0.30
 -11   0   7    0.00    0.20
  11   0  -7    1.20    0.90
  11   0  -7   -0.20    0.20
  11   0  -7    0.10    0.20
 -11   0   7   -0.90    0.60
  11   0  -6  167.48    6.10
  11   0  -6  169.28    6.00
 -11   0   6  158.78    9.10
  11   0  -6  170.78    9.20
  11   0  -6  171.78    6.00
 -11   0   6  175.58    6.20
 -11   0   6  166.48    6.00
 -11   0   6  165.98    5.90
 -11   0   5    0.00    0.10
 -11   0   5   -0.80    0.50
  11   0  -5    0.30    0.20
 -11   0   5    0.20    0.20
  11   0  -5    0.20    0.20
  11   0  -5    0.00    0.70
 -11   0   5    0.10    0.20
  11   0  -5    0.00    0.20
  11   0  -4   87.79    5.80
 -11   0   4   92.29    5.80
 -11   0   4   88.89    3.40
  11   0  -4   81.39    3.30
  11   0  -4   90.39    3.40
 -11   0   4   91.59    3.20
  11   0  -4   96.99    3.30
 -11   0   4   89.19    3.30
  11   0  -3   -0.10    0.10
 -11   0   3    0.00    0.10
  11   0  -3    0.00    0.20
 -11   0   3   -0.10    0.10
 -11   0   3   -0.10    0.30
 -11   0   3    0.20    0.10
  11   0  -3    0.20    0.60
  11   0  -3    0.10    0.20
  11   0  -2  178.18    6.20
 -11   0   2  178.18    6.20
  11   0  -2  176.88    8.80
 -11   0   2  181.88    8.80
  11   0  -2  171.38    6.20
 -11   0   2  167.98    6.10
  11   0  -2  179.08    6.10
 -11   0   2  170.88    6.20
 -11   0   1    0.60    0.10
  11   0  -1    0.50    0.20
  11   0  -1    0.70    0.60
 -11   0   1    0.40    0.10
 -11   0   1    0.90    0.60
 -11   0   1    0.50    0.20
 -11   0   1    0.50    0.20
  11   0  -1    0.50    0.20
  11   0   0   67.89    2.60
 -11   0   0   69.39    2.50
 -11   0   0   71.19    2.60
  11   0   0   69.99    4.90
 -11   0   0   68.99    2.60
  11   0   0   69.29    2.70
  11   0   0   69.09    2.60
 -11   0   0   67.19    4.40
  11   0   1    0.20    0.60
  11   0   1    0.50    0.20
 -11   0  -1    0.90    0.20
 -11   0  -1    0.80    0.70
 -11   0  -1    0.60    0.10
  11   0   1    0.60    0.20
 -11   0  -1    0.20    0.10
  11   0   1    0.40    0.20
  11   0   2  221.68    7.70
 -11   0  -2  214.88    7.70
  11   0   2  211.88    7.90
  11   0   2  220.78    7.80
 -11   0  -2  253.07   11.20
 -11   0  -2  210.68    7.60
 -11   0  -2  220.08    7.70
  11   0   3    1.10    0.30
 -11   0  -3    0.80    0.20
 -11   0  -3    1.30    0.20
  11   0   3    1.10    0.30
 -11   0  -3    1.10    0.20
 -11   0  -3    1.90    1.10
  11   0   3    1.50    0.30
 -11   0  -3    1.20    0.70
 -11   0  -4  135.69    7.70
  11   0   4  137.49    5.20
  11   0   4  140.99    5.30
 -11   0  -4  142.49    5.10
 -11   0  -4  142.09    8.80
  11   0   4  142.69    5.10
 -11   0  -4  141.09    5.00
  11   0   5    0.10    0.20
 -11   0  -5    0.00    0.20
 -11   0  -5   -0.10    0.60
  11   0   5    0.20    0.20
  11   0   5    0.00    0.20
 -11   0  -5    0.20    0.20
 -11   0  -5   -1.60    0.90
  11   0   6   93.19    3.80
 -11   0  -6   88.59    3.40
  11   0   6   91.79    3.70
 -11   0  -6   86.99    6.50
 -11   0  -6   92.79    3.60
  11   0   7   -0.10    0.20
  11   0   7    0.50    0.30
 -11   0  -7   -0.20    0.20
 -11   0  -7    0.00    0.20
 -11   0  -7   -0.30    0.20
 -11   1   9   33.40    1.60
  11   1  -9   34.20    1.60
 -11   1   9   33.20    1.80
  11   1  -9   32.10    1.70
  11  -1  -9   35.40    1.60
  11  -1  -9   33.90    1.70
 -11  -1   9   34.30    1.60
  11  -1  -9   35.40    1.80
 -11  -1   9   34.40    1.80
  11   1  -8    3.70    0.50
 -11   1   8    3.90    1.70
 -11   1   8    2.40    0.50
  11   1  -8    3.70    0.50
  11   1  -8   -0.20    1.00
  11   1  -8    3.20    0.50
 -11   1   8    2.50    0.40
  11  -1  -8    1.50    1.30
 -11  -1   8    2.70    0.50
 -11  -1   8    2.00    1.10
  11  -1  -8    3.10    0.60
  11  -1  -8    2.50    0.40
 -11  -1   8    3.50    0.50
  11  -1  -8    2.90    0.50
 -11   1   7   37.70    3.90
 -11   1   7   46.30    1.90
 -11   1   7   44.30    2.10
  11   1  -7   46.40    2.10
  11   1  -7   41.10    4.20
  11   1  -7   48.40    1.90
  11   1  -7   46.70    1.90
  11  -1  -7   48.30    2.00
  11  -1  -7   45.70    4.40
 -11  -1   7   44.90    2.10
  11  -1  -7   46.80    2.00
 -11  -1   7   43.40    4.20
  11  -1  -7   47.60    2.00
 -11  -1   7   47.50    2.00
  11   1  -6   20.90    2.90
 -11   1   6   21.40    1.10
 -11   1   6   20.00    1.00
  11   1  -6   20.20    1.10
 -11   1   6   21.90    0.90
 -11   1   6   21.60    2.90
  11   1  -6   21.40    1.00
  11   1  -6   20.00    1.00
 -11  -1   6   20.50    1.00
  11  -1  -6   21.60    1.10
 -11  -1   6   18.80    2.70
  11  -1  -6   20.20    1.00
  11  -1  -6   20.20    2.80
 -11  -1   6   19.10    1.10
  11   1  -5  186.48    6.60
 -11   1   5  185.68    6.50
 -11   1   5  184.08    6.60
  11   1  -5  191.58    6.50
 -11   1   5  184.88    9.70
  11   1  -5  188.38    9.60
  11   1  -5  190.78    6.70
 -11   1   5  189.88    6.70
 -11  -1   5  180.98    9.40
  11  -1  -5  190.58    6.70
  11  -1  -5  180.68    9.90
  11  -1  -5  183.08    6.60
 -11  -1   5  191.38    6.80
 -11  -1   5  185.08    6.50
 -11  -1   5  182.58    6.60
  11  -1  -5  188.08    6.70
  11   1  -4   11.40    0.70
 -11   1   4   10.20    0.70
  11   1  -4   11.20    1.90
 -11   1   4   10.60    0.60
 -11   1   4   11.50    1.90
 -11   1   4   11.50    0.60
  11   1  -4   11.20    0.60
 -11  -1   4   11.00    0.70
  11  -1  -4    6.70    1.90
 -11  -1   4   10.50    0.60
 -11  -1   4   11.40    0.70
  11  -1  -4    9.90    0.60
  11  -1  -4   11.40    0.70
 -11  -1   4   10.40    1.80
  11  -1  -4   11.10    0.70
 -11   1   3   14.40    0.70
 -11   1   3   14.60    2.10
  11   1  -3   14.30    2.00
  11   1  -3   16.30    0.90
  11   1  -3   14.90    0.80
 -11   1   3   14.50    0.80
 -11   1   3   15.70    0.80
  11  -1  -3   17.00    0.80
 -11  -1   3   15.20    0.80
  11  -1  -3   15.00    0.80
 -11  -1   3   14.20    0.80
 -11  -1   3   15.90    2.00
 -11  -1   3   15.20    0.70
  11  -1  -3   14.90    0.80
  11  -1  -3   17.00    2.40
 -11   1   2  145.19    5.80
 -11   1   2  170.18    5.80
  11   1  -2  171.88    8.30
 -11   1   2  164.28    5.80
 -11   1   2  158.78    8.30
  11   1  -2  165.78    5.90
  11   1  -2  169.18    5.80
 -11  -1   2  168.38    5.80
 -11  -1   2  164.08    5.90
  11  -1  -2  161.68    8.80
  11  -1  -2  164.08    5.80
  11  -1  -2  164.08    5.90
  11  -1  -2  164.98    5.90
 -11  -1   2  171.18    5.80
 -11  -1   2  167.78    8.10
  11   1  -1   92.99    3.50
 -11   1   1   87.49    5.60
  11   1  -1   91.89    5.40
  11   1  -1   97.19    3.40
 -11   1   1   89.29    3.30
 -11   1   1   89.99    3.30
  11  -1  -1   93.89    6.00
 -11  -1   1   94.49    3.40
 -11  -1   1   95.49    3.30
  11  -1  -1   94.09    3.40
  11  -1  -1   90.49    3.40
 -11  -1   1   92.89    3.40
  11  -1  -1   89.39    3.40
 -11  -1   1   89.59    5.10
 -11  -1   1   90.19    3.20
  11  -1  -1   89.79    3.30
 -11   1   0   70.99    2.60
  11   1   0   71.29    2.60
 -11   1   0   71.09    2.60
 -11   1   0   70.09    2.60
  11   1   0   74.49    2.70
 -11   1   0   71.79    4.90
  11   1   0   73.69    4.70
  11   1   0   73.99    2.80
  11  -1   0   61.79    4.90
 -11  -1   0   73.59    2.70
 -11  -1   0   72.99    4.20
  11  -1   0   69.69    2.80
 -11  -1   0   73.99    2.70
  11  -1   0   66.29    2.70
  11  -1   0   69.09    2.60
 -11  -1   0   71.39    2.50
 -11   1  -1   84.99    3.00
 -11   1  -1   82.99    3.00
  11   1   1   79.99    3.20
 -11   1  -1   85.29    3.00
  11   1   1   82.19    5.10
  11   1   1   83.09    3.10
 -11   1  -1   78.89    5.50
  11   1   1   80.89    3.00
 -11  -1  -1   87.99    4.80
  11  -1   1   78.59    3.10
  11  -1   1   83.19    3.20
 -11  -1  -1   84.09    3.10
  11  -1   1   83.79    3.10
 -11  -1  -1   87.99    3.10
  11  -1   1   80.59    5.70
 -11  -1  -1   85.19    3.00
  11   1   2   22.60    1.20
 -11   1  -2   28.00    1.10
 -11   1  -2   26.80    1.10
  11   1   2   24.10    1.30
  11   1   2   21.40    1.10
 -11   1  -2   25.10    3.10
 -11   1  -2   28.40    1.10
 -11  -1  -2   24.50    1.20
  11  -1   2   28.60    1.30
  11  -1   2   28.40    1.20
 -11  -1  -2   26.20    1.10
 -11  -1  -2   23.40    2.20
 -11  -1  -2   25.50    2.50
  11  -1   2   28.40    1.20
 -11   1  -3   58.09    2.20
  11   1   3   53.99    2.30
  11   1   3   55.19    2.30
 -11   1  -3   52.69    4.90
 -11   1  -3   56.69    2.10
 -11   1  -3   57.69    4.30
  11   1   3   53.49    2.10
 -11  -1  -3   55.39    2.20
  11  -1   3   54.49    2.40
  11  -1   3   56.49    2.30
  11  -1   3   58.99    2.30
 -11  -1  -3   54.39    2.20
 -11  -1  -3   54.19    3.80
 -11  -1  -3   61.89    4.50
 -11  -1  -3   56.19    2.20
  11   1   4   28.20    1.40
 -11   1  -4   24.70    2.90
  11   1   4   26.30    1.30
 -11   1  -4   24.40    1.20
 -11   1  -4   24.00    3.40
 -11   1  -4   26.30    1.20
  11   1   4   28.00    1.20
 -11  -1  -4   25.50    2.70
 -11  -1  -4   29.50    3.40
  11  -1   4   24.20    1.20
 -11  -1  -4   27.10    1.30
  11  -1   4   22.70    1.30
 -11  -1  -4   26.30    1.20
 -11  -1  -4   27.90    1.20
  11  -1   4   23.50    1.30
  11   1   5   44.90    2.10
  11   1   5   47.20    2.10
 -11   1  -5   46.10    1.90
 -11   1  -5   43.20    4.10
 -11   1  -5   47.00    4.90
 -11   1  -5   45.60    1.80
  11   1   5   42.20    1.70
  11  -1   5   41.60    2.10
 -11  -1  -5   45.90    1.90
  11  -1   5   43.90    1.90
  11  -1   5   45.90    2.10
 -11  -1  -5   42.70    3.90
 -11  -1  -5   46.70    2.00
 -11   1  -6    1.40    0.30
  11   1   6    0.80    0.40
 -11   1  -6    0.90    0.30
  11   1   6    0.90    0.40
 -11   1  -6    0.80    1.10
 -11  -1  -6    1.40    0.30
  11  -1   6    1.80    0.50
 -11  -1  -6    1.40    0.40
 -11  -1  -6    0.90    0.30
  11  -1   6    1.40    0.30
  11  -1   6    1.30    0.40
 -11   1  -7   21.30    1.10
  11   1   7   20.60    1.30
  11   1   7   19.20    1.30
 -11   1  -7   21.10    1.20
 -11   1  -7   19.70    1.10
  11  -1   7   20.10    1.30
 -11  -1  -7   17.80    1.20
  11  -1   7   20.30    1.30
 -11  -1  -7   20.20    1.10
 -11   2   9    0.20    0.30
  11   2  -9    0.30    0.30
 -11   2   9    0.00    0.30
  11   2  -9    0.10    0.30
  11  -2  -9    0.10    0.30
 -11  -2   9    0.50    0.30
  11  -2  -9    0.00    0.30
 -11  -2   9    0.10    0.30
  11  -2  -9   -0.10    0.30
 -11   2   8   16.30    2.80
 -11   2   8   20.50    1.30
  11   2  -8   19.70    1.10
 -11   2   8   19.70    1.10
  11   2  -8   17.60    3.10
  11   2  -8   20.00    1.20
  11  -2  -8   18.30    3.20
  11  -2  -8   20.40    1.20
 -11  -2   8   20.40    1.20
 -11  -2   8   20.40    1.10
  11  -2  -8   21.30    1.20
  11  -2  -8   20.30    1.10
  11   2  -7    1.10    1.10
 -11   2   7   -0.10    0.20
 -11   2   7    0.10    0.20
 -11   2   7    0.10    0.20
  11   2  -7    0.30    0.30
  11   2  -7    0.10    0.20
 -11  -2   7    1.70    1.10
  11  -2  -7    0.20    0.30
  11  -2  -7    0.40    0.30
 -11  -2   7    0.30    0.20
  11  -2  -7   -0.30    0.80
  11  -2  -7   -0.10    0.20
 -11  -2   7    0.20    0.30
 -11   2   6  213.48   11.00
 -11   2   6  210.18    7.60
  11   2  -6  210.88    7.60
 -11   2   6  199.78    7.40
 -11   2   6  212.98    7.30
  11   2  -6  202.78   10.70
  11   2  -6  211.68    7.40
 -11  -2   6  211.58    7.60
 -11  -2   6  204.28   10.70
  11  -2  -6  210.58    7.50
  11  -2  -6  210.38   11.10
  11  -2  -6  222.08    7.60
  11  -2  -6  217.08    7.50
 -11  -2   6  208.38    7.50
 -11   2   5   26.50    3.10
 -11   2   5   23.60    1.10
 -11   2   5   23.20    1.20
  11   2  -5   28.30    3.00
  11   2  -5   22.40    1.10
 -11   2   5   23.70    1.00
 -11  -2   5   22.10    1.10
 -11  -2   5   22.20    1.00
 -11  -2   5   22.20    1.20
  11  -2  -5   23.40    1.20
  11  -2  -5   23.70    1.10
  11  -2  -5   25.80    3.10
  11  -2  -5   24.00    1.20
 -11  -2   5   20.10    2.70
  11   2  -4   41.30    1.80
 -11   2   4   39.80    1.70
 -11   2   4   40.90    1.60
 -11   2   4   40.20    1.60
 -11   2   4   40.40    3.80
  11   2  -4   42.80    3.70
  11   2  -4   41.70    1.70
  11  -2  -4   40.80    1.80
 -11  -2   4   41.90    1.60
  11  -2  -4   36.90    3.80
 -11  -2   4   38.30    1.80
  11  -2  -4   40.90    1.70
 -11  -2   4   40.80    3.50
 -11  -2   4   42.70    1.70
  11  -2  -4   39.60    1.70
 -11   2   3   34.80    1.40
 -11   2   3   35.10    3.40
  11   2  -3   33.30    1.50
  11   2  -3   34.40    1.40
  11   2  -3   33.00    3.00
 -11   2   3   36.40    1.40
 -11   2   3   33.20    1.40
  11  -2  -3   33.30    1.50
 -11  -2   3   35.60    1.50
  11  -2  -3   32.90    1.50
 -11  -2   3   38.30    3.20
  11  -2  -3   34.00    1.50
  11  -2  -3   32.00    3.40
 -11  -2   3   34.70    1.40
 -11  -2   3   34.90    1.50
  11   2  -2  226.08    8.10
  11   2  -2  232.18   10.40
 -11   2   2  235.58    8.00
 -11   2   2  228.38   11.10
 -11   2   2  229.18    8.10
  11   2  -2  232.18    8.20
  11  -2  -2  228.98    8.20
  11  -2  -2  241.58    8.30
  11  -2  -2  238.68    8.20
 -11  -2   2  240.18    8.30
 -11  -2   2  232.78   10.30
 -11  -2   2  229.88    8.10
  11  -2  -2  240.68   11.90
 -11   2   1   41.40    1.60
  11   2  -1   38.50    1.50
 -11   2   1   42.50    3.60
  11   2  -1   37.00    3.00
 -11   2   1   39.70    1.60
  11   2  -1   38.30    1.70
  11  -2  -1   41.00    1.70
 -11  -2   1   36.50    1.70
 -11  -2   1   38.20    2.80
  11  -2  -1   40.60    1.70
 -11  -2   1   42.60    1.60
  11  -2  -1   42.80    1.50
  11  -2  -1   40.50    1.70
 -11  -2   1   37.10    1.60
  11  -2  -1   45.50    4.10
 -11  -2   1   37.80    1.70
 -11  -2   1   38.10    1.40
  11   2   0   62.19    2.60
 -11   2   0   65.59    2.50
  11   2   0   66.49    2.40
  11   2   0   66.39    4.10
 -11   2   0   68.59    4.90
  11   2   0   63.19    2.50
 -11   2   0   67.09    2.40
 -11  -2   0   61.79    2.40
  11  -2   0   68.59    2.60
  11  -2   0   68.99    2.60
  11  -2   0   71.19    5.40
 -11  -2   0   67.89    2.50
 -11  -2   0   65.79    2.60
  11  -2   0   65.99    2.40
 -11  -2   0   61.79    3.70
  11  -2   0   70.39    2.70
 -11   2  -1  182.38    6.50
 -11   2  -1  185.18    6.50
  11   2   1  187.78    6.70
  11   2   1  185.98    6.60
 -11   2  -1  187.18   10.00
 -11   2  -1  189.98    6.60
 -11  -2  -1  196.28    6.70
  11  -2   1  174.68    6.70
  11  -2   1  179.48    6.70
 -11  -2  -1  193.98    6.60
 -11  -2  -1  195.68    7.90
  11  -2   1  176.78   10.00
  11  -2   1  181.38    6.50
 -11  -2  -1  198.88    6.50
 -11   2  -2  114.19    4.10
 -11   2  -2  115.09    4.10
  11   2   2  115.89    4.30
  11   2   2  114.79    4.20
 -11   2  -2  112.69    7.30
  11  -2   2  110.99    4.30
 -11  -2  -2  115.49    5.30
  11  -2   2  108.89    7.40
  11  -2   2  111.69    4.10
 -11  -2  -2  113.29    4.10
 -11  -2  -2  116.59    5.50
 -11  -2  -2  112.79    4.20
 -11  -2  -2  113.19    4.20
  11  -2   2  115.49    4.20
  11   2   3    4.40    0.50
 -11   2  -3    5.50    1.80
 -11   2  -3    4.70    1.50
 -11   2  -3    4.80    0.40
  11   2   3    4.80    0.50
 -11   2  -3    4.20    0.40
 -11  -2  -3    4.10    0.40
 -11  -2  -3    3.90    1.00
 -11  -2  -3    5.30    0.40
  11  -2   3    5.70    0.50
  11  -2   3    5.10    0.50
 -11  -2  -3    4.80    1.20
  11  -2   3    5.80    0.60
 -11  -2  -3    4.20    0.50
  11   2   4   91.59    3.70
 -11   2  -4   93.09    3.50
 -11   2  -4   96.59    6.30
  11   2   4   91.89    3.60
 -11   2  -4   82.09    6.80
  11  -2   4   95.69    3.60
  11  -2   4   92.89    3.60
 -11  -2  -4  102.99    5.60
 -11  -2  -4   89.49    3.50
 -11  -2  -4   91.29    3.60
 -11  -2  -4   92.59    3.30
  11  -2   4   93.09    3.70
 -11  -2  -4   97.29    3.60
 -11   2  -5   13.30    0.80
 -11   2  -5   12.80    0.70
  11   2   5   13.20    0.70
 -11   2  -5   14.40    2.40
  11   2   5   13.10    0.90
 -11   2  -5   13.90    2.90
  11   2   5   14.00    0.90
 -11  -2  -5   13.50    0.90
  11  -2   5   11.80    0.80
  11  -2   5   12.20    1.00
 -11  -2  -5   12.90    0.80
  11  -2   5   12.70    0.90
 -11   2  -6   49.60    4.70
 -11   2  -6   48.70    2.10
 -11   2  -6   47.40    2.00
  11   2   6   47.20    2.20
 -11  -2  -6   49.20    2.20
  11  -2   6   50.19    2.30
  11  -2   6   47.40    2.20
  11  -2   6   49.99    2.10
 -11  -2  -6   45.70    2.00
  11   2   7    1.60    0.50
  11   2   7    1.50    0.40
 -11   2  -7    3.60    1.80
 -11   2  -7    1.20    0.30
 -11   2  -7    0.80    0.30
  11  -2   7    1.90    0.40
  11  -2   7    1.50    0.40
 -11  -2  -7    1.90    0.40
 -11  -2  -7    1.30    0.40
  11  -2   7    1.60    0.40
 -11   3   9   14.60    0.90
  11   3  -9   14.20    0.90
 -11   3   9   12.90    1.10
  11  -3  -9   15.10    1.10
 -11  -3   9   14.20    1.10
  11  -3  -9   14.50    0.90
 -11  -3   9   14.10    1.00
 -11   3   8    1.80    0.40
  11   3  -8    2.50    0.40
 -11   3   8    1.50    0.40
  11   3  -8    1.30    1.20
  11  -3  -8    0.80    0.40
 -11  -3   8    2.10    1.40
  11  -3  -8    1.50    0.50
 -11  -3   8    1.30    0.40
  11  -3  -8    2.60    1.80
 -11  -3   8    1.30    0.40
  11   3  -7   37.00    1.60
 -11   3   7   38.90    1.60
 -11   3   7   37.80    1.60
 -11   3   7   28.10    3.50
 -11   3   7   36.90    1.80
  11   3  -7   37.30    4.00
  11  -3  -7   38.90    1.90
 -11  -3   7   38.10    1.70
 -11  -3   7   36.90    1.80
  11  -3  -7   32.30    4.00
  11  -3  -7   36.50    1.70
  11   3  -6    1.20    0.40
  11   3  -6    1.40    0.30
 -11   3   6    1.10    0.30
  11   3  -6    1.50    1.20
 -11   3   6    1.20    0.30
 -11   3   6    1.40    0.40
 -11   3   6   -0.70    0.70
  11  -3  -6    0.20    0.90
 -11  -3   6    1.20    0.30
 -11  -3   6    1.60    1.00
  11  -3  -6    1.50    0.40
  11  -3  -6    1.30    0.30
  11  -3  -6    1.30    0.40
 -11  -3   6    2.30    0.50
  11   3  -5   64.59    2.80
 -11   3   5   69.89    5.20
 -11   3   5   71.89    2.60
 -11   3   5   71.79    2.60
  11   3  -5   68.29    2.60
  11   3  -5   66.39    5.00
 -11   3   5   68.89    2.70
  11  -3  -5   64.49    2.70
 -11  -3   5   67.89    2.70
 -11  -3   5   67.69    2.60
  11  -3  -5   72.89    2.70
  11  -3  -5   70.99    2.90
  11  -3  -5   68.49    5.50
 -11  -3   5   68.69    2.80
 -11  -3   5   66.69    5.00
 -11   3   4  100.39    6.70
  11   3  -4  103.79    4.00
 -11   3   4  109.29    3.90
  11   3  -4  109.19    6.40
  11   3  -4  106.79    3.90
 -11   3   4  107.49    3.80
 -11   3   4  107.39    3.90
 -11  -3   4  102.79    4.10
 -11  -3   4  104.09    6.40
  11  -3  -4  107.59    4.00
 -11  -3   4  110.19    3.90
 -11  -3   4  104.19    4.00
  11  -3  -4  109.59    7.10
  11  -3  -4  109.39    3.90
  11  -3  -4  106.29    4.10
 -11   3   3   50.79    2.00
 -11   3   3   53.99    2.10
  11   3  -3   57.19    2.10
  11   3  -3   53.09    4.00
 -11   3   3   55.09    2.10
  11   3  -3   53.69    2.20
 -11   3   3   47.20    4.20
  11  -3  -3   46.30    2.10
 -11  -3   3   56.89    2.30
  11  -3  -3   53.89    2.20
 -11  -3   3   46.20    3.80
 -11  -3   3   55.39    2.10
 -11  -3   3   56.49    2.20
  11  -3  -3   50.89    4.70
  11  -3  -3   56.59    2.30
 -11   3   2    3.10    0.30
  11   3  -2    4.20    1.10
 -11   3   2    1.30    0.90
  11   3  -2    4.40    0.50
  11   3  -2    4.40    0.30
 -11   3   2    2.70    0.30
 -11  -3   2    4.30    0.50
 -11  -3   2    5.70    1.20
  11  -3  -2    3.80    0.40
 -11  -3   2    4.40    0.40
  11  -3  -2    3.00    1.40
  11  -3  -2    3.70    0.40
 -11  -3   2    3.90    0.40
  11  -3  -2    4.30    0.50
  11   3  -1  149.39    5.30
 -11   3   1  152.38    8.30
  11   3  -1  147.69    5.10
 -11   3   1  142.19    5.10
 -11   3   1  145.29    5.20
  11   3  -1  149.29    6.90
 -11  -3   1  146.09    5.30
  11  -3  -1  142.39    5.40
 -11  -3   1  145.79    5.40
  11  -3  -1  148.29    8.90
  11  -3  -1  144.39    5.30
  11  -3  -1  140.49    5.30
 -11  -3   1  151.08    6.70
 -11  -3   1  144.39    5.30
 -11   3   0   21.40    2.70
 -11   3   0   19.60    0.80
  11   3   0   18.30    1.00
  11   3   0   17.70    1.00
 -11   3   0   19.50    0.90
  11  -3   0   20.60    1.10
 -11  -3   0   17.50    0.80
  11  -3   0   20.80    1.00
  11  -3   0   21.60    1.00
 -11  -3   0   18.50    1.00
 -11  -3   0   16.10    1.00
  11  -3   0   20.60    3.00
 -11   3  -1  152.98    5.30
  11   3   1  155.08    5.60
 -11   3  -1  153.78    5.40
 -11   3  -1  154.98    9.20
  11   3   1  144.19    5.50
  11  -3   1  150.78    5.60
  11  -3   1  151.28    5.60
  11  -3   1  153.78    5.60
 -11  -3  -1  156.48    5.60
  11  -3   1  165.28    9.60
 -11  -3  -1  152.78    5.50
 -11  -3  -1  151.38    5.40
 -11   3  -2   81.29    3.00
 -11   3  -2   78.99    6.10
  11   3   2   82.89    3.10
 -11   3  -2   77.49    2.90
  11   3   2   85.39    3.20
  11  -3   2   78.39    3.00
  11  -3   2   77.69    3.20
  11  -3   2   77.89    6.20
 -11  -3  -2   80.39    3.10
  11  -3   2   77.19    3.10
 -11  -3  -2   85.39    3.20
 -11  -3  -2   82.69    3.00
 -11   3  -3   80.19    2.90
  11   3   3   74.59    3.10
 -11   3  -3   80.19    6.50
 -11   3  -3   77.89    2.90
  11   3   3   76.49    3.10
 -11   3  -3   76.29    5.50
  11  -3   3   71.99    3.10
 -11  -3  -3   78.99    3.10
 -11  -3  -3   78.19    3.10
 -11  -3  -3   78.29    3.00
  11  -3   3   79.39    3.10
  11  -3   3   78.69    3.00
 -11   3  -4    0.20    0.20
  11   3   4    0.30    0.20
  11   3   4    0.20    0.20
 -11   3  -4    0.20    0.20
 -11   3  -4   -0.10    0.70
 -11   3  -4    0.50    1.00
  11  -3   4    0.50    0.30
  11  -3   4    0.20    0.20
 -11  -3  -4    0.30    0.20
 -11  -3  -4    0.40    0.20
  11  -3   4    0.20    0.20
 -11  -3  -4    0.20    0.20
  11   3   5   34.20    1.70
  11   3   5   33.40    1.70
  11   3   5   35.10    1.50
 -11   3  -5   31.60    3.70
 -11   3  -5   33.70    1.50
 -11   3  -5   34.80    1.50
 -11   3  -5   38.90    4.60
 -11  -3  -5   33.90    1.60
 -11  -3  -5   33.90    1.70
  11  -3   5   34.40    1.60
  11  -3   5   36.50    1.80
  11  -3   5   33.70    1.70
 -11   3  -6    4.30    0.50
  11   3   6    3.60    0.50
  11   3   6    3.80    0.60
  11   3   6    4.10    0.40
 -11   3  -6    2.80    1.80
 -11   3  -6    2.20    1.30
 -11   3  -6    4.80    0.50
 -11  -3  -6    4.80    0.50
  11  -3   6    4.10    0.60
  11  -3   6    4.10    0.50
  11  -3   6    3.50    0.60
 -11  -3  -6    3.80    0.60
  11   3   7   15.50    1.20
 -11   3  -7   16.00    0.90
  11   3   7   15.90    1.10
  11  -3   7   15.60    1.00
  11  -3   7   14.50    1.10
  11  -3   7   13.90    1.10
 -11  -3  -7   14.80    1.10
 -11  -3  -7   16.60    1.00
  11   4  -9    0.00    0.30
 -11   4   9    0.50    0.40
 -11   4   9   -0.10    0.20
  11  -4  -9    0.20    0.40
 -11  -4   9    0.20    0.30
 -11  -4   9    0.30    0.30
  11  -4  -9    0.50    0.40
 -11   4   8   18.10    1.20
  11   4  -8   17.40    1.00
 -11   4   8   17.50    1.00
 -11   4   8   17.40    1.00
 -11  -4   8   16.50    1.20
  11  -4  -8   17.70    1.10
 -11  -4   8   16.00    1.10
  11  -4  -8   20.30    1.30
 -11   4   7    2.30    0.40
 -11   4   7    2.80    0.40
 -11   4   7    2.70    0.50
 -11   4   7    0.90    1.20
  11   4  -7    1.40    1.20
  11   4  -7    3.50    0.50
  11  -4  -7    2.00    1.50
 -11  -4   7    2.50    0.50
  11  -4  -7    2.30    0.50
 -11  -4   7    3.90    1.50
  11  -4  -7    2.10    0.50
 -11  -4   7    2.60    0.50
 -11   4   6   70.59    2.90
 -11   4   6   71.19    2.70
 -11   4   6   68.19    5.50
 -11   4   6   71.19    2.80
  11   4  -6   69.59    3.00
  11   4  -6   64.49    5.20
  11   4  -6   73.99    2.80
  11  -4  -6   76.39    2.90
  11  -4  -6   64.49    5.70
  11  -4  -6   72.69    2.90
 -11  -4   6   68.99    5.50
  11  -4  -6   71.69    3.00
 -11  -4   6   73.29    2.90
 -11  -4   6   73.79    3.00
 -11   4   5   43.80    4.20
 -11   4   5   49.70    1.90
 -11   4   5   48.30    1.90
  11   4  -5   48.00    1.90
  11   4  -5   45.70    2.10
 -11   4   5   50.59    2.00
  11   4  -5   49.50    4.20
 -11  -4   5   48.50    2.00
 -11  -4   5   45.70    2.10
 -11  -4   5   51.29    4.30
  11  -4  -5   48.70    2.00
  11  -4  -5   49.10    2.20
  11  -4  -5   46.20    4.60
 -11  -4   5   45.60    2.10
  11  -4  -5   48.30    2.10
 -11   4   4   75.59    2.70
  11   4  -4   69.49    2.70
  11   4  -4   70.59    5.00
  11   4  -4   67.79    2.90
 -11   4   4   71.49    5.40
 -11   4   4   72.29    2.70
 -11   4   4   73.89    2.70
  11  -4  -4   73.99    2.80
  11  -4  -4   69.99    2.90
 -11  -4   4   71.89    2.80
 -11  -4   4   69.59    2.90
 -11  -4   4   71.99    5.10
 -11  -4   4   67.59    2.90
  11  -4  -4   68.09    5.80
  11  -4  -4   75.59    3.00
  11   4  -3   10.40    0.60
  11   4  -3   10.40    0.70
 -11   4   3    9.30    0.60
  11   4  -3   12.80    1.90
 -11   4   3    9.20    0.60
 -11   4   3   11.70    2.10
 -11  -4   3   11.40    0.70
 -11  -4   3   11.70    0.70
  11  -4  -3    7.40    2.20
 -11  -4   3   10.50    1.70
  11  -4  -3    8.40    0.60
  11  -4  -3    8.80    0.80
  11  -4  -3    9.60    0.70
 -11  -4   3   10.60    0.80
  11   4  -2  105.89    5.70
  11   4  -2  107.89    3.90
 -11   4   2  106.79    6.80
 -11   4   2   96.09    3.70
 -11   4   2  101.49    3.70
  11   4  -2  106.39    3.70
  11  -4  -2   92.89    7.10
 -11  -4   2  105.19    3.90
  11  -4  -2   96.69    3.90
  11  -4  -2   97.99    4.00
  11  -4  -2  101.79    3.90
 -11  -4   2  107.39    4.00
 -11  -4   2  105.49    3.90
 -11  -4   2  115.59    5.80
  11   4  -1   58.39    2.50
  11   4  -1   59.69    3.60
 -11   4   1   60.29    2.30
 -11   4   1   64.99    5.00
 -11   4   1   64.19    2.30
  11  -4  -1   66.29    2.50
  11  -4  -1   63.99    2.50
 -11  -4   1   58.69    2.50
 -11  -4   1   58.29    2.50
 -11  -4   1   60.69    3.50
  11  -4  -1   64.69    2.60
 -11  -4   1   60.09    2.50
  11  -4  -1   63.79    5.50
  11   4   0    8.90    0.60
  11   4   0    7.50    0.60
 -11   4   0    7.00    2.10
 -11   4   0    7.00    0.50
 -11   4   0    7.00    0.40
  11  -4   0    6.90    0.60
 -11  -4   0    7.80    0.60
 -11  -4   0    7.10    0.50
  11  -4   0    7.90    0.60
  11  -4   0    5.90    2.00
 -11  -4   0    6.80    0.60
  11  -4   0    7.10    0.70
  11   4   1   91.29    3.40
 -11   4  -1   91.49    3.30
 -11   4  -1   86.39    3.20
 -11   4  -1   79.89    6.50
  11   4   1   91.69    3.40
  11  -4   1   83.29    3.40
  11  -4   1   92.59    3.60
  11  -4   1   94.79    7.00
 -11  -4  -1   89.99    3.30
 -11  -4  -1   92.29    3.50
 -11  -4  -1   89.09    3.50
 -11   4  -2   50.39    2.00
  11   4   2   52.99    2.20
 -11   4  -2   50.49    4.90
 -11   4  -2   51.99    2.00
  11   4   2   51.09    2.10
 -11  -4  -2   51.39    2.10
  11  -4   2   54.99    2.10
 -11  -4  -2   53.09    2.20
  11  -4   2   48.80    2.20
  11  -4   2   49.99    2.20
 -11  -4  -2   50.49    2.20
  11  -4   2   50.89    5.00
 -11   4  -3    2.20    0.30
 -11   4  -3    1.60    0.30
  11   4   3    2.70    0.40
  11   4   3    2.30    0.40
 -11   4  -3    0.40    1.10
 -11   4  -3    1.40    1.00
 -11  -4  -3    2.50    0.40
 -11  -4  -3    2.50    0.40
 -11  -4  -3    2.80    0.50
  11  -4   3    1.10    0.40
  11  -4   3    1.60    0.30
  11  -4   3    1.50    0.30
 -11   4  -4   17.30    0.90
  11   4   4   15.70    1.00
 -11   4  -4   18.20    3.40
 -11   4  -4   17.60    0.90
  11   4   4   16.80    1.00
 -11   4  -4   14.20    2.70
 -11  -4  -4   15.50    0.90
 -11  -4  -4   15.00    1.00
  11  -4   4   17.90    1.00
 -11  -4  -4   17.10    1.10
  11  -4   4   17.40    1.00
  11  -4   4   17.10    1.10
 -11   4  -5    4.20    0.40
 -11   4  -5    4.30    1.80
 -11   4  -5    4.80    0.40
 -11   4  -5    6.90    2.50
  11   4   5    4.30    0.60
  11   4   5    4.30    0.60
  11   4   5    4.30    0.50
  11  -4   5    3.70    0.60
  11  -4   5    4.60    0.50
 -11  -4  -5    5.00    0.60
 -11  -4  -5    4.50    0.50
  11  -4   5    3.30    0.50
 -11   4  -6   28.70    1.30
  11   4   6   24.80    1.40
  11   4   6   27.30    1.60
  11   4   6   25.40    1.30
 -11   4  -6   27.70    1.30
  11  -4   6   26.80    1.50
  11  -4   6   28.10    1.40
 -11  -4  -6   26.40    1.50
  11  -4   6   26.30    1.50
 -11  -4  -6   26.30    1.40
  11   5  -8    0.30    0.30
 -11   5   8    0.40    0.20
 -11   5   8   -0.20    0.20
 -11   5   8    0.00    0.30
  11  -5  -8    0.00    0.30
  11  -5  -8   -0.30    0.30
 -11  -5   8    0.20    0.30
 -11  -5   8    0.40    0.40
 -11   5   7   10.10    0.80
 -11   5   7   12.40    0.80
 -11   5   7   10.70    0.70
  11   5  -7   10.60    2.70
  11   5  -7   10.80    0.80
 -11  -5   7    9.80    0.90
  11  -5  -7   11.70    0.90
 -11  -5   7    7.80    2.10
 -11  -5   7   10.40    0.80
  11  -5  -7   10.60    1.00
  11  -5  -7   14.90    3.70
 -11   5   6    4.00    1.90
  11   5  -6    3.50    0.60
 -11   5   6    4.70    0.50
 -11   5   6    4.00    0.40
  11   5  -6    3.50    0.50
  11   5  -6    3.20    1.60
 -11   5   6    3.50    0.40
 -11  -5   6    3.40    0.60
  11  -5  -6    3.40    0.50
 -11  -5   6    2.20    1.10
  11  -5  -6    2.80    1.90
  11  -5  -6    4.20    0.70
 -11  -5   6    3.30    0.50
 -11   5   5   37.00    1.60
 -11   5   5   41.00    2.10
  11   5  -5   38.10    1.80
  11   5  -5   38.20    3.90
 -11   5   5   37.60    1.60
  11   5  -5   36.50    1.60
 -11   5   5   40.60    3.90
 -11  -5   5   38.90    1.80
 -11  -5   5   39.60    4.00
  11  -5  -5   35.90    4.40
  11  -5  -5   34.70    1.90
 -11  -5   5   37.20    1.80
 -11  -5   5   36.40    1.70
  11  -5  -5   35.90    1.80
  11   5  -4    3.80    1.40
  11   5  -4    5.30    0.60
 -11   5   4    5.80    1.80
 -11   5   4    5.20    0.50
  11   5  -4    5.00    0.50
 -11   5   4    5.00    0.50
 -11  -5   4    5.00    0.50
  11  -5  -4    5.70    0.70
  11  -5  -4    5.80    0.60
  11  -5  -4    5.80    0.50
 -11  -5   4    4.80    0.50
 -11  -5   4    4.10    0.60
 -11  -5   4    5.90    1.70
  11  -5  -4    4.30    1.80
 -11   5   3   53.09    2.10
  11   5  -3   57.99    4.20
  11   5  -3   56.39    2.10
  11   5  -3   54.79    2.30
 -11   5   3   47.50    4.40
 -11   5   3   55.99    2.20
  11  -5  -3   56.09    2.50
  11  -5  -3   50.09    5.20
 -11  -5   3   53.99    2.40
  11  -5  -3   54.49    2.30
 -11  -5   3   54.09    2.30
 -11  -5   3   53.59    2.30
 -11  -5   3   55.69    4.20
  11  -5  -3   54.89    2.20
 -11   5   2   34.50    1.40
  11   5  -2   30.60    1.30
 -11   5   2   36.10    3.70
 -11   5   2   31.60    1.40
  11   5  -2   30.30    1.50
  11   5  -2   31.10    2.80
 -11  -5   2   30.00    2.70
 -11  -5   2   29.80    1.50
  11  -5  -2   36.40    1.70
 -11  -5   2   29.40    1.60
  11  -5  -2   34.00    4.20
  11  -5  -2   34.10    1.50
  11  -5  -2   32.90    1.60
 -11  -5   2   29.60    1.50
  11   5  -1  134.19    4.90
 -11   5   1  129.69    8.10
 -11   5   1  132.09    4.70
 -11   5   1  129.99    4.70
 -11  -5   1  138.89    5.00
  11  -5  -1  132.19    5.00
  11  -5  -1  125.19    8.80
 -11  -5   1  128.29    4.70
 -11  -5   1  133.09    4.90
  11  -5  -1  124.59    4.90
 -11  -5   1  133.49    4.90
  11  -5  -1  129.59    4.90
 -11   5   0   29.40    1.30
  11   5   0   30.50    1.40
 -11   5   0   29.90    1.20
 -11   5   0   31.30    3.60
  11   5   0   30.70    1.40
  11  -5   0   29.70    1.50
  11  -5   0   29.70    1.50
 -11  -5   0   28.90    1.50
 -11  -5   0   31.20    1.50
 -11  -5   0   30.00    1.40
  11  -5   0   28.30    1.50
  11  -5   0   29.10    3.90
 -11   5  -1  104.49    3.70
 -11   5  -1  104.79    3.80
  11   5   1   99.79    3.90
 -11   5  -1  105.39    7.60
  11   5   1  106.19    4.00
  11  -5   1  108.89    8.00
 -11  -5  -1  102.79    4.00
  11  -5   1  103.79    4.10
 -11  -5  -1  106.69    3.90
  11  -5   1  108.69    4.10
 -11  -5  -1   98.09    4.00
  11  -5   1  105.49    4.10
  11   5   2    8.60    0.70
 -11   5  -2    5.50    2.10
  11   5   2    8.60    0.70
 -11   5  -2    8.70    0.60
 -11  -5  -2    8.70    0.70
  11  -5   2    7.50    0.70
  11  -5   2    7.90    0.80
 -11  -5  -2    8.00    0.60
  11  -5   2    6.80    0.70
 -11   5  -3   41.60    4.10
 -11   5  -3   41.70    1.70
  11   5   3   42.30    1.90
 -11   5  -3   41.50    1.70
 -11   5  -3   34.90    4.30
  11   5   3   38.70    1.80
  11  -5   3   41.50    1.90
 -11  -5  -3   39.90    1.90
 -11  -5  -3   41.10    1.80
 -11  -5  -3   42.50    1.90
  11  -5   3   40.60    2.00
 -11   5  -4   13.90    2.60
  11   5   4   15.80    1.00
 -11   5  -4   14.00    3.30
 -11   5  -4   14.50    0.80
  11   5   4   15.60    1.00
 -11   5  -4   16.80    0.90
 -11  -5  -4   15.30    1.10
 -11  -5  -4   15.70    1.00
  11  -5   4   13.20    0.90
  11  -5   4   15.80    1.10
 -11  -5  -4   15.70    1.00
 -11   5  -5    9.80    0.60
 -11   5  -5    9.80    0.70
 -11   5  -5    4.30    1.80
  11   5   5    9.10    0.80
  11   5   5    9.00    0.80
  11   5   5    9.70    0.70
 -11  -5  -5    8.80    0.70
  11  -5   5    9.00    0.80
  11  -5   5    9.30    0.70
 -11  -5  -5    9.80    0.90
 -11   5  -6    0.10    0.20
 -11   5  -6   -0.20    0.20
  11   5   6    0.20    0.30
  11   5   6    0.30    0.30
  11   5   6    0.10    0.20
 -11  -5  -6    0.10    0.30
  11  -5   6    0.10    0.30
 -11  -5  -6    0.30    0.30
  11  -5   6    0.10    0.30
 -11   6   7    1.70    0.40
  11   6  -7    1.90    0.40
  11   6  -7    2.20    0.50
 -11   6   7    2.20    0.40
  11   6  -7    1.00    1.60
  11  -6  -7    2.50    0.50
 -11  -6   7    1.30    0.50
  11  -6  -7    2.50    0.60
 -11  -6   7    1.70    0.40
 -11   6   6   19.60    1.00
 -11   6   6   20.00    1.00
  11   6  -6   17.70    3.10
  11   6  -6   19.60    1.10
  11   6  -6   19.10    1.20
 -11  -6   6   19.10    1.20
  11  -6  -6   17.50    1.30
  11  -6  -6   18.50    1.20
 -11  -6   6   21.00    1.20
  11  -6  -6   18.50    3.90
 -11   6   5    6.00    1.90
 -11   6   5    4.40    0.50
  11   6  -5    1.40    1.40
  11   6  -5    3.20    0.60
  11   6  -5    3.20    0.40
 -11   6   5    3.50    0.40
 -11  -6   5    3.10    0.50
  11  -6  -5    4.20    0.60
 -11  -6   5    2.40    0.50
  11  -6  -5    3.90    0.70
  11  -6  -5   -0.20    1.20
 -11   6   4   34.90    1.50
 -11   6   4   30.80    3.70
  11   6  -4   36.20    1.50
 -11   6   4   33.40    1.50
  11   6  -4   36.20    1.70
  11   6  -4   31.20    3.60
 -11  -6   4   38.20    1.80
  11  -6  -4   31.70    4.40
 -11  -6   4   36.00    1.80
 -11  -6   4   36.80    1.80
  11  -6  -4   31.20    1.80
  11  -6  -4   36.20    1.70
  11   6  -3    4.60    0.40
  11   6  -3    5.10    1.50
  11   6  -3    4.40    0.60
 -11   6   3    5.40    0.50
 -11   6   3    5.00    1.60
 -11   6   3    5.50    0.50
  11  -6  -3    5.90    0.80
 -11  -6   3    4.70    0.60
  11  -6  -3    3.70    0.60
 -11  -6   3    4.10    0.60
  11  -6  -3    5.40    0.50
 -11  -6   3    4.70    1.40
 -11  -6   3    3.00    0.50
  11  -6  -3    2.70    1.60
 -11   6   2   47.90    1.90
  11   6  -2   48.80    4.20
  11   6  -2   48.00    2.10
 -11   6   2   47.30    1.90
  11   6  -2   45.70    3.50
  11   6  -2   45.10    1.80
 -11   6   2   56.59    4.90
 -11  -6   2   45.40    2.10
  11  -6  -2   49.30    2.30
  11  -6  -2   49.90    2.10
  11  -6  -2   43.80    2.10
 -11  -6   2   46.10    2.10
 -11  -6   2   44.90    2.10
 -11   6   1    7.10    2.10
 -11   6   1    7.80    0.50
 -11   6   1    8.50    0.60
  11   6  -1    5.90    0.60
  11  -6  -1    6.10    2.00
  11  -6  -1    7.80    0.80
 -11  -6   1    6.30    0.60
  11  -6  -1    8.50    0.70
 -11  -6   1    6.90    0.70
 -11  -6   1    6.30    0.70
 -11  -6   1    6.80    0.70
  11  -6  -1    8.30    0.70
 -11   6   0   15.60    0.80
  11   6   0   17.20    1.00
 -11   6   0   15.50    0.80
 -11   6   0   14.20    2.60
  11   6   0   16.00    1.00
 -11  -6   0   15.50    1.00
 -11  -6   0   16.00    1.00
  11  -6   0   14.90    1.00
  11  -6   0   10.70    2.80
  11  -6   0   16.10    1.10
 -11  -6   0   16.10    1.00
  11  -6   0   14.70    1.00
 -11   6  -1   10.40    2.70
  11   6   1   11.30    0.80
  11   6   1   12.20    0.80
 -11   6  -1   10.60    0.70
 -11   6  -1   10.00    0.60
  11  -6   1   14.60    3.60
  11  -6   1    9.50    0.90
 -11  -6  -1   10.60    0.80
  11  -6   1   10.30    0.80
  11  -6   1   10.10    0.80
 -11  -6  -1   10.90    0.80
  11   6   2   20.70    1.20
 -11   6  -2   22.20    1.10
 -11   6  -2   22.80    3.00
  11   6   2   20.80    1.20
  11  -6   2   22.80    1.30
 -11  -6  -2   20.20    1.20
  11  -6   2   21.20    1.20
 -11  -6  -2   22.90    1.20
 -11  -6  -2   21.50    1.30
  11  -6   2   23.40    1.30
 -11   6  -3    0.30    0.20
 -11   6  -3    2.60    1.30
 -11   6  -3    0.40    0.20
  11   6   3    0.40    0.30
 -11   6  -3    1.30    1.40
  11   6   3    0.30    0.30
  11  -6   3    0.50    0.30
 -11  -6  -3    0.50    0.30
 -11  -6  -3    0.50    0.30
 -11  -6  -3    0.40    0.30
  11  -6   3    0.40    0.30
 -11   6  -4   18.80    0.90
 -11   6  -4   17.80    1.00
  11   6   4   17.10    1.10
 -11   6  -4   16.10    3.00
  11   6   4   18.80    1.10
  11  -6   4   17.30    1.20
  11  -6   4   17.50    1.10
 -11  -6  -4   17.40    1.10
 -11  -6  -4   17.40    1.10
 -11  -6  -4   17.50    1.20
 -11   6  -5    2.30    0.40
  11   6   5    2.60    0.50
  11   6   5    2.10    0.40
 -11   6  -5    1.70    0.30
  11  -6   5    1.50    0.40
 -11  -6  -5    3.00    0.60
  11  -6   5    2.00    0.40
 -11  -6  -5    2.40    0.50
  11   7  -6    0.50    0.40
 -11   7   6    0.20    0.20
  11   7  -6    0.10    0.30
 -11   7   6    0.30    0.30
 -11  -7   6    0.40    0.30
  11  -7  -6    0.50    0.40
  11  -7  -6    0.40    0.40
 -11  -7   6    0.60    0.30
 -11   7   5    8.80    0.60
  11   7  -5    8.20    2.80
  11   7  -5    7.60    0.60
 -11   7   5    7.70    0.60
  11   7  -5    8.70    0.80
 -11   7   5    7.50    2.50
 -11  -7   5    8.30    0.80
  11  -7  -5    8.20    0.80
 -11  -7   5    8.00    0.70
  11  -7  -5    9.60    1.00
  11  -7  -5    2.60    2.00
  11   7  -4    7.40    0.80
  11   7  -4    7.50    0.60
 -11   7   4    8.20    2.40
 -11   7   4    8.70    0.60
 -11   7   4    7.90    0.60
 -11  -7   4    7.30    0.80
 -11  -7   4    6.40    0.70
  11  -7  -4   11.60    3.10
 -11  -7   4    6.90    0.70
  11  -7  -4    8.50    0.80
  11  -7  -4    7.70    0.90
 -11   7   3   30.90    1.40
 -11   7   3   27.00    3.50
 -11   7   3   30.10    1.40
  11   7  -3   30.60    1.40
  11   7  -3   31.30    1.50
  11  -7  -3   30.40    1.80
 -11  -7   3   30.30    1.60
  11  -7  -3   32.50    4.60
  11  -7  -3   28.80    1.60
 -11  -7   3   30.00    1.60
 -11  -7   3   30.80    1.60
  11   7  -2    2.00    0.50
 -11   7   2    2.20    0.40
 -11   7   2    1.50    0.30
 -11   7   2    1.20    1.20
 -11  -7   2    1.30    0.40
 -11  -7   2    2.30    0.50
  11  -7  -2    2.20    0.50
  11  -7  -2    1.00    1.30
  11  -7  -2    2.60    0.60
 -11  -7   2    1.00    0.40
  11  -7  -2    2.20    0.40
 -11   7   1   45.70    4.70
 -11   7   1   53.49    2.10
  11   7  -1   54.19    2.30
 -11   7   1   52.99    2.10
  11   7  -1   50.99    2.30
  11  -7  -1   55.39    2.40
 -11  -7   1   53.99    2.40
  11  -7  -1   54.79    5.80
  11  -7  -1   53.89    2.30
  11  -7  -1   52.79    2.50
 -11  -7   1   49.80    2.30
 -11   7   0    0.10    0.20
 -11   7   0    0.40    0.20
  11   7   0    0.30    0.30
  11   7   0    0.20    0.30
 -11   7   0    2.40    1.40
 -11  -7   0    0.00    0.20
  11  -7   0    0.30    0.30
  11  -7   0    0.80    1.40
 -11  -7   0    0.00    0.20
 -11  -7   0    0.10    0.30
  11  -7   0    0.30    0.30
  11  -7   0    0.50    0.40
  11   7   1   30.90    1.50
 -11   7  -1   29.50    1.30
 -11   7  -1   29.00    5.30
 -11   7  -1   32.40    1.40
  11   7   1   26.00    1.50
  11  -7   1   31.50    1.60
  11  -7   1   33.00    4.50
 -11  -7  -1   29.20    1.60
 -11  -7  -1   30.30    1.60
 -11  -7  -1   31.30    1.70
  11  -7   1   29.90    1.70
  11  -7   1   31.80    1.60
 -11   7  -2    3.50    1.50
  11   7   2    7.60    0.70
 -11   7  -2   10.50    2.90
  11   7   2    7.50    0.70
 -11   7  -2    7.20    0.60
  11  -7   2    6.70    0.70
 -11  -7  -2    7.00    0.80
 -11  -7  -2    7.30    0.70
  11  -7   2    7.50    0.80
 -11  -7  -2    7.50    0.70
  11  -7   2    7.90    0.70
 -11   7  -3   10.60    0.70
  11   7   3    9.50    0.80
 -11   7  -3    9.90    0.70
  11   7   3    9.20    0.80
 -11  -7  -3   10.20    0.90
  11  -7   3    9.00    0.80
 -11  -7  -3    8.80    0.80
 -11  -7  -3    9.20    0.90
  11  -7   3    9.40    0.80
 -11   7  -4    3.10    0.50
  11   7   4    3.30    0.50
 -11   7  -4    2.70    0.40
  11  -7   4    2.50    0.50
 -11  -7  -4    3.50    0.70
 -11  -7  -4    3.10    0.60
  11  -7   4    3.00    0.50
 -11  -7  -4    3.20    0.60
 -11   8   5    3.10    0.50
  11   8  -5    2.30    0.60
 -11   8   5    3.50    0.50
  11   8  -5    2.10    0.40
  11  -8  -5    2.80    0.70
  11  -8  -5    2.70    0.60
 -11  -8   5    2.80    0.60
 -11  -8   5    2.90    0.60
 -11   8   4   18.70    1.00
 -11   8   4   19.90    1.00
  11   8  -4   18.40    1.20
  11  -8  -4   20.80    1.40
 -11  -8   4   18.50    1.40
 -11  -8   4   20.90    1.30
 -11  -8   4   17.80    1.20
  11  -8  -4   18.90    1.20
 -11   8   3    0.30    0.30
 -11   8   3    0.20    0.20
  11   8  -3    0.60    0.30
  11  -8  -3    0.00    1.70
  11  -8  -3    0.40    0.30
 -11  -8   3    0.80    0.40
 -11  -8   3    0.70    0.40
 -11  -8   3    0.20    0.30
  11  -8  -3   -0.20    0.30
 -11   8   2   18.20    1.00
  11   8  -2   17.70    1.10
 -11   8   2   17.00    1.00
  11  -8  -2   15.70    1.10
  11  -8  -2   17.70    1.30
 -11  -8   2   18.50    1.10
 -11  -8   2   18.20    1.30
 -11  -8   2   17.30    1.10
  11  -8  -2   12.60    3.70
  11   8  -1    0.20    0.30
 -11   8   1    0.20    0.20
  11   8  -1    0.20    0.30
 -11   8   1    0.40    0.20
 -11  -8   1    0.60    0.40
  11  -8  -1   -1.20    1.60
  11  -8  -1    0.70    0.40
  11  -8  -1    0.70    0.30
 -11  -8   1    0.50    0.30
  11  -8  -1    0.20    0.30
  11   8   0   28.20    1.50
  11   8   0   26.60    1.50
 -11   8   0   28.20    1.30
 -11   8   0   32.00    1.40
 -11  -8   0   25.60    1.50
 -11  -8   0   28.90    1.70
  11  -8   0   30.30    1.60
  11  -8   0   29.10    1.60
  11  -8   0   27.70    4.60
  11  -8   0   31.50    1.70
 -11  -8   0   27.10    1.60
  11   8   1    0.10    0.30
  11   8   1    0.40    0.30
 -11   8  -1    0.10    0.20
  11  -8   1   -0.10    0.40
 -11  -8  -1    0.10    0.30
  11  -8   1    0.10    0.30
 -11  -8  -1    0.30    0.30
 -11  -8  -1   -0.30    0.30
  11  -8   1    0.60    0.30
  11   8   2    9.50    0.80
  11   8   2   10.00    0.80
 -11   8  -2    9.40    0.70
  11  -8   2   10.10    1.00
 -11  -8  -2    8.60    0.90
  11  -8   2    8.20    0.80
 -11  -8  -2    7.90    0.80
 -11  -8  -2    9.60    0.80
  11  -8   2    8.40    0.80
 -11   8  -3    1.50    0.30
 -11   8  -3    0.90    0.30
  11   8   3    1.40    0.40
  11  -8   3    1.30    0.40
 -11  -8  -3    0.70    0.40
  11  -8   3    1.80    0.50
 -11  -8  -3    1.40    0.50
 -11  -8  -3    1.30    0.50
 -11   9   3    5.90    0.60
 -11   9   3    5.80    0.60
  11   9  -3    5.00    0.70
  11  -9  -3    5.70    0.70
 -11  -9   3    5.40    0.70
 -11  -9   3    5.90    0.70
  11  -9  -3    4.90    0.90
 -11  -9   3    4.40    0.80
  11   9  -2    0.30    0.30
 -11   9   2    0.30    0.20
 -11   9   2    0.70    0.30
  11   9  -2    0.20    0.30
  11  -9  -2    0.40    0.30
 -11  -9   2    0.20    0.30
  11  -9  -2    0.50    0.40
 -11  -9   2    0.30    0.40
 -11   9   1   16.30    0.90
  11   9  -1   15.20    1.10
  11   9  -1   14.50    1.10
 -11   9   1   16.50    1.00
  11  -9  -1   16.30    1.30
 -11  -9   1   15.60    1.10
  11  -9  -1   16.10    1.10
 -11  -9   1   16.10    1.20
 -11   9   0    0.80    0.30
  11   9   0    0.90    0.40
  11   9   0    0.40    0.40
 -11   9   0    1.10    0.30
 -11  -9   0    1.20    0.50
 -11  -9   0    0.90    0.40
  11  -9   0    1.50    0.50
  11  -9   0    1.30    0.50
 -11   9  -1   11.40    0.80
  11   9   1    9.50    0.80
  11  -9   1   11.60    1.00
  11  -9   1   10.80    0.90
  11  -9   1   12.20    1.10
 -11  -9  -1   10.70    1.10
 -11  -9  -1    9.90    1.00
 -11  -9  -1    9.80    0.90
  12   0  -9   -0.10    0.20
  12   0  -9   -0.30    0.20
 -12   0   9    0.10    0.30
  12   0  -9    0.00    0.30
 -12   0   9    0.30    0.40
 -12   0   8   77.59    3.20
  12   0  -8   68.69    5.90
  12   0  -8   77.29    3.20
  12   0  -8   79.19    3.20
  12   0  -8   77.29    3.00
 -12   0   8   78.49    3.00
  12   0  -7    0.10    0.20
  12   0  -7    0.10    0.30
  12   0  -7    0.00    0.20
 -12   0   7    1.60    1.10
 -12   0   7    0.10    0.20
 -12   0   7    0.00    0.20
  12   0  -7   -0.40    0.80
 -12   0   6   23.60    1.00
  12   0  -6   24.60    1.30
  12   0  -6   26.50    1.20
 -12   0   6   22.60    2.90
 -12   0   6   23.60    1.30
 -12   0   6   24.00    1.20
  12   0  -6   22.90    1.20
  12   0  -6   23.80    3.00
 -12   0   5   -0.10    0.10
 -12   0   5    0.10    0.20
 -12   0   5    0.00    0.20
 -12   0   5   -0.30    0.50
  12   0  -5    0.00    0.20
  12   0  -5    0.00    0.20
  12   0  -5    1.00    0.70
  12   0  -5    0.10    0.20
 -12   0   4  267.17   12.40
 -12   0   4  260.37    9.10
 -12   0   4  263.47    9.30
  12   0  -4  266.87    9.20
  12   0  -4  264.17    9.10
  12   0  -4  259.37    9.30
  12   0  -4  265.77   12.50
  12   0  -3    0.80    0.20
  12   0  -3    0.40    0.20
 -12   0   3    0.50    0.50
 -12   0   3    0.50    0.20
 -12   0   3    0.70    0.20
  12   0  -3    0.50    0.60
  12   0  -3    0.40    0.20
 -12   0   3    0.60    0.20
  12   0  -2  127.49    4.60
 -12   0   2  126.39    4.50
 -12   0   2  125.79    4.60
 -12   0   2  123.69    4.50
  12   0  -2  126.89    7.20
  12   0  -2  133.59    4.60
 -12   0   2  118.89    6.90
 -12   0   1    0.40    0.20
 -12   0   1    0.40    0.50
  12   0  -1    0.60    0.20
  12   0  -1    0.20    0.50
  12   0  -1    0.90    0.20
 -12   0   1    0.50    0.20
 -12   0   1    0.50    0.10
  12   0   0  269.77    9.70
  12   0   0  278.17   12.90
 -12   0   0  282.47    9.70
  12   0   0  287.97    9.80
 -12   0   0  283.47    9.60
  12   0   0  284.97    9.90
 -12   0   0  288.77   12.40
 -12   0   0  276.47    9.70
 -12   0  -1    1.50    0.20
  12   0   1    1.70    0.30
  12   0   1    1.80    0.30
 -12   0  -1    1.70    0.20
  12   0   1    2.00    0.40
  12   0   1    2.30    1.00
 -12   0  -1    1.40    0.30
 -12   0  -1    2.60    1.00
 -12   0  -2  139.29    7.30
  12   0   2  136.79    5.10
  12   0   2  141.59    5.10
  12   0   2  136.39    5.20
 -12   0  -2  146.29    5.00
 -12   0  -2  139.89    5.00
 -12   0  -2  144.09    8.00
 -12   0  -2  143.29    5.00
  12   0   3    0.20    0.20
 -12   0  -3    0.70    0.20
 -12   0  -3    0.10    0.70
  12   0   3    0.20    0.20
 -12   0  -3    0.30    0.60
  12   0   3    0.10    0.20
 -12   0  -3    0.50    0.20
 -12   0  -3    0.20    0.20
 -12   0  -4  180.58    6.40
 -12   0  -4  175.78    9.30
  12   0   4  180.78    6.70
 -12   0  -4  179.48    6.40
  12   0   4  181.28    6.60
  12   0   4  178.98    6.40
 -12   0  -4  183.18   10.50
 -12   0  -5    0.00    0.20
  12   0   5    0.20    0.20
 -12   0  -5   -0.60    0.90
  12   0   5   -0.20    0.20
  12   0   5   -0.20    0.20
 -12   0  -5    0.00    0.20
 -12   0  -6   37.20    1.70
  12   0   6   40.70    2.00
  12   0   6   39.30    1.90
 -12   0  -6   37.70    1.80
  12   0   7    0.30    0.30
 -12   0  -7    0.20    0.30
  12   0   7    0.10    0.30
 -12   0  -7   -0.10    0.20
 -12   0  -7    0.30    0.30
 -12   1   9   13.60    1.10
  12   1  -9   14.40    0.90
  12   1  -9   13.80    1.00
 -12   1   9   14.30    0.90
  12  -1  -9   13.90    1.00
  12  -1  -9   13.90    1.00
 -12  -1   9   14.20    1.00
 -12  -1   9   13.50    0.90
  12  -1  -9   13.20    0.90
  12   1  -8    1.80    0.40
  12   1  -8    0.90    1.30
  12   1  -8    1.30    0.40
 -12   1   8    1.30    1.00
 -12   1   8    1.10    0.40
 -12   1   8    1.30    0.40
  12  -1  -8    1.60    0.40
  12  -1  -8    0.80    0.30
  12  -1  -8    1.40    0.40
  12  -1  -8    3.10    1.40
 -12  -1   8    1.40    0.40
 -12  -1   8    1.70    0.40
  12   1  -7   42.30    4.30
  12   1  -7   45.70    1.90
 -12   1   7   45.10    4.40
  12   1  -7   50.89    2.20
 -12   1   7   43.20    1.90
  12   1  -7   46.20    2.10
 -12   1   7   45.60    2.10
 -12  -1   7   43.30    1.90
  12  -1  -7   41.00    4.30
  12  -1  -7   49.20    2.10
 -12  -1   7   47.10    2.10
  12  -1  -7   47.10    2.10
 -12  -1   7   48.20    4.50
  12  -1  -7   45.30    2.00
  12   1  -6   20.60    1.00
 -12   1   6   22.30    1.20
 -12   1   6   23.00    1.00
  12   1  -6   20.90    1.10
  12   1  -6   20.00    2.80
  12   1  -6   20.60    1.20
 -12   1   6   21.30    1.00
 -12   1   6   17.80    2.70
  12  -1  -6   22.00    1.10
  12  -1  -6   21.90    1.10
 -12  -1   6   19.70    1.20
 -12  -1   6   21.10    0.90
  12  -1  -6   20.50    2.90
 -12  -1   6   20.70    1.10
 -12  -1   6   23.30    2.90
  12   1  -5    5.50    0.50
 -12   1   5    4.90    0.50
 -12   1   5    5.20    0.40
 -12   1   5    3.20    1.20
  12   1  -5    5.10    0.50
  12   1  -5    3.90    1.30
 -12   1   5    4.70    0.40
 -12  -1   5    5.50    0.50
 -12  -1   5    6.40    0.60
 -12  -1   5    2.80    1.20
  12  -1  -5    4.50    0.50
  12  -1  -5    3.20    1.30
 -12  -1   5    4.80    0.40
  12  -1  -5    6.50    0.50
  12  -1  -5    5.00    0.50
 -12   1   4    8.30    0.60
 -12   1   4    9.10    0.60
  12   1  -4   10.20    1.90
  12   1  -4   10.80    0.70
 -12   1   4    8.10    0.60
  12   1  -4    9.90    0.60
 -12   1   4    8.70    1.80
  12  -1  -4    9.80    0.70
 -12  -1   4    9.60    0.70
 -12  -1   4   11.00    1.90
  12  -1  -4   10.70    1.90
 -12  -1   4   10.20    0.60
 -12  -1   4    9.50    0.50
  12  -1  -4    9.20    0.60
  12  -1  -4    8.50    0.60
 -12   1   3   93.29    3.50
 -12   1   3   95.99    6.10
 -12   1   3   96.39    3.40
 -12   1   3   93.09    3.50
  12   1  -3   97.49    5.90
  12   1  -3   94.69    3.60
  12   1  -3   97.19    3.50
 -12  -1   3   90.39    3.50
  12  -1  -3   93.89    3.50
 -12  -1   3   95.49    5.80
 -12  -1   3   97.49    3.40
  12  -1  -3   95.49    3.60
  12  -1  -3   95.79    6.30
  12  -1  -3   97.69    3.60
 -12  -1   3   91.59    3.60
  12   1  -2   28.60    2.90
  12   1  -2   27.50    1.30
  12   1  -2   28.80    1.40
 -12   1   2   31.90    1.30
 -12   1   2   29.70    1.30
 -12   1   2   28.10    2.90
 -12   1   2   29.10    1.20
 -12  -1   2   27.50    1.20
  12  -1  -2   30.40    1.30
  12  -1  -2   31.70    3.30
 -12  -1   2   26.70    1.30
  12  -1  -2   34.60    1.30
 -12  -1   2   28.50    2.80
 -12  -1   2   28.90    1.40
  12  -1  -2   31.60    1.40
 -12   1   1   55.99    4.20
  12   1  -1   56.59    2.10
 -12   1   1   54.39    2.10
 -12   1   1   50.49    2.10
  12   1  -1   55.89    2.20
  12   1  -1   54.29    4.20
  12  -1  -1   53.59    2.00
  12  -1  -1   54.39    2.20
 -12  -1   1   53.19    1.90
 -12  -1   1   51.89    2.10
 -12  -1   1   54.39    3.80
 -12  -1   1   56.19    2.10
  12  -1  -1   53.19    4.50
  12  -1  -1   54.59    2.10
 -12  -1   1   52.99    2.10
  12  -1  -1   54.69    2.20
  12   1   0   98.29    3.60
  12   1   0  113.49    6.20
 -12   1   0   96.19    6.00
 -12   1   0   88.69    3.50
 -12   1   0   92.29    3.40
 -12   1   0   94.49    3.50
  12   1   0  101.39    3.50
  12   1   0   99.29    3.70
 -12  -1   0   96.09    3.40
 -12  -1   0  102.99    3.60
  12  -1   0   91.59    3.60
  12  -1   0   95.59    3.50
 -12  -1   0  104.89    5.50
  12  -1   0   93.19    6.50
  12  -1   0   91.09    3.60
 -12   1  -1  222.48    8.00
  12   1   1  226.48    8.10
 -12   1  -1  255.67   11.60
  12   1   1  233.58    8.20
  12   1   1  227.88    8.10
 -12   1  -1  227.78    8.00
  12   1   1  234.58   10.90
 -12  -1  -1  227.88    8.00
 -12  -1  -1  224.68    8.10
  12  -1   1  235.38    8.10
 -12  -1  -1  239.88   10.30
  12  -1   1  235.08    8.30
  12  -1   1  242.78   11.90
  12  -1   1  232.58    8.20
 -12  -1  -1  227.88    8.20
 -12   1  -2    4.10    1.60
  12   1   2    4.40    0.40
 -12   1  -2    4.40    0.30
  12   1   2    4.30    0.40
 -12   1  -2    5.20    0.40
 -12   1  -2    4.90    0.40
  12   1   2    4.50    0.50
  12  -1   2    4.80    0.50
 -12  -1  -2    3.70    0.30
 -12  -1  -2    3.00    1.10
 -12  -1  -2    4.50    1.20
  12  -1   2    4.60    0.40
 -12  -1  -2    3.80    0.40
  12  -1   2    4.80    0.40
 -12  -1  -2    4.00    0.40
 -12   1  -3   94.29    6.80
  12   1   3   95.99    3.50
  12   1   3   91.69    3.70
 -12   1  -3   91.79    5.90
 -12   1  -3  101.19    3.50
  12   1   3   94.79    3.60
 -12   1  -3   93.79    3.50
  12  -1   3   93.29    3.70
 -12  -1  -3   94.59    3.60
 -12  -1  -3   96.79    5.60
 -12  -1  -3   93.29    6.20
  12  -1   3   93.49    3.60
 -12  -1  -3   92.29    3.60
  12  -1   3   95.89    3.60
 -12  -1  -3   96.69    3.50
  12   1   4   14.50    0.90
 -12   1  -4   13.60    0.70
 -12   1  -4   16.50    2.80
  12   1   4   13.80    0.90
 -12   1  -4   11.50    2.10
 -12   1  -4   12.40    0.70
  12   1   4   13.00    0.70
 -12  -1  -4   15.10    2.10
 -12  -1  -4   13.50    0.70
  12  -1   4   11.70    0.90
 -12  -1  -4   13.10    0.80
  12  -1   4   12.90    0.80
 -12  -1  -4   13.60    0.80
  12  -1   4   11.90    0.80
 -12   1  -5   94.99    6.70
 -12   1  -5   97.49    3.70
  12   1   5   97.89    3.90
  12   1   5   96.19    3.80
 -12   1  -5   96.39    3.60
 -12  -1  -5   96.39    3.80
 -12  -1  -5   93.39    6.40
 -12  -1  -5   95.49    3.60
  12  -1   5  104.49    4.00
  12  -1   5   92.79    3.70
  12  -1   5   94.09    3.80
  12   1   6    1.50    0.40
 -12   1  -6    1.00    1.20
 -12   1  -6    1.50    0.30
  12   1   6    1.50    0.40
 -12   1  -6    1.50    0.40
 -12  -1  -6    1.90    0.40
  12  -1   6    1.60    0.50
  12  -1   6    1.50    0.30
  12  -1   6    1.40    0.40
 -12  -1  -6    1.90    0.40
  12   1   7   14.70    1.10
  12   1   7   13.50    1.10
 -12   1  -7   14.50    0.90
 -12   1  -7   12.90    0.90
 -12   1  -7   13.80    0.90
 -12  -1  -7   14.00    1.10
  12  -1   7   13.50    1.10
 -12  -1  -7   14.40    0.90
  12  -1   7   14.60    1.10
  12   2  -9    0.10    0.30
 -12   2   9    0.00    0.30
  12   2  -9    0.60    0.30
 -12   2   9    0.20    0.30
  12  -2  -9    0.30    0.30
 -12  -2   9    0.40    0.40
 -12  -2   9    0.70    0.30
  12  -2  -9    0.50    0.40
  12  -2  -9    0.30    0.30
  12   2  -8   40.60    2.00
 -12   2   8   38.60    1.90
 -12   2   8   41.50    1.80
  12   2  -8   40.00    1.80
  12   2  -8   38.40    4.20
 -12  -2   8   40.70    1.80
  12  -2  -8   41.00    1.90
  12  -2  -8   40.30    2.00
  12  -2  -8   38.00    4.50
  12  -2  -8   40.20    1.90
 -12  -2   8   41.50    4.30
 -12  -2   8   41.50    2.00
  12   2  -7    6.20    0.70
  12   2  -7    6.70    0.60
 -12   2   7    7.00    1.90
 -12   2   7    6.80    0.50
 -12   2   7    6.30    0.60
  12   2  -7    6.70    2.10
 -12   2   7    7.00    0.70
  12  -2  -7    7.00    0.60
  12  -2  -7    7.40    0.70
 -12  -2   7    6.70    1.80
  12  -2  -7    7.70    0.60
 -12  -2   7    5.80    0.60
  12  -2  -7    5.00    1.80
 -12  -2   7    6.50    0.70
 -12   2   6   44.10    1.80
  12   2  -6   37.80    3.90
  12   2  -6   42.20    1.80
 -12   2   6   43.50    1.70
 -12   2   6   41.60    1.90
 -12   2   6   42.80    4.20
  12   2  -6   41.80    1.90
 -12  -2   6   40.40    1.80
  12  -2  -6   38.40    4.00
  12  -2  -6   46.50    1.90
 -12  -2   6   42.00    1.90
 -12  -2   6   43.00    4.10
  12  -2  -6   40.40    1.80
  12  -2  -6   45.00    2.00
  12   2  -5    4.70    0.60
 -12   2   5    3.20    1.30
 -12   2   5    4.80    0.40
  12   2  -5    5.60    1.70
 -12   2   5    5.20    0.40
 -12   2   5    4.30    0.50
  12   2  -5    5.80    0.50
 -12  -2   5    6.10    0.50
  12  -2  -5    4.00    1.50
  12  -2  -5    5.50    0.60
  12  -2  -5    5.10    0.50
 -12  -2   5    6.20    0.60
  12  -2  -5    5.00    0.50
 -12  -2   5    5.70    0.40
 -12  -2   5    5.60    1.60
 -12   2   4   95.39    3.50
  12   2  -4   99.09    3.60
 -12   2   4   91.09    3.60
  12   2  -4   96.79    3.70
 -12   2   4   92.79    3.50
 -12   2   4   98.99    6.40
  12   2  -4  104.79    6.20
  12  -2  -4   96.09    3.60
 -12  -2   4  101.79    3.70
  12  -2  -4   92.29    3.70
  12  -2  -4   97.79    6.70
 -12  -2   4  100.29    6.20
 -12  -2   4   99.49    3.70
 -12  -2   4   97.69    3.50
  12  -2  -4   94.29    3.60
 -12   2   3   29.90    1.30
 -12   2   3   30.30    1.30
  12   2  -3   27.50    1.40
  12   2  -3   27.30    2.90
 -12   2   3   30.90    3.30
  12   2  -3   29.50    1.30
 -12   2   3   31.70    1.30
 -12  -2   3   27.90    1.30
  12  -2  -3   31.10    1.40
 -12  -2   3   27.50    1.40
  12  -2  -3   31.50    1.40
 -12  -2   3   27.30    1.30
  12  -2  -3   31.70    1.40
 -12  -2   3   30.90    2.90
  12  -2  -3   28.90    3.40
 -12   2   2   55.79    4.40
 -12   2   2   50.69    2.00
  12   2  -2   51.99    2.00
 -12   2   2   53.89    2.00
 -12   2   2   53.59    1.90
  12   2  -2   52.49    2.20
  12   2  -2   54.69    3.80
 -12  -2   2   53.59    2.20
 -12  -2   2   50.49    2.00
 -12  -2   2   42.50    3.50
 -12  -2   2   51.19    2.10
  12  -2  -2   50.79    4.70
  12  -2  -2   49.30    2.10
  12  -2  -2   53.19    2.10
  12  -2  -2   49.00    2.10
 -12   2   1  104.69    3.90
  12   2  -1  111.39    3.90
 -12   2   1  102.39    6.50
 -12   2   1  103.39    3.90
  12   2  -1  115.39    4.10
  12   2  -1  112.19    6.10
 -12  -2   1  104.09    3.70
  12  -2  -1  113.99    7.40
 -12  -2   1  104.79    3.90
 -12  -2   1  111.49    5.80
  12  -2  -1  107.69    4.00
 -12  -2   1  112.49    4.10
  12  -2  -1  107.29    4.10
 -12  -2   1  112.09    4.00
  12  -2  -1  106.99    4.00
  12  -2  -1  105.99    3.80
  12   2   0  170.58    6.20
 -12   2   0  173.68    6.10
  12   2   0  195.28    8.60
 -12   2   0  175.68    9.30
 -12   2   0  172.08    6.10
  12   2   0  180.88    6.10
  12   2   0  175.18    6.20
 -12  -2   0  174.68    6.20
 -12  -2   0  174.78    6.20
  12  -2   0  163.98    9.60
 -12  -2   0  167.48    6.00
  12  -2   0  166.28    6.00
 -12  -2   0  175.28    7.80
  12  -2   0  174.88    6.20
  12  -2   0  168.78    6.20
  12  -2   0  171.98    6.30
 -12   2  -1   11.00    0.50
 -12   2  -1    8.90    0.50
  12   2   1    8.50    0.60
 -12   2  -1   12.00    2.10
  12   2   1    8.70    0.70
 -12   2  -1    9.80    0.60
  12  -2   1   11.60    0.80
 -12  -2  -1    9.00    0.60
  12  -2   1   12.20    0.70
  12  -2   1   13.00    2.30
  12  -2   1   10.70    0.60
 -12  -2  -1    9.00    0.50
 -12  -2  -1   11.80    1.40
 -12  -2  -1   10.10    0.60
  12   2   2   91.49    3.70
 -12   2  -2  103.09    7.10
 -12   2  -2   91.99    3.40
 -12   2  -2   96.69    3.50
  12   2   2   97.79    3.60
  12  -2   2   94.89    3.50
 -12  -2  -2   91.99    3.60
 -12  -2  -2   98.19    4.90
 -12  -2  -2   96.09    3.60
 -12  -2  -2   98.09    3.50
  12  -2   2   97.79    3.80
 -12  -2  -2   95.19    4.90
  12  -2   2   98.19    3.60
  12  -2   2   91.79    6.80
 -12   2  -3    9.50    1.90
  12   2   3   11.20    0.80
  12   2   3   10.80    0.70
 -12   2  -3   10.90    2.70
 -12   2  -3    9.70    0.60
 -12   2  -3    9.60    0.60
  12  -2   3    8.90    0.70
 -12  -2  -3   11.30    1.50
 -12  -2  -3    9.30    0.60
 -12  -2  -3   10.40    1.40
 -12  -2  -3   10.40    0.70
  12  -2   3    8.90    0.80
 -12  -2  -3   10.90    0.70
  12  -2   3    9.30    0.70
  12   2   4  196.48    7.30
 -12   2  -4  195.28   10.40
 -12   2  -4  194.98    6.90
  12   2   4  200.68    7.20
 -12   2  -4  198.48    7.00
 -12   2  -4  197.28   11.70
  12  -2   4  193.88    7.20
  12  -2   4  189.68    7.30
 -12  -2  -4  202.08    9.40
 -12  -2  -4  198.18    7.10
 -12  -2  -4  196.28    6.90
 -12  -2  -4  200.48    7.00
 -12  -2  -4  203.28    7.20
  12  -2   4  203.58    7.10
  12   2   5    4.60    0.40
 -12   2  -5    5.50    0.50
  12   2   5    4.60    0.60
  12   2   5    4.70    0.60
 -12   2  -5    5.10    1.70
 -12   2  -5    4.20    0.50
 -12  -2  -5    4.60    0.50
 -12  -2  -5    5.80    0.50
  12  -2   5    5.10    0.60
  12  -2   5    6.10    0.60
  12  -2   5    6.00    0.50
 -12   2  -6   20.50    1.10
  12   2   6   19.80    1.20
 -12   2  -6   20.40    1.00
  12   2   6   18.40    1.30
 -12   2  -6   19.90    3.10
  12  -2   6   20.90    1.20
 -12  -2  -6   21.20    1.30
 -12  -2  -6   21.00    1.10
  12  -2   6   22.50    1.30
  12  -2   6   21.50    1.30
 -12   2  -7    0.10    0.20
  12   2   7    0.10    0.30
 -12   2  -7   -0.10    0.20
  12   2   7   -0.10    0.20
 -12  -2  -7    0.10    0.20
  12  -2   7    0.10    0.30
  12  -2   7    0.30    0.30
  12  -2   7    0.30    0.30
 -12  -2  -7    0.10    0.20
 -12   3   9    8.70    0.70
 -12   3   9    8.90    0.90
  12   3  -9    8.90    0.70
  12   3  -9    8.00    0.80
  12  -3  -9    8.80    0.90
 -12  -3   9    7.90    0.80
  12  -3  -9    7.90    0.70
 -12  -3   9    8.40    0.80
  12   3  -8    2.80    0.50
  12   3  -8    1.80    0.40
 -12   3   8    3.00    0.50
 -12   3   8    3.20    0.60
  12   3  -8   -0.10    1.20
 -12  -3   8    2.40    0.50
 -12  -3   8    2.90    0.50
  12  -3  -8    2.50    0.60
  12  -3  -8    2.80    0.50
 -12   3   7   35.00    1.70
 -12   3   7   35.90    1.60
 -12   3   7   35.80    3.90
  12   3  -7   35.30    3.90
  12   3  -7   36.00    1.60
  12   3  -7   36.80    1.80
 -12   3   7   35.20    1.50
  12  -3  -7   24.60    3.60
  12  -3  -7   35.40    1.80
 -12  -3   7   36.50    1.70
 -12  -3   7   34.80    1.80
  12  -3  -7   33.80    1.60
  12  -3  -7   33.90    1.60
  12   3  -6    0.30    0.30
 -12   3   6   -0.10    0.80
 -12   3   6    0.20    0.20
  12   3  -6    0.20    0.20
  12   3  -6    1.20    1.10
 -12   3   6    0.10    0.20
 -12   3   6    0.30    0.20
  12  -3  -6    0.20    0.20
 -12  -3   6    0.10    0.30
 -12  -3   6    0.40    0.20
  12  -3  -6    0.30    0.30
  12  -3  -6    0.50    1.00
  12  -3  -6    0.10    0.20
 -12  -3   6    0.90    0.90
 -12   3   5   34.70    1.50
  12   3  -5   35.80    1.50
 -12   3   5   31.70    3.60
  12   3  -5   33.90    1.60
  12   3  -5   34.40    3.60
 -12   3   5   35.40    1.60
 -12   3   5   35.70    1.50
  12  -3  -5   35.20    1.70
 -12  -3   5   34.60    1.50
 -12  -3   5   35.70    1.60
  12  -3  -5   37.20    1.60
 -12  -3   5   36.50    1.70
  12  -3  -5   33.80    1.60
 -12  -3   5   34.60    3.60
  12  -3  -5   36.60    4.00
  12   3  -4   61.89    2.70
 -12   3   4   66.89    5.20
 -12   3   4   68.19    2.50
  12   3  -4   66.19    2.50
 -12   3   4   67.69    2.50
 -12   3   4   67.99    2.60
  12   3  -4   65.99    5.00
 -12  -3   4   65.79    2.60
 -12  -3   4   67.79    4.90
  12  -3  -4   70.49    2.60
  12  -3  -4   67.19    2.70
 -12  -3   4   64.39    2.70
  12  -3  -4   69.19    2.80
 -12  -3   4   64.79    2.70
  12  -3  -4   68.49    5.50
  12   3  -3  110.09    6.30
  12   3  -3  108.39    4.10
 -12   3   3  112.69    4.00
 -12   3   3  108.19    6.90
 -12   3   3  106.49    4.00
 -12   3   3  108.09    3.90
  12   3  -3  111.49    4.00
 -12  -3   3  110.99    4.20
  12  -3  -3  105.99    7.50
  12  -3  -3  106.09    4.10
  12  -3  -3  106.29    4.10
 -12  -3   3  111.89    4.10
  12  -3  -3  107.49    4.20
 -12  -3   3  117.39    6.50
 -12  -3   3  114.99    4.00
  12   3  -2   99.79    3.80
 -12   3   2  101.49    6.60
  12   3  -2   98.59    5.70
 -12   3   2   98.39    3.60
  12   3  -2  100.99    3.60
 -12   3   2   99.59    3.60
  12  -3  -2   93.99    3.80
 -12  -3   2  102.49    3.70
  12  -3  -2   99.29    3.80
  12  -3  -2   95.99    7.00
 -12  -3   2  106.09    3.90
  12  -3  -2   94.69    3.80
 -12  -3   2  103.99    3.80
 -12  -3   2  111.39    5.80
  12   3  -1  156.48    5.80
 -12   3   1  159.58    8.80
  12   3  -1  162.78    5.60
 -12   3   1  154.88    5.60
 -12   3   1  161.98    5.60
  12   3  -1  165.18    7.70
 -12  -3   1  159.08    5.80
  12  -3  -1  158.68    5.80
  12  -3  -1  162.38    5.80
  12  -3  -1  153.88    5.80
 -12  -3   1  165.38    7.40
 -12  -3   1  161.08    5.70
  12  -3  -1  152.38    9.40
 -12  -3   1  152.38    5.80
 -12   3   0    1.60    1.10
 -12   3   0    1.30    0.20
  12   3   0    1.30    0.40
 -12   3   0    1.20    0.30
  12   3   0    0.80    0.30
 -12  -3   0    1.40    0.40
  12  -3   0    1.60    0.40
 -12  -3   0    1.50    0.30
 -12  -3   0    1.30    0.20
  12  -3   0    1.70    0.40
  12  -3   0    1.40    0.30
  12  -3   0    1.20    1.10
  12   3   1   82.19    3.20
 -12   3  -1   85.99    3.00
 -12   3  -1   83.39    3.10
 -12   3  -1   83.49    6.20
  12   3   1   77.59    3.20
  12  -3   1   85.09    3.20
 -12  -3  -1   83.09    3.20
  12  -3   1   82.69    3.30
 -12  -3  -1   79.79    3.20
 -12  -3  -1   79.89    3.00
  12  -3   1   86.39    6.60
  12  -3   1   84.39    3.00
  12   3   2  133.69    4.80
  12   3   2  128.79    4.70
 -12   3  -2  129.59    4.60
 -12   3  -2  130.79    4.50
 -12   3  -2  120.49    8.40
 -12  -3  -2  126.99    4.70
  12  -3   2  123.09    4.80
 -12  -3  -2  125.99    4.60
  12  -3   2  128.79    8.50
 -12  -3  -2  129.19    4.80
  12  -3   2  121.69    4.70
  12  -3   2  126.29    4.60
 -12   3  -3   58.59    5.50
 -12   3  -3   57.09    2.20
 -12   3  -3   52.99    4.60
 -12   3  -3   55.49    2.20
  12   3   3   55.59    2.30
  12   3   3   56.29    2.40
  12  -3   3   56.09    2.40
  12  -3   3   57.09    2.40
  12  -3   3   55.39    2.30
 -12  -3  -3   56.09    2.20
 -12  -3  -3   53.19    2.40
 -12  -3  -3   56.79    2.40
  12   3   4    0.70    0.30
 -12   3  -4    0.90    1.00
 -12   3  -4    1.90    0.30
 -12   3  -4    1.30    0.30
  12   3   4    0.80    0.30
 -12   3  -4   -0.30    0.80
  12  -3   4    1.80    0.40
  12  -3   4    1.40    0.30
  12  -3   4    1.40    0.30
 -12  -3  -4    0.80    0.30
 -12  -3  -4    0.90    0.30
 -12  -3  -4    1.10    0.30
 -12   3  -5   35.60    1.60
  12   3   5   35.00    1.80
 -12   3  -5   31.80    3.80
 -12   3  -5   33.00    4.50
  12   3   5   34.50    1.50
  12   3   5   32.70    1.70
 -12   3  -5   34.80    1.50
  12  -3   5   34.70    1.70
 -12  -3  -5   32.80    1.70
  12  -3   5   35.80    1.80
  12  -3   5   36.20    1.70
 -12  -3  -5   36.40    1.60
 -12   3  -6    0.30    0.20
  12   3   6    0.20    0.30
 -12   3  -6    0.30    0.20
  12   3   6    0.20    0.30
  12   3   6    0.40    0.20
  12  -3   6    0.20    0.30
 -12  -3  -6   -0.10    0.20
 -12  -3  -6    0.20    0.20
  12  -3   6    0.20    0.30
  12  -3   6    0.10    0.20
 -12   4   8   18.90    1.20
 -12   4   8   17.90    1.00
  12   4  -8   18.20    1.00
  12   4  -8   17.30    1.20
 -12   4   8   17.80    1.00
  12  -4  -8   17.80    1.10
 -12  -4   8   18.10    1.20
 -12  -4   8   18.50    1.10
  12  -4  -8   17.30    1.20
  12   4  -7    1.40    0.40
  12   4  -7    1.30    1.30
  12   4  -7    1.30    0.30
 -12   4   7    1.80    0.30
 -12   4   7    1.60    0.40
 -12   4   7    2.10    0.50
 -12  -4   7    1.50    0.40
  12  -4  -7    1.80    0.50
  12  -4  -7    2.00    0.50
 -12  -4   7    1.50    1.10
 -12  -4   7    1.50    0.40
  12   4  -6   24.20    3.10
  12   4  -6   24.70    1.20
 -12   4   6   22.60    1.20
 -12   4   6   23.80    1.20
 -12   4   6   24.90    1.10
  12   4  -6   25.40    1.40
 -12  -4   6   22.90    3.00
  12  -4  -6   24.90    1.20
 -12  -4   6   25.00    1.30
  12  -4  -6   24.90    3.50
  12  -4  -6   25.80    1.50
 -12  -4   6   25.90    1.40
  12  -4  -6   23.00    1.30
 -12   4   5    2.10    1.10
 -12   4   5    2.10    0.40
  12   4  -5    1.70    1.00
  12   4  -5    2.40    0.40
 -12   4   5    2.70    0.40
  12   4  -5    1.90    0.40
 -12   4   5    2.20    0.30
  12  -4  -5    2.00    0.30
  12  -4  -5    2.50    0.50
 -12  -4   5    1.60    0.30
  12  -4  -5    1.60    0.40
 -12  -4   5    1.40    1.10
 -12  -4   5    2.00    0.50
 -12  -4   5    1.60    0.40
  12  -4  -5    0.80    1.10
  12   4  -4   33.40    3.30
  12   4  -4   33.00    1.40
 -12   4   4   32.40    3.60
 -12   4   4   33.10    1.40
 -12   4   4   33.40    1.40
  12   4  -4   31.50    1.60
  12  -4  -4   33.30    1.50
 -12  -4   4   31.90    1.60
  12  -4  -4   33.00    1.60
 -12  -4   4   32.60    3.40
 -12  -4   4   33.80    1.50
  12  -4  -4   34.60    1.70
  12  -4  -4   35.70    4.20
 -12  -4   4   32.00    1.60
 -12   4   3   11.60    0.60
  12   4  -3    8.90    0.70
  12   4  -3    9.60    0.60
  12   4  -3   13.20    2.00
 -12   4   3   10.70    0.60
 -12   4   3   10.10    2.40
  12  -4  -3   10.60    0.80
 -12  -4   3    8.90    0.70
 -12  -4   3    9.30    0.70
  12  -4  -3    8.50    2.30
 -12  -4   3    9.10    0.70
  12  -4  -3   11.90    0.70
  12  -4  -3   11.10    0.90
 -12  -4   3    9.40    1.70
 -12   4   2    1.00    0.20
 -12   4   2    1.40    0.30
  12   4  -2    1.40    0.30
 -12   4   2    1.30    1.10
  12   4  -2    1.80    0.90
  12   4  -2    1.50    0.40
 -12  -4   2    1.40    0.30
 -12  -4   2    1.60    0.40
  12  -4  -2    1.60    0.50
  12  -4  -2    1.30    0.30
 -12  -4   2    1.30    0.30
  12  -4  -2    1.20    0.30
 -12  -4   2    1.70    0.90
  12  -4  -2    0.70    0.90
 -12   4   1   76.89    2.90
  12   4  -1   78.19    3.10
  12   4  -1   82.79    4.40
 -12   4   1   73.39    2.90
 -12   4   1   80.29    5.90
  12  -4  -1   74.69    3.20
  12  -4  -1   77.89    3.10
  12  -4  -1   77.29    3.10
 -12  -4   1   85.29    4.20
 -12  -4   1   78.99    3.10
  12  -4  -1   72.99    6.20
 -12  -4   1   81.49    3.10
 -12  -4   1   80.09    3.10
  12   4   0   42.30    1.90
 -12   4   0   41.30    1.70
 -12   4   0   43.70    4.20
  12   4   0   43.10    1.90
 -12   4   0   42.50    1.70
 -12  -4   0   46.30    1.90
 -12  -4   0   41.80    1.90
  12  -4   0   44.00    1.90
 -12  -4   0   40.90    1.70
  12  -4   0   44.90    1.90
  12  -4   0   43.20    2.00
  12  -4   0   38.40    4.40
 -12   4  -1    2.60    1.20
  12   4   1    0.60    0.20
 -12   4  -1    0.70    0.20
  12   4   1    0.90    0.30
 -12   4  -1    0.50    0.20
  12  -4   1    0.70    0.90
 -12  -4  -1    0.50    0.30
 -12  -4  -1    0.50    0.30
  12  -4   1    0.80    0.30
  12  -4   1    0.70    0.30
 -12  -4  -1    0.80    0.20
  12  -4   1    0.60    0.30
 -12   4  -2   86.19    6.90
 -12   4  -2   87.69    3.20
  12   4   2   87.89    3.40
  12   4   2   82.89    3.30
 -12   4  -2   86.39    3.20
 -12  -4  -2   85.59    3.40
 -12  -4  -2   83.89    3.40
 -12  -4  -2   85.89    3.30
  12  -4   2   82.69    6.70
  12  -4   2   87.09    3.40
  12  -4   2   89.19    3.50
  12   4   3   27.50    1.40
 -12   4  -3   27.80    3.70
 -12   4  -3   34.50    3.50
  12   4   3   31.20    1.50
 -12   4  -3   27.00    1.20
 -12   4  -3   27.90    1.30
  12  -4   3   26.90    1.50
 -12  -4  -3   28.40    1.50
  12  -4   3   27.50    1.40
 -12  -4  -3   27.60    1.40
 -12  -4  -3   25.40    1.30
  12   4   4   60.09    2.50
 -12   4  -4   59.29    2.30
  12   4   4   56.49    2.60
 -12   4  -4   60.59    2.30
 -12   4  -4   58.89    5.20
  12  -4   4   57.79    2.60
 -12  -4  -4   57.29    2.40
 -12  -4  -4   56.99    2.50
  12  -4   4   61.09    2.50
  12  -4   4   61.69    2.50
 -12  -4  -4   59.89    2.60
 -12   4  -5    2.90    1.50
 -12   4  -5    5.50    0.50
 -12   4  -5    4.30    0.50
 -12   4  -5    8.40    2.60
  12   4   5    4.60    0.60
  12   4   5    4.80    0.60
  12   4   5    4.60    0.50
 -12  -4  -5    5.30    0.60
  12  -4   5    5.80    0.60
  12  -4   5    4.90    0.60
 -12  -4  -5    4.90    0.60
  12  -4   5    5.70    0.70
  12   4   6   18.20    1.00
 -12   4  -6   19.60    1.00
  12   4   6   16.90    1.20
 -12   4  -6   18.10    1.00
  12   4   6   17.90    1.10
 -12  -4  -6   18.20    1.10
  12  -4   6   17.40    1.20
  12  -4   6   17.20    1.10
 -12  -4  -6   17.30    1.20
  12  -4   6   18.30    1.20
  12   5  -8    0.20    0.40
  12   5  -8    0.30    0.30
 -12   5   8    0.20    0.20
 -12   5   8    0.50    0.20
 -12  -5   8    0.00    0.20
  12  -5  -8    0.30    0.40
 -12  -5   8    0.60    0.40
  12  -5  -8    0.00    0.30
 -12   5   7   10.70    0.70
  12   5  -7   11.10    0.80
 -12   5   7   10.00    0.70
  12   5  -7   11.40    2.60
  12   5  -7    8.90    0.80
 -12  -5   7    9.90    0.80
  12  -5  -7    4.60    2.10
 -12  -5   7   10.10    0.90
  12  -5  -7   10.50    0.80
  12  -5  -7   11.30    1.00
 -12   5   6   11.80    0.70
  12   5  -6   11.00    0.70
  12   5  -6   10.70    0.90
  12   5  -6   12.80    2.50
 -12   5   6    9.40    2.60
 -12   5   6   10.80    0.70
  12  -5  -6   11.40    0.90
 -12  -5   6   10.50    0.80
 -12  -5   6   11.30    0.90
  12  -5  -6   11.70    1.00
  12  -5  -6   10.80    2.80
 -12   5   5   44.50    1.90
  12   5  -5   45.70    4.20
 -12   5   5   45.90    4.40
  12   5  -5   46.60    1.90
 -12   5   5   45.80    1.90
  12   5  -5   49.90    2.10
  12  -5  -5   44.60    2.20
 -12  -5   5   47.20    2.10
 -12  -5   5   35.10    4.50
  12  -5  -5   39.00    2.00
  12  -5  -5   42.70    4.90
 -12  -5   5   45.50    2.00
 -12  -5   5   49.20    2.10
  12   5  -4    0.60    0.30
 -12   5   4    0.60    0.20
 -12   5   4    0.80    1.00
 -12   5   4    0.90    0.30
  12   5  -4   -0.90    0.60
  12   5  -4    0.50    0.20
 -12  -5   4    0.40    0.30
  12  -5  -4    0.80    0.20
  12  -5  -4    1.00    1.00
 -12  -5   4    0.60    0.30
 -12  -5   4    0.40    0.30
  12  -5  -4    0.80    0.40
 -12  -5   4   -0.50    0.70
  12  -5  -4    0.70    0.30
 -12   5   3   63.29    2.50
 -12   5   3   60.49    5.10
 -12   5   3   66.19    2.50
  12   5  -3   66.79    2.50
  12   5  -3   70.89    2.70
  12   5  -3   63.89    4.70
  12  -5  -3   66.79    6.00
  12  -5  -3   70.09    2.90
 -12  -5   3   67.59    2.70
  12  -5  -3   68.09    2.70
  12  -5  -3   64.79    2.70
 -12  -5   3   66.89    4.80
 -12  -5   3   59.49    2.70
 -12  -5   3   65.99    2.80
 -12   5   2    2.20    0.30
 -12   5   2    2.10    1.30
  12   5  -2    1.80    0.30
  12   5  -2    2.20    0.90
 -12   5   2    2.20    0.30
  12   5  -2    2.20    0.50
 -12  -5   2    1.20    0.30
 -12  -5   2    1.80    0.40
 -12  -5   2    1.70    0.40
  12  -5  -2    2.40    0.40
  12  -5  -2    2.10    0.50
 -12  -5   2    2.50    1.00
  12  -5  -2    1.70    0.40
  12  -5  -2    1.00    1.30
 -12   5   1  114.19    4.10
 -12   5   1  111.69    7.40
 -12   5   1  113.49    4.20
  12   5  -1  116.49    4.40
 -12  -5   1  113.49    4.40
  12  -5  -1  113.59    4.40
 -12  -5   1  110.99    4.20
  12  -5  -1  109.99    8.20
  12  -5  -1  117.59    4.50
 -12  -5   1  115.49    4.40
  12  -5  -1  116.39    4.40
 -12  -5   1  115.09    4.40
  12   5   0   46.20    2.00
 -12   5   0   43.60    1.80
  12   5   0   44.10    1.90
 -12   5   0   44.10    1.70
 -12   5   0   43.80    4.30
 -12  -5   0   44.50    2.00
  12  -5   0   45.50    2.00
  12  -5   0   44.60    4.80
  12  -5   0   44.30    2.00
  12  -5   0   43.40    2.00
 -12  -5   0   42.20    2.00
 -12  -5   0   41.20    1.80
 -12   5  -1   22.80    3.30
  12   5   1   23.30    1.20
 -12   5  -1   23.10    1.00
 -12   5  -1   22.90    1.10
  12   5   1   21.20    1.20
  12  -5   1   23.40    1.30
 -12  -5  -1   20.80    1.20
 -12  -5  -1   21.30    1.20
 -12  -5  -1   22.10    1.20
  12  -5   1   22.40    3.60
  12  -5   1   23.20    1.30
  12  -5   1   23.20    1.30
  12   5   2    6.10    0.60
  12   5   2    5.10    0.50
 -12   5  -2    3.90    2.00
 -12   5  -2    4.50    0.50
  12  -5   2    4.30    0.50
  12  -5   2    4.10    0.60
 -12  -5  -2    5.30    0.60
 -12  -5  -2    5.10    0.50
 -12  -5  -2    4.80    0.60
  12   5   3   19.70    1.20
  12   5   3   20.10    1.20
 -12   5  -3   18.40    2.90
 -12   5  -3   21.50    1.10
 -12   5  -3   20.50    1.00
 -12   5  -3   26.20    3.60
  12  -5   3   23.50    1.20
 -12  -5  -3   19.50    1.10
 -12  -5  -3   18.90    1.20
  12  -5   3   21.60    1.30
  12   5   4    4.40    0.60
 -12   5  -4    4.00    0.50
 -12   5  -4    3.90    0.40
 -12   5  -4    6.50    2.20
  12   5   4    4.90    0.60
 -12   5  -4    4.20    1.60
 -12  -5  -4    4.80    0.60
  12  -5   4    3.90    0.50
 -12  -5  -4    4.20    0.50
  12  -5   4    4.00    0.60
 -12  -5  -4    3.60    0.60
 -12   5  -5    9.90    0.70
  12   5   5   10.70    0.70
 -12   5  -5   10.20    0.70
  12   5   5   10.10    0.90
  12   5   5    9.50    0.80
 -12  -5  -5   10.10    0.80
  12  -5   5   10.10    0.80
 -12  -5  -5   10.20    0.90
  12  -5   5    9.10    0.90
 -12   5  -6    2.10    0.40
  12   5   6    1.70    0.40
 -12   5  -6    2.00    0.40
  12   5   6    2.20    0.60
  12   5   6    1.50    0.40
  12  -5   6    1.80    0.40
 -12  -5  -6    2.40    0.60
 -12  -5  -6    1.10    0.40
  12  -5   6    2.40    0.50
 -12   6   7    6.20    0.60
  12   6  -7    2.20    2.10
  12   6  -7    6.30    0.60
 -12   6   7    5.80    0.60
  12   6  -7    5.80    0.70
  12  -6  -7    5.10    0.80
 -12  -6   7    4.40    0.70
  12  -6  -7    5.70    0.70
 -12  -6   7    5.20    0.70
 -12   6   6   23.80    1.20
  12   6  -6   23.90    1.40
 -12   6   6   23.20    1.20
  12   6  -6   21.10    3.60
  12   6  -6   22.90    1.20
 -12  -6   6   23.90    1.40
  12  -6  -6   22.90    1.30
 -12  -6   6   21.50    1.30
  12  -6  -6   20.40    4.20
  12  -6  -6   21.40    1.50
  12   6  -5    0.90    0.40
 -12   6   5    0.30    0.20
 -12   6   5    0.80    0.30
  12   6  -5   -0.80    1.10
  12   6  -5    0.70    0.30
 -12   6   5    0.70    1.00
  12  -6  -5    0.60    0.30
 -12  -6   5    0.70    0.50
  12  -6  -5   -0.60    1.30
 -12  -6   5    1.30    0.40
  12  -6  -5    0.80    0.50
 -12  -6   5    0.70    0.30
  12   6  -4   19.20    2.80
  12   6  -4   22.60    1.10
 -12   6   4   20.50    1.10
  12   6  -4   23.00    1.30
 -12   6   4   21.40    1.10
 -12   6   4   19.00    3.00
 -12  -6   4   23.50    1.30
  12  -6  -4   23.40    3.70
  12  -6  -4   20.90    1.40
 -12  -6   4   20.00    1.20
  12  -6  -4   20.20    1.20
 -12  -6   4   23.00    1.30
  12   6  -3    4.60    0.40
  12   6  -3    4.10    1.50
 -12   6   3    5.60    0.50
  12   6  -3    5.00    0.60
  12  -6  -3    6.60    0.50
 -12  -6   3    5.10    0.60
  12  -6  -3    5.60    0.70
 -12  -6   3    4.70    0.60
 -12  -6   3    4.80    0.60
 -12  -6   3    2.90    1.80
  12  -6  -3    4.10    1.90
  12  -6  -3    5.60    0.60
  12   6  -2   27.80    1.40
  12   6  -2   29.70    3.20
 -12   6   2   27.00    1.30
  12   6  -2   26.60    2.60
 -12   6   2   24.80    3.30
 -12   6   2   29.10    1.30
  12  -6  -2   28.90    1.40
  12  -6  -2   29.20    4.10
  12  -6  -2   30.10    1.60
 -12  -6   2   25.30    1.40
 -12  -6   2   26.80    1.50
 -12  -6   2   27.30    1.50
  12  -6  -2   27.70    1.40
  12   6  -1   18.90    1.10
 -12   6   1   19.40    3.00
 -12   6   1   19.80    1.00
 -12   6   1   19.80    1.00
  12  -6  -1   19.40    3.50
  12  -6  -1   17.40    1.10
  12  -6  -1   19.30    1.30
 -12  -6   1   21.90    1.20
  12  -6  -1   19.50    1.10
 -12  -6   1   21.20    1.20
  12   6   0   25.30    1.30
 -12   6   0   19.10    3.00
  12   6   0   25.90    1.30
 -12   6   0   22.40    1.10
 -12   6   0   24.00    1.10
  12  -6   0   23.20    1.30
  12  -6   0   24.60    3.90
 -12  -6   0   24.60    1.40
  12  -6   0   23.80    1.40
 -12  -6   0   25.20    1.30
 -12  -6   0   24.40    1.30
  12  -6   0   23.60    1.30
  12   6   1    5.20    0.60
 -12   6  -1    5.50    0.40
  12   6   1    6.20    0.60
 -12   6  -1    5.50    0.50
  12  -6   1    3.50    1.90
 -12  -6  -1    4.70    0.60
 -12  -6  -1    6.50    0.60
 -12  -6  -1    6.30    0.60
  12  -6   1    5.50    0.60
  12  -6   1    5.80    0.60
  12  -6   1    6.60    0.70
  12   6   2   26.40    1.40
  12   6   2   26.00    1.40
 -12   6  -2   32.00    4.30
 -12   6  -2   29.80    1.30
 -12   6  -2   26.90    3.40
 -12  -6  -2   23.90    1.40
 -12  -6  -2   25.70    1.50
  12  -6   2   30.10    1.50
  12  -6   2   29.80    1.50
  12  -6   2   30.20    1.60
 -12  -6  -2   27.50    1.50
 -12   6  -3    1.50    1.40
 -12   6  -3    3.00    0.50
  12   6   3    2.90    0.50
 -12   6  -3    2.60    0.40
  12   6   3    2.60    0.50
 -12  -6  -3    3.00    0.60
 -12  -6  -3    1.90    0.40
  12  -6   3    2.80    0.50
 -12  -6  -3    2.20    0.50
  12  -6   3    2.50    0.50
 -12   6  -4   15.60    0.90
 -12   6  -4   15.50    0.90
  12   6   4   14.90    1.10
  12   6   4   16.20    1.00
 -12  -6  -4   14.70    1.00
 -12  -6  -4   14.50    1.00
  12  -6   4   14.30    1.10
  12  -6   4   15.80    1.00
 -12  -6  -4   15.80    1.10
  12   6   5    0.50    0.30
 -12   6  -5    0.10    0.20
  12   6   5    0.70    0.30
 -12   6  -5    0.40    0.20
  12  -6   5    0.30    0.30
 -12  -6  -5    0.40    0.30
 -12  -6  -5    0.60    0.40
  12  -6   5    0.60    0.30
 -12   7   6    4.20    0.50
  12   7  -6    3.30    0.50
  12   7  -6    3.60    0.60
 -12   7   6    3.00    0.50
 -12  -7   6    2.30    0.50
 -12  -7   6    3.70    0.60
  12  -7  -6    3.20    0.70
  12  -7  -6    3.20    0.60
 -12   7   5    9.50    0.70
  12   7  -5    8.40    0.80
  12   7  -5   10.10    0.70
 -12   7   5    9.10    0.70
 -12  -7   5    8.60    0.80
  12  -7  -5    8.90    0.80
  12  -7  -5    6.70    4.60
 -12  -7   5    7.90    0.80
  12  -7  -5    7.90    0.90
 -12   7   4    1.70    0.30
 -12   7   4    2.20    0.40
  12   7  -4    1.20    0.30
  12   7  -4    1.50    0.50
 -12  -7   4    1.60    0.40
 -12  -7   4    1.70    0.50
  12  -7  -4    1.60    0.50
  12  -7  -4    1.50    0.50
 -12  -7   4    1.40    0.50
  12  -7  -4    3.30    1.90
  12   7  -3   34.50    1.70
 -12   7   3   30.60    3.70
 -12   7   3   32.70    1.50
 -12   7   3   33.70    1.50
  12  -7  -3   26.70    4.40
 -12  -7   3   34.50    1.70
  12  -7  -3   33.20    1.90
 -12  -7   3   38.50    1.90
 -12  -7   3   34.70    1.80
  12  -7  -3   35.80    1.80
 -12   7   2    1.20    0.30
 -12   7   2    0.80    0.30
 -12   7   2    1.30    1.20
  12   7  -2    0.90    0.30
  12  -7  -2    0.90    0.50
 -12  -7   2    0.50    0.30
  12  -7  -2    0.10    1.20
  12  -7  -2    0.70    0.30
 -12  -7   2    0.80    0.30
  12  -7  -2    0.80    0.40
 -12  -7   2    0.40    0.30
 -12   7   1   30.50    3.90
 -12   7   1   33.20    1.40
  12   7  -1   32.30    1.60
 -12   7   1   31.50    1.40
  12   7  -1   33.20    1.60
  12  -7  -1   31.50    1.60
  12  -7  -1   29.10    4.50
  12  -7  -1   33.40    1.80
  12  -7  -1   33.00    1.60
 -12  -7   1   34.30    1.80
 -12  -7   1   30.80    1.60
 -12   7   0    6.50    0.50
 -12   7   0    6.80    0.50
  12   7   0    7.00    0.70
  12   7   0    7.60    0.70
  12  -7   0    6.10    2.50
 -12  -7   0    6.80    0.70
  12  -7   0    6.90    0.80
 -12  -7   0    5.30    0.60
 -12  -7   0    7.60    0.70
  12  -7   0    6.10    0.70
  12  -7   0    5.30    0.60
 -12   7  -1    9.50    2.60
 -12   7  -1   13.50    0.80
  12   7   1   12.50    0.90
  12   7   1   11.80    0.90
 -12  -7  -1   11.60    0.90
  12  -7   1   12.40    1.00
  12  -7   1   14.30    1.00
  12  -7   1   13.00    0.90
  12  -7   1   12.70    3.40
 -12  -7  -1   11.40    0.90
 -12  -7  -1   11.40    0.90
 -12   7  -2    3.50    0.50
  12   7   2    4.40    0.60
  12   7   2    4.00    0.50
  12  -7   2    4.20    0.60
  12  -7   2    4.60    0.60
 -12  -7  -2    4.30    0.60
 -12  -7  -2    4.40    0.60
 -12  -7  -2    3.60    0.60
  12  -7   2    4.10    0.70
 -12   7  -3    4.70    0.50
  12   7   3    4.00    0.60
  12   7   3    3.60    0.50
 -12   7  -3    4.10    0.50
  12  -7   3    3.50    0.50
  12  -7   3    3.60    0.60
 -12  -7  -3    4.00    0.60
 -12  -7  -3    4.70    0.60
 -12  -7  -3    4.40    0.60
  12   7   4    1.40    0.40
 -12   7  -4    1.10    0.30
 -12   7  -4    0.80    0.40
 -12  -7  -4    1.00    0.40
  12  -7   4    0.90    0.40
  12  -7   4    1.00    0.40
 -12  -7  -4    1.90    0.60
 -12  -7  -4    1.20    0.40
 -12   8   5    0.30    0.20
  12   8  -5    0.20    0.30
 -12   8   5    0.40    0.30
 -12  -8   5   -0.10    0.30
  12  -8  -5    1.30    0.60
  12  -8  -5    0.20    0.30
 -12  -8   5    0.30    0.30
 -12   8   4   13.80    0.90
  12   8  -4   14.40    1.00
 -12   8   4   12.90    0.80
  12  -8  -4   15.70    1.10
 -12  -8   4   14.10    1.10
 -12  -8   4   15.10    1.10
  12  -8  -4   12.90    1.20
 -12  -8   4   12.10    1.10
 -12   8   3    0.30    0.20
  12   8  -3    0.00    0.30
 -12   8   3    0.10    0.20
 -12  -8   3    0.20    0.30
  12  -8  -3    0.10    0.40
  12  -8  -3    0.30    0.30
 -12  -8   3   -0.20    0.30
 -12  -8   3    0.10    0.30
 -12   8   2   20.10    1.10
 -12   8   2   20.10    1.10
  12   8  -2   19.90    1.20
 -12  -8   2   21.70    1.40
  12  -8  -2   21.10    1.40
  12  -8  -2   19.80    1.20
 -12  -8   2   20.70    1.30
  12   8  -1    0.50    0.30
  12   8  -1    0.20    0.30
 -12   8   1    0.30    0.20
 -12   8   1    0.50    0.20
 -12  -8   1    0.80    0.40
  12  -8  -1   -0.10    0.30
 -12  -8   1    0.30    0.30
  12  -8  -1    0.50    0.30
  12  -8  -1    0.50    0.30
 -12   8   0   11.50    0.70
  12   8   0   10.60    0.80
 -12   8   0   10.00    0.70
  12   8   0   11.40    0.90
 -12  -8   0    9.70    0.90
 -12  -8   0    9.40    0.90
  12  -8   0   10.90    0.90
  12  -8   0    9.90    0.90
  12  -8   0   11.20    1.00
 -12   8  -1    0.20    0.20
  12   8   1    0.20    0.30
  12   8   1    0.20    0.30
  12  -8   1    0.20    0.40
 -12  -8  -1    0.30    0.30
 -12  -8  -1    0.50    0.40
  12  -8   1    0.20    0.30
  12  -8   1   -0.30    0.20
  12   8   2   10.00    0.80
  12   8   2    9.00    0.80
 -12   8  -2    9.10    0.70
 -12  -8  -2    8.70    0.80
 -12  -8  -2    8.20    0.90
 -12  -8  -2    9.20    0.90
  12  -8   2   10.70    0.90
  12  -8   2    8.90    0.80
  12  -8   2    9.40    0.90
  12   9  -2    0.10    0.30
  12   9  -2    0.00    0.30
 -12   9   2    0.10    0.20
 -12   9   2    0.00    0.20
  12  -9  -2    0.20    0.30
 -12  -9   2    0.00    0.30
  12  -9  -2    0.00    0.40
 -12  -9   2    0.10    0.30
  12   9  -1   10.50    0.90
 -12   9   1   11.20    0.80
  12   9  -1   10.70    0.90
 -12   9   1   10.70    0.70
  12  -9  -1   11.10    0.90
 -12  -9   1   10.00    0.90
  12  -9  -1    9.90    1.00
 -12  -9   1   11.00    1.00
  12   9   0    0.00    0.30
  12   9   0    0.80    0.40
 -12   9   0    0.30    0.30
 -12   9   0    0.70    0.30
  12  -9   0    0.60    0.50
 -12  -9   0    0.40    0.30
 -12  -9   0    0.90    0.40
  12  -9   0    0.20    0.30
 -13   0   9    0.00    0.20
  13   0  -9   -0.50    0.20
  13   0  -9    0.10    0.30
 -13   0   9    0.10    0.30
 -13   0   8   12.80    1.00
  13   0  -8   15.50    1.00
  13   0  -8   10.10    2.60
  13   0  -8   13.90    0.90
 -13   0   8   13.20    0.90
  13   0  -7   -0.10    0.20
 -13   0   7   -0.10    0.20
  13   0  -7   -0.60    0.80
 -13   0   7    0.00    0.20
  13   0  -7    0.00    0.20
  13   0  -7    0.00    0.20
 -13   0   7   -0.40    0.90
 -13   0   6   60.99    2.50
  13   0  -6   67.09    2.70
 -13   0   6   66.59    5.20
  13   0  -6   58.59    5.10
 -13   0   6   67.09    2.70
 -13   0   6   64.69    2.40
  13   0  -6   65.69    2.60
  13   0  -6   66.09    2.60
  13   0  -5    0.50    0.30
 -13   0   5    0.40    0.70
 -13   0   5    0.70    0.30
 -13   0   5    0.30    0.20
  13   0  -5    0.70    0.30
  13   0  -5    0.40    0.20
 -13   0   5    0.40    0.20
 -13   0   4  114.69    4.10
  13   0  -4  115.59    4.20
  13   0  -4  120.59    7.20
 -13   0   4  111.19    4.30
  13   0  -4  115.09    4.30
 -13   0   4  121.29    7.10
  13   0  -4  115.69    4.20
 -13   0   4  116.39    4.20
  13   0  -3    0.40    0.20
 -13   0   3    0.70    0.20
  13   0  -3    0.80    0.30
 -13   0   3    1.10    0.70
 -13   0   3    0.60    0.20
 -13   0   3    0.70    0.20
  13   0  -3    0.80    0.80
  13   0  -3    0.60    0.20
  13   0  -2  262.47   12.50
 -13   0   2  265.37    9.00
 -13   0   2  256.47   12.00
 -13   0   2  259.87    9.10
  13   0  -2  270.57    9.10
  13   0  -2  252.17    9.10
 -13   0   2  250.47    8.80
 -13   0   1    1.60    0.30
 -13   0   1    1.90    0.30
  13   0  -1    2.10    0.30
 -13   0   1    1.60    0.20
  13   0  -1    0.60    0.80
  13   0  -1    1.80    0.30
  13   0  -1    2.20    0.40
 -13   0   1    2.00    0.90
  13   0   0   15.10    0.70
 -13   0   0   13.20    0.70
  13   0   0   11.80    2.10
  13   0   0   13.90    0.80
 -13   0   0   14.80    2.10
 -13   0   0   12.80    0.70
 -13   0   0   13.40    0.60
  13   0   0   12.80    0.80
  13   0   1    0.50    0.30
  13   0   1    0.10    0.20
  13   0   1    0.30    0.20
 -13   0  -1    0.30    0.20
 -13   0  -1    0.20    0.10
 -13   0  -1    0.90    0.90
  13   0   1   -0.30    0.50
 -13   0  -1    0.10    0.20
  13   0   2  678.23   23.20
 -13   0  -2  683.83   27.00
 -13   0  -2  693.93   26.20
 -13   0  -2  670.03   23.20
 -13   0  -3    0.10    0.20
  13   0   3    0.20    0.20
 -13   0  -3    0.00    0.50
  13   0   3    0.00    0.20
 -13   0  -3    0.30    0.20
  13   0   3    0.30    0.20
 -13   0  -3    0.10    0.10
 -13   0  -3    0.80    1.10
 -13   0  -4   27.00    1.30
 -13   0  -4   28.00    3.70
  13   0   4   26.40    1.30
 -13   0  -4   27.50    1.20
  13   0   4   27.20    1.40
 -13   0  -4   27.40    3.10
  13   0   4   26.00    1.50
  13   0   5   -0.10    0.20
  13   0   5    0.00    0.20
  13   0   5    0.10    0.20
 -13   0  -5   -0.10    0.20
 -13   0  -5    0.30    0.20
  13   0   6   33.50    1.70
  13   0   6   32.20    1.70
 -13   0  -6   33.60    1.60
 -13   0  -6   32.30    1.50
 -13   0  -7    0.00    0.20
 -13   0  -7    0.30    0.30
  13   0   7   -0.10    0.30
  13   0   7    0.00    0.30
 -13   1   9   11.80    1.00
  13   1  -9   11.60    1.00
  13   1  -9   12.30    0.80
 -13   1   9   11.10    0.80
 -13  -1   9   13.10    1.00
  13  -1  -9   12.80    1.00
  13  -1  -9   12.60    0.90
 -13  -1   9   10.70    0.80
  13  -1  -9   12.60    1.00
 -13   1   8    1.00    0.30
  13   1  -8    1.50    0.40
 -13   1   8    1.10    0.40
  13   1  -8   -0.60    1.30
  13   1  -8    0.90    0.30
  13  -1  -8    1.20    0.40
 -13  -1   8    1.30    0.40
 -13  -1   8    1.50    0.40
  13  -1  -8    1.30    0.40
  13  -1  -8    1.10    1.40
  13  -1  -8    1.80    0.50
  13   1  -7   12.00    0.80
 -13   1   7   13.70    0.80
 -13   1   7    8.90    2.10
 -13   1   7   12.20    0.80
 -13   1   7   12.60    0.90
  13   1  -7   12.40    0.90
  13   1  -7   11.00    2.50
  13  -1  -7   13.30    0.90
 -13  -1   7   12.00    0.90
 -13  -1   7   12.00    0.80
  13  -1  -7   12.90    2.60
 -13  -1   7   13.20    2.40
  13  -1  -7   13.80    0.90
  13  -1  -7   12.10    0.80
 -13   1   6   15.00    0.90
  13   1  -6   13.40    2.30
 -13   1   6   17.90    2.60
  13   1  -6   15.80    1.00
  13   1  -6   14.70    0.90
 -13   1   6   14.10    0.80
 -13   1   6   16.80    1.00
 -13  -1   6   15.90    2.50
 -13  -1   6   14.00    1.00
  13  -1  -6   17.50    1.00
 -13  -1   6   14.00    0.90
  13  -1  -6   16.90    0.90
  13  -1  -6   12.60    0.90
 -13  -1   6   14.50    0.70
  13  -1  -6   15.50    2.70
 -13   1   5   54.49    2.10
 -13   1   5   58.19    4.80
  13   1  -5   57.29    2.30
  13   1  -5   50.39    4.50
  13   1  -5   54.59    2.20
 -13   1   5   54.79    2.20
 -13   1   5   51.59    2.20
 -13  -1   5   51.09    2.20
  13  -1  -5   56.69    2.30
 -13  -1   5   53.99    2.10
  13  -1  -5   52.99    2.20
  13  -1  -5   52.49    4.70
 -13  -1   5   56.19    2.30
  13  -1  -5   53.59    2.20
 -13  -1   5   54.39    4.50
 -13   1   4   54.69    2.20
 -13   1   4   57.09    2.20
  13   1  -4   58.49    2.20
 -13   1   4   54.29    2.30
 -13   1   4   55.49    4.60
  13   1  -4   58.29    4.70
  13   1  -4   58.39    2.40
 -13  -1   4   57.49    2.20
  13  -1  -4   57.39    2.30
  13  -1  -4   53.99    2.30
  13  -1  -4   54.69    2.30
 -13  -1   4   58.59    4.50
  13  -1  -4   51.39    4.70
 -13  -1   4   57.59    2.30
 -13  -1   4   58.39    2.40
 -13   1   3  125.39    4.40
  13   1  -3  121.69    4.50
 -13   1   3  107.49    7.00
  13   1  -3  124.09    4.40
 -13   1   3  121.59    4.40
 -13   1   3  121.49    4.40
  13   1  -3  116.09    7.00
 -13  -1   3  118.69    4.30
 -13  -1   3  116.29    4.40
  13  -1  -3  122.89    7.50
  13  -1  -3  124.29    4.50
  13  -1  -3  125.59    4.50
  13  -1  -3  121.79    4.50
 -13  -1   3  128.59    7.10
 -13  -1   3  121.29    4.50
 -13   1   2   19.70    0.90
  13   1  -2   17.50    0.90
 -13   1   2   21.10    0.90
  13   1  -2   16.10    2.30
 -13   1   2   20.60    0.90
  13   1  -2   15.50    1.00
 -13   1   2   19.30    2.50
 -13  -1   2   17.40    0.90
  13  -1  -2   21.20    1.00
  13  -1  -2   19.70    2.80
 -13  -1   2   15.40    0.90
  13  -1  -2   20.70    1.00
  13  -1  -2   19.90    1.00
 -13  -1   2   17.20    2.20
 -13  -1   2   15.50    0.90
 -13   1   1  250.17    8.90
  13   1  -1  253.57    9.10
  13   1  -1  261.07   12.20
 -13   1   1  252.87    8.90
  13   1  -1  249.38    8.90
 -13   1   1  257.87   12.00
 -13  -1   1  253.47    8.70
  13  -1  -1  264.27    8.90
  13  -1  -1  240.48   12.50
 -13  -1   1  258.27    8.90
  13  -1  -1  252.77    9.00
  13  -1  -1  262.77    9.00
 -13  -1   1  270.77   11.60
 -13  -1   1  259.67    9.00
  13   1   0  129.59    4.40
 -13   1   0  120.29    4.40
 -13   1   0  122.69    4.30
  13   1   0  123.89    4.50
 -13   1   0  112.79    6.90
  13   1   0  124.79    7.30
  13   1   0  126.69    4.50
 -13   1   0  122.29    4.40
  13  -1   0  113.09    7.50
  13  -1   0  120.09    4.50
 -13  -1   0  124.89    4.50
  13  -1   0  114.29    4.50
 -13  -1   0  124.69    4.30
  13  -1   0  116.99    4.40
 -13  -1   0  130.99    6.60
  13   1   1  187.78    6.80
 -13   1  -1  193.38    6.80
 -13   1  -1  190.28    6.80
  13   1   1  192.58    6.80
 -13   1  -1  194.78    6.70
  13   1   1  189.38    9.80
  13   1   1  187.28    6.90
 -13   1  -1  199.08   10.10
 -13  -1  -1  205.58    9.20
  13  -1   1  186.08   10.50
 -13  -1  -1  190.08    6.80
 -13  -1  -1  194.98    6.70
  13  -1   1  189.78    7.00
 -13  -1  -1  189.28    6.90
  13  -1   1  198.78    6.90
  13  -1   1  191.38    6.80
 -13   1  -2   21.20    1.00
 -13   1  -2   22.50    1.00
 -13   1  -2   23.60    1.00
  13   1   2   19.40    1.00
  13   1   2   19.80    1.10
  13   1   2   20.30    1.10
 -13   1  -2   22.60    3.00
 -13  -1  -2   19.10    1.10
 -13  -1  -2   18.40    2.10
 -13  -1  -2   22.30    1.00
 -13  -1  -2   22.10    2.50
  13  -1   2   22.30    1.20
  13  -1   2   22.40    1.10
 -13  -1  -2   22.70    1.10
  13  -1   2   22.20    1.10
 -13   1  -3  231.28   12.50
 -13   1  -3  232.38    8.00
  13   1   3  233.38    8.00
  13   1   3  217.18    8.20
 -13   1  -3  236.78   11.30
 -13   1  -3  236.58    8.00
  13   1   3  227.48    8.20
  13  -1   3  225.38    8.10
  13  -1   3  230.28    8.10
 -13  -1  -3  225.78    8.00
  13  -1   3  223.68    8.30
 -13  -1  -3  224.98    8.10
 -13  -1  -3  226.98    8.10
 -13  -1  -3  232.08   10.80
 -13  -1  -3  232.48   11.90
 -13   1  -4    4.00    0.40
  13   1   4    3.50    0.50
 -13   1  -4    3.30    0.40
  13   1   4    3.20    0.50
  13   1   4    3.50    0.40
 -13   1  -4    3.40    1.50
 -13  -1  -4    3.80    1.40
 -13  -1  -4    3.60    0.40
  13  -1   4    3.30    0.50
 -13  -1  -4    3.00    0.40
 -13  -1  -4    3.10    0.40
  13  -1   4    3.60    0.50
  13  -1   4    3.20    0.40
  13   1   5   27.60    1.50
 -13   1  -5   28.30    1.30
 -13   1  -5   25.90    3.30
 -13   1  -5   29.10    1.30
  13   1   5   26.70    1.50
 -13  -1  -5   27.50    1.40
  13  -1   5   29.30    1.50
  13  -1   5   27.80    1.60
 -13  -1  -5   29.30    1.30
  13  -1   5   26.30    1.40
 -13   1  -6    2.90    0.40
  13   1   6    2.60    0.50
 -13   1  -6    2.90    0.40
  13   1   6    2.60    0.50
  13  -1   6    2.50    0.40
  13  -1   6    2.40    0.50
  13  -1   6    2.90    0.60
 -13  -1  -6    3.00    0.40
 -13  -1  -6    2.10    0.40
 -13   2   9    0.00    0.20
  13   2  -9   -0.10    0.30
 -13   2   9    0.10    0.30
  13   2  -9    0.20    0.30
  13  -2  -9    0.20    0.30
 -13  -2   9    0.00    0.30
 -13  -2   9    0.10    0.20
  13  -2  -9   -0.10    0.30
  13  -2  -9    0.10    0.40
  13   2  -8   12.40    0.80
  13   2  -8   10.50    2.60
  13   2  -8   13.60    1.00
 -13   2   8   11.90    1.00
 -13   2   8   11.10    0.80
  13  -2  -8   13.30    1.00
 -13  -2   8   12.40    0.80
  13  -2  -8   10.50    0.80
 -13  -2   8   11.70    0.90
  13  -2  -8   12.20    0.90
  13   2  -7    2.80    0.40
  13   2  -7    1.70    1.40
 -13   2   7    3.20    1.40
  13   2  -7    2.60    0.50
 -13   2   7    3.00    0.40
 -13   2   7    2.80    0.40
 -13   2   7    2.70    0.50
  13  -2  -7    2.70    0.50
 -13  -2   7    2.40    0.40
  13  -2  -7    2.80    0.50
 -13  -2   7    1.40    1.30
  13  -2  -7    2.70    0.50
  13  -2  -7    2.00    1.60
 -13  -2   7    2.40    0.50
  13   2  -6   45.40    1.90
 -13   2   6   44.20    1.80
  13   2  -6   43.00    2.00
 -13   2   6   44.30    1.80
  13   2  -6   46.70    4.30
 -13   2   6   42.10    4.20
 -13   2   6   42.50    2.00
  13  -2  -6   45.00    2.00
 -13  -2   6   49.60    2.00
  13  -2  -6   37.80    4.10
  13  -2  -6   43.80    1.90
  13  -2  -6   44.60    2.00
 -13  -2   6   44.00    2.00
 -13  -2   6   40.30    4.10
 -13  -2   6   43.40    1.90
  13   2  -5    1.10    0.30
 -13   2   5    1.20    0.30
  13   2  -5    2.30    1.20
 -13   2   5    1.40    1.10
 -13   2   5    2.00    0.30
 -13   2   5    1.30    0.30
  13   2  -5    0.90    0.30
 -13  -2   5    1.00    0.30
 -13  -2   5    1.10    0.20
  13  -2  -5    1.50    0.40
 -13  -2   5    0.70    0.30
 -13  -2   5    0.80    0.80
  13  -2  -5    1.40    0.30
  13  -2  -5    1.90    0.40
  13  -2  -5    0.70    1.00
 -13   2   4   19.50    1.00
 -13   2   4   19.20    2.70
  13   2  -4   19.30    2.60
 -13   2   4   19.70    0.90
  13   2  -4   18.00    1.00
 -13   2   4   19.20    0.90
  13   2  -4   18.50    0.90
  13  -2  -4   19.50    1.00
 -13  -2   4   17.40    1.00
 -13  -2   4   17.80    2.40
 -13  -2   4   17.20    1.00
 -13  -2   4   18.80    0.90
  13  -2  -4   19.00    1.00
  13  -2  -4   18.00    1.10
  13  -2  -4   17.20    2.70
 -13   2   3   14.80    2.40
  13   2  -3   18.40    2.50
 -13   2   3   16.00    0.80
  13   2  -3   17.30    1.00
 -13   2   3   14.80    0.80
  13   2  -3   18.10    0.90
 -13   2   3   16.10    0.80
 -13  -2   3   18.50    1.00
  13  -2  -3   16.50    1.00
  13  -2  -3   15.70    1.00
 -13  -2   3   17.00    0.80
  13  -2  -3   16.00    0.90
 -13  -2   3   17.50    2.20
  13  -2  -3   14.70    2.60
 -13  -2   3   16.80    0.90
  13   2  -2  137.59    4.80
 -13   2   2  131.59    7.60
  13   2  -2  132.29    7.30
  13   2  -2  131.69    4.90
 -13   2   2  134.39    4.70
 -13   2   2  133.59    4.70
 -13  -2   2  129.29    7.00
  13  -2  -2  137.09    4.90
 -13  -2   2  132.39    4.80
  13  -2  -2  129.89    4.60
  13  -2  -2  130.29    4.80
 -13  -2   2  131.29    4.80
  13  -2  -2  125.99    4.90
  13  -2  -2  130.19    8.30
 -13  -2   2  135.39    4.90
  13   2  -1    3.40    0.50
  13   2  -1    2.80    0.30
 -13   2   1    3.80    0.40
 -13   2   1    2.60    1.20
 -13   2   1    3.10    0.30
  13   2  -1    1.70    1.00
  13  -2  -1    4.10    0.50
 -13  -2   1    2.80    1.00
 -13  -2   1    2.80    0.30
  13  -2  -1    3.40    0.40
  13  -2  -1    4.60    1.70
  13  -2  -1    4.20    0.50
 -13  -2   1    3.00    0.40
  13  -2  -1    3.70    0.30
 -13  -2   1    3.70    0.40
  13   2   0  131.39    4.60
  13   2   0  129.29    4.70
  13   2   0  128.39    7.00
 -13   2   0  127.19    4.60
 -13   2   0  131.29    7.80
  13   2   0  129.09    4.80
 -13   2   0  130.49    4.60
 -13  -2   0  128.59    4.50
 -13  -2   0  122.19    4.70
  13  -2   0  124.89    8.20
 -13  -2   0  127.19    6.40
 -13  -2   0  134.19    4.80
  13  -2   0  133.39    4.80
  13  -2   0  124.19    4.50
  13  -2   0  135.19    4.80
 -13   2  -1   15.40    0.70
 -13   2  -1   14.50    0.70
  13   2   1   16.90    0.70
  13   2   1   16.30    0.90
 -13   2  -1   14.30    2.40
 -13   2  -1   13.80    0.80
  13  -2   1   15.80    0.90
 -13  -2  -1   15.70    0.70
  13  -2   1   13.60    0.90
 -13  -2  -1   16.20    0.90
 -13  -2  -1   16.50    0.90
 -13  -2  -1   16.80    1.80
  13  -2   1   14.10    0.70
  13  -2   1   14.60    2.60
 -13   2  -2  337.77   15.80
 -13   2  -2  319.07   11.00
  13   2   2  314.67   11.20
  13   2   2  323.47   11.20
 -13   2  -2  316.77   11.00
 -13  -2  -2  326.37   12.90
 -13  -2  -2  317.57   11.00
  13  -2   2  310.77   11.10
 -13  -2  -2  317.87   11.20
 -13  -2  -2  321.67   12.80
  13  -2   2  296.27   11.30
  13  -2   2  322.17   11.20
  13  -2   2  324.77   15.60
 -13  -2  -2  334.57   11.20
 -13   2  -3    8.60    0.60
  13   2   3    9.00    0.70
  13   2   3    9.70    0.80
 -13   2  -3    9.80    2.80
 -13   2  -3   12.30    2.10
 -13   2  -3    9.20    0.60
 -13  -2  -3    9.30    0.70
 -13  -2  -3    8.70    0.60
 -13  -2  -3   10.50    1.50
  13  -2   3   10.40    0.70
  13  -2   3    9.70    0.80
  13  -2   3    9.20    0.70
 -13  -2  -3    8.20    0.70
 -13   2  -4   74.09    2.80
 -13   2  -4   79.29    6.60
  13   2   4   71.99    3.00
  13   2   4   72.89    3.10
 -13   2  -4   72.09    2.80
 -13   2  -4   66.79    5.40
  13  -2   4   70.29    3.00
 -13  -2  -4   74.89    3.00
  13  -2   4   73.49    3.10
  13  -2   4   72.79    2.90
 -13  -2  -4   72.39    2.80
 -13  -2  -4   74.79    3.00
  13   2   5    0.10    0.20
 -13   2  -5    0.00    0.20
  13   2   5    0.20    0.20
 -13   2  -5    0.20    0.20
  13   2   5    0.00    0.20
  13  -2   5   -0.30    0.20
 -13  -2  -5    0.10    0.20
  13  -2   5   -0.10    0.20
  13  -2   5   -0.10    0.20
 -13  -2  -5    0.10    0.20
 -13   2  -6   12.00    0.70
  13   2   6   12.20    0.90
  13   2   6   10.90    0.90
 -13   2  -6   10.40    3.20
 -13   2  -6   11.30    0.80
 -13   2  -6    7.90    2.40
  13  -2   6   11.80    0.90
 -13  -2  -6   12.10    0.80
  13  -2   6   12.60    0.80
  13  -2   6   11.90    1.00
 -13  -2  -6   12.20    0.90
  13   3  -9    8.20    0.70
 -13   3   9    7.00    0.70
 -13   3   9    7.70    0.80
  13   3  -9    7.50    0.80
  13  -3  -9    8.10    0.80
  13  -3  -9    7.70    0.90
 -13  -3   9    7.90    0.70
 -13  -3   9    7.40    0.80
 -13   3   8    4.10    0.50
 -13   3   8    5.30    0.70
  13   3  -8    4.40    0.50
  13   3  -8    2.70    0.60
  13  -3  -8    4.60    0.60
 -13  -3   8    4.00    0.60
 -13  -3   8    4.00    0.50
  13  -3  -8    5.40    0.70
  13   3  -7   15.30    0.90
  13   3  -7   15.70    1.10
 -13   3   7   15.30    1.00
  13   3  -7   18.10    2.80
 -13   3   7   14.80    0.90
 -13   3   7   15.40    0.90
  13  -3  -7   15.10    1.00
 -13  -3   7   18.00    1.00
 -13  -3   7   16.70    1.10
  13  -3  -7   16.20    1.10
  13  -3  -7   16.50    3.00
 -13  -3   7   14.70    2.80
  13  -3  -7   16.20    1.00
  13   3  -6    1.60    1.20
  13   3  -6    1.50    0.40
 -13   3   6    1.90    0.40
 -13   3   6    1.90    0.30
  13   3  -6    1.80    0.40
 -13   3   6    1.60    0.30
 -13   3   6    0.10    0.90
  13  -3  -6    2.20    0.40
 -13  -3   6    2.50    0.40
  13  -3  -6    1.70    0.40
  13  -3  -6    1.60    0.40
  13  -3  -6    1.10    1.20
 -13  -3   6    1.60    1.10
 -13  -3   6    2.20    0.50
 -13   3   5   43.70    1.80
  13   3  -5   44.20    2.00
 -13   3   5   45.70    4.30
 -13   3   5   42.70    1.90
  13   3  -5   42.40    4.00
  13   3  -5   45.10    1.80
 -13   3   5   44.30    1.80
 -13  -3   5   45.10    4.10
  13  -3  -5   44.80    2.10
 -13  -3   5   45.10    1.90
  13  -3  -5   45.80    1.90
  13  -3  -5   45.30    4.50
 -13  -3   5   43.10    2.00
 -13  -3   5   41.70    1.90
  13  -3  -5   43.70    1.90
 -13   3   4    2.20    0.30
 -13   3   4    2.60    0.30
 -13   3   4    3.40    1.40
  13   3  -4    1.40    0.30
  13   3  -4    1.60    1.00
 -13   3   4    2.40    0.30
  13   3  -4    1.70    0.40
  13  -3  -4    2.20    0.40
 -13  -3   4    1.10    0.30
  13  -3  -4    2.50    0.40
  13  -3  -4    2.30    0.50
 -13  -3   4    0.60    0.90
 -13  -3   4    1.90    0.40
  13  -3  -4    2.70    1.30
 -13  -3   4    1.90    0.30
 -13   3   3   61.09    4.90
  13   3  -3   65.19    4.60
  13   3  -3   61.59    2.50
  13   3  -3   63.49    2.40
 -13   3   3   60.59    2.40
 -13   3   3   59.79    2.40
  13  -3  -3   62.29    2.60
 -13  -3   3   64.89    2.60
 -13  -3   3   62.89    2.50
  13  -3  -3   58.39    2.50
  13  -3  -3   57.69    2.50
  13  -3  -3   59.39    5.50
 -13  -3   3   66.59    4.70
 -13  -3   3   63.89    2.50
  13   3  -2   87.89    3.40
 -13   3   2   95.59    6.30
 -13   3   2   85.29    3.20
  13   3  -2   93.29    3.20
 -13   3   2   85.79    3.20
  13   3  -2   84.39    5.40
 -13  -3   2   91.09    3.30
  13  -3  -2   83.29    3.50
 -13  -3   2   87.59    3.40
 -13  -3   2   92.29    3.50
  13  -3  -2   82.99    3.40
 -13  -3   2   85.69    5.30
  13  -3  -2   84.79    3.40
  13  -3  -2   87.19    6.60
 -13   3   1   81.09    5.70
 -13   3   1   74.39    2.80
  13   3  -1   73.19    3.00
  13   3  -1   74.89    2.80
 -13   3   1   74.59    2.80
  13   3  -1   66.89    4.60
  13  -3  -1   73.19    6.00
  13  -3  -1   79.49    3.00
  13  -3  -1   72.79    2.90
 -13  -3   1   71.99    2.90
  13  -3  -1   78.59    3.00
 -13  -3   1   70.69    2.90
 -13  -3   1   76.29    2.90
 -13  -3   1   72.99    4.30
  13   3   0   22.70    1.10
  13   3   0   19.60    2.00
 -13   3   0   20.60    0.90
 -13   3   0   17.90    1.00
  13   3   0   22.10    1.10
 -13   3   0   17.20    2.60
  13  -3   0   18.80    1.10
  13  -3   0   18.10    1.10
  13  -3   0   18.70    1.10
 -13  -3   0   20.60    0.90
 -13  -3   0   21.20    1.10
  13  -3   0   16.90    2.90
 -13   3  -1   54.29    2.00
  13   3   1   50.69    2.20
 -13   3  -1   59.79    5.00
  13   3   1   53.09    2.20
 -13   3  -1   54.19    2.10
 -13   3  -1   52.49    2.10
  13  -3   1   54.59    2.30
 -13  -3  -1   51.99    2.10
 -13  -3  -1   54.29    2.30
  13  -3   1   55.09    2.30
  13  -3   1   56.79    5.30
 -13  -3  -1   55.49    2.30
 -13   3  -2   15.60    0.80
  13   3   2   15.70    0.90
 -13   3  -2   18.00    3.00
 -13   3  -2   16.00    0.80
  13   3   2   16.60    1.00
  13  -3   2   15.90    1.00
 -13  -3  -2   15.10    0.80
 -13  -3  -2   16.30    0.90
  13  -3   2   16.20    0.80
  13  -3   2   17.40    1.00
 -13  -3  -2   15.70    1.00
  13  -3   2   13.90    2.70
  13   3   3   85.29    3.40
 -13   3  -3   84.49    6.80
 -13   3  -3   82.09    3.10
 -13   3  -3   85.49    3.10
 -13   3  -3   81.39    6.00
  13   3   3   81.99    3.30
  13  -3   3   82.49    3.40
 -13  -3  -3   82.59    3.30
  13  -3   3   83.29    3.30
  13  -3   3   87.89    3.30
 -13  -3  -3   80.09    3.30
 -13  -3  -3   83.49    3.20
  13   3   4    7.50    0.70
  13   3   4    6.10    0.70
 -13   3  -4   11.10    2.90
 -13   3  -4    6.90    1.90
 -13   3  -4    7.00    0.50
 -13   3  -4    7.20    0.60
  13  -3   4    8.30    0.70
 -13  -3  -4    6.40    0.60
  13  -3   4    7.50    0.70
  13  -3   4    7.40    0.60
 -13  -3  -4    7.60    0.70
 -13  -3  -4    7.40    0.70
 -13   3  -5   14.30    2.90
 -13   3  -5   22.10    1.10
  13   3   5   22.20    1.30
 -13   3  -5   22.80    1.10
  13   3   5   20.40    1.30
  13   3   5   22.20    1.10
  13  -3   5   21.50    1.30
  13  -3   5   21.50    1.30
 -13  -3  -5   22.00    1.20
  13  -3   5   22.10    1.20
 -13  -3  -5   20.90    1.30
 -13   3  -6    0.40    0.20
 -13   3  -6   -2.50    1.20
 -13   3  -6    0.30    0.20
  13   3   6    0.00    0.20
  13   3   6    0.30    0.30
  13  -3   6    0.00    0.30
  13  -3   6    0.30    0.30
 -13  -3  -6    0.40    0.30
 -13  -3  -6    0.30    0.30
  13  -3   6    0.50    0.30
 -13   4   8   18.20    1.10
  13   4  -8   15.50    1.10
  13   4  -8   14.70    0.90
 -13   4   8   15.50    1.10
 -13   4   8   14.80    0.90
 -13  -4   8   14.40    1.00
  13  -4  -8   15.60    1.20
  13  -4  -8   15.50    1.00
 -13  -4   8   14.60    1.10
  13   4  -7    0.80    0.40
 -13   4   7    0.80    0.40
  13   4  -7    0.80    0.30
 -13   4   7    1.00    0.30
 -13   4   7    0.90    0.30
  13   4  -7    1.20    1.20
  13  -4  -7    1.10    1.50
  13  -4  -7    0.70    0.40
 -13  -4   7    0.80    0.40
 -13  -4   7    1.40    1.20
 -13  -4   7    0.40    0.30
  13  -4  -7    0.60    0.40
 -13   4   6   19.20    2.90
  13   4  -6   16.40    1.10
  13   4  -6   13.80    2.60
  13   4  -6   16.60    0.90
 -13   4   6   15.90    0.90
 -13   4   6   14.50    0.90
 -13   4   6   15.50    0.90
  13  -4  -6   17.00    3.10
  13  -4  -6   14.90    1.10
 -13  -4   6   17.30    2.70
  13  -4  -6   15.20    0.90
 -13  -4   6   17.60    1.10
 -13  -4   6   15.80    1.00
  13  -4  -6   14.70    1.00
 -13   4   5    5.60    1.70
  13   4  -5    4.50    0.50
 -13   4   5    5.90    0.50
  13   4  -5    5.10    0.60
  13   4  -5    5.90    1.80
 -13   4   5    6.70    0.50
  13  -4  -5    6.40    0.60
 -13  -4   5    6.30    1.90
 -13  -4   5    4.80    0.60
  13  -4  -5    8.20    2.70
 -13  -4   5    5.80    0.50
  13  -4  -5    5.50    0.50
 -13  -4   5    4.30    0.50
  13  -4  -5    5.80    0.70
 -13   4   4   19.10    2.80
  13   4  -4   18.90    1.10
  13   4  -4   19.00    2.50
  13   4  -4   20.90    1.00
 -13   4   4   20.90    1.00
 -13   4   4   19.80    1.00
  13  -4  -4   18.90    1.10
 -13  -4   4   21.10    1.10
 -13  -4   4   20.20    2.70
  13  -4  -4   24.60    3.60
 -13  -4   4   20.20    1.20
 -13  -4   4   18.80    1.10
  13  -4  -4   21.50    1.10
  13  -4  -4   21.70    1.30
 -13   4   3   44.80    1.80
  13   4  -3   45.70    2.00
  13   4  -3   50.39    4.00
 -13   4   3   44.50    1.90
  13   4  -3   48.40    1.80
 -13   4   3   42.30    4.10
  13  -4  -3   41.80    2.00
  13  -4  -3   45.60    2.20
 -13  -4   3   48.20    3.90
 -13  -4   3   49.80    2.10
  13  -4  -3   43.60    2.00
 -13  -4   3   48.20    2.00
  13  -4  -3   46.00    4.80
 -13  -4   3   47.20    2.00
  13   4  -2   51.79    2.00
 -13   4   2   48.70    2.00
 -13   4   2   48.70    2.00
 -13   4   2   57.49    4.80
  13   4  -2   49.40    3.80
  13   4  -2   50.89    2.20
 -13  -4   2   53.99    3.80
 -13  -4   2   50.69    2.20
  13  -4  -2   47.80    2.20
  13  -4  -2   49.99    5.10
 -13  -4   2   53.79    2.20
  13  -4  -2   48.80    2.20
 -13  -4   2   51.69    2.10
  13  -4  -2   51.09    2.30
  13   4  -1    2.40    0.90
 -13   4   1    2.20    0.30
  13   4  -1    2.50    0.50
 -13   4   1    3.10    1.40
 -13   4   1    2.10    0.30
  13  -4  -1    1.40    0.40
  13  -4  -1    2.30    0.40
 -13  -4   1    2.50    0.40
 -13  -4   1    2.80    0.40
  13  -4  -1    1.80    0.40
 -13  -4   1    2.40    0.40
 -13  -4   1    3.00    0.90
  13  -4  -1    2.90    1.70
 -13   4   0  152.08    5.40
 -13   4   0  153.18    5.40
  13   4   0  143.89    5.60
 -13   4   0  156.98    9.20
  13   4   0  150.08    5.60
  13  -4   0  154.88    5.60
 -13  -4   0  145.89    5.60
 -13  -4   0  151.48    5.40
  13  -4   0  158.88    5.70
  13  -4   0  159.88    5.70
  13  -4   0  154.48    9.80
 -13   4  -1   14.50    0.80
 -13   4  -1   16.40    0.90
  13   4   1   17.70    1.00
 -13   4  -1   15.50    2.80
  13   4   1   16.90    1.00
  13  -4   1   17.40    3.00
  13  -4   1   16.30    1.00
 -13  -4  -1   16.90    0.90
 -13  -4  -1   19.10    1.10
  13  -4   1   17.00    1.10
  13  -4   1   15.40    1.00
 -13  -4  -1   16.60    1.00
 -13   4  -2  103.69    7.90
  13   4   2  110.39    4.30
 -13   4  -2  111.69    4.10
 -13   4  -2  115.29    4.10
  13   4   2  111.19    4.30
  13  -4   2  119.09    4.40
  13  -4   2  111.79    4.30
  13  -4   2  108.59    8.00
 -13  -4  -2  115.99    4.30
 -13  -4  -2  114.29    4.30
 -13  -4  -2  111.39    4.20
  13   4   3    4.30    0.50
  13   4   3    4.90    0.60
 -13   4  -3    6.70    2.30
 -13   4  -3    5.70    0.50
 -13   4  -3    4.60    0.40
 -13   4  -3    3.50    1.40
 -13  -4  -3    4.70    0.60
  13  -4   3    5.20    0.60
  13  -4   3    5.80    0.60
 -13  -4  -3    4.10    0.50
 -13  -4  -3    5.20    0.60
 -13   4  -4   37.70    1.60
  13   4   4   36.40    1.80
 -13   4  -4   35.20    4.10
 -13   4  -4   36.00    4.60
 -13   4  -4   36.20    1.50
  13   4   4   35.40    1.70
 -13  -4  -4   36.90    1.80
 -13  -4  -4   34.80    1.80
  13  -4   4   36.60    1.70
 -13  -4  -4   35.90    1.70
  13  -4   4   37.10    1.90
  13   4   5    0.70    0.30
 -13   4  -5    1.20    0.30
  13   4   5    1.20    0.40
 -13   4  -5    1.20    0.30
 -13   4  -5    4.10    2.00
 -13  -4  -5    1.60    0.40
  13  -4   5    1.30    0.40
 -13  -4  -5    0.60    0.30
  13  -4   5    1.00    0.30
  13   4   6    9.20    0.90
  13   4   6    9.30    0.70
 -13   4  -6   10.70    0.70
  13   4   6   10.20    0.80
 -13   4  -6   10.80    0.80
 -13  -4  -6   11.10    0.80
  13  -4   6   10.30    0.80
  13  -4   6   11.00    0.90
 -13  -4  -6    9.70    0.90
 -13   5   8    1.00    0.30
  13   5  -8    1.10    0.50
  13   5  -8    0.60    0.30
 -13   5   8    1.30    0.30
 -13  -5   8    0.90    0.40
  13  -5  -8    1.00    0.40
  13  -5  -8    1.60    0.60
 -13  -5   8    1.10    0.40
  13   5  -7    7.00    2.30
 -13   5   7    6.00    0.60
  13   5  -7    5.90    0.60
  13   5  -7    4.90    0.70
 -13   5   7    5.70    0.50
  13  -5  -7    5.10    0.70
 -13  -5   7    6.10    0.70
  13  -5  -7    5.80    0.80
 -13  -5   7    6.00    0.70
 -13   5   6    4.40    0.50
 -13   5   6    5.50    0.50
  13   5  -6    4.40    0.50
  13   5  -6    4.20    1.70
  13   5  -6    4.30    0.60
  13  -5  -6    2.40    1.50
 -13  -5   6    4.00    0.60
  13  -5  -6    6.20    0.80
 -13  -5   6    3.50    0.60
  13  -5  -6    4.40    0.60
  13   5  -5   35.30    1.70
 -13   5   5   30.70    3.70
  13   5  -5   30.20    3.60
 -13   5   5   33.50    1.50
 -13   5   5   33.70    1.50
  13   5  -5   35.00    1.50
  13  -5  -5   27.40    4.30
 -13  -5   5   35.70    1.70
 -13  -5   5   34.90    1.70
  13  -5  -5   33.40    1.80
  13  -5  -5   31.50    1.60
 -13  -5   5   21.50    4.40
 -13  -5   5   36.20    1.70
  13   5  -4    3.50    1.50
  13   5  -4    1.70    0.30
 -13   5   4    1.90    0.30
 -13   5   4    3.50    1.40
  13   5  -4    1.70    0.40
 -13   5   4    1.40    0.30
  13  -5  -4    1.50    0.40
 -13  -5   4    2.10    0.50
 -13  -5   4    2.20    0.40
 -13  -5   4    1.90    1.00
  13  -5  -4    1.10    0.30
  13  -5  -4    1.90    0.50
 -13  -5   4    2.10    0.50
  13  -5  -4    0.40    1.10
 -13   5   3   36.50    1.50
 -13   5   3   36.10    3.90
  13   5  -3   39.30    3.50
 -13   5   3   36.80    1.50
  13   5  -3   36.80    1.50
  13  -5  -3   34.30    1.90
 -13  -5   3   36.10    1.70
 -13  -5   3   35.00    1.70
  13  -5  -3   38.50    1.70
 -13  -5   3   38.00    3.40
 -13  -5   3   34.90    1.70
  13  -5  -3   32.90    4.30
  13  -5  -3   33.50    1.70
  13   5  -2    6.40    0.60
 -13   5   2    5.30    0.50
  13   5  -2    2.50    1.10
 -13   5   2    5.10    1.90
  13   5  -2    6.70    0.40
 -13   5   2    5.50    0.50
 -13  -5   2    7.30    0.70
  13  -5  -2    3.80    1.90
  13  -5  -2    5.40    0.60
  13  -5  -2    5.60    0.70
  13  -5  -2    5.60    0.60
 -13  -5   2    6.50    0.60
 -13  -5   2    7.20    0.70
 -13   5   1   21.30    2.90
 -13   5   1   19.80    1.00
  13   5  -1   19.50    1.20
 -13   5   1   21.10    1.00
  13  -5  -1   20.60    1.10
  13  -5  -1   22.20    1.20
  13  -5  -1   21.10    1.30
 -13  -5   1   20.60    1.20
 -13  -5   1   19.90    1.10
  13  -5  -1   16.70    3.10
  13   5   0   41.70    1.90
 -13   5   0   43.80    1.70
 -13   5   0   44.10    1.80
 -13   5   0   35.20    4.10
  13   5   0   41.70    1.90
 -13  -5   0   43.10    2.00
  13  -5   0   42.70    2.00
  13  -5   0   41.40    2.00
  13  -5   0   44.00    1.90
  13  -5   0   45.30    5.00
 -13  -5   0   43.20    1.80
 -13  -5   0   45.90    2.00
  13   5   1   15.20    1.00
 -13   5  -1   16.10    0.90
 -13   5  -1   16.70    0.80
  13   5   1   14.60    1.00
 -13   5  -1   13.30    2.70
  13  -5   1   15.40    1.10
  13  -5   1   16.50    1.00
 -13  -5  -1   15.80    0.90
 -13  -5  -1   16.50    1.00
  13  -5   1   16.90    1.10
  13  -5   1   17.40    3.20
 -13  -5  -1   15.50    1.00
  13   5   2    0.70    0.30
 -13   5  -2    0.60    0.20
 -13   5  -2    2.70    1.60
  13   5   2    0.70    0.30
 -13   5  -2    0.60    0.30
 -13  -5  -2    1.20    0.40
  13  -5   2    0.70    0.30
 -13  -5  -2    0.70    0.30
 -13  -5  -2    0.70    0.30
  13  -5   2    0.30    0.20
 -13   5  -3   20.10    1.00
 -13   5  -3   21.20    1.10
 -13   5  -3   22.50    3.80
 -13   5  -3   23.90    3.20
  13   5   3   20.40    1.20
  13   5   3   19.40    1.10
 -13  -5  -3   18.80    1.20
  13  -5   3   20.90    1.30
 -13  -5  -3   20.50    1.10
 -13  -5  -3   19.60    1.20
  13  -5   3   21.20    1.20
  13   5   4    0.50    0.30
  13   5   4    0.40    0.30
 -13   5  -4    0.40    0.20
 -13   5  -4   -0.30    1.30
 -13   5  -4    0.80    0.30
 -13  -5  -4    0.20    0.30
 -13  -5  -4    0.60    0.30
  13  -5   4    1.00    0.40
  13  -5   4    0.70    0.30
 -13  -5  -4    0.40    0.30
 -13   5  -5   12.00    0.80
 -13   5  -5   10.20    0.70
  13   5   5   11.20    0.90
  13   5   5   10.40    0.90
 -13  -5  -5   11.30    0.80
  13  -5   5   11.60    0.80
 -13  -5  -5    9.90    0.90
  13  -5   5   11.00    1.00
  13   6  -7    0.80    0.30
 -13   6   7    0.80    0.30
 -13   6   7    0.50    0.30
  13   6  -7    0.50    0.40
 -13  -6   7    0.20    0.30
  13  -6  -7    0.90    0.40
 -13  -6   7    0.60    0.30
  13  -6  -7    0.80    0.50
  13   6  -6   12.70    0.90
  13   6  -6   12.50    1.00
  13   6  -6   14.10    2.70
 -13   6   6   12.80    0.80
 -13   6   6   12.80    0.80
  13  -6  -6   13.80    1.10
 -13  -6   6   11.70    0.90
 -13  -6   6   11.90    0.90
  13  -6  -6   12.40    0.90
 -13   6   5    0.50    0.20
  13   6  -5    0.20    0.30
  13   6  -5    1.00    1.50
  13   6  -5    0.10    0.20
 -13   6   5    0.00    0.20
 -13  -6   5    0.20    0.30
 -13  -6   5    0.10    0.30
 -13  -6   5    0.20    0.30
  13  -6  -5    0.30    0.40
  13  -6  -5    0.00    0.30
  13  -6  -5    0.00    1.50
  13   6  -4   27.50    1.50
 -13   6   4   28.00    3.50
  13   6  -4   28.50    1.30
 -13   6   4   27.50    1.30
 -13   6   4   26.60    1.30
  13   6  -4   23.30    3.30
  13  -6  -4   26.60    1.40
 -13  -6   4   29.50    1.50
 -13  -6   4   28.60    1.50
  13  -6  -4   25.30    3.90
 -13  -6   4   23.40    1.40
  13  -6  -4   27.10    1.60
 -13   6   3   10.90    0.70
 -13   6   3   11.20    2.30
  13   6  -3   11.10    0.70
  13   6  -3   10.70    0.80
 -13   6   3   11.30    0.70
 -13  -6   3   10.90    0.90
  13  -6  -3    7.00    2.50
 -13  -6   3    9.40    0.80
  13  -6  -3    8.90    0.90
  13  -6  -3    9.90    0.70
  13  -6  -3    9.30    0.80
 -13  -6   3   10.80    0.90
  13   6  -2   13.90    0.90
 -13   6   2   13.40    2.50
 -13   6   2   11.40    0.70
 -13   6   2   14.00    0.80
  13  -6  -2   15.00    1.10
  13  -6  -2   16.10    1.00
 -13  -6   2   13.20    1.00
 -13  -6   2   13.70    1.00
 -13  -6   2   13.30    1.00
  13  -6  -2   14.80    0.90
 -13   6   1    2.60    0.30
  13   6  -1    3.30    0.60
 -13   6   1    2.50    0.40
 -13   6   1    2.80    1.20
  13   6  -1    3.20    0.50
  13  -6  -1    2.80    1.90
  13  -6  -1    3.20    0.50
 -13  -6   1    2.90    0.60
 -13  -6   1    3.00    0.50
  13  -6  -1    1.80    0.40
  13  -6  -1    2.80    0.60
  13   6   0   52.89    2.30
 -13   6   0   54.59    2.10
 -13   6   0   54.39    2.10
  13   6   0   49.90    2.20
  13  -6   0   50.59    5.60
 -13  -6   0   50.39    2.40
 -13  -6   0   51.99    2.30
 -13  -6   0   48.80    2.30
  13  -6   0   55.79    2.40
  13  -6   0   54.19    2.40
  13  -6   0   55.79    2.40
 -13   6  -1    9.30    0.60
  13   6   1    9.70    0.70
  13   6   1    9.40    0.80
 -13   6  -1   13.40    2.70
  13  -6   1    9.00    0.80
  13  -6   1    8.50    2.50
  13  -6   1    9.80    0.90
 -13  -6  -1    7.90    0.70
  13  -6   1    9.10    0.80
 -13  -6  -1    9.70    0.80
 -13  -6  -1    8.30    0.70
 -13   6  -2    6.80    2.10
 -13   6  -2    5.60    2.90
  13   6   2   12.30    0.80
 -13   6  -2   12.00    0.80
  13   6   2   12.10    0.90
  13  -6   2   13.00    1.00
 -13  -6  -2   11.50    0.90
 -13  -6  -2   12.40    0.90
 -13  -6  -2   11.70    0.90
  13  -6   2   13.10    0.90
 -13   6  -3    1.80    0.40
  13   6   3    1.30    0.40
  13   6   3    2.10    0.40
 -13   6  -3    2.70    0.40
  13  -6   3    3.00    0.50
  13  -6   3    2.10    0.50
 -13  -6  -3    2.30    0.50
 -13  -6  -3    2.10    0.50
 -13  -6  -3    1.40    0.40
  13   6   4   12.40    1.00
 -13   6  -4   14.10    0.80
 -13   6  -4   13.70    0.90
  13   6   4   13.90    1.00
  13  -6   4   12.80    1.00
 -13  -6  -4   14.60    1.00
 -13  -6  -4   13.90    1.00
 -13  -6  -4   13.60    1.00
 -13   7   6    0.80    0.30
 -13   7   6    0.60    0.30
  13   7  -6    0.50    0.40
  13   7  -6    0.80    0.30
 -13  -7   6    0.50    0.40
  13  -7  -6    0.50    0.40
 -13  -7   6    0.70    0.40
  13  -7  -6    0.40    0.40
 -13   7   5   18.10    1.00
 -13   7   5   17.80    1.00
  13   7  -5   17.50    1.00
  13   7  -5   19.20    1.20
 -13  -7   5   18.80    1.20
  13  -7  -5   17.40    1.30
  13  -7  -5   16.20    1.10
 -13  -7   5   16.90    1.20
 -13   7   4    0.40    0.30
  13   7  -4    0.30    0.30
 -13   7   4    0.40    0.20
 -13  -7   4    0.30    0.30
 -13  -7   4    0.10    0.30
 -13  -7   4    0.20    0.30
  13  -7  -4    0.20    0.40
  13  -7  -4   -1.10    1.70
  13  -7  -4    0.20    0.30
  13   7  -3   27.60    1.50
 -13   7   3   27.10    1.30
 -13   7   3   27.20    1.30
 -13  -7   3   27.00    1.50
  13  -7  -3   29.40    1.70
 -13  -7   3   28.70    1.60
  13  -7  -3   26.80    1.50
 -13  -7   3   26.20    1.50
  13  -7  -3   22.20    4.00
 -13   7   2    8.70    0.60
  13   7  -2    8.10    0.70
 -13   7   2    8.80    0.60
 -13  -7   2    8.60    0.80
 -13  -7   2    8.10    0.80
  13  -7  -2    8.40    0.90
  13  -7  -2    8.60    0.70
 -13  -7   2    8.80    0.80
  13  -7  -2    7.30    0.70
 -13   7   1   11.30    3.80
  13   7  -1   14.10    1.00
 -13   7   1   15.40    0.90
  13   7  -1   15.10    1.00
 -13   7   1   15.40    0.80
  13  -7  -1   14.80    1.00
 -13  -7   1   13.80    1.00
 -13  -7   1   15.20    1.10
  13  -7  -1   15.50    1.10
  13  -7  -1   16.00    1.00
  13  -7  -1   16.80    3.50
 -13   7   0    2.20    0.30
 -13   7   0    2.70    0.40
  13   7   0    3.30    0.60
  13   7   0    3.00    0.50
  13  -7   0    3.50    0.60
  13  -7   0    3.70    0.60
 -13  -7   0    2.60    0.50
  13  -7   0    1.80    1.80
 -13  -7   0    3.60    0.50
  13  -7   0    1.70    0.40
  13   7   1    8.10    0.70
 -13   7  -1    8.20    0.60
  13   7   1    7.30    0.70
 -13  -7  -1    7.80    0.80
  13  -7   1    9.70    0.90
  13  -7   1    7.50    5.20
 -13  -7  -1    6.30    0.70
  13  -7   1    7.20    0.80
  13  -7   1    6.60    0.70
 -13  -7  -1    6.80    0.70
  13   7   2    3.80    0.50
 -13   7  -2    3.50    0.50
  13   7   2    3.60    0.50
 -13  -7  -2    3.20    0.60
  13  -7   2    3.40    0.60
 -13  -7  -2    3.90    0.60
 -13  -7  -2    3.40    0.60
  13  -7   2    3.70    0.60
  13  -7   2    2.80    0.60
  13   7   3    5.30    0.70
 -13   7  -3    5.20    0.50
 -13   7  -3    4.70    0.60
  13   7   3    5.10    0.60
 -13  -7  -3    5.20    0.70
 -13  -7  -3    5.10    0.70
  13  -7   3    4.90    0.60
 -13  -7  -3    4.90    0.60
  13  -7   3    5.30    0.70
 -13   8   4    7.00    0.60
  13   8  -4    6.60    0.80
 -13   8   4    6.80    0.60
 -13  -8   4    6.10    0.80
 -13  -8   4    6.90    0.80
 -13  -8   4    6.60    0.80
  13  -8  -4    7.70    1.00
  13  -8  -4    7.00    0.80
 -13   8   3    2.10    0.40
  13   8  -3    2.40    0.60
 -13   8   3    2.30    0.40
 -13  -8   3    2.90    0.60
 -13  -8   3    3.00    0.70
  13  -8  -3    1.40    0.50
 -13  -8   3    2.20    0.50
  13  -8  -3    2.30    0.50
 -13   8   2    7.60    0.60
  13   8  -2    8.10    0.80
 -13   8   2    8.10    0.60
  13  -8  -2    7.90    0.80
 -13  -8   2    7.40    0.90
  13  -8  -2   10.00    1.00
 -13  -8   2    8.40    0.80
  13   8  -1    0.00    0.30
 -13   8   1    0.30    0.20
 -13   8   1    0.20    0.20
  13   8  -1    0.10    0.30
  13  -8  -1    0.20    0.30
 -13  -8   1    0.10    0.30
  13  -8  -1   -0.10    0.30
  13  -8  -1   -0.20    0.30
  13   8   0    7.50    0.70
 -13   8   0    7.60    0.60
  13   8   0    7.70    0.80
 -13   8   0    7.40    0.60
  13  -8   0    7.90    0.80
  13  -8   0    8.90    0.80
  13  -8   0    8.40    0.90
 -13  -8   0    7.70    0.80
 -13  -8   0    6.80    0.80
 -13   8  -1    0.40    0.30
  13   8   1    0.50    0.30
  13   8   1    0.30    0.30
  13  -8   1    0.50    0.30
 -13  -8  -1    0.50    0.40
 -13  -8  -1    0.30    0.30
  13  -8   1    0.40    0.30
  13  -8   1    0.90    0.50
  13   8   2    3.20    0.50
 -13   8  -2    3.90    0.50
  13   8   2    2.70    0.50
  13  -8   2    3.00    0.60
 -13  -8  -2    2.40    0.60
  13  -8   2    3.40    0.60
 -13  -8  -2    3.80    0.70
 -13  -8  -2    2.90    0.60
  13  -8   2    2.40    0.60
 -14   0   9    0.00    0.30
  14   0  -9    0.20    0.30
 -14   0   9    0.20    0.30
  14   0  -9    0.10    0.30
  14   0  -8    9.10    2.80
  14   0  -8   10.60    0.90
 -14   0   8   10.90    0.80
  14   0  -8   12.30    0.80
 -14   0   8   12.50    1.00
 -14   0   7    0.60    0.20
  14   0  -7    0.20    0.30
 -14   0   7    0.50    1.00
  14   0  -7   -0.30    0.90
 -14   0   7    0.60    0.30
  14   0  -7    0.40    0.30
  14   0  -6    3.90    1.40
 -14   0   6    8.40    0.70
  14   0  -6    8.80    0.70
 -14   0   6    8.70    2.30
 -14   0   6    7.90    0.50
  14   0  -6    7.90    0.70
 -14   0   6    7.80    0.60
  14   0  -5    0.50    0.30
  14   0  -5    0.10    0.70
  14   0  -5    0.10    0.20
 -14   0   5    0.10    0.20
 -14   0   5    0.30    0.20
 -14   0   5    0.20    0.20
  14   0  -5    0.30    0.30
 -14   0   4   93.89    6.30
  14   0  -4   94.69    3.50
  14   0  -4   90.49    3.60
 -14   0   4   94.09    3.60
 -14   0   4   88.69    3.50
  14   0  -4   96.49    6.50
 -14   0   4   93.69    3.40
  14   0  -4   88.09    3.30
  14   0  -3    1.30    1.00
 -14   0   3    0.60    0.80
 -14   0   3    1.80    0.30
 -14   0   3    1.00    0.30
  14   0  -3    1.60    0.40
  14   0  -3    1.20    0.30
 -14   0   3    1.00    0.30
 -14   0   2  102.09    6.40
  14   0  -2  106.19    7.00
 -14   0   2  102.59    3.80
 -14   0   2  101.19    3.80
  14   0  -2  105.69    3.80
  14   0  -2  100.69    3.90
 -14   0   2  101.49    3.70
 -14   0   2   99.59    3.60
  14   0  -1    0.10    0.20
 -14   0   1    0.20    0.20
  14   0  -1    0.10    0.20
 -14   0   1    0.10    0.10
  14   0  -1    0.30    0.20
 -14   0   1    0.10    0.10
  14   0  -1   -0.20    0.60
 -14   0   1   -0.30    0.60
  14   0   0  819.82   32.10
 -14   0   0  826.82   31.20
  14   0   0  803.92   27.80
  14   0   1   -0.10    0.10
 -14   0  -1   -0.30    0.50
  14   0   1   -0.10    0.60
 -14   0  -1    0.00    0.10
  14   0   1    0.00    0.20
 -14   0  -1    0.20    0.20
 -14   0  -1   -0.10    0.10
  14   0   1    0.00    0.20
 -14   0  -2  121.29    4.50
  14   0   2  121.19    4.50
  14   0   2  122.09    4.60
 -14   0  -2  118.29    6.80
 -14   0  -2  121.49    4.30
 -14   0  -2  121.29    7.40
  14   0   2  121.19    4.50
 -14   0  -2  122.89    4.40
  14   0   3    0.10    0.20
  14   0   3    0.00    0.20
 -14   0  -3    0.40    0.60
  14   0   3    0.20    0.20
 -14   0  -3    0.20    0.20
 -14   0  -3   -0.10    0.10
 -14   0  -3    0.10    0.20
  14   0   4   68.79    2.70
 -14   0  -4   63.79    6.10
  14   0   4   69.39    3.00
 -14   0  -4   69.29    2.70
 -14   0  -4   62.29    5.20
  14   0   4   70.09    2.90
 -14   0  -4   68.99    2.60
  14   0   5    0.00    0.20
  14   0   5    0.20    0.30
 -14   0  -5   -0.10    0.20
 -14   0  -5    0.00    0.20
  14   0   5   -0.10    0.20
  14   0   6    4.50    0.60
 -14   0  -6    4.50    0.50
 -14   0  -6    4.70    0.60
  14   0   6    3.80    0.60
 -14   1   9    8.20    0.70
 -14   1   9    8.70    0.90
  14   1  -9   10.00    0.80
  14   1  -9    9.20    0.90
 -14  -1   9    9.50    0.90
 -14  -1   9    8.30    0.70
  14  -1  -9    9.00    0.90
  14  -1  -9    9.40    0.80
  14   1  -8    1.60    0.40
 -14   1   8    2.30    0.50
  14   1  -8    2.50    0.50
  14   1  -8    2.30    2.00
 -14   1   8    1.40    0.30
  14  -1  -8    2.20    0.50
 -14  -1   8    2.30    0.40
  14  -1  -8    2.60    0.50
  14  -1  -8    3.00    0.50
 -14  -1   8    2.90    0.60
 -14   1   7   16.10    1.10
 -14   1   7   16.30    1.00
  14   1  -7   14.90    2.70
  14   1  -7   16.00    1.00
 -14   1   7   20.10    2.80
  14   1  -7   16.60    1.10
 -14  -1   7   17.30    1.10
  14  -1  -7   18.30    1.10
  14  -1  -7   10.70    2.70
 -14  -1   7   18.80    2.80
 -14  -1   7   17.10    1.00
  14  -1  -7   16.50    1.00
  14  -1  -7   18.40    1.00
 -14   1   6    8.80    0.70
 -14   1   6    8.30    2.10
  14   1  -6    4.10    1.50
  14   1  -6    7.90    0.70
 -14   1   6    9.00    0.60
 -14   1   6    8.60    0.60
  14   1  -6    8.20    0.60
 -14  -1   6    9.10    0.80
  14  -1  -6    7.90    0.70
  14  -1  -6   11.20    2.30
  14  -1  -6    8.70    0.70
 -14  -1   6    8.80    0.60
 -14  -1   6    7.10    1.80
 -14  -1   6    8.10    0.50
  14  -1  -6    6.70    0.70
  14   1  -5   85.69    3.30
 -14   1   5   78.89    5.90
  14   1  -5   85.89    3.20
 -14   1   5   86.39    3.30
  14   1  -5   82.69    6.00
 -14   1   5   84.09    3.20
 -14   1   5   80.89    3.10
  14  -1  -5   84.09    3.20
  14  -1  -5   86.49    3.30
 -14  -1   5   83.89    3.10
 -14  -1   5   83.79    3.30
  14  -1  -5   83.19    3.30
  14  -1  -5   79.99    6.10
 -14  -1   5   84.59    6.00
 -14  -1   5   85.09    3.20
 -14   1   4   39.30    1.60
 -14   1   4   37.20    1.60
  14   1  -4   41.30    1.60
 -14   1   4   35.70    1.70
  14   1  -4   40.30    3.80
 -14   1   4   32.60    3.60
  14   1  -4   40.70    1.80
  14  -1  -4   37.10    1.70
  14  -1  -4   38.30    1.70
  14  -1  -4   33.20    3.90
 -14  -1   4   40.50    1.80
 -14  -1   4   41.50    1.70
  14  -1  -4   37.70    1.70
 -14  -1   4   41.30    3.80
 -14  -1   4   39.90    1.60
 -14   1   3   76.99    2.90
 -14   1   3   80.79    3.00
  14   1  -3   75.69    2.90
 -14   1   3   80.49    5.60
  14   1  -3   78.59    3.10
 -14   1   3   78.99    2.90
  14   1  -3   69.69    5.40
 -14  -1   3   76.39    5.40
 -14  -1   3   76.49    3.00
  14  -1  -3   80.59    3.00
 -14  -1   3   77.69    2.90
  14  -1  -3   76.79    5.90
  14  -1  -3   75.29    3.10
  14  -1  -3   76.89    3.00
 -14  -1   3   76.49    3.00
 -14   1   2   16.80    0.80
  14   1  -2   13.30    0.80
  14   1  -2   13.00    2.20
  14   1  -2   14.00    0.90
 -14   1   2   16.50    0.80
 -14   1   2   18.80    2.50
 -14   1   2   16.90    0.80
  14  -1  -2   15.00    0.90
  14  -1  -2   16.00    0.90
 -14  -1   2   15.00    0.80
  14  -1  -2   15.00    0.80
 -14  -1   2   13.80    0.90
  14  -1  -2   16.00    2.70
 -14  -1   2   16.20    0.80
 -14  -1   2   14.60    2.10
 -14   1   1  196.58   10.10
 -14   1   1  205.68    7.10
 -14   1   1  204.18    7.00
  14   1  -1  192.18    7.20
  14   1  -1  198.58    7.10
  14   1  -1  203.48    7.20
 -14   1   1  202.58    7.10
  14   1  -1  197.58   10.40
 -14  -1   1  203.18    6.90
  14  -1  -1  204.98    7.20
  14  -1  -1  197.28   10.90
 -14  -1   1  208.58    7.10
  14  -1  -1  201.18    7.00
  14  -1  -1  196.48    7.20
 -14  -1   1  211.28    9.80
 -14  -1   1  203.58    7.20
  14   1   0   22.60    1.10
  14   1   0   23.20    1.20
 -14   1   0   22.80    1.00
  14   1   0   24.10    1.10
 -14   1   0   23.70    2.80
  14   1   0   23.10    2.80
 -14   1   0   22.50    1.10
 -14  -1   0   23.10    1.10
 -14  -1   0   22.90    1.10
  14  -1   0   22.60    1.00
  14  -1   0   15.60    2.60
 -14  -1   0   23.30    1.00
 -14  -1   0   23.90    2.50
  14  -1   0   22.00    1.10
  14  -1   0   21.30    1.20
  14   1   1  229.88   11.50
 -14   1  -1  238.28    8.20
 -14   1  -1  230.28    8.20
 -14   1  -1  231.48    8.10
  14   1   1  228.48    8.30
 -14   1  -1  244.78   11.90
  14   1   1  237.18    8.20
  14   1   1  230.28    8.40
 -14  -1  -1  231.98   10.80
 -14  -1  -1  242.38    8.30
 -14  -1  -1  245.08    8.10
  14  -1   1  242.68   12.40
  14  -1   1  226.68    8.40
 -14  -1  -1  233.38    8.30
  14  -1   1  238.58    8.30
  14  -1   1  230.28    8.20
  14   1   2   27.60    1.20
 -14   1  -2   29.00    1.20
 -14   1  -2   27.50    1.20
  14   1   2   27.10    1.40
 -14   1  -2   25.80    3.20
 -14   1  -2   26.60    1.20
  14   1   2   27.90    1.30
 -14  -1  -2   27.60    1.30
  14  -1   2   26.10    1.30
 -14  -1  -2   30.40    2.90
 -14  -1  -2   26.80    1.30
  14  -1   2   25.40    1.40
 -14  -1  -2   28.50    3.00
 -14  -1  -2   28.40    1.20
  14  -1   2   25.80    1.30
  14   1   3   53.19    2.30
 -14   1  -3   53.09    4.40
 -14   1  -3   56.29    5.30
 -14   1  -3   55.09    2.10
 -14   1  -3   55.19    2.20
  14   1   3   54.99    2.20
  14   1   3   52.89    2.30
 -14  -1  -3   54.09    2.10
 -14  -1  -3   55.09    4.20
  14  -1   3   52.69    2.30
  14  -1   3   55.59    2.40
 -14  -1  -3   52.09    2.20
  14  -1   3   52.49    2.20
 -14  -1  -3   53.49    2.30
  14   1   4    0.40    0.30
 -14   1  -4    0.30    0.20
  14   1   4    0.50    0.20
 -14   1  -4    0.40    0.90
 -14   1  -4    0.30    0.20
  14   1   4    0.10    0.20
  14  -1   4    0.50    0.30
 -14  -1  -4    0.10    0.20
  14  -1   4    0.60    0.40
  14  -1   4    0.70    0.30
 -14  -1  -4   -0.10    0.20
 -14  -1  -4    0.10    0.20
  14   1   5   25.00    1.40
 -14   1  -5   23.60    1.10
 -14   1  -5   20.50    3.20
  14   1   5   23.90    1.40
 -14   1  -5   25.30    1.20
  14  -1   5   23.10    1.20
 -14  -1  -5   24.90    1.20
 -14  -1  -5   23.80    1.30
  14  -1   5   22.90    1.40
  14  -1   5   24.30    1.40
  14   1   6    1.30    0.40
 -14   1  -6    1.00    0.30
  14   1   6    1.50    0.50
 -14   1  -6    1.60    0.40
 -14  -1  -6    1.20    0.40
  14  -1   6    1.70    0.50
 -14  -1  -6    1.40    0.30
  14  -1   6    1.10    0.40
  14  -1   6    1.40    0.30
 -14   2   9    0.20    0.30
  14   2  -9   -0.10    0.30
 -14   2   9    0.00    0.30
  14   2  -9    0.00    0.30
  14  -2  -9    0.30    0.30
 -14  -2   9    0.00    0.30
 -14  -2   9    0.00    0.20
  14  -2  -9   -0.30    0.30
  14  -2  -9   -0.10    0.20
 -14   2   8   11.90    0.80
  14   2  -8   12.80    1.00
  14   2  -8   12.20    0.80
 -14   2   8   11.70    1.00
  14  -2  -8   13.00    1.00
 -14  -2   8   12.10    0.90
 -14  -2   8   13.00    1.00
  14  -2  -8   12.00    0.90
  14  -2  -8   12.70    0.90
  14   2  -7    1.30    0.40
 -14   2   7    1.80    0.30
 -14   2   7    1.40    0.40
  14   2  -7    1.00    0.30
 -14   2   7    3.20    1.50
 -14   2   7    1.60    0.40
  14   2  -7    2.20    1.30
 -14  -2   7    1.20    0.40
  14  -2  -7    1.70    0.40
 -14  -2   7    1.30    0.40
  14  -2  -7    1.00    0.40
 -14  -2   7    2.30    1.30
  14  -2  -7    1.10    1.10
  14  -2  -7    1.70    0.40
  14   2  -6    0.20    0.30
 -14   2   6    0.40    0.30
  14   2  -6    0.30    0.30
 -14   2   6    0.30    0.20
  14   2  -6   -0.90    0.70
 -14   2   6   -1.20    0.60
 -14   2   6    0.20    0.20
 -14  -2   6    0.30    0.30
 -14  -2   6    0.40    0.30
  14  -2  -6    0.30    0.30
  14  -2  -6    0.30    0.30
  14  -2  -6    0.50    1.10
  14  -2  -6    0.30    0.30
 -14  -2   6    0.30    0.30
 -14  -2   6    0.60    0.90
  14   2  -5   11.30    0.80
 -14   2   5    8.30    2.00
  14   2  -5   13.00    2.30
 -14   2   5   10.60    0.70
  14   2  -5   11.40    0.70
 -14   2   5   10.30    0.70
 -14   2   5   10.10    0.70
 -14  -2   5   11.00    0.70
  14  -2  -5   10.40    0.80
 -14  -2   5   12.50    0.90
  14  -2  -5   10.30    0.80
  14  -2  -5    6.60    2.10
  14  -2  -5    9.50    0.80
 -14  -2   5    8.40    2.20
 -14  -2   5   10.70    0.60
  14   2  -4   93.69    6.20
 -14   2   4   92.89    3.30
  14   2  -4   87.29    3.50
 -14   2   4   85.09    6.10
 -14   2   4   90.99    3.30
  14   2  -4   89.19    3.30
 -14   2   4   90.89    3.40
 -14  -2   4   87.99    3.30
  14  -2  -4   92.09    6.80
  14  -2  -4   85.79    3.50
 -14  -2   4   90.39    3.50
  14  -2  -4   89.69    3.40
 -14  -2   4   85.99    3.40
 -14  -2   4   88.69    5.90
  14  -2  -4   88.19    3.50
  14   2  -3    2.90    1.20
 -14   2   3    5.30    1.70
 -14   2   3    5.10    0.50
  14   2  -3    5.70    0.50
 -14   2   3    6.10    0.40
 -14   2   3    6.30    0.50
  14   2  -3    6.20    0.60
  14  -2  -3    3.90    0.50
 -14  -2   3    6.90    0.60
  14  -2  -3    4.40    1.80
 -14  -2   3    5.60    0.50
 -14  -2   3    6.80    0.50
  14  -2  -3    5.60    0.50
 -14  -2   3    7.30    1.90
  14  -2  -3    6.10    0.60
  14   2  -2   84.89    5.70
  14   2  -2   81.79    3.30
 -14   2   2   84.49    3.20
 -14   2   2   87.39    3.20
  14   2  -2   85.69    3.20
 -14   2   2   95.69    6.00
  14  -2  -2   86.89    3.30
 -14  -2   2   84.79    5.40
  14  -2  -2   87.89    3.30
  14  -2  -2   88.89    3.30
  14  -2  -2   84.29    6.40
 -14  -2   2   85.69    3.20
 -14  -2   2   74.19    3.20
 -14  -2   2   83.99    3.30
  14  -2  -2   87.29    3.10
 -14   2   1   21.60    1.00
  14   2  -1   22.70    2.60
  14   2  -1   21.70    1.00
  14   2  -1   21.50    1.20
 -14   2   1   21.80    1.00
  14   2  -1   22.00    1.10
 -14   2   1   21.20    2.70
  14  -2  -1   22.20    0.90
  14  -2  -1   20.60    1.10
 -14  -2   1   24.10    1.10
  14  -2  -1   22.00    1.20
 -14  -2   1   21.50    0.90
  14  -2  -1   22.80    3.20
  14  -2  -1   21.10    1.10
 -14  -2   1   23.00    1.10
 -14  -2   1   23.60    2.50
  14   2   0  580.64   20.00
  14   2   0  576.54   23.20
 -14   2   0  590.04   24.00
 -14   2   0  582.04   20.00
 -14  -2   0  602.84   22.50
 -14  -2   0  571.74   19.90
  14  -2   0  584.04   20.10
  14  -2   0  608.94   25.10
  14  -2   0  582.24   19.90
  14   2   1    4.70    0.50
 -14   2  -1    4.90    0.40
 -14   2  -1    4.90    0.40
 -14   2  -1    4.90    0.40
  14   2   1    5.50    0.50
 -14   2  -1    3.40    1.50
  14   2   1    5.10    0.40
  14  -2   1    5.40    0.40
  14  -2   1    5.60    0.50
 -14  -2  -1    3.70    0.40
  14  -2   1    7.70    2.30
 -14  -2  -1    4.50    0.40
 -14  -2  -1    4.40    0.50
 -14  -2  -1    7.40    1.30
  14  -2   1    5.70    0.60
 -14   2  -2   50.99    2.00
 -14   2  -2   49.10    1.90
  14   2   2   48.10    2.10
 -14   2  -2   50.19    4.80
  14   2   2   48.80    2.10
 -14  -2  -2   48.90    2.10
  14  -2   2   49.00    2.10
  14  -2   2   49.90    2.20
 -14  -2  -2   49.60    1.90
  14  -2   2   49.70    2.00
 -14  -2  -2   45.20    3.30
 -14  -2  -2   48.10    2.10
  14  -2   2   45.80    4.80
  14   2   3    0.30    0.30
  14   2   3    0.00    0.20
 -14   2  -3    0.60    0.20
 -14   2  -3    0.50    0.20
 -14   2  -3   -0.20    0.70
 -14   2  -3   -0.70    1.10
  14  -2   3    0.00    0.20
  14  -2   3    0.10    0.20
 -14  -2  -3    0.50    0.70
 -14  -2  -3    0.20    0.20
 -14  -2  -3    1.60    0.80
 -14  -2  -3    0.30    0.20
 -14  -2  -3    0.40    0.30
  14  -2   3    0.00    0.20
  14   2   4   69.49    3.00
 -14   2  -4   66.19    5.50
 -14   2  -4   70.89    2.70
  14   2   4   70.49    2.90
 -14   2  -4   71.89    2.70
 -14  -2  -4   68.39    2.90
 -14  -2  -4   71.39    2.80
  14  -2   4   69.79    2.90
  14  -2   4   67.49    3.00
  14  -2   4   68.19    2.80
 -14  -2  -4   69.59    2.90
  14   2   5    1.60    0.40
 -14   2  -5   -0.80    0.90
  14   2   5    0.90    0.40
 -14   2  -5    1.50    0.30
 -14   2  -5    1.70    0.40
 -14  -2  -5    1.70    0.40
  14  -2   5    2.70    0.60
  14  -2   5    2.20    0.40
  14  -2   5    1.50    0.40
 -14  -2  -5    1.70    0.40
  14   2   6    0.90    0.40
  14   2   6    1.40    0.40
 -14   2  -6    1.20    0.30
 -14   2  -6    1.20    0.40
  14  -2   6    0.90    0.40
 -14  -2  -6    1.00    0.30
  14  -2   6    0.60    0.30
  14  -2   6    0.90    0.40
 -14  -2  -6    0.60    0.30
 -14   3   8    1.30    0.40
  14   3  -8    1.30    0.40
 -14   3   8    0.70    0.30
  14   3  -8    0.50    0.40
  14  -3  -8    1.60    0.50
 -14  -3   8    1.20    0.50
 -14  -3   8    0.70    0.30
  14  -3  -8    1.40    0.40
  14   3  -7   17.10    3.10
 -14   3   7   19.20    1.20
 -14   3   7   19.60    1.00
 -14   3   7   19.50    1.10
  14   3  -7   21.80    1.10
 -14   3   7   19.10    3.30
  14   3  -7   20.30    1.20
  14  -3  -7   19.90    1.20
 -14  -3   7   18.40    3.10
  14  -3  -7   17.90    1.10
 -14  -3   7   19.90    1.10
  14  -3  -7   19.50    1.30
 -14  -3   7   20.80    1.20
  14  -3  -7   17.50    3.40
  14   3  -6    3.10    1.60
  14   3  -6    4.30    0.60
 -14   3   6    3.40    0.50
 -14   3   6    4.00    0.50
 -14   3   6    6.30    1.90
  14   3  -6    4.40    0.50
 -14   3   6    3.30    0.40
  14  -3  -6    1.70    1.40
 -14  -3   6    2.80    1.20
  14  -3  -6    4.10    0.50
  14  -3  -6    3.80    0.50
 -14  -3   6    4.40    0.60
 -14  -3   6    4.10    0.50
  14  -3  -6    4.40    0.70
  14   3  -5   18.90    2.70
  14   3  -5   20.10    1.20
 -14   3   5   21.70    1.10
 -14   3   5   20.50    1.00
 -14   3   5   15.50    2.70
  14   3  -5   20.10    1.10
 -14   3   5   21.40    1.10
 -14  -3   5   21.30    1.10
 -14  -3   5   22.00    1.20
  14  -3  -5   19.30    1.10
  14  -3  -5   20.30    3.20
  14  -3  -5   21.60    1.10
  14  -3  -5   22.00    1.30
 -14  -3   5   23.60    1.10
 -14  -3   5   21.70    2.90
  14   3  -4    2.80    1.20
 -14   3   4    2.40    0.40
  14   3  -4    2.50    0.40
  14   3  -4    2.50    0.40
 -14   3   4    0.80    1.00
 -14   3   4    1.60    0.30
 -14   3   4    2.20    0.40
  14  -3  -4    1.90    0.40
  14  -3  -4    2.20    0.40
  14  -3  -4    1.40    0.40
 -14  -3   4    2.70    0.40
 -14  -3   4    2.80    0.40
 -14  -3   4    3.20    0.50
  14  -3  -4    1.60    1.30
 -14  -3   4    5.10    1.80
 -14   3   3   70.49    2.60
  14   3  -3   67.09    2.70
 -14   3   3   66.09    2.60
 -14   3   3   58.69    5.00
  14   3  -3   68.99    2.60
  14   3  -3   64.69    4.80
  14  -3  -3   59.89    5.70
  14  -3  -3   70.59    2.80
  14  -3  -3   64.99    2.70
 -14  -3   3   70.09    4.90
 -14  -3   3   69.19    2.70
 -14  -3   3   69.69    2.80
  14  -3  -3   68.29    2.70
 -14  -3   3   65.09    2.70
 -14   3   2   70.89    5.40
 -14   3   2   67.09    2.70
  14   3  -2   71.09    5.00
  14   3  -2   72.79    2.70
 -14   3   2   72.49    2.70
  14   3  -2   69.79    2.90
 -14  -3   2   73.49    4.80
 -14  -3   2   71.89    2.90
 -14  -3   2   70.89    2.80
  14  -3  -2   67.79    2.80
 -14  -3   2   69.79    2.80
  14  -3  -2   68.19    2.90
  14  -3  -2   71.49    2.80
  14  -3  -2   69.59    6.00
 -14   3   1   54.59    2.20
  14   3  -1   53.89    2.10
  14   3  -1   52.19    4.00
 -14   3   1   59.19    4.80
  14   3  -1   54.49    2.30
 -14  -3   1   58.19    3.90
  14  -3  -1   56.29    2.30
 -14  -3   1   52.89    2.30
  14  -3  -1   57.99    2.40
  14  -3  -1   54.99    5.20
 -14  -3   1   56.09    2.30
  14  -3  -1   55.79    2.40
  14   3   0    3.60    0.40
 -14   3   0    3.10    0.30
 -14   3   0    3.40    0.40
  14   3   0    3.10    0.50
 -14   3   0    5.10    1.90
 -14  -3   0    3.70    0.40
 -14  -3   0    3.30    0.50
 -14  -3   0    4.60    0.90
 -14  -3   0    3.20    0.30
  14  -3   0    3.90    0.50
  14  -3   0    4.30    0.50
  14  -3   0    6.90    2.00
  14  -3   0    4.00    0.50
 -14   3  -1  192.68    6.50
  14   3   1  185.48    6.70
 -14   3  -1  192.88   10.50
  14   3   1  181.58    6.70
 -14   3  -1  177.68    6.50
 -14   3  -1  188.28    6.50
  14  -3   1  188.48    6.70
 -14  -3  -1  180.28    6.50
  14  -3   1  191.88   11.10
 -14  -3  -1  182.68    6.70
 -14  -3  -1  179.98    6.70
  14  -3   1  186.68    6.80
 -14   3  -2    1.20    0.20
  14   3   2    1.20    0.30
 -14   3  -2    1.90    0.40
  14   3   2    1.70    0.40
 -14   3  -2    3.50    1.60
  14  -3   2    0.50    0.30
 -14  -3  -2    0.90    0.20
 -14  -3  -2    1.40    0.30
 -14  -3  -2    0.80    0.30
  14  -3   2    1.10    0.30
  14  -3   2    2.20    1.50
 -14   3  -3   34.50    1.50
 -14   3  -3   35.10    1.50
  14   3   3   35.10    1.70
 -14   3  -3   35.80    4.40
 -14   3  -3   33.70    3.70
  14   3   3   35.20    1.70
 -14  -3  -3   35.10    1.70
 -14  -3  -3   35.40    1.70
  14  -3   3   35.80    1.70
 -14  -3  -3   37.50    1.60
  14  -3   3   35.30    1.80
  14  -3   3   34.60    1.60
 -14   3  -4   17.50    3.30
 -14   3  -4   12.00    0.70
 -14   3  -4   11.40    0.70
  14   3   4   12.20    0.90
  14   3   4   10.90    0.90
 -14   3  -4   14.50    2.60
  14  -3   4   13.10    0.90
  14  -3   4   12.80    0.90
 -14  -3  -4   11.30    0.90
 -14  -3  -4   11.90    0.80
  14  -3   4   12.60    1.00
 -14  -3  -4   11.20    0.80
  14   3   5   26.40    1.30
  14   3   5   27.40    1.40
 -14   3  -5   26.50    1.30
 -14   3  -5   28.40    3.80
  14   3   5   27.50    1.50
 -14   3  -5   26.10    1.20
  14  -3   5   27.40    1.40
 -14  -3  -5   27.00    1.30
 -14  -3  -5   26.40    1.50
  14  -3   5   25.90    1.50
  14  -3   5   27.40    1.50
 -14   3  -6    0.50    0.30
  14   3   6    0.40    0.30
  14   3   6    0.30    0.30
 -14   3  -6    0.30    0.20
 -14  -3  -6    0.10    0.30
  14  -3   6    0.60    0.40
 -14  -3  -6    0.20    0.20
  14  -3   6    0.60    0.40
  14  -3   6    0.20    0.20
 -14   4   8   13.10    1.00
  14   4  -8   10.70    0.90
 -14   4   8   10.70    0.80
  14   4  -8   12.10    0.80
 -14  -4   8   10.70    0.90
  14  -4  -8    9.80    0.90
  14  -4  -8   12.20    1.10
 -14  -4   8   11.50    0.90
  14   4  -7    0.00    0.30
 -14   4   7    0.50    0.30
  14   4  -7    0.30    0.40
 -14   4   7    0.60    0.30
  14   4  -7   -2.20    0.90
 -14  -4   7    0.60    0.40
 -14  -4   7    0.80    0.30
  14  -4  -7    0.60    0.40
  14  -4  -7    0.40    0.30
 -14   4   6   10.00    2.50
  14   4  -6   10.50    0.80
  14   4  -6   11.40    0.90
 -14   4   6   10.30    0.70
  14   4  -6    8.30    2.40
 -14   4   6   10.50    0.70
  14  -4  -6    9.80    0.90
 -14  -4   6   11.70    0.90
  14  -4  -6    9.90    0.80
  14  -4  -6    9.40    0.80
 -14  -4   6   11.80    0.80
 -14   4   5    5.80    0.50
  14   4  -5    6.70    2.00
  14   4  -5    6.10    0.70
 -14   4   5    6.40    0.50
 -14   4   5    6.60    1.90
  14   4  -5    7.00    0.60
 -14  -4   5    6.10    0.60
 -14  -4   5    6.30    1.70
  14  -4  -5    5.30    0.50
  14  -4  -5    4.80    0.70
 -14  -4   5    7.70    0.70
  14  -4  -5    5.20    0.60
  14  -4  -5    6.80    2.10
 -14  -4   5    6.80    0.60
 -14   4   4   28.90    1.30
 -14   4   4   27.20    3.30
  14   4  -4   26.30    1.30
 -14   4   4   27.70    1.30
  14   4  -4   25.80    1.40
  14   4  -4   28.50    3.20
  14  -4  -4   29.20    1.40
 -14  -4   4   27.80    1.50
  14  -4  -4   28.60    1.40
 -14  -4   4   28.00    3.20
 -14  -4   4   26.30    1.40
  14  -4  -4   29.20    1.60
  14  -4  -4   30.10    4.00
 -14  -4   4   28.00    1.40
 -14   4   3    4.30    0.40
 -14   4   3    4.10    0.40
  14   4  -3    4.60    0.50
 -14   4   3    2.30    1.30
  14   4  -3    4.10    0.40
  14   4  -3    3.50    1.30
 -14  -4   3    5.40    0.50
  14  -4  -3    4.20    1.70
 -14  -4   3    5.30    0.50
 -14  -4   3    3.80    1.60
  14  -4  -3    4.80    0.60
  14  -4  -3    2.70    0.50
  14  -4  -3    3.50    0.50
 -14  -4   3    4.70    0.60
  14   4  -2  115.49    4.10
  14   4  -2  112.89    4.40
  14   4  -2  116.49    6.70
 -14   4   2  115.49    4.20
 -14   4   2  115.09    7.50
 -14   4   2  117.69    4.20
 -14  -4   2  109.49    4.30
  14  -4  -2  111.59    4.30
 -14  -4   2  112.79    4.40
  14  -4  -2  113.59    4.50
 -14  -4   2  118.79    4.30
  14  -4  -2  116.79    4.40
  14  -4  -2  111.09    8.10
  14   4  -1   15.80    1.00
 -14   4   1   14.70    0.80
  14   4  -1   13.70    1.80
  14   4  -1   15.40    0.90
 -14   4   1   14.60    0.80
 -14   4   1   16.20    2.70
  14  -4  -1   15.20    1.00
  14  -4  -1   14.60    2.80
 -14  -4   1   16.90    0.90
 -14  -4   1   16.40    1.00
  14  -4  -1   14.40    1.00
  14  -4  -1   15.50    1.00
 -14   4   0   77.59    2.80
 -14   4   0   75.39    2.80
  14   4   0   70.09    3.00
 -14   4   0   74.99    5.90
  14   4   0   70.29    2.90
  14  -4   0   78.39    3.10
 -14  -4   0   68.99    2.80
 -14  -4   0   71.69    3.00
  14  -4   0   77.99    3.10
  14  -4   0   73.19    3.00
 -14  -4   0   69.89    2.90
  14  -4   0   87.49    6.80
 -14   4  -1   11.50    0.70
 -14   4  -1   10.00    2.50
  14   4   1    9.90    0.80
 -14   4  -1   10.20    0.60
  14   4   1    9.90    0.70
  14  -4   1   11.70    0.90
 -14  -4  -1   11.00    0.80
  14  -4   1   16.70    3.00
 -14  -4  -1    9.70    0.80
  14  -4   1   11.00    0.80
 -14  -4  -1    9.80    0.70
  14   4   2   71.49    2.90
  14   4   2   70.69    2.90
 -14   4  -2   70.29    6.10
 -14   4  -2   73.19    2.80
 -14   4  -2   74.09    2.70
  14  -4   2   76.59    3.10
  14  -4   2   71.69    2.90
 -14  -4  -2   69.49    3.00
 -14  -4  -2   74.79    2.90
 -14  -4  -2   71.29    3.00
 -14   4  -3    0.20    1.40
 -14   4  -3    0.20    0.90
 -14   4  -3    0.00    0.20
  14   4   3    0.00    0.20
  14   4   3    0.00    0.20
 -14   4  -3    0.40    0.20
 -14  -4  -3   -0.20    0.20
  14  -4   3    0.00    0.30
 -14  -4  -3    0.00    0.20
 -14  -4  -3    0.10    0.20
  14  -4   3    0.20    0.20
 -14   4  -4    8.60    2.50
 -14   4  -4   10.20    0.60
 -14   4  -4   10.20    0.70
  14   4   4    9.50    0.80
 -14   4  -4    7.70    2.60
  14   4   4   10.50    0.90
 -14  -4  -4   10.10    0.90
 -14  -4  -4    9.40    0.70
  14  -4   4   10.00    0.80
 -14  -4  -4    8.50    0.80
  14  -4   4    8.90    0.90
 -14   4  -5    4.90    0.50
 -14   4  -5    5.80    0.50
  14   4   5    5.00    0.60
  14   4   5    4.50    0.60
 -14  -4  -5    5.00    0.60
 -14  -4  -5    5.10    0.60
  14  -4   5    4.60    0.60
  14  -4   5    5.10    0.70
  14   5  -7    7.70    2.50
  14   5  -7   13.70    1.00
 -14   5   7   14.30    0.90
  14   5  -7   15.10    0.90
 -14   5   7   14.10    0.90
 -14  -5   7   13.80    1.00
  14  -5  -7   14.00    1.20
 -14  -5   7   13.40    1.00
  14  -5  -7   14.20    1.00
  14   5  -6    0.40    0.30
  14   5  -6    0.50    0.40
  14   5  -6   -0.30    1.10
 -14   5   6    0.90    0.30
 -14   5   6    1.10    0.30
  14  -5  -6    1.20    1.70
 -14  -5   6    0.20    0.30
  14  -5  -6    0.90    0.40
  14  -5  -6    0.50    0.40
 -14  -5   6    0.30    0.30
 -14   5   5   16.60    0.90
  14   5  -5   16.70    1.10
  14   5  -5   15.80    0.90
  14   5  -5   15.50    2.90
 -14   5   5   16.10    0.90
 -14  -5   5   17.30    1.10
 -14  -5   5   16.40    1.10
  14  -5  -5   16.60    4.00
  14  -5  -5   16.50    1.20
 -14  -5   5   15.20    1.00
  14  -5  -5   14.70    1.00
  14   5  -4   24.50    1.20
  14   5  -4   23.10    3.00
 -14   5   4   24.90    1.20
  14   5  -4   24.00    1.30
 -14   5   4   24.20    1.20
 -14   5   4   23.30    3.20
 -14  -5   4   26.50    3.30
 -14  -5   4   25.10    1.40
  14  -5  -4   23.70    3.80
 -14  -5   4   26.60    1.40
  14  -5  -4   23.80    1.50
 -14  -5   4   25.20    1.30
  14  -5  -4   23.80    1.30
  14  -5  -4   23.50    1.30
  14   5  -3   40.10    3.80
 -14   5   3   42.90    1.70
  14   5  -3   36.20    1.90
 -14   5   3   42.80    1.80
 -14   5   3   44.60    4.30
  14   5  -3   44.20    1.70
 -14  -5   3   40.00    1.90
  14  -5  -3   41.90    1.90
  14  -5  -3   42.40    4.90
  14  -5  -3   43.30    1.90
 -14  -5   3   40.40    1.90
 -14  -5   3   41.50    2.00
  14  -5  -3   43.40    2.10
  14   5  -2    9.40    0.80
 -14   5   2    9.20    0.60
 -14   5   2    7.30    2.20
 -14   5   2    8.80    0.60
  14   5  -2    5.50    1.50
 -14  -5   2   10.90    0.80
  14  -5  -2    7.80    0.70
  14  -5  -2    8.20    2.70
 -14  -5   2    9.40    0.70
  14  -5  -2    7.90    0.70
 -14  -5   2    9.60    0.80
  14  -5  -2    9.10    0.90
  14   5  -1   12.30    0.90
 -14   5   1   11.50    0.70
 -14   5   1   12.10    0.70
  14   5  -1   11.20    0.80
 -14   5   1   10.80    2.70
  14  -5  -1   13.80    0.90
  14  -5  -1   13.30    0.90
 -14  -5   1   11.40    0.80
 -14  -5   1   11.50    0.80
  14  -5  -1    7.20    2.40
  14  -5  -1   13.60    1.00
  14   5   0   18.90    1.20
  14   5   0   18.80    1.10
 -14   5   0   18.90    0.90
 -14   5   0   19.40    1.00
 -14   5   0   20.40    3.00
 -14  -5   0   17.60    1.10
 -14  -5   0   19.60    1.20
  14  -5   0   19.80    1.20
  14  -5   0   19.70    1.20
  14  -5   0   22.00    3.70
  14  -5   0   20.40    1.10
 -14  -5   0   20.70    1.20
 -14   5  -1   51.79    5.10
  14   5   1   50.69    2.30
  14   5   1   52.79    2.30
 -14   5  -1   55.49    2.20
  14  -5   1   59.59    2.40
 -14  -5  -1   49.90    2.40
  14  -5   1   57.09    2.40
  14  -5   1   58.29    2.40
 -14  -5  -1   52.39    2.40
 -14  -5  -1   51.79    2.30
  14  -5   1   56.29    5.70
 -14   5  -2   13.60    3.10
 -14   5  -2   13.20    0.80
  14   5   2   10.70    0.80
  14   5   2   12.20    0.90
 -14   5  -2   11.40    0.70
 -14  -5  -2   11.60    0.80
 -14  -5  -2   10.50    0.90
  14  -5   2   13.50    0.90
  14  -5   2   14.70    1.00
  14   5   3   20.00    1.20
  14   5   3   19.90    1.20
 -14   5  -3   20.00    1.00
 -14   5  -3   20.00    3.10
 -14   5  -3   18.50    1.00
 -14   5  -3   12.10    3.40
  14  -5   3   21.10    1.30
 -14  -5  -3   19.20    1.20
  14  -5   3   19.30    1.10
 -14  -5  -3   20.10    1.20
 -14  -5  -3   20.50    1.20
  14   5   4    0.90    0.40
  14   5   4    0.90    0.40
 -14   5  -4    0.90    0.30
 -14   5  -4    1.10    0.30
 -14  -5  -4    1.20    0.40
  14  -5   4    1.00    0.40
 -14  -5  -4    1.10    0.40
 -14  -5  -4    0.90    0.40
  14  -5   4    1.20    0.40
 -14   5  -5   11.60    0.70
  14   5   5   11.40    0.90
  14   5   5   12.50    1.00
 -14   5  -5   11.90    0.80
 -14  -5  -5   11.40    1.00
  14  -5   5   11.20    1.00
  14  -5   5   12.60    0.90
 -14  -5  -5   11.40    0.90
  14   6  -7    2.30    0.50
 -14   6   7    2.90    0.50
 -14   6   7    1.80    0.40
  14   6  -7    2.30    0.60
  14  -6  -7    4.10    0.80
 -14  -6   7    2.10    0.50
  14  -6  -7    3.10    0.60
 -14  -6   7    2.60    0.60
  14   6  -6    6.90    0.80
 -14   6   6    7.10    0.60
 -14   6   6    8.10    0.60
  14   6  -6    7.60    0.70
  14  -6  -6    7.10    0.90
 -14  -6   6    6.80    0.80
  14  -6  -6    6.50    0.70
 -14  -6   6    8.00    0.70
 -14   6   5    9.40    0.70
  14   6  -5    9.30    0.70
 -14   6   5    8.90    0.60
  14   6  -5    8.30    0.80
 -14  -6   5    9.10    0.80
  14  -6  -5    7.60    0.80
 -14  -6   5   10.30    1.00
  14  -6  -5    9.70    1.00
 -14  -6   5    9.20    0.80
 -14   6   4    9.90    0.70
  14   6  -4   10.30    0.80
 -14   6   4   15.20    2.70
  14   6  -4    9.40    0.70
 -14   6   4    9.30    0.70
 -14  -6   4    9.50    0.80
  14  -6  -4    9.60    0.90
 -14  -6   4    9.00    0.80
 -14  -6   4   10.90    0.90
  14  -6  -4    5.70    2.40
  14  -6  -4    8.90    0.80
  14   6  -3    0.50    0.30
 -14   6   3    0.50    0.20
 -14   6   3    0.70    0.30
  14  -6  -3    0.60    0.40
 -14  -6   3    0.50    0.30
  14  -6  -3    0.30    0.30
 -14  -6   3    0.10    0.30
 -14  -6   3    0.40    0.30
  14  -6  -3    1.40    1.40
  14  -6  -3    0.10    0.20
 -14   6   2   33.40    1.50
  14   6  -2   32.40    1.70
 -14   6   2   28.80    3.80
 -14   6   2   34.10    1.50
 -14  -6   2   34.70    1.70
  14  -6  -2   26.10    4.10
  14  -6  -2   33.60    1.70
  14  -6  -2   34.30    1.80
 -14  -6   2   34.90    1.70
  14  -6  -2   36.00    1.70
 -14  -6   2   33.40    1.70
  14   6  -1    6.90    0.70
 -14   6   1    6.10    0.50
 -14   6   1    6.40    0.50
  14   6  -1    7.10    0.70
 -14   6   1    4.60    1.70
 -14  -6   1    6.30    0.70
  14  -6  -1    6.20    0.70
 -14  -6   1    7.90    0.70
  14  -6  -1    5.70    0.60
  14  -6  -1    6.60    0.80
  14  -6  -1    7.70    2.50
 -14   6   0   13.10    3.30
  14   6   0   14.40    1.00
 -14   6   0   14.70    0.80
 -14   6   0   14.20    0.80
  14   6   0   13.10    0.90
  14  -6   0   14.20    1.10
  14  -6   0    8.00    2.60
  14  -6   0   14.20    1.00
 -14  -6   0   14.70    1.00
 -14  -6   0   16.10    1.00
  14  -6   0   14.90    1.00
  14   6   1    2.60    0.50
  14   6   1    1.80    0.40
 -14   6  -1    2.60    0.40
  14  -6   1    2.50    0.50
 -14  -6  -1    1.50    0.40
  14  -6   1    2.80    0.50
 -14  -6  -1    2.00    0.40
 -14  -6  -1    1.50    0.40
  14  -6   1    2.80    0.50
  14  -6   1   -0.50    1.30
 -14   6  -2   22.90    1.20
 -14   6  -2   23.20    1.10
 -14   6  -2   20.50    3.20
  14   6   2   21.90    1.30
 -14  -6  -2   23.40    1.40
  14  -6   2   24.30    1.40
 -14  -6  -2   22.40    1.40
 -14  -6  -2   21.70    1.30
  14  -6   2   23.00    1.30
  14   6   3    0.70    0.30
  14   6   3    1.20    0.40
 -14   6  -3    1.20    0.40
 -14   6  -3    1.30    0.30
  14  -6   3    0.90    0.40
  14  -6   3    1.00    0.40
 -14  -6  -3    1.00    0.40
 -14  -6  -3    1.10    0.40
 -14  -6  -3    1.00    0.40
 -14   6  -4    6.10    0.50
  14   6   4    6.00    0.70
 -14   6  -4    5.70    0.60
  14   6   4    5.30    0.70
  14  -6   4    5.90    0.60
 -14  -6  -4    5.50    0.70
  14  -6   4    6.20    0.70
 -14  -6  -4    6.40    0.70
 -14  -6  -4    5.30    0.70
  14   7  -5   16.30    1.10
 -14   7   5   16.80    1.00
 -14   7   5   16.60    0.90
 -14  -7   5   16.10    1.10
  14  -7  -5   17.80    1.30
 -14  -7   5   16.30    1.20
  14  -7  -5   17.30    1.20
  14   7  -4    1.90    0.50
 -14   7   4    1.40    0.40
 -14   7   4    1.20    0.30
 -14  -7   4    1.70    0.50
  14  -7  -4    1.90    0.50
 -14  -7   4    2.10    0.60
 -14  -7   4    3.00    0.60
  14  -7  -4    0.60    0.40
 -14   7   3   12.10    0.80
  14   7  -3   11.20    0.90
 -14   7   3   12.50    0.80
  14  -7  -3   11.10    0.90
 -14  -7   3   11.10    1.00
 -14  -7   3   11.10    0.90
  14  -7  -3   13.50    1.10
 -14  -7   3   12.50    1.00
  14   7  -2    8.40    0.80
 -14   7   2    8.60    0.60
 -14   7   2    8.40    0.60
  14  -7  -2    8.00    0.90
 -14  -7   2    9.40    0.90
  14  -7  -2    8.20    0.80
  14  -7  -2    8.50    0.80
 -14  -7   2    8.70    0.80
  14  -7  -2   12.80    3.80
  14   7  -1    6.30    0.70
 -14   7   1    6.30    0.50
  14   7  -1    6.70    0.70
 -14   7   1    7.20    0.60
 -14  -7   1    6.00    0.70
  14  -7  -1    7.10    0.70
 -14  -7   1    5.90    0.70
  14  -7  -1    9.00    3.60
  14  -7  -1    6.70    0.70
  14  -7  -1    6.50    0.80
  14   7   0    2.50    0.50
 -14   7   0    2.20    0.40
 -14   7   0    1.10    0.30
  14   7   0    2.70    0.50
 -14  -7   0    1.50    0.40
 -14  -7   0    2.10    0.50
  14  -7   0    1.60    0.50
  14  -7   0    1.70    0.50
  14  -7   0    1.30    0.40
  14   7   1    5.40    0.70
  14   7   1    6.10    0.60
 -14   7  -1    5.90    0.60
 -14  -7  -1    4.90    0.70
  14  -7   1    5.80    0.70
 -14  -7  -1    5.60    0.70
  14  -7   1    5.90    0.70
  14  -7   1    5.30    0.80
 -14   7  -2    1.10    0.30
 -14   7  -2    0.80    0.30
  14   7   2    1.00    0.40
  14   7   2    1.10    0.40
 -14  -7  -2    0.70    0.40
 -14  -7  -2    0.70    0.40
 -14  -7  -2    1.40    0.40
  14  -7   2    0.80    0.40
  14  -7   2    1.10    0.40
 -14   7  -3    8.00    0.70
  14   7   3    7.30    0.80
 -14   7  -3    8.00    0.60
  14  -7   3    8.30    0.70
 -14  -7  -3    6.30    0.80
  14  -7   3    7.60    0.80
 -14  -7  -3    7.80    0.80
 -14  -7  -3    5.80    0.70
 -14   8   4    6.10    0.60
  14   8  -4    4.60    0.70
 -14   8   4    5.40    0.60
  14  -8  -4    6.30    0.90
 -14  -8   4    4.40    0.80
  14  -8  -4    4.40    0.70
 -14  -8   4    4.70    0.70
 -14  -8   4    4.60    0.70
 -14   8   3    0.80    0.30
 -14   8   3    0.70    0.30
  14   8  -3    0.50    0.40
 -14  -8   3    0.90    0.40
  14  -8  -3    0.70    0.40
 -14  -8   3    0.50    0.40
  14  -8  -3    1.10    0.50
 -14  -8   3    0.60    0.30
  14   8  -2    8.40    0.90
 -14   8   2    8.60    0.70
 -14   8   2    9.30    0.70
  14   8  -2    9.70    0.80
 -14  -8   2    9.30    0.90
  14  -8  -2    9.80    1.00
  14  -8  -2    8.40    0.80
 -14  -8   2    8.20    0.80
 -14   8   1    0.40    0.20
  14   8  -1    0.80    0.30
  14   8  -1    0.00    0.40
 -14   8   1    0.40    0.20
  14  -8  -1    0.50    0.30
 -14  -8   1    0.90    0.40
  14  -8  -1    0.50    0.30
 -14  -8   1    0.10    0.30
  14  -8  -1    0.40    0.40
  14   8   0    4.20    0.60
  14   8   0    4.60    0.70
 -14   8   0    5.30    0.50
 -14  -8   0    4.70    0.70
  14  -8   0    4.10    0.70
  14  -8   0    3.90    0.60
  14  -8   0    4.80    0.70
 -14  -8   0    4.70    0.60
 -14   8  -1    0.20    0.30
  14   8   1    0.40    0.30
  14   8   1    0.00    0.30
  14  -8   1    0.10    0.30
  14  -8   1    0.10    0.30
 -14  -8  -1    0.30    0.30
  14  -8   1    0.00    0.40
 -14  -8  -1   -0.20    0.30
  15   0  -9    0.30    0.30
  15   0  -9    0.20    0.30
 -15   0   9    0.10    0.20
 -15   0   9   -0.20    0.30
  15   0  -8    3.00    0.50
  15   0  -8    2.80    0.60
 -15   0   8    2.90    0.60
 -15   0   8    2.50    0.40
 -15   0   7   -0.20    1.30
  15   0  -7    0.30    0.30
  15   0  -7    0.40    0.30
 -15   0   7    0.10    0.20
 -15   0   7    0.20    0.30
 -15   0   6   35.30    1.60
  15   0  -6   36.90    1.70
  15   0  -6   31.70    3.80
 -15   0   6   36.50    1.80
 -15   0   6   36.00    1.50
  15   0  -6   37.50    1.60
 -15   0   6   37.20    4.00
  15   0  -5    0.30    0.30
 -15   0   5    0.20    0.20
 -15   0   5    0.30    0.20
 -15   0   5    0.30    0.20
  15   0  -5   -0.20    0.70
 -15   0   5    0.10    0.70
  15   0  -5    0.00    0.20
 -15   0   4  122.39    4.50
  15   0  -4  125.69    4.60
 -15   0   4  115.59    7.50
  15   0  -4  125.99    4.50
  15   0  -4  129.29    8.00
 -15   0   4  120.09    4.40
 -15   0   4  120.69    4.60
 -15   0   3    0.30    0.20
 -15   0   3    0.50    0.20
 -15   0   3   -0.10    0.50
  15   0  -3    0.10    0.20
 -15   0   3    0.10    0.10
  15   0  -3    0.20    0.30
 -15   0   3    0.20    0.20
  15   0  -3    0.80    0.80
  15   0  -2  716.73   24.20
 -15   0   2  738.33   27.90
 -15   0   2  678.03   24.20
  15   0  -2  701.93   29.00
 -15   0   1   -0.10    0.10
  15   0  -1    0.00    0.20
 -15   0   1    0.20    0.10
 -15   0   1    0.80    0.70
  15   0  -1    0.00    0.20
  15   0  -1    1.70    1.20
 -15   0   1   -0.10    0.10
  15   0  -1    0.00    0.10
  15   0   0   79.39    3.20
  15   0   0   83.79    3.10
 -15   0   0   79.29    5.50
 -15   0   0   82.89    3.00
 -15   0   0   83.79    3.20
  15   0   0   86.39    6.30
  15   0   0   81.19    3.20
 -15   0   0   85.59    3.10
  15   0   1   -0.70    0.70
  15   0   1    0.10    0.20
 -15   0  -1    0.60    0.70
 -15   0  -1    0.20    0.10
 -15   0  -1    0.10    0.10
  15   0   1    0.40    0.30
  15   0   1    0.30    0.20
 -15   0  -1    0.30    0.20
  15   0   2  216.08    7.60
  15   0   2  207.88    7.70
 -15   0  -2  212.18   10.50
 -15   0  -2  216.28    7.50
 -15   0  -2  213.58    7.40
 -15   0  -2  211.58    7.60
  15   0   2  210.08    7.60
  15   0   3   -0.10    0.20
 -15   0  -3    0.10    0.20
 -15   0  -3    0.20    0.20
 -15   0  -3    0.10    0.20
 -15   0  -3   -1.20    0.70
  15   0   3   -0.10    0.20
 -15   0  -3   -0.20    0.70
  15   0   3    0.00    0.20
 -15   0  -4    2.10    0.40
  15   0   4    1.90    0.40
  15   0   4    1.70    0.50
  15   0   4    1.90    0.30
 -15   0  -4    1.10    1.80
 -15   0  -4    1.90    0.30
  15   0   5    0.10    0.20
 -15   0  -5    0.00    0.20
 -15   0  -5   -0.20    0.20
  15   0   5    0.10    0.30
  15   0   5   -0.10    0.20
 -15   0  -6   15.00    1.00
  15   0   6   15.40    1.10
 -15   0  -6   15.70    0.90
  15   0   6   15.50    1.20
  15   1  -9    6.90    0.80
 -15   1   9    6.20    0.80
  15   1  -9    7.00    0.70
 -15   1   9    5.90    0.60
 -15  -1   9    7.20    0.80
  15  -1  -9    6.70    0.70
  15  -1  -9    5.80    0.70
 -15  -1   9    6.30    0.60
  15   1  -8    0.60    0.30
  15   1  -8    0.60    0.40
 -15   1   8    1.00    0.30
 -15   1   8    0.40    0.30
  15  -1  -8    0.60    0.30
 -15  -1   8    0.40    0.30
 -15  -1   8    1.00    0.40
  15  -1  -8    0.80    0.40
  15   1  -7   16.90    3.10
  15   1  -7   18.40    1.00
  15   1  -7   18.50    1.10
 -15   1   7   17.40    1.00
 -15   1   7   17.90    1.10
 -15   1   7   14.30    3.50
 -15  -1   7   18.20    2.90
 -15  -1   7   17.70    1.00
  15  -1  -7   18.80    1.10
  15  -1  -7   17.10    3.10
  15  -1  -7   18.50    1.10
 -15  -1   7   18.90    1.20
 -15   1   6    3.00    1.40
 -15   1   6    3.00    0.40
  15   1  -6    1.50    1.10
 -15   1   6    2.00    0.30
  15   1  -6    1.40    0.40
  15   1  -6    1.40    0.40
 -15   1   6    2.80    0.50
 -15  -1   6    1.30    1.20
 -15  -1   6    2.10    0.50
  15  -1  -6    2.70    0.50
  15  -1  -6    1.90    0.40
 -15  -1   6    1.30    0.30
  15  -1  -6    3.10    0.50
 -15  -1   6    1.80    0.30
  15  -1  -6    1.60    1.10
  15   1  -5   21.40    3.10
 -15   1   5   26.10    3.20
 -15   1   5   23.50    1.20
  15   1  -5   24.80    1.30
  15   1  -5   24.10    1.20
 -15   1   5   23.80    1.20
 -15   1   5   24.20    1.10
  15  -1  -5   28.70    3.60
  15  -1  -5   24.60    1.20
 -15  -1   5   23.90    1.30
 -15  -1   5   23.60    1.20
 -15  -1   5   24.70    1.10
 -15  -1   5   20.30    2.90
  15  -1  -5   25.90    1.20
  15  -1  -5   25.10    1.30
 -15   1   4   14.80    0.90
  15   1  -4   18.00    1.00
 -15   1   4   13.70    2.30
  15   1  -4   17.50    0.90
 -15   1   4   15.90    0.80
  15   1  -4   15.20    2.40
 -15   1   4   15.00    0.90
 -15  -1   4   16.30    2.50
  15  -1  -4   15.50    0.90
  15  -1  -4   15.60    1.00
 -15  -1   4   17.30    0.90
 -15  -1   4   17.70    1.00
  15  -1  -4   15.90    1.00
 -15  -1   4   17.70    0.90
  15  -1  -4   16.40    2.70
  15   1  -3  109.09    7.10
 -15   1   3  109.79    7.00
  15   1  -3  110.59    4.20
 -15   1   3  107.79    4.00
 -15   1   3  113.79    4.10
 -15   1   3  114.09    4.10
  15   1  -3  108.49    4.10
 -15  -1   3   98.79    6.60
  15  -1  -3  108.89    4.10
  15  -1  -3  109.89    7.40
  15  -1  -3  108.89    4.10
  15  -1  -3  107.89    4.20
 -15  -1   3  111.29    4.20
 -15  -1   3  107.99    4.00
 -15  -1   3  111.69    4.10
 -15   1   2   10.40    0.60
 -15   1   2   12.10    0.70
  15   1  -2   10.10    0.80
  15   1  -2   10.20    2.10
 -15   1   2   13.80    2.20
  15   1  -2   10.30    0.70
  15  -1  -2   12.40    0.80
  15  -1  -2   11.70    0.60
 -15  -1   2   10.10    0.60
  15  -1  -2   11.40    2.30
  15  -1  -2   11.90    0.80
 -15  -1   2   10.30    0.70
 -15  -1   2   10.00    0.70
 -15  -1   2   11.70    1.90
 -15   1   1  212.68    7.50
  15   1  -1  215.88    7.60
 -15   1   1  217.78    7.50
  15   1  -1  208.88    7.70
 -15   1   1  223.48   10.90
  15   1  -1  213.48   11.20
 -15   1   1  214.98    7.40
  15   1  -1  210.78    7.60
  15  -1  -1  211.88    7.60
  15  -1  -1  204.78    7.70
 -15  -1   1  214.18    7.40
 -15  -1   1  218.58   10.40
 -15  -1   1  212.88    7.50
  15  -1  -1  225.78    7.50
  15  -1  -1  223.08   11.80
 -15  -1   1  205.78    7.60
  15   1   0    3.40    0.50
 -15   1   0    3.30    0.40
 -15   1   0    3.50    0.30
 -15   1   0    5.40    1.70
 -15   1   0    3.50    0.40
  15   1   0    3.30    1.40
  15   1   0    3.10    0.40
  15   1   0    3.50    0.40
  15  -1   0    3.70    0.50
 -15  -1   0    3.00    0.40
 -15  -1   0    2.90    0.40
 -15  -1   0    3.70    0.30
 -15  -1   0    3.00    1.20
  15  -1   0    5.00    0.50
  15  -1   0    3.20    1.50
  15  -1   0    4.10    0.40
 -15   1  -1   85.69    3.10
  15   1   1   82.39    3.20
 -15   1  -1   83.89    3.20
  15   1   1   87.19    3.40
 -15   1  -1   89.69    3.20
  15   1   1   79.99    6.00
  15   1   1   84.39    3.30
 -15   1  -1   86.79    6.10
 -15  -1  -1   87.19    3.10
 -15  -1  -1   92.69    5.80
 -15  -1  -1   85.09    3.30
  15  -1   1   87.49    3.30
  15  -1   1   84.59    3.40
  15  -1   1   82.89    3.30
  15  -1   1   87.69    6.60
 -15  -1  -1   83.39    3.20
 -15   1  -2   13.00    0.70
 -15   1  -2   12.90    0.70
 -15   1  -2   12.80    0.80
  15   1   2   14.30    0.90
 -15   1  -2   15.00    2.50
  15   1   2   13.80    0.80
  15   1   2   13.50    0.90
 -15  -1  -2   13.90    0.90
  15  -1   2   13.70    0.80
 -15  -1  -2   13.90    0.70
  15  -1   2   12.90    0.90
 -15  -1  -2   14.60    2.00
  15  -1   2   12.70    0.80
 -15   1  -3   39.50    1.70
  15   1   3   41.00    1.70
  15   1   3   39.30    1.80
  15   1   3   39.00    1.90
 -15   1  -3   39.30    1.60
 -15   1  -3   37.00    3.70
  15  -1   3   41.10    1.80
 -15  -1  -3   29.00    4.40
 -15  -1  -3   44.50    1.70
 -15  -1  -3   40.50    1.80
  15  -1   3   37.50    1.80
  15  -1   3   39.10    1.90
 -15  -1  -3   41.50    3.80
 -15  -1  -3   41.60    1.80
  15   1   4    0.50    0.30
 -15   1  -4    0.70    0.30
  15   1   4    0.30    0.30
 -15   1  -4    0.30    0.20
 -15   1  -4    0.70    1.10
  15  -1   4    0.20    0.20
 -15  -1  -4    0.30    0.20
  15  -1   4    0.50    0.30
 -15  -1  -4    0.40    0.20
  15  -1   4    0.20    0.20
  15   1   5    0.30    0.30
 -15   1  -5    0.40    0.20
 -15   1  -5    0.40    0.20
  15   1   5    0.40    0.30
  15  -1   5    0.20    0.30
 -15  -1  -5    0.40    0.20
 -15  -1  -5    0.20    0.20
  15  -1   5    0.20    0.30
  15  -1   5    0.10    0.20
  15   1   6    0.50    0.40
  15   1   6   -0.20    0.20
 -15   1  -6    0.20    0.30
 -15   1  -6    0.40    0.20
 -15  -1  -6    0.30    0.30
 -15  -1  -6    0.40    0.30
  15  -1   6    0.40    0.20
  15  -1   6    0.50    0.40
  15  -1   6    0.50    0.30
  15   2  -8    2.60    0.50
 -15   2   8    2.60    0.40
 -15   2   8    3.00    0.60
  15   2  -8    2.60    0.60
  15  -2  -8    2.50    0.50
  15  -2  -8    2.70    0.50
  15  -2  -8    2.70    0.60
 -15  -2   8    2.40    0.40
 -15  -2   8    2.90    0.60
  15   2  -7    3.50    0.50
 -15   2   7    2.80    0.40
 -15   2   7    2.90    0.50
  15   2  -7    4.50    1.70
 -15   2   7    2.90    0.40
  15   2  -7    3.00    0.60
 -15  -2   7    2.40    1.50
 -15  -2   7    3.60    0.60
  15  -2  -7    3.40    0.60
  15  -2  -7    2.80    0.50
  15  -2  -7    3.00    1.60
  15  -2  -7    2.70    0.50
 -15  -2   7    3.60    0.50
  15   2  -6   23.70    1.20
 -15   2   6   22.00    1.10
  15   2  -6   22.60    3.20
 -15   2   6   21.80    3.00
 -15   2   6   22.90    1.20
 -15   2   6   22.30    1.10
  15   2  -6   22.40    1.30
 -15  -2   6   21.40    1.20
  15  -2  -6   22.70    1.30
 -15  -2   6   22.20    1.30
  15  -2  -6   23.00    1.30
  15  -2  -6   22.70    1.20
 -15  -2   6   19.90    3.00
 -15  -2   6   22.80    1.10
  15  -2  -6   22.60    3.40
  15   2  -5    0.90    1.00
 -15   2   5    0.90    0.80
 -15   2   5    1.60    0.30
  15   2  -5    2.10    0.40
 -15   2   5    2.10    0.40
 -15   2   5    1.50    0.30
  15   2  -5    2.70    0.50
 -15  -2   5    3.20    1.40
  15  -2  -5    1.90    0.40
 -15  -2   5    2.70    0.40
  15  -2  -5    1.30    1.10
 -15  -2   5    1.80    0.30
  15  -2  -5    1.70    0.40
 -15  -2   5    2.80    0.50
  15  -2  -5    1.90    0.50
  15   2  -4  100.09    3.70
 -15   2   4   94.99    6.70
  15   2  -4   93.59    3.80
  15   2  -4   90.99    6.40
 -15   2   4  100.89    3.70
 -15   2   4  103.69    3.70
 -15   2   4   99.29    3.70
 -15  -2   4   98.09    3.80
 -15  -2   4   97.09    6.50
 -15  -2   4   96.29    3.70
  15  -2  -4  100.19    3.80
  15  -2  -4  100.59    3.80
  15  -2  -4   98.59    3.90
  15  -2  -4  105.99    7.40
 -15  -2   4   98.89    3.80
  15   2  -3   13.20    2.30
  15   2  -3   14.80    1.00
 -15   2   3   14.90    0.80
 -15   2   3   14.90    0.80
 -15   2   3   14.60    0.80
 -15   2   3   14.40    2.40
  15   2  -3   15.20    0.80
 -15  -2   3   17.80    2.50
  15  -2  -3   15.40    0.90
 -15  -2   3   15.00    0.80
  15  -2  -3   13.80    0.90
  15  -2  -3   13.70    0.90
  15  -2  -3   11.30    3.00
 -15  -2   3   15.90    0.90
 -15  -2   3   14.90    0.90
  15   2  -2  297.87   10.60
  15   2  -2  302.97   10.50
 -15   2   2  307.87   10.50
 -15   2   2  290.57   10.40
 -15   2   2  305.97   14.20
  15   2  -2  303.67   14.10
  15  -2  -2  314.07   10.30
  15  -2  -2  300.67   10.60
  15  -2  -2  304.27   10.60
 -15  -2   2  289.27   13.50
  15  -2  -2  302.67   10.60
 -15  -2   2  290.97   10.50
  15  -2  -2  292.67   14.90
 -15  -2   2  305.07   10.70
 -15  -2   2  304.67   10.50
 -15   2   1   16.10    0.80
  15   2  -1   13.90    1.00
  15   2  -1   14.70    0.90
 -15   2   1   17.00    2.50
  15   2  -1   15.30    0.80
  15   2  -1   11.60    2.10
 -15   2   1   16.00    0.80
 -15  -2   1   14.10    0.70
 -15  -2   1   18.50    2.20
 -15  -2   1   15.70    0.90
 -15  -2   1   14.50    0.90
  15  -2  -1   16.40    0.90
  15  -2  -1   15.90    0.90
  15  -2  -1   16.10    0.70
  15  -2  -1   13.30    2.50
  15   2   0  130.19    7.60
 -15   2   0  133.59    4.60
  15   2   0  126.19    4.70
 -15   2   0  139.99    8.10
 -15   2   0  126.59    4.70
  15   2   0  125.99    4.80
  15   2   0  122.99    4.80
 -15   2   0  130.89    4.70
 -15  -2   0  126.89    4.80
  15  -2   0  134.89    4.90
 -15  -2   0  125.69    4.80
  15  -2   0  135.09    4.90
 -15  -2   0  127.89    4.60
  15  -2   0  132.59    4.60
  15  -2   0  134.29    8.70
 -15   2  -1    0.10    0.10
  15   2   1    0.10    0.10
 -15   2  -1    0.20    0.20
  15   2   1    0.10    0.20
 -15   2  -1    0.10    0.20
  15   2   1    0.00    0.20
 -15   2  -1   -0.70    0.70
  15  -2   1    0.30    0.20
  15  -2   1    2.00    1.10
 -15  -2  -1    0.00    0.10
  15  -2   1    0.50    0.20
  15  -2   1    0.30    0.20
 -15  -2  -1    0.10    0.20
 -15  -2  -1    0.10    0.20
 -15   2  -2   73.19    2.80
 -15   2  -2   77.39    6.10
  15   2   2   75.59    3.00
 -15   2  -2   77.49    2.80
  15   2   2   74.79    3.00
  15  -2   2   70.29    2.90
  15  -2   2   70.09    3.10
 -15  -2  -2   75.69    4.60
  15  -2   2   72.59    2.90
 -15  -2  -2   75.49    3.00
 -15  -2  -2   77.19    3.00
 -15  -2  -2   75.49    2.80
 -15   2  -3   13.50    0.80
 -15   2  -3   14.70    0.80
  15   2   3   13.90    0.90
  15   2   3   13.20    0.90
 -15   2  -3   11.90    2.40
  15  -2   3   13.90    0.90
  15  -2   3   13.00    0.90
 -15  -2  -3   13.00    0.90
  15  -2   3   15.30    1.00
 -15  -2  -3   14.70    0.90
 -15  -2  -3   13.70    0.80
 -15   2  -4    5.40    0.50
 -15   2  -4    5.50    0.50
 -15   2  -4    4.70    1.80
  15   2   4    5.10    0.60
  15   2   4    4.70    0.60
 -15  -2  -4    5.10    0.50
 -15  -2  -4    4.90    0.50
  15  -2   4    5.00    0.60
  15  -2   4    4.70    0.60
  15  -2   4    5.00    0.60
 -15  -2  -4    5.90    0.60
  15   2   5    1.10    0.40
 -15   2  -5   -1.00    1.10
 -15   2  -5    1.30    0.30
  15   2   5    1.60    0.40
 -15   2  -5    1.10    0.30
 -15  -2  -5    1.00    0.30
  15  -2   5    1.40    0.50
 -15  -2  -5    1.20    0.40
  15  -2   5    2.00    0.40
  15  -2   5    1.30    0.40
  15   3  -8    0.90    0.40
 -15   3   8    0.90    0.30
 -15   3   8    1.70    0.50
  15   3  -8    1.00    0.40
  15  -3  -8    0.90    0.50
 -15  -3   8    0.80    0.40
 -15  -3   8    0.60    0.30
  15  -3  -8    0.70    0.40
  15   3  -7   15.70    1.10
  15   3  -7   20.10    3.20
 -15   3   7   16.10    1.10
 -15   3   7   16.00    0.90
 -15   3   7   15.50    0.90
  15   3  -7   15.80    1.00
 -15  -3   7   15.50    1.00
  15  -3  -7   18.20    1.30
  15  -3  -7   15.00    1.00
 -15  -3   7   14.50    2.80
  15  -3  -7   16.90    1.10
 -15  -3   7   15.80    1.10
  15   3  -6   14.90    2.70
  15   3  -6   17.20    1.00
  15   3  -6   16.20    1.10
 -15   3   6   15.00    0.90
 -15   3   6   15.90    1.00
 -15   3   6   13.10    2.50
 -15   3   6   15.50    0.90
  15  -3  -6   14.80    1.00
  15  -3  -6   17.90    1.20
 -15  -3   6   15.70    2.60
  15  -3  -6   17.40    3.20
 -15  -3   6   15.80    1.00
  15  -3  -6   15.80    1.00
 -15  -3   6   16.90    1.10
 -15   3   5   43.00    1.80
 -15   3   5   42.20    4.30
  15   3  -5   42.90    1.80
  15   3  -5   42.60    2.00
 -15   3   5   46.70    1.80
 -15   3   5   44.10    1.80
  15   3  -5   37.20    4.20
  15  -3  -5   44.20    1.90
  15  -3  -5   43.90    1.90
 -15  -3   5   43.20    1.90
  15  -3  -5   36.00    4.40
 -15  -3   5   41.80    4.20
 -15  -3   5   42.60    1.90
 -15  -3   5   43.80    2.00
  15  -3  -5   40.40    2.10
  15   3  -4    0.40    0.20
  15   3  -4    0.30    0.20
 -15   3   4    0.70    0.30
 -15   3   4   -0.20    0.70
  15   3  -4    0.10    0.80
 -15   3   4    0.80    0.30
  15  -3  -4    0.50    0.30
 -15  -3   4    0.70    0.30
  15  -3  -4    0.60    1.10
 -15  -3   4    0.60    0.30
  15  -3  -4    0.60    0.30
 -15  -3   4    0.20    0.20
  15  -3  -4    0.40    0.20
 -15  -3   4   -0.30    0.60
  15   3  -3   51.69    2.00
  15   3  -3   52.89    4.30
 -15   3   3   49.99    2.00
 -15   3   3   49.50    4.50
 -15   3   3   51.59    2.00
  15   3  -3   48.50    2.20
  15  -3  -3   51.59    5.00
  15  -3  -3   51.29    2.30
 -15  -3   3   48.10    2.10
  15  -3  -3   51.39    2.20
 -15  -3   3   51.09    2.20
  15  -3  -3   54.19    2.20
 -15  -3   3   50.19    2.20
 -15  -3   3   45.80    4.00
 -15   3   2   30.50    1.30
 -15   3   2   30.70    3.50
  15   3  -2   33.60    3.30
  15   3  -2   30.60    1.40
  15   3  -2   30.80    1.50
  15  -3  -2   27.80    1.50
  15  -3  -2   30.50    1.50
  15  -3  -2   34.00    4.20
  15  -3  -2   31.10    1.50
 -15  -3   2   31.50    1.50
 -15  -3   2   30.60    3.00
 -15  -3   2   32.00    1.50
 -15  -3   2   30.10    1.40
 -15   3   1  187.88    6.70
 -15   3   1  183.68   10.20
  15   3  -1  185.98    6.90
  15   3  -1  199.78    6.70
  15   3  -1  179.38    6.90
  15   3  -1  180.08    9.60
 -15   3   1  195.28    6.70
  15  -3  -1  200.58    7.00
 -15  -3   1  197.28    9.10
 -15  -3   1  184.18    6.90
  15  -3  -1  199.08    7.00
 -15  -3   1  190.78    6.90
  15  -3  -1  190.38   11.30
  15  -3  -1  191.88    6.90
 -15   3   0   51.59    2.00
 -15   3   0   48.20    2.00
  15   3   0   50.59    2.20
 -15   3   0   48.10    4.50
  15   3   0   49.40    2.10
 -15  -3   0   48.70    1.90
 -15  -3   0   49.50    2.10
  15  -3   0   49.70    2.10
  15  -3   0   49.90    2.20
  15  -3   0   51.39    5.20
 -15  -3   0   50.59    2.20
 -15   3  -1   46.20    1.90
  15   3   1   44.60    2.00
 -15   3  -1   47.20    1.80
 -15   3  -1   43.60    4.60
  15   3   1   42.60    2.00
 -15   3  -1   45.60    1.80
  15  -3   1   46.60    2.10
 -15  -3  -1   46.60    1.90
  15  -3   1   44.40    4.80
 -15  -3  -1   46.50    2.10
 -15  -3  -1   43.20    2.00
  15  -3   1   45.20    2.00
 -15   3  -2   -0.50    1.00
 -15   3  -2    0.80    0.20
  15   3   2    0.60    0.30
 -15   3  -2    0.50    0.20
  15   3   2    0.90    0.30
 -15  -3  -2    0.90    0.20
 -15  -3  -2    0.80    0.30
  15  -3   2    0.20    0.20
  15  -3   2    0.50    0.30
 -15  -3  -2    0.80    0.30
 -15   3  -3   43.30    1.80
  15   3   3   46.70    2.10
  15   3   3   46.10    2.00
 -15   3  -3   44.70    1.90
 -15   3  -3   43.20    4.30
 -15   3  -3   46.60    5.10
  15  -3   3   42.60    2.00
  15  -3   3   46.10    2.20
 -15  -3  -3   44.40    1.90
 -15  -3  -3   45.40    2.10
 -15  -3  -3   45.10    2.00
  15   3   4    8.10    0.80
  15   3   4    8.50    0.70
 -15   3  -4    8.40    0.60
 -15   3  -4    9.80    2.50
 -15   3  -4    8.80    0.60
 -15  -3  -4    9.20    0.70
  15  -3   4   10.80    0.90
 -15  -3  -4    8.20    0.80
  15  -3   4    9.20    0.70
 -15  -3  -4    8.20    0.70
  15   3   5    1.70    0.40
 -15   3  -5    0.10    1.40
 -15   3  -5    1.00    0.30
 -15   3  -5    1.50    0.30
  15   3   5    1.30    0.40
 -15  -3  -5    1.30    0.40
 -15  -3  -5    1.80    0.40
  15  -3   5    1.60    0.40
  15  -3   5    1.20    0.40
 -15   4   8    0.90    0.30
  15   4  -8    1.10    0.40
  15   4  -8    1.00    0.40
 -15   4   8    1.80    0.50
  15  -4  -8    1.20    0.40
 -15  -4   8    1.20    0.50
  15  -4  -8    1.50    0.60
 -15  -4   8    1.00    0.40
 -15   4   7    6.20    0.60
 -15   4   7    6.40    0.60
  15   4  -7    7.50    0.70
  15   4  -7    6.90    0.80
  15   4  -7    7.10    2.40
  15  -4  -7    6.00    0.70
  15  -4  -7    5.90    0.80
 -15  -4   7    7.50    0.70
 -15  -4   7    7.30    0.80
 -15   4   6   15.90    0.90
  15   4  -6   18.40    3.10
 -15   4   6   12.50    4.20
 -15   4   6   15.90    0.90
  15   4  -6   17.30    1.10
  15   4  -6   17.40    1.00
  15  -4  -6   20.00    3.60
  15  -4  -6   15.00    1.20
  15  -4  -6   14.80    1.00
  15  -4  -6   15.50    1.10
 -15  -4   6   15.90    1.10
 -15  -4   6   17.00    1.00
 -15   4   5    0.80    0.30
  15   4  -5    0.30    0.90
 -15   4   5   -0.90    0.90
  15   4  -5    0.40    0.30
 -15   4   5    0.50    0.30
  15   4  -5    0.60    0.30
  15  -4  -5    1.50    1.50
 -15  -4   5    0.40    0.30
  15  -4  -5    0.10    0.30
 -15  -4   5    0.60    0.30
  15  -4  -5    0.60    0.30
  15  -4  -5    1.00    0.40
 -15  -4   5    0.90    1.00
 -15  -4   5    0.60    0.20
  15   4  -4   21.00    1.20
  15   4  -4   22.00    1.10
 -15   4   4   23.30    1.10
 -15   4   4   18.70    2.80
  15   4  -4   21.40    3.00
 -15   4   4   21.30    1.10
 -15  -4   4   20.30    1.30
  15  -4  -4   18.90    3.40
  15  -4  -4   22.10    1.40
 -15  -4   4   22.50    1.20
 -15  -4   4   21.70    1.20
  15  -4  -4   22.80    1.20
  15  -4  -4   22.90    1.20
  15   4  -3   19.80    2.70
  15   4  -3   22.70    1.20
 -15   4   3   17.60    2.90
 -15   4   3   21.40    1.10
 -15   4   3   21.40    1.10
  15   4  -3   21.20    1.00
 -15  -4   3   21.80    1.20
 -15  -4   3   22.30    1.20
  15  -4  -3   21.10    1.20
  15  -4  -3   21.20    1.30
  15  -4  -3   23.10    3.60
 -15  -4   3   22.20    1.30
  15  -4  -3   21.30    1.20
 -15   4   2   99.89    3.90
  15   4  -2  105.89    3.90
  15   4  -2  101.79    6.50
  15   4  -2  107.29    4.10
 -15   4   2  109.29    7.20
 -15   4   2  106.79    3.90
 -15  -4   2  107.89    4.10
  15  -4  -2  108.99    4.10
 -15  -4   2  104.89    4.10
 -15  -4   2  104.59    4.10
  15  -4  -2  108.79    8.10
  15  -4  -2  109.19    4.20
  15  -4  -2  105.99    4.10
 -15   4   1   17.00    2.60
 -15   4   1   14.10    0.80
 -15   4   1   13.20    0.80
  15   4  -1   13.10    0.90
  15   4  -1   12.70    0.90
 -15  -4   1   12.70    0.90
 -15  -4   1   13.20    0.90
  15  -4  -1   13.20    1.00
  15  -4  -1   13.50    0.90
  15  -4  -1   14.40    0.90
  15  -4  -1   14.00    2.90
 -15   4   0   36.70    1.50
  15   4   0   35.90    1.70
 -15   4   0   36.90    1.60
 -15   4   0   38.90    4.20
  15   4   0   37.10    1.80
  15  -4   0   38.70    1.80
 -15  -4   0   37.40    1.60
 -15  -4   0   35.60    1.70
  15  -4   0   30.20    4.10
  15  -4   0   39.40    1.80
 -15  -4   0   35.40    1.80
  15  -4   0   39.30    1.80
 -15   4  -1    0.20    0.20
  15   4   1    0.10    0.20
 -15   4  -1    0.20    0.30
 -15   4  -1   -0.80    0.60
 -15   4  -1    0.10    0.10
  15   4   1    0.10    0.20
 -15  -4  -1    0.10    0.20
  15  -4   1    0.10    0.20
  15  -4   1    0.60    1.20
  15  -4   1    0.00    0.20
 -15  -4  -1    0.60    0.20
 -15  -4  -1    0.00    0.20
  15   4   2   43.40    1.90
  15   4   2   44.60    2.00
 -15   4  -2   41.30    1.80
 -15   4  -2   42.90    1.70
 -15  -4  -2   41.20    1.80
 -15  -4  -2   42.30    2.00
  15  -4   2   42.70    2.10
  15  -4   2   42.20    1.90
 -15  -4  -2   42.80    2.00
 -15   4  -3    7.60    2.30
  15   4   3    9.80    0.80
 -15   4  -3    9.20    0.60
 -15   4  -3    9.00    2.60
 -15   4  -3    9.70    0.60
  15   4   3    9.00    0.70
  15  -4   3   10.90    0.90
 -15  -4  -3    8.50    0.70
 -15  -4  -3    7.10    0.70
  15  -4   3   10.30    0.80
 -15  -4  -3    8.70    0.70
  15   4   4    5.70    0.70
 -15   4  -4    3.00    1.60
 -15   4  -4    5.00    0.50
 -15   4  -4    5.60    0.50
  15   4   4    4.90    0.60
  15  -4   4    4.40    0.60
  15  -4   4    5.50    0.70
 -15  -4  -4    5.30    0.70
 -15  -4  -4    5.70    0.60
 -15  -4  -4    4.50    0.60
  15   4   5    0.10    0.30
 -15   4  -5    0.10    0.20
  15   4   5    0.20    0.30
 -15   4  -5    0.00    0.20
 -15  -4  -5   -0.10    0.20
 -15  -4  -5    0.40    0.30
  15  -4   5   -0.10    0.20
  15  -4   5    0.30    0.30
 -15   5   7   12.30    0.80
  15   5  -7   12.30    0.90
 -15   5   7   12.00    0.80
  15   5  -7   11.50    1.00
  15   5  -7    4.50    2.60
  15  -5  -7   12.10    1.00
 -15  -5   7   12.40    1.00
 -15  -5   7   12.10    0.90
  15  -5  -7   11.50    1.10
  15   5  -6    1.50    0.40
  15   5  -6    1.00    1.40
 -15   5   6    1.80    0.40
 -15   5   6    1.10    0.30
  15   5  -6    1.80    0.40
 -15  -5   6    1.30    0.40
  15  -5  -6    0.70    0.40
 -15  -5   6    1.50    0.40
  15  -5  -6    1.00    0.40
  15   5  -5   26.00    1.30
  15   5  -5   24.90    3.40
  15   5  -5   25.30    1.40
 -15   5   5   25.90    1.20
 -15   5   5   25.40    1.20
 -15  -5   5   25.80    1.40
 -15  -5   5   23.10    1.30
  15  -5  -5   27.40    1.60
  15  -5  -5   24.40    1.40
  15  -5  -5   19.30    4.40
 -15  -5   5   26.00    1.40
 -15   5   4   18.80    1.00
 -15   5   4   19.90    3.00
  15   5  -4   17.80    2.90
 -15   5   4   18.40    1.00
  15   5  -4   17.40    1.10
  15   5  -4   17.90    1.00
 -15  -5   4   18.80    1.10
 -15  -5   4   17.90    1.10
  15  -5  -4   18.30    1.10
  15  -5  -4   13.70    3.60
 -15  -5   4   18.30    1.20
  15  -5  -4   18.20    1.10
  15  -5  -4   17.60    1.30
 -15   5   3   14.10    0.80
  15   5  -3   13.40    0.90
 -15   5   3   14.20    0.80
 -15   5   3   12.20    2.50
  15   5  -3   12.40    0.80
  15   5  -3   16.10    3.20
 -15  -5   3   13.20    0.90
  15  -5  -3   13.60    0.90
 -15  -5   3   12.20    0.90
  15  -5  -3   20.40    3.50
  15  -5  -3   14.40    1.00
 -15  -5   3   11.60    0.90
  15  -5  -3   14.50    1.10
 -15   5   2    0.90    1.20
 -15   5   2    0.80    0.30
  15   5  -2    0.90    0.40
 -15   5   2    0.60    0.20
  15  -5  -2    0.50    0.30
 -15  -5   2    0.80    0.30
  15  -5  -2    1.30    0.40
  15  -5  -2    0.90    0.30
 -15  -5   2    1.40    0.40
  15  -5  -2    2.50    1.50
 -15  -5   2    1.20    0.30
  15   5  -1   58.79    2.50
 -15   5   1   61.49    2.40
 -15   5   1   62.99    2.40
 -15   5   1   55.49    5.10
  15   5  -1   57.79    2.50
  15  -5  -1   56.99    5.80
  15  -5  -1   62.59    2.60
 -15  -5   1   58.69    2.60
  15  -5  -1   61.99    2.60
  15  -5  -1   60.79    2.70
 -15  -5   1   60.59    2.60
 -15   5   0    5.40    0.40
 -15   5   0    5.20    0.50
  15   5   0    4.90    0.60
  15   5   0    5.10    0.60
 -15   5   0    1.20    1.30
  15  -5   0    5.00    0.60
  15  -5   0    5.70    0.60
  15  -5   0    5.00    0.70
 -15  -5   0    5.00    0.60
 -15  -5   0    4.80    0.60
  15  -5   0    4.30    2.10
  15   5   1   18.90    1.10
 -15   5  -1   19.00    1.00
  15   5   1   17.60    1.10
 -15   5  -1   21.30    3.30
 -15  -5  -1   18.40    1.20
  15  -5   1   19.60    1.20
 -15  -5  -1   17.40    1.10
 -15  -5  -1   18.10    1.10
  15  -5   1   23.90    3.70
 -15   5  -2    7.80    2.60
 -15   5  -2    8.60    0.60
  15   5   2    7.40    0.70
 -15   5  -2    7.50    0.60
  15   5   2    7.40    0.70
 -15  -5  -2    7.90    0.70
  15  -5   2    9.90    0.80
 -15  -5  -2    7.60    0.70
 -15  -5  -2    7.10    0.70
  15  -5   2    9.10    0.80
 -15   5  -3   32.20    1.40
  15   5   3   32.60    1.60
  15   5   3   30.90    1.60
 -15   5  -3   31.00    1.40
 -15   5  -3   32.70    5.90
 -15  -5  -3   29.40    1.60
  15  -5   3   30.80    1.70
 -15  -5  -3   30.60    1.60
 -15  -5  -3   29.20    1.60
  15  -5   3   31.00    1.60
 -15   5  -4    2.60    0.40
  15   5   4    2.90    0.50
 -15   5  -4    2.50    0.40
  15   5   4    2.40    0.50
 -15  -5  -4    3.00    0.60
  15  -5   4    3.40    0.50
 -15  -5  -4    2.00    0.40
 -15  -5  -4    3.10    0.50
  15  -5   4    2.90    0.60
 -15   6   6    6.40    0.60
  15   6  -6    5.50    0.60
  15   6  -6    6.10    0.70
 -15   6   6    4.10    0.50
  15  -6  -6    6.60    0.70
 -15  -6   6    5.40    0.70
 -15  -6   6    5.80    0.70
  15  -6  -6    5.40    0.80
  15   6  -5    2.10    0.50
 -15   6   5    2.00    0.40
  15   6  -5    2.00    0.40
 -15   6   5    1.90    0.40
  15  -6  -5    1.50    0.40
 -15  -6   5    2.70    0.60
  15  -6  -5    1.80    0.60
 -15  -6   5    1.70    0.50
 -15  -6   5    1.70    0.50
 -15   6   4   20.10    1.00
 -15   6   4   20.40    1.00
  15   6  -4   19.70    1.20
 -15  -6   4   18.00    1.20
  15  -6  -4   18.40    1.30
  15  -6  -4   19.10    1.20
 -15  -6   4   20.00    1.20
 -15  -6   4   19.00    1.20
  15   6  -3    1.60    0.40
 -15   6   3    2.70    1.60
 -15   6   3    1.30    0.30
 -15   6   3    1.00    0.30
  15  -6  -3    1.30    0.40
 -15  -6   3    1.30    0.40
  15  -6  -3   -1.40    1.40
 -15  -6   3    1.00    0.40
 -15  -6   3    1.50    0.40
  15  -6  -3    0.90    0.30
  15  -6  -3    1.30    0.40
  15   6  -2   13.80    1.00
 -15   6   2   10.60    2.60
 -15   6   2   14.00    0.80
 -15   6   2   14.50    0.80
  15  -6  -2   15.00    1.10
  15  -6  -2   14.00    1.00
  15  -6  -2   15.50    1.00
 -15  -6   2   14.30    1.00
  15  -6  -2    7.90    2.50
 -15  -6   2   12.90    1.00
 -15  -6   2   14.60    1.00
 -15   6   1    1.30    0.30
  15   6  -1    1.20    0.40
 -15   6   1    1.20    0.30
  15   6  -1    0.90    0.30
 -15   6   1    2.80    1.40
  15  -6  -1    1.50    0.40
  15  -6  -1    0.80    0.30
  15  -6  -1    3.80    2.00
 -15  -6   1    0.60    0.30
 -15  -6   1    1.50    0.40
  15  -6  -1    1.10    0.50
 -15   6   0   29.90    1.40
  15   6   0   31.40    1.60
 -15   6   0   30.50    1.40
  15   6   0   29.60    1.50
  15  -6   0   31.10    1.70
 -15  -6   0   30.30    1.60
  15  -6   0   33.00    4.50
 -15  -6   0   30.40    1.60
  15  -6   0   33.10    1.60
  15  -6   0   31.70    1.70
 -15   6  -1    0.80    0.30
  15   6   1    0.10    0.30
 -15  -6  -1    0.70    0.40
 -15  -6  -1    0.80    0.30
  15  -6   1    1.60    1.60
  15  -6   1    0.70    0.30
  15  -6   1    0.70    0.40
  15  -6   1    1.10    0.40
 -15   6  -2    4.50    0.60
  15   6   2    5.20    0.60
 -15   6  -2    5.30    0.50
  15   6   2    5.60    0.60
  15  -6   2    5.30    0.60
 -15  -6  -2    5.00    0.60
  15  -6   2    4.90    0.70
 -15  -6  -2    5.40    0.70
 -15  -6  -2    5.80    0.70
  15   6   3    4.00    0.60
 -15   6  -3    5.00    0.50
  15   6   3    4.60    0.60
 -15   6  -3    4.30    0.50
 -15  -6  -3    3.90    0.60
  15  -6   3    4.40    0.60
 -15  -6  -3    3.60    0.70
  15  -6   3    4.30    0.60
 -15  -6  -3    4.80    0.60
 -15   7   5    6.40    0.60
 -15   7   5    5.70    0.60
  15   7  -5    6.40    0.70
 -15  -7   5    5.50    0.70
  15  -7  -5    6.40    0.70
  15  -7  -5    6.40    0.90
 -15  -7   5    5.50    0.70
 -15   7   4    3.80    0.50
 -15   7   4    3.50    0.50
  15   7  -4    3.90    0.60
 -15  -7   4    3.80    0.60
 -15  -7   4    4.70    0.70
  15  -7  -4    4.10    0.60
  15  -7  -4    3.10    0.70
 -15  -7   4    4.10    0.60
 -15   7   3    2.90    0.40
 -15   7   3    2.30    0.40
  15   7  -3    2.00    0.40
 -15  -7   3    2.00    0.50
 -15  -7   3    2.10    0.50
 -15  -7   3    2.80    0.60
  15  -7  -3    3.50    0.70
  15  -7  -3    3.40    0.60
 -15   7   2    2.00    0.40
 -15   7   2    1.90    0.40
  15   7  -2    2.50    0.60
  15   7  -2    2.00    0.50
 -15  -7   2    1.90    0.50
  15  -7  -2    2.20    0.60
  15  -7  -2    2.70    0.60
 -15  -7   2    1.30    0.50
  15  -7  -2    2.60    0.50
  15   7  -1    6.40    0.70
 -15   7   1    6.50    0.60
 -15   7   1    5.40    0.50
  15   7  -1    6.50    0.70
  15  -7  -1    6.10    0.70
  15  -7  -1    6.60    0.80
  15  -7  -1    6.50    0.70
 -15  -7   1    5.30    0.70
 -15  -7   1    6.00    0.70
  15   7   0    1.50    0.40
 -15   7   0    2.40    0.40
  15   7   0    1.70    0.50
  15  -7   0    1.90    0.50
 -15  -7   0    1.40    0.40
 -15  -7   0    1.50    0.40
  15  -7   0    3.00    0.60
  15  -7   0    2.00    0.50
 -15   7  -1    9.50    0.70
  15   7   1    9.50    0.80
  15   7   1    9.20    0.80
  15  -7   1    9.40    0.90
 -15  -7  -1   10.60    0.90
 -15  -7  -1    8.90    0.90
  15  -7   1    9.40    0.80
  15  -7   1   10.90    1.00
  15   7   2    0.30    0.30
 -15   7  -2    0.30    0.30
  15   7   2    1.10    0.40
 -15   7  -2    0.90    0.30
  15  -7   2    0.50    0.30
  15  -7   2    0.70    0.40
 -15  -7  -2    0.50    0.40
 -15  -7  -2    0.20    0.30
 -15   8   2    4.20    0.50
  15   8  -2    3.90    0.70
 -15   8   2    3.90    0.50
  15   8  -2    3.50    0.60
  15  -8  -2    3.80    0.70
 -15  -8   2    4.30    0.60
  15  -8  -2    4.50    0.60
 -15  -8   2    3.50    0.70
  15   8  -1   -0.10    0.30
 -15   8   1    0.00    0.20
 -15   8   1    0.20    0.20
  15   8  -1    0.40    0.40
  15  -8  -1   -0.10    0.20
 -15  -8   1    0.10    0.30
 -15  -8   1   -0.20    0.20
  15  -8  -1   -0.10    0.40
 -16   0   8    8.10    0.80
 -16   0   8    7.80    0.70
  16   0  -8    8.10    0.70
  16   0  -8    7.60    0.80
  16   0  -7    0.20    0.30
 -16   0   7    0.20    0.30
  16   0  -7    1.60    1.50
 -16   0   7    0.20    0.20
  16   0  -7    0.10    0.30
  16   0  -6   66.49    2.70
 -16   0   6   65.89    2.80
 -16   0   6   68.79    2.60
 -16   0   6   65.39    6.10
  16   0  -6   65.19    5.60
  16   0  -6   66.89    2.80
 -16   0   6   65.29    2.70
 -16   0   5    0.00    0.20
  16   0  -5    0.30    0.30
 -16   0   5    0.90    1.00
  16   0  -5   -0.60    0.80
 -16   0   5    0.00    0.20
  16   0  -5    0.00    0.30
 -16   0   5    0.10    0.20
  16   0  -4  174.98    6.30
  16   0  -4  173.18    9.90
  16   0  -4  174.28    6.20
 -16   0   4  168.28    6.10
 -16   0   4  172.08    6.30
 -16   0   4  173.78    6.20
 -16   0   4  167.68    9.70
  16   0  -3    0.10    0.60
 -16   0   3    0.10    0.10
 -16   0   3    0.10    0.80
  16   0  -3   -0.40    0.20
 -16   0   3    0.20    0.20
 -16   0   3    0.10    0.20
  16   0  -3    0.10    0.20
 -16   0   3   -0.20    0.10
  16   0  -2  139.99    8.90
 -16   0   2  146.49    8.30
  16   0  -2  143.39    5.30
  16   0  -2  136.09    5.30
 -16   0   2  145.69    5.00
 -16   0   2  144.89    5.20
 -16   0   2  148.69    5.20
 -16   0   1    0.10    0.20
  16   0  -1    0.30    0.30
  16   0  -1    0.00    0.20
 -16   0   1    0.00    0.70
 -16   0   1    0.20    0.10
  16   0  -1    0.30    0.20
 -16   0   1    0.30    0.20
  16   0  -1    0.30    0.70
  16   0   0  106.09    7.40
  16   0   0  103.89    4.10
  16   0   0  104.29    4.00
 -16   0   0  109.89    6.70
 -16   0   0  105.79    4.00
 -16   0   0  107.89    3.80
  16   0   0  111.49    4.00
 -16   0   0  104.09    3.90
 -16   0  -1    0.40    0.20
  16   0   1    0.10    0.20
  16   0   1   -0.10    0.20
 -16   0  -1    0.00    0.10
 -16   0  -1    0.00    0.10
  16   0   1   -0.10    0.20
  16   0   1   -1.00    0.60
 -16   0  -1   -0.30    0.60
 -16   0  -2    0.30    0.20
 -16   0  -2    0.30    0.20
  16   0   2    0.20    0.20
 -16   0  -2    0.20    0.20
 -16   0  -2    0.80    0.90
  16   0   2    0.20    0.20
  16   0   2    0.60    0.20
  16   0   3    0.30    0.20
 -16   0  -3   -0.10    0.20
  16   0   3    0.00    0.20
  16   0   3   -0.10    0.20
 -16   0  -3    0.30    0.20
 -16   0  -3    0.40    0.80
  16   0   4   13.20    0.80
 -16   0  -4   13.20    0.80
 -16   0  -4   13.00    0.80
  16   0   4   13.40    1.00
  16   0   4   13.80    1.00
 -16   0  -5    0.20    0.20
  16   0   5    0.10    0.30
 -16   0  -5    0.30    0.20
  16   0   5    0.40    0.30
 -16   1   8    1.30    0.40
 -16   1   8    0.90    0.30
  16   1  -8    1.90    0.40
  16   1  -8    1.30    0.40
 -16  -1   8    1.60    0.40
 -16  -1   8    1.90    0.50
  16  -1  -8    1.50    0.40
  16  -1  -8    1.30    0.50
 -16   1   7   20.70    1.30
 -16   1   7   19.50    1.10
  16   1  -7   16.10    3.00
  16   1  -7   18.70    1.20
  16   1  -7   20.10    1.10
 -16   1   7   18.80    1.10
 -16  -1   7   20.10    1.20
  16  -1  -7   17.80    3.10
 -16  -1   7   17.60    1.10
  16  -1  -7   19.50    1.20
  16  -1  -7   19.40    1.10
 -16  -1   7   17.30    3.10
 -16   1   6    2.30    0.50
 -16   1   6    1.50    1.10
  16   1  -6    0.60    1.20
  16   1  -6    2.00    0.40
  16   1  -6    1.60    0.40
 -16   1   6    2.10    0.30
  16  -1  -6    2.70    0.50
 -16  -1   6    1.30    0.40
 -16  -1   6    1.60    0.30
 -16  -1   6    1.90    0.30
  16  -1  -6    2.00    0.40
  16  -1  -6    2.60    1.40
 -16   1   5   41.10    4.20
  16   1  -5   41.60    1.90
  16   1  -5   34.90    4.00
 -16   1   5   41.20    1.70
  16   1  -5   42.60    1.80
 -16   1   5   40.60    1.90
 -16   1   5   40.70    1.80
 -16  -1   5   40.50    1.90
 -16  -1   5   41.70    1.80
 -16  -1   5   34.80    3.80
  16  -1  -5   42.70    1.90
 -16  -1   5   41.50    1.80
  16  -1  -5   44.20    1.90
  16  -1  -5   40.10    4.40
  16  -1  -5   42.10    1.90
 -16   1   4   15.00    0.90
  16   1  -4   15.50    1.00
  16   1  -4   15.20    0.90
 -16   1   4   10.90    2.20
 -16   1   4   15.90    0.80
 -16   1   4   15.10    0.90
  16   1  -4   18.10    2.80
  16  -1  -4   14.60    1.00
 -16  -1   4   15.30    0.90
 -16  -1   4   15.70    0.80
 -16  -1   4   15.60    2.60
  16  -1  -4   14.40    0.90
 -16  -1   4   15.30    1.00
  16  -1  -4   12.30    2.60
  16  -1  -4   15.10    0.90
 -16   1   3  211.58    7.40
 -16   1   3  203.88    7.30
  16   1  -3  196.68   11.10
 -16   1   3  210.88   10.90
  16   1  -3  212.58    7.40
  16   1  -3  203.78    7.50
 -16   1   3  217.48    7.50
 -16  -1   3  207.48    7.30
  16  -1  -3  210.58    7.40
 -16  -1   3  214.68   10.90
  16  -1  -3  194.38   11.60
 -16  -1   3  196.18    7.40
  16  -1  -3  214.38    7.50
 -16  -1   3  213.08    7.50
  16  -1  -3  210.28    7.50
 -16   1   2   18.70    1.00
 -16   1   2   21.10    2.80
  16   1  -2   19.30    1.10
  16   1  -2   20.30    1.10
  16   1  -2   21.60    3.00
 -16   1   2   18.80    1.00
 -16   1   2   18.80    0.80
  16  -1  -2   19.00    1.10
  16  -1  -2   19.70    0.90
  16  -1  -2   19.70    3.10
 -16  -1   2   19.80    1.00
 -16  -1   2   19.10    1.10
 -16  -1   2   19.00    1.00
  16  -1  -2   19.60    1.10
 -16  -1   2   21.00    2.70
  16   1  -1   76.39    3.20
  16   1  -1   80.89    3.10
  16   1  -1   82.89    6.20
 -16   1   1   79.19    5.60
 -16   1   1   80.19    3.00
 -16   1   1   80.29    2.90
 -16   1   1   83.59    3.10
  16   1  -1   79.89    3.10
  16  -1  -1   80.69    3.20
 -16  -1   1   82.59    5.50
  16  -1  -1   83.39    3.00
  16  -1  -1   67.99    6.00
 -16  -1   1   80.49    3.10
 -16  -1   1   81.29    2.90
 -16  -1   1   79.09    3.10
  16  -1  -1   79.89    3.20
  16   1   0    1.70    0.40
 -16   1   0    2.40    0.30
 -16   1   0    1.80    0.30
  16   1   0    0.80    1.00
  16   1   0    1.50    0.30
 -16   1   0    1.80    0.30
  16   1   0    1.50    0.30
 -16   1   0    4.10    1.60
  16  -1   0    2.40    1.50
 -16  -1   0    2.60    0.30
 -16  -1   0    1.90    0.20
 -16  -1   0    1.30    0.90
  16  -1   0    2.30    0.30
  16  -1   0    2.10    0.40
  16  -1   0    2.60    0.40
 -16  -1   0    2.00    0.30
  16   1   1   58.79    2.40
 -16   1  -1   63.79    5.10
  16   1   1   60.29    2.50
 -16   1  -1   58.09    2.30
  16   1   1   63.99    5.20
  16   1   1   62.19    2.40
 -16   1  -1   57.29    2.40
 -16   1  -1   59.79    2.30
 -16  -1  -1   59.49    2.30
 -16  -1  -1   55.29    5.00
  16  -1   1   58.39    2.50
  16  -1   1   56.59    2.40
  16  -1   1   60.39    2.40
 -16  -1  -1   59.09    2.40
 -16  -1  -1   59.29    2.50
  16  -1   1   53.89    5.30
  16   1   2    7.30    0.60
 -16   1  -2    7.70    0.60
 -16   1  -2    7.60    0.50
  16   1   2    8.00    0.60
  16   1   2    7.60    0.70
 -16   1  -2    8.00    0.60
 -16   1  -2    9.20    1.80
 -16  -1  -2    7.40    0.60
  16  -1   2    8.10    0.60
  16  -1   2    7.70    0.70
 -16  -1  -2    7.90    0.70
  16  -1   2    8.10    0.60
 -16  -1  -2    8.00    0.50
 -16  -1  -2    8.30    1.60
  16   1   3    0.50    0.20
 -16   1  -3    0.50    0.20
  16   1   3    0.20    0.20
 -16   1  -3    0.70    1.10
 -16   1  -3    0.50    0.20
  16   1   3    0.30    0.30
 -16  -1  -3    0.20    0.20
  16  -1   3    0.40    0.20
 -16  -1  -3    0.20    0.20
  16  -1   3    0.20    0.30
 -16  -1  -3    0.20    0.20
  16  -1   3   -0.10    0.20
  16   1   4    1.20    0.40
  16   1   4    0.60    0.30
 -16   1  -4    0.90    0.30
 -16   1  -4    1.10    0.30
  16  -1   4    0.80    0.30
 -16  -1  -4    0.80    0.30
 -16  -1  -4    0.90    0.30
  16  -1   4    1.00    0.40
  16  -1   4    0.90    0.30
  16   1   5    7.00    0.70
  16   1   5    6.90    0.70
 -16   1  -5    6.50    0.60
 -16   1  -5    7.60    0.60
 -16  -1  -5    7.50    0.70
  16  -1   5    7.00    0.80
 -16  -1  -5    7.10    0.60
  16  -1   5    7.30    0.80
  16  -1   5    7.00    0.60
 -16   2   8    9.70    0.90
 -16   2   8    8.40    0.70
  16   2  -8   10.60    0.80
  16   2  -8    8.30    0.90
  16  -2  -8    9.00    0.80
 -16  -2   8    8.80    0.70
 -16  -2   8   10.30    0.90
  16  -2  -8    8.60    0.80
  16   2  -7    1.40    0.40
  16   2  -7    0.60    0.40
 -16   2   7    1.40    0.40
 -16   2   7    1.50    0.40
  16   2  -7    0.30    1.40
 -16   2   7    0.90    0.30
  16  -2  -7    1.30    0.40
 -16  -2   7    1.30    0.40
 -16  -2   7   -1.60    1.20
  16  -2  -7    0.90    0.40
  16  -2  -7    0.90    0.40
 -16  -2   7    0.90    0.30
 -16   2   6   29.00    1.30
  16   2  -6   28.10    1.40
  16   2  -6   27.00    1.50
 -16   2   6   30.70    1.50
  16   2  -6   27.50    3.60
 -16   2   6   23.20    3.30
 -16   2   6   26.80    1.30
  16  -2  -6   23.60    3.70
 -16  -2   6   24.50    3.40
 -16  -2   6   29.40    1.50
  16  -2  -6   27.40    1.40
  16  -2  -6   29.70    1.50
  16  -2  -6   31.30    1.60
 -16  -2   6   27.50    1.40
 -16   2   5   10.70    2.20
 -16   2   5   10.00    0.70
 -16   2   5    9.30    0.70
  16   2  -5   10.30    0.70
 -16   2   5    9.50    0.70
  16   2  -5   10.40    2.60
  16   2  -5   10.00    0.80
  16  -2  -5   11.40    2.80
  16  -2  -5    9.80    0.80
 -16  -2   5   13.80    2.50
  16  -2  -5    9.00    0.80
  16  -2  -5    9.40    0.80
 -16  -2   5   10.80    0.80
 -16  -2   5    9.60    0.70
 -16  -2   5    9.40    0.60
  16   2  -4  176.98    6.70
 -16   2   4  186.88   10.30
 -16   2   4  184.98    6.50
  16   2  -4  186.88    6.60
 -16   2   4  194.38    6.60
 -16   2   4  184.68    6.60
  16   2  -4  181.58   10.00
 -16  -2   4  180.38   10.00
 -16  -2   4  186.18    6.80
  16  -2  -4  189.08    6.70
 -16  -2   4  186.58    6.60
  16  -2  -4  174.88   10.60
  16  -2  -4  177.38    6.70
  16  -2  -4  184.68    6.80
 -16  -2   4  181.58    6.70
  16   2  -3   22.10    1.30
  16   2  -3   25.60    3.20
 -16   2   3   23.90    3.10
 -16   2   3   25.30    1.20
  16   2  -3   23.30    1.20
 -16   2   3   24.40    1.10
 -16  -2   3   24.50    1.20
  16  -2  -3   23.00    1.20
 -16  -2   3   23.60    2.90
 -16  -2   3   24.10    1.20
 -16  -2   3   25.70    1.30
  16  -2  -3   22.80    1.30
  16  -2  -3   21.90    3.40
  16  -2  -3   23.70    1.30
 -16   2   2   56.39    2.20
  16   2  -2   55.19    2.30
 -16   2   2   61.39    2.30
  16   2  -2   52.49    2.40
 -16   2   2   60.79    5.00
  16   2  -2   52.99    4.90
  16  -2  -2   60.69    2.40
  16  -2  -2   58.19    2.40
  16  -2  -2   59.59    2.40
 -16  -2   2   53.89    2.40
  16  -2  -2   52.79    5.30
 -16  -2   2   57.09    4.50
 -16  -2   2   57.69    2.40
 -16  -2   2   56.09    2.30
 -16   2   1    0.30    0.80
 -16   2   1    0.40    0.20
  16   2  -1    0.50    0.20
  16   2  -1    0.90    0.40
 -16   2   1    0.60    0.20
  16   2  -1    0.40    0.20
  16   2  -1    0.10    0.90
 -16   2   1    0.70    0.20
 -16  -2   1    1.00    0.70
 -16  -2   1    0.60    0.20
  16  -2  -1   -0.30    0.70
  16  -2  -1    0.60    0.30
 -16  -2   1    0.60    0.20
  16  -2  -1    0.70    0.30
  16   2   0  171.98    5.90
  16   2   0  158.88    9.00
 -16   2   0  163.38    5.90
 -16   2   0  165.28    5.90
 -16   2   0  163.48    5.80
  16   2   0  166.48    6.10
 -16   2   0  165.58    9.40
  16   2   0  163.18    6.10
  16  -2   0  167.18    6.10
  16  -2   0  166.18    6.10
 -16  -2   0  170.28    6.00
  16  -2   0  153.98   10.00
 -16  -2   0  167.98    6.10
 -16  -2   0  169.88    5.80
 -16   2  -1   28.00    1.20
 -16   2  -1   26.90    3.40
  16   2   1   25.20    1.30
 -16   2  -1   25.40    1.10
 -16   2  -1   28.40    1.20
  16   2   1   25.40    1.20
  16   2   1   26.70    1.30
 -16  -2  -1   29.00    2.60
 -16  -2  -1   27.00    1.20
 -16  -2  -1   26.40    1.30
  16  -2   1   30.90    3.90
  16  -2   1   26.30    1.40
 -16  -2  -1   24.70    1.30
  16  -2   1   27.10    1.40
  16   2   2    2.30    0.50
 -16   2  -2    0.80    1.00
 -16   2  -2    1.40    0.30
 -16   2  -2    1.90    0.30
  16   2   2    1.40    0.30
  16  -2   2    1.90    0.40
 -16  -2  -2    1.90    0.40
 -16  -2  -2    1.50    0.30
 -16  -2  -2    2.20    0.40
  16  -2   2    2.10    0.30
  16  -2   2    1.40    0.40
 -16   2  -3    2.10    0.40
  16   2   3    2.60    0.50
 -16   2  -3    2.00    1.20
  16   2   3    2.90    0.40
 -16   2  -3    2.20    0.30
 -16  -2  -3    2.50    0.40
 -16  -2  -3    2.60    0.40
  16  -2   3    2.20    0.40
  16  -2   3    3.30    0.50
 -16  -2  -3    2.70    0.50
  16  -2   3    2.70    0.50
 -16   2  -4   27.70    1.30
  16   2   4   29.50    1.50
  16   2   4   27.00    1.50
 -16   2  -4   25.30    3.60
 -16   2  -4   27.70    1.30
 -16  -2  -4   28.80    1.40
 -16  -2  -4   26.60    1.30
  16  -2   4   27.50    1.40
  16  -2   4   27.20    1.50
  16  -2   4   24.40    1.50
 -16  -2  -4   28.80    1.50
  16   2   5    0.20    0.30
 -16   2  -5    0.10    0.20
  16   2   5    0.00    0.30
 -16   2  -5    0.30    0.20
  16  -2   5   -0.10    0.20
  16  -2   5    0.50    0.30
 -16  -2  -5    0.00    0.30
 -16  -2  -5    0.30    0.20
  16  -2   5    0.30    0.30
  16   3  -8    0.00    0.30
 -16   3   8    0.30    0.30
  16   3  -8   -0.20    0.30
 -16  -3   8    0.30    0.30
  16  -3  -8    0.30    0.40
 -16  -3   8    0.20    0.30
  16  -3  -8    0.00    0.30
  16   3  -7   14.10    0.90
  16   3  -7    8.40    2.40
 -16   3   7   13.30    0.80
 -16   3   7   12.10    0.80
  16   3  -7   13.40    1.00
 -16  -3   7   12.80    1.00
  16  -3  -7   12.40    0.90
  16  -3  -7   11.50    1.00
 -16  -3   7   13.20    0.90
  16  -3  -7   11.40    0.90
  16   3  -6   10.60    0.90
 -16   3   6   11.00    0.80
  16   3  -6   11.80    0.80
  16   3  -6    8.30    2.40
 -16   3   6   11.40    0.80
  16  -3  -6   10.30    0.80
  16  -3  -6   10.40    0.80
  16  -3  -6    9.10    2.50
 -16  -3   6   11.20    0.90
  16  -3  -6   10.10    1.00
 -16  -3   6   10.90    0.80
 -16   3   5   31.70    3.60
 -16   3   5   31.30    1.40
  16   3  -5   26.10    3.50
  16   3  -5   29.50    1.40
  16   3  -5   28.70    1.50
 -16   3   5   31.50    1.40
  16  -3  -5   32.00    1.60
 -16  -3   5   27.10    1.50
 -16  -3   5   30.30    1.50
  16  -3  -5   33.00    1.60
 -16  -3   5   30.70    1.60
  16  -3  -5   36.70    4.30
  16  -3  -5   33.50    1.70
  16   3  -4    0.40    0.30
 -16   3   4    0.20    0.20
 -16   3   4    0.20    0.90
  16   3  -4    0.40    0.30
 -16   3   4    0.70    0.20
  16  -3  -4   -0.50    0.90
 -16  -3   4    0.30    0.20
  16  -3  -4    0.80    0.30
 -16  -3   4    0.40    0.30
 -16  -3   4    0.00    0.20
  16  -3  -4    1.10    0.40
  16  -3  -4    0.90    0.30
  16   3  -3   90.19    6.40
 -16   3   3   91.89    3.50
 -16   3   3   95.79    3.50
 -16   3   3   84.89    6.40
  16   3  -3   93.19    3.70
  16   3  -3   96.89    3.50
  16  -3  -3   97.29    7.50
 -16  -3   3   92.29    3.60
  16  -3  -3   96.69    3.70
  16  -3  -3   84.39    3.70
 -16  -3   3   91.59    3.70
  16  -3  -3   98.79    3.70
 -16  -3   3   92.59    3.60
 -16   3   2    0.80    0.30
  16   3  -2    0.60    0.30
  16   3  -2    1.10    0.30
 -16   3   2    0.70    0.90
 -16   3   2    1.00    0.30
  16   3  -2    0.10    0.80
 -16  -3   2    0.90    0.30
  16  -3  -2   -0.30    0.80
 -16  -3   2    0.70    0.30
  16  -3  -2    0.70    0.30
  16  -3  -2    0.40    0.30
  16  -3  -2    0.60    0.30
 -16  -3   2    0.60    0.30
  16   3  -1   43.50    4.00
 -16   3   1   42.10    4.20
 -16   3   1   42.40    1.80
  16   3  -1   44.30    2.00
  16   3  -1   42.50    1.80
  16   3  -1   42.30    1.90
 -16   3   1   45.90    1.80
 -16  -3   1   41.70    1.90
  16  -3  -1   45.30    2.00
 -16  -3   1   41.70    1.90
  16  -3  -1   42.30    1.90
  16  -3  -1   48.90    5.10
  16  -3  -1   42.40    2.00
  16   3   0   21.60    2.40
  16   3   0   20.90    1.20
  16   3   0   20.30    1.10
 -16   3   0   20.90    1.00
 -16   3   0   21.10    1.00
 -16   3   0   20.60    1.00
 -16   3   0   21.10    2.90
 -16  -3   0   21.40    1.00
  16  -3   0   23.50    3.50
 -16  -3   0   21.80    1.20
  16  -3   0   21.40    1.20
  16  -3   0   20.70    1.20
 -16  -3   0   19.10    1.10
 -16   3  -1   53.09    2.10
 -16   3  -1   52.19    2.10
 -16   3  -1   50.79    4.90
 -16   3  -1   52.29    2.10
  16   3   1   53.39    2.30
  16   3   1   52.59    2.20
  16  -3   1   55.69    5.60
 -16  -3  -1   55.89    2.40
 -16  -3  -1   54.09    2.10
  16  -3   1   51.89    2.40
  16  -3   1   51.69    2.30
 -16  -3  -1   53.69    2.30
  16   3   2    1.90    0.40
 -16   3  -2    1.80    0.30
 -16   3  -2    1.70    0.30
  16   3   2    1.70    0.40
 -16   3  -2    4.00    1.70
  16  -3   2    2.10    0.40
 -16  -3  -2    1.90    0.30
 -16  -3  -2    1.70    0.40
 -16  -3  -2    1.90    0.40
  16  -3   2    1.90    0.40
 -16   3  -3    0.60    0.20
 -16   3  -3    0.70    1.10
 -16   3  -3    0.60    0.20
  16   3   3    0.60    0.30
  16   3   3    0.80    0.30
  16  -3   3    0.50    0.30
  16  -3   3    0.80    0.40
 -16  -3  -3    0.80    0.30
 -16  -3  -3    0.50    0.30
 -16  -3  -3    0.90    0.30
 -16   3  -4   -0.10    0.20
 -16   3  -4   -0.10    0.20
  16   3   4    0.10    0.20
 -16   3  -4    0.30    1.40
  16   3   4    0.20    0.30
 -16  -3  -4    0.20    0.30
  16  -3   4   -0.20    0.20
 -16  -3  -4   -0.10    0.20
 -16  -3  -4   -0.10    0.20
  16  -3   4   -0.10    0.20
  16   3   5    7.60    0.70
 -16   3  -5    7.60    0.60
 -16   3  -5    7.80    0.60
  16   3   5    9.40    0.90
 -16  -3  -5    7.70    0.80
  16  -3   5    8.20    0.80
 -16  -3  -5    7.20    0.70
  16  -3   5    7.50    0.70
  16   4  -7    0.50    0.30
  16   4  -7    1.60    1.70
 -16   4   7    1.10    0.40
  16   4  -7    1.70    0.50
 -16   4   7    1.40    0.40
 -16  -4   7    1.90    0.50
  16  -4  -7    0.60    0.40
 -16  -4   7    1.50    0.40
  16  -4  -7    1.00    0.50
 -16   4   6   20.50    1.10
  16   4  -6   15.80    3.10
  16   4  -6   18.60    1.20
  16   4  -6   19.80    1.10
 -16   4   6   19.70    1.00
  16  -4  -6   18.90    1.20
 -16  -4   6   19.10    1.20
  16  -4  -6   19.80    1.20
 -16  -4   6   19.60    1.20
  16  -4  -6   18.00    1.40
  16   4  -5    1.30    1.30
  16   4  -5    3.20    0.60
 -16   4   5    2.80    0.40
 -16   4   5    2.90    0.40
  16   4  -5    3.30    0.50
 -16   4   5    4.20    1.80
 -16  -4   5    2.20    0.50
  16  -4  -5    3.40    0.60
  16  -4  -5    2.80    0.60
  16  -4  -5    2.70    1.90
 -16  -4   5    3.70    0.50
 -16  -4   5    3.60    0.60
  16  -4  -5    3.20    0.50
  16   4  -4   58.19    5.10
 -16   4   4   49.50    4.80
  16   4  -4   53.49    2.40
 -16   4   4   57.89    2.30
 -16   4   4   59.89    2.30
  16   4  -4   55.19    2.30
 -16  -4   4   57.29    2.50
 -16  -4   4   57.09    2.50
  16  -4  -4   54.09    5.50
  16  -4  -4   60.39    2.50
  16  -4  -4   57.39    2.60
  16  -4  -4   58.99    2.50
 -16  -4   4   54.79    2.40
 -16   4   3    6.50    0.50
  16   4  -3    5.70    0.70
  16   4  -3    6.30    0.50
 -16   4   3    6.20    0.50
 -16   4   3    5.80    1.90
  16   4  -3    5.60    1.60
  16  -4  -3    7.60    0.70
  16  -4  -3    7.10    0.60
 -16  -4   3    5.60    0.60
 -16  -4   3    5.60    0.60
 -16  -4   3    5.20    0.60
  16  -4  -3    6.10    2.30
  16  -4  -3    6.50    0.70
 -16  -4   3    5.70    1.60
 -16   4   2   66.89    2.60
  16   4  -2   67.09    2.60
 -16   4   2   62.49    2.50
  16   4  -2   65.39    5.20
  16   4  -2   64.69    2.70
 -16   4   2   59.49    5.20
  16  -4  -2   65.99    2.80
 -16  -4   2   68.39    2.70
 -16  -4   2   64.99    2.70
 -16  -4   2   65.89    2.70
  16  -4  -2   69.79    2.80
  16  -4  -2   65.59    2.70
  16  -4  -2   59.69    5.80
 -16   4   1   -0.10    0.20
  16   4  -1    0.20    0.30
 -16   4   1    0.00    0.20
 -16   4   1    0.00    0.90
  16   4  -1    0.10    0.20
  16  -4  -1    0.10    0.20
  16  -4  -1   -1.00    1.00
 -16  -4   1    0.10    0.20
  16  -4  -1    0.00    0.20
  16  -4  -1    0.00    0.30
 -16  -4   1    0.20    0.30
 -16   4   0   36.80    1.60
  16   4   0   36.20    1.70
  16   4   0   35.00    1.70
 -16   4   0   37.00    1.60
  16  -4   0   36.60    1.80
  16  -4   0   36.80    1.80
 -16  -4   0   37.40    1.80
  16  -4   0   38.60    4.60
  16  -4   0   37.10    1.70
 -16  -4   0   34.80    1.70
 -16   4  -1   29.10    1.30
 -16   4  -1   29.20    1.30
  16   4   1   29.00    1.50
  16   4   1   29.30    1.50
 -16  -4  -1   28.70    1.50
 -16  -4  -1   29.40    1.50
  16  -4   1   35.60    4.50
  16  -4   1   28.80    1.50
 -16  -4  -1   28.10    1.40
  16  -4   1   30.60    1.60
 -16   4  -2   17.70    0.90
 -16   4  -2   18.90    1.00
  16   4   2   17.80    1.10
 -16   4  -2   15.90    3.60
  16   4   2   19.10    1.10
 -16  -4  -2   16.80    1.10
  16  -4   2   16.10    1.10
  16  -4   2   17.40    1.10
 -16  -4  -2   17.90    1.00
 -16  -4  -2   18.10    1.10
 -16   4  -3    2.90    0.40
 -16   4  -3    3.40    1.70
  16   4   3    3.50    0.50
 -16   4  -3    3.10    0.40
  16   4   3    3.90    0.60
  16  -4   3    3.70    0.50
  16  -4   3    3.00    0.60
 -16  -4  -3    4.20    0.60
 -16  -4  -3    2.10    0.50
 -16  -4  -3    3.20    0.40
 -16   4  -4    6.60    0.50
  16   4   4    6.40    0.70
 -16   4  -4    6.10    0.50
  16   4   4    5.90    0.70
 -16  -4  -4    5.60    0.70
 -16  -4  -4    5.90    0.60
  16  -4   4    5.40    0.60
 -16  -4  -4    5.70    0.70
  16  -4   4    6.10    0.70
 -16   5   7    5.60    0.60
  16   5  -7    5.90    0.60
  16   5  -7    4.50    0.70
 -16   5   7    5.40    0.60
  16  -5  -7    5.50    0.70
  16  -5  -7    5.90    0.80
 -16  -5   7    4.70    0.70
 -16  -5   7    5.30    0.60
  16   5  -6    1.00    0.40
 -16   5   6    1.50    0.40
  16   5  -6    1.70    0.50
 -16   5   6    1.10    0.30
  16  -5  -6    0.80    0.40
  16  -5  -6    1.30    0.50
 -16  -5   6    1.80    0.50
 -16  -5   6    1.60    0.40
  16   5  -5    9.10    0.70
 -16   5   5    9.60    0.70
 -16   5   5    8.40    0.60
  16   5  -5    8.30    0.80
 -16  -5   5    8.60    0.70
 -16  -5   5    9.20    0.80
  16  -5  -5    8.10    0.90
 -16  -5   5    8.70    0.80
  16  -5  -5    8.00    0.80
  16   5  -4    3.70    0.50
 -16   5   4    4.00    1.70
 -16   5   4    3.20    0.40
  16   5  -4    3.70    0.50
 -16   5   4    3.70    0.40
 -16  -5   4    3.10    0.50
 -16  -5   4    3.90    0.50
  16  -5  -4    4.30    0.60
  16  -5  -4    3.60    0.70
  16  -5  -4    3.30    0.50
 -16  -5   4    4.10    0.60
  16  -5  -4    4.30    2.20
  16   5  -3   26.10    1.40
 -16   5   3   25.20    1.20
 -16   5   3   21.20    3.60
 -16   5   3   24.90    1.20
  16  -5  -3   26.10    1.50
  16  -5  -3   25.20    1.40
  16  -5  -3   25.30    1.40
 -16  -5   3   23.90    1.40
 -16  -5   3   23.90    1.40
 -16  -5   3   27.40    1.40
  16  -5  -3   29.20    4.10
 -16   5   2   17.90    0.90
 -16   5   2   18.10    0.90
  16   5  -2   16.20    1.10
 -16   5   2   16.00    2.70
 -16  -5   2   16.80    1.10
  16  -5  -2   19.00    1.20
 -16  -5   2   14.50    1.00
  16  -5  -2   18.90    1.10
  16  -5  -2   16.70    1.20
 -16  -5   2   17.20    1.10
  16  -5  -2   17.40    3.30
 -16   5   1   19.10    1.00
 -16   5   1   19.60    1.00
  16   5  -1   19.40    1.10
 -16   5   1   20.20    3.00
  16   5  -1   19.40    1.20
  16  -5  -1   16.50    3.90
 -16  -5   1   19.50    1.20
  16  -5  -1   18.60    1.20
 -16  -5   1   19.50    1.20
  16  -5  -1   19.20    1.10
  16  -5  -1   19.00    1.20
 -16   5   0    1.10    0.30
  16   5   0    0.80    0.40
  16   5   0    1.10    0.40
 -16   5   0    1.10    0.40
 -16  -5   0    1.50    0.40
  16  -5   0    1.00    0.40
  16  -5   0    1.20    0.40
  16  -5   0    1.10    0.40
 -16  -5   0    1.50    0.40
  16  -5   0    1.30    1.50
  16   5   1   37.00    1.80
 -16   5  -1   34.90    4.20
 -16   5  -1   36.60    1.60
 -16   5  -1   37.40    1.60
  16   5   1   36.60    1.70
  16  -5   1   37.50    1.90
 -16  -5  -1   36.00    1.80
  16  -5   1   37.60    1.80
  16  -5   1   37.50    4.90
 -16  -5  -1   38.60    1.90
 -16   5  -2   13.50    3.00
 -16   5  -2   14.80    0.80
 -16   5  -2   14.00    0.80
  16   5   2   13.00    1.00
  16   5   2   12.60    0.90
  16  -5   2   15.10    1.00
 -16  -5  -2   12.60    1.00
 -16  -5  -2   13.10    1.00
  16  -5   2   16.10    1.10
 -16  -5  -2   14.00    0.90
  16   5   3    3.70    0.60
 -16   5  -3    4.30    0.50
 -16   5  -3    4.20    0.40
  16   5   3    3.90    0.50
  16  -5   3    4.50    0.60
  16  -5   3    3.60    0.60
 -16  -5  -3    4.30    0.60
 -16  -5  -3    4.30    0.60
 -16  -5  -3    4.30    0.50
  16   6  -6   10.50    0.80
 -16   6   6    9.70    0.70
 -16   6   6    9.90    0.70
  16   6  -6   11.20    0.90
 -16  -6   6    9.30    0.90
  16  -6  -6    9.60    1.10
  16  -6  -6   10.90    0.90
 -16  -6   6    8.50    0.80
 -16   6   5    2.00    0.40
  16   6  -5    2.10    0.50
 -16   6   5    2.10    0.40
  16   6  -5    2.60    0.50
 -16  -6   5    2.70    0.50
  16  -6  -5    1.90    0.50
 -16  -6   5    2.80    0.60
  16  -6  -5    1.60    0.60
 -16   6   4   15.90    0.90
 -16   6   4   16.80    0.90
  16   6  -4   16.80    1.10
 -16  -6   4   14.80    1.10
 -16  -6   4   16.80    1.10
  16  -6  -4   16.40    1.10
 -16  -6   4   15.70    1.10
  16  -6  -4   15.90    1.20
  16   6  -3    1.00    0.40
 -16   6   3    1.30    0.30
 -16   6   3    0.70    0.30
 -16  -6   3    0.90    0.40
 -16  -6   3    0.80    0.40
  16  -6  -3    1.50    0.40
 -16  -6   3    0.20    0.30
  16  -6  -3    0.90    0.30
  16  -6  -3    1.00    0.50
 -16   6   2   17.30    1.00
  16   6  -2   17.60    1.10
 -16   6   2   18.50    1.00
  16  -6  -2   17.70    1.20
 -16  -6   2   16.00    1.10
  16  -6  -2   17.20    4.80
  16  -6  -2   18.30    1.30
 -16  -6   2   16.40    1.10
  16  -6  -2   18.80    1.10
  16   6  -1    0.10    0.30
  16   6  -1    0.40    0.30
 -16   6   1    0.70    0.30
 -16   6   1    0.80    0.30
 -16  -6   1    0.70    0.30
  16  -6  -1    0.80    0.40
  16  -6  -1    1.10    0.40
  16  -6  -1    0.40    0.30
 -16  -6   1    0.50    0.30
  16   6   0   10.60    0.80
  16   6   0    9.80    0.90
 -16   6   0   10.60    0.70
  16  -6   0   10.60    0.90
  16  -6   0    9.90    1.00
 -16  -6   0   11.30    0.90
  16  -6   0   11.20    0.90
 -16  -6   0   10.20    0.90
  16   6   1    4.40    0.60
 -16   6  -1    5.10    0.60
  16   6   1    3.80    0.50
  16  -6   1    5.00    0.70
  16  -6   1    5.10    0.60
 -16  -6  -1    4.40    0.60
 -16  -6  -1    4.60    0.60
  16   6   2   13.70    0.90
  16   6   2   13.40    1.00
 -16   6  -2   13.70    0.80
 -16   6  -2   13.30    0.90
  16  -6   2   14.80    1.00
  16  -6   2   14.20    1.10
 -16  -6  -2   13.40    1.00
 -16  -6  -2   13.50    1.00
 -16   6  -3    0.10    0.20
  16   6   3   -0.10    0.30
  16   6   3    0.00    0.30
 -16   6  -3    0.10    0.20
 -16  -6  -3    0.40    0.30
 -16  -6  -3   -0.10    0.30
  16  -6   3    0.10    0.20
  16  -6   3    0.00    0.30
 -16  -6  -3    0.10    0.30
  16   7  -4    0.40    0.30
 -16   7   4    0.80    0.30
 -16   7   4    0.90    0.30
 -16  -7   4    0.80    0.40
  16  -7  -4    0.30    0.40
  16  -7  -4    0.60    0.40
 -16  -7   4    0.40    0.30
 -16  -7   4    1.00    0.40
 -16   7   3    5.70    0.60
  16   7  -3    5.50    0.70
 -16   7   3    5.60    0.60
 -16  -7   3    6.40    0.70
  16  -7  -3    6.10    0.70
  16  -7  -3    5.00    0.80
 -16  -7   3    6.90    0.80
 -16  -7   3    5.30    0.70
 -16   7   2    1.40    0.40
 -16   7   2    1.50    0.30
  16   7  -2    0.90    0.40
  16   7  -2    1.80    0.50
  16  -7  -2    1.40    0.40
  16  -7  -2    1.90    0.50
  16  -7  -2    1.50    0.40
 -16  -7   2    2.40    0.60
 -16  -7   2    1.30    0.40
 -16   7   1   10.50    0.70
 -16   7   1    9.10    0.70
  16   7  -1   10.00    0.90
  16   7  -1    9.00    0.80
 -16  -7   1   11.20    0.90
  16  -7  -1   10.00    0.90
  16  -7  -1   11.30    0.90
  16  -7  -1   10.90    1.00
 -16  -7   1   10.10    0.90
  16   7   0    0.90    0.40
 -16   7   0    1.10    0.30
  16   7   0    0.90    0.40
 -16  -7   0    0.80    0.40
  16  -7   0    1.70    0.50
  16  -7   0    1.60    0.40
 -16  -7   0    0.70    0.40
  16  -7   0    1.90    0.50
  16   7   1   16.50    1.10
  16   7   1   16.10    1.00
 -16   7  -1   15.90    0.90
 -16  -7  -1   15.90    1.20
 -16  -7  -1   16.00    1.10
  16  -7   1   13.70    1.00
  16  -7   1   15.60    1.20
  16  -7   1   15.70    1.20
  17   0  -8    7.40    0.80
 -17   0   8    7.70    0.70
  17   0  -8    8.40    0.70
 -17   0   8    7.70    0.80
  17   0  -7   -0.30    1.40
 -17   0   7    0.10    0.30
 -17   0   7    0.00    0.20
  17   0  -7    0.40    0.40
  17   0  -7   -0.10    0.30
 -17   0   6   85.19    3.50
 -17   0   6   84.69    3.30
 -17   0   6   83.59    6.60
  17   0  -6   79.29    6.50
  17   0  -6   87.69    3.40
  17   0  -6   88.39    3.50
 -17   0   6   85.79    3.30
 -17   0   5    0.10    0.20
  17   0  -5   -1.20    1.00
 -17   0   5   -0.10    0.80
 -17   0   5    0.10    0.20
 -17   0   5    0.10    0.20
  17   0  -5    0.00    0.30
  17   0  -5    0.10    0.30
 -17   0   4   29.90    3.50
 -17   0   4   30.10    1.40
  17   0  -4   30.10    1.60
 -17   0   4   31.70    1.40
  17   0  -4   30.50    3.80
 -17   0   4   31.20    1.50
  17   0  -4   32.70    1.50
  17   0  -3    2.40    1.30
 -17   0   3    0.00    0.20
  17   0  -3   -0.20    0.20
 -17   0   3    0.00    0.20
 -17   0   3    1.70    1.10
  17   0  -3   -0.20    0.20
  17   0  -2  187.08    6.70
 -17   0   2  188.68   10.00
  17   0  -2  172.98   10.60
 -17   0   2  185.38    6.30
  17   0  -2  181.38    6.50
  17   0  -2  181.18    6.60
 -17   0   2  178.28    6.40
 -17   0   2  178.18    6.50
  17   0  -1    0.00    0.20
 -17   0   1   -0.10    0.10
  17   0  -1    0.10    0.20
  17   0  -1    0.10    1.00
 -17   0   1    0.00    0.10
  17   0  -1   -0.10    0.20
 -17   0   1    0.00    0.10
 -17   0   1    0.90    0.80
 -17   0   0   22.40    2.90
 -17   0   0   19.10    0.90
  17   0   0   18.30    1.00
  17   0   0   20.20    1.00
  17   0   0   18.20    3.00
  17   0   0   18.90    1.10
 -17   0   0   19.80    1.00
 -17   0   0   19.10    1.00
 -17   0  -1    0.00    0.20
 -17   0  -1    0.00    0.10
  17   0   1    0.00    0.20
 -17   0  -1    1.20    0.90
  17   0   1    0.30    0.20
  17   0   1    0.20    0.20
  17   0   1   -0.50    1.00
 -17   0  -1   -0.20    0.10
 -17   0  -2   58.69    2.40
  17   0   2   58.19    2.40
 -17   0  -2   60.09    4.90
  17   0   2   56.89    2.40
  17   0   2   55.89    2.50
 -17   0  -2   57.49    2.30
 -17   0  -2   56.99    2.40
  17   0   3    0.20    0.20
 -17   0  -3    0.20    0.20
  17   0   3    0.50    0.30
 -17   0  -3    0.60    0.20
  17   0   3    0.50    0.30
  17   0   4    8.60    0.80
 -17   0  -4    9.10    0.60
  17   0   4    8.80    0.80
 -17   0  -4    9.10    0.70
 -17   0  -5    0.10    0.20
  17   0   5    0.00    0.30
 -17   0  -5    0.20    0.20
  17   0   5   -0.10    0.20
 -17   1   8    1.60    0.40
 -17   1   8    2.10    0.50
  17   1  -8    2.20    0.50
  17   1  -8    2.50    0.50
  17  -1  -8    2.30    0.50
 -17  -1   8    2.90    0.60
 -17  -1   8    2.60    0.50
  17  -1  -8    1.70    0.40
  17   1  -7   16.70    1.10
 -17   1   7   15.80    1.10
  17   1  -7   16.90    1.00
  17   1  -7   14.90    3.30
 -17   1   7   16.90    1.00
 -17  -1   7   15.40    1.00
 -17  -1   7   17.30    1.10
  17  -1  -7   17.20    1.10
  17  -1  -7   18.10    1.10
 -17   1   6    2.90    0.50
  17   1  -6    2.10    1.30
 -17   1   6    0.20    1.10
 -17   1   6    2.60    0.40
 -17   1   6    2.60    0.40
  17   1  -6    2.40    0.50
  17   1  -6    1.90    0.50
 -17  -1   6    2.30    0.30
  17  -1  -6    2.80    0.50
 -17  -1   6    2.20    0.40
 -17  -1   6    2.20    0.50
  17  -1  -6    3.10    0.60
 -17  -1   6    1.90    1.30
  17  -1  -6    1.10    1.40
 -17   1   5  103.89    4.00
 -17   1   5   98.29    3.80
  17   1  -5  101.89    4.00
  17   1  -5  100.69    3.90
 -17   1   5  102.69    3.90
  17   1  -5   93.49    7.00
 -17  -1   5   92.79    6.90
  17  -1  -5  107.39    4.10
 -17  -1   5  105.79    3.90
  17  -1  -5  101.29    7.50
 -17  -1   5  102.79    4.00
 -17  -1   5  105.69    3.90
  17  -1  -5  107.79    4.00
 -17   1   4    2.30    1.40
 -17   1   4    3.20    0.40
  17   1  -4    1.60    1.10
  17   1  -4    3.20    0.50
 -17   1   4    3.40    0.40
  17   1  -4    2.80    0.50
 -17   1   4    2.80    0.40
 -17  -1   4    3.90    0.40
  17  -1  -4    3.40    0.50
 -17  -1   4    3.40    0.40
  17  -1  -4    3.10    0.50
 -17  -1   4    2.50    1.30
 -17  -1   4    3.10    0.50
  17  -1  -4    1.70    1.30
  17  -1  -4    3.30    0.40
 -17   1   3   46.70    4.30
 -17   1   3   44.30    1.90
  17   1  -3   45.80    4.60
 -17   1   3   46.50    1.90
  17   1  -3   46.20    2.00
  17   1  -3   43.80    2.00
 -17   1   3   43.10    1.80
 -17  -1   3   47.40    4.30
 -17  -1   3   44.50    2.00
 -17  -1   3   46.60    1.90
  17  -1  -3   44.40    2.00
  17  -1  -3   45.10    2.00
  17  -1  -3   39.40    4.60
 -17  -1   3   45.00    1.90
  17   1  -2   17.30    1.00
  17   1  -2   18.00    1.00
 -17   1   2   16.90    0.90
 -17   1   2   17.70    0.90
 -17   1   2   19.80    2.80
  17   1  -2   14.10    2.60
 -17   1   2   17.00    0.80
  17   1  -2   17.20    1.10
 -17  -1   2   17.50    2.50
 -17  -1   2   18.70    1.00
  17  -1  -2   14.00    2.70
  17  -1  -2   16.90    1.00
  17  -1  -2   16.80    0.90
 -17  -1   2   17.50    0.90
  17  -1  -2   17.20    1.00
  17   1  -1   62.39    2.50
  17   1  -1   64.39    2.60
  17   1  -1   65.69    5.60
 -17   1   1   64.39    2.40
 -17   1   1   63.59    2.50
 -17   1   1   61.49    2.50
  17   1  -1   62.49    2.60
 -17   1   1   67.39    5.20
  17  -1  -1   61.69    5.60
 -17  -1   1   67.09    2.60
  17  -1  -1   63.79    2.50
  17  -1  -1   60.89    2.60
 -17  -1   1   61.19    2.50
 -17  -1   1   63.49    2.30
  17  -1  -1   61.99    2.60
  17   1   0    1.50    0.40
  17   1   0    2.40    1.30
 -17   1   0    1.20    0.90
  17   1   0    1.10    0.30
 -17   1   0    1.30    0.30
 -17   1   0    0.80    0.20
  17   1   0    0.90    0.30
 -17   1   0    1.20    0.30
  17  -1   0    1.10    0.20
  17  -1   0    1.10    0.30
 -17  -1   0    1.00    0.30
  17  -1   0    2.60    1.30
 -17  -1   0    0.80    0.30
  17  -1   0    1.30    0.40
 -17  -1   0    1.20    0.20
 -17   1  -1    0.40    0.20
  17   1   1    0.60    0.30
  17   1   1    0.30    1.00
 -17   1  -1    0.50    0.20
 -17   1  -1    0.40    0.20
  17   1   1    0.90    0.30
  17   1   1    0.30    0.20
 -17  -1  -1    0.80    0.20
  17  -1   1    0.80    0.30
  17  -1   1    0.90    1.30
  17  -1   1    0.60    0.20
  17  -1   1    1.00    0.40
 -17  -1  -1    0.70    0.30
 -17  -1  -1    1.40    1.00
 -17  -1  -1    1.00    0.30
  17   1   2    1.10    0.40
  17   1   2    0.90    0.30
 -17   1  -2    0.90    0.20
  17   1   2    1.00    0.30
 -17   1  -2    1.70    0.30
 -17   1  -2    1.30    1.00
  17  -1   2    1.80    0.50
  17  -1   2    1.20    0.40
  17  -1   2    1.50    0.40
 -17  -1  -2    0.70    0.30
 -17  -1  -2    1.10    0.30
 -17  -1  -2    0.80    0.30
 -17   1  -3   11.90    3.90
  17   1   3   12.90    1.00
 -17   1  -3   13.00    0.80
 -17   1  -3   13.10    0.80
  17   1   3   13.10    0.90
  17  -1   3   13.50    0.90
 -17  -1  -3   12.40    0.80
  17  -1   3   13.70    0.90
 -17  -1  -3   13.10    0.80
  17  -1   3   12.60    1.00
 -17  -1  -3   14.40    0.90
  17   1   4    1.60    0.40
 -17   1  -4    1.90    0.30
 -17   1  -4    2.40    0.40
  17   1   4    2.80    0.50
  17  -1   4    1.60    0.40
  17  -1   4    1.50    0.40
 -17  -1  -4    3.00    0.40
 -17  -1  -4    2.00    0.40
  17  -1   4    2.20    0.50
  17   1   5   12.10    0.90
 -17   1  -5   11.80    0.80
 -17   1  -5   11.30    0.80
  17   1   5   11.30    0.90
 -17  -1  -5   12.30    0.80
  17  -1   5   10.90    0.90
  17  -1   5   12.70    0.90
 -17  -1  -5   10.50    0.80
  17  -1   5   10.80    0.90
  17   2  -8   13.60    1.00
  17   2  -8   13.70    1.00
 -17   2   8   13.60    1.10
 -17   2   8   13.70    0.90
  17  -2  -8   11.20    1.00
 -17  -2   8   13.70    1.10
  17  -2  -8   12.90    1.00
 -17  -2   8   12.50    0.90
 -17   2   7   -0.20    0.20
  17   2  -7   -0.10    0.30
  17   2  -7   -1.30    1.30
 -17   2   7    0.20    0.30
  17   2  -7    0.30    0.30
 -17   2   7    0.00    0.20
 -17  -2   7    0.50    0.30
  17  -2  -7    0.10    0.30
 -17  -2   7    0.70    0.40
  17  -2  -7    0.00    0.30
 -17   2   6   45.70    2.10
  17   2  -6   39.70    4.40
 -17   2   6   45.20    1.90
  17   2  -6   45.10    2.00
 -17   2   6   33.40    7.90
 -17   2   6   44.00    1.90
  17   2  -6   43.60    2.00
  17  -2  -6   48.20    2.10
  17  -2  -6   46.40    2.10
 -17  -2   6   45.30    2.10
  17  -2  -6   44.00    2.20
  17  -2  -6   49.99    5.20
 -17  -2   6   44.00    2.00
 -17  -2   6   42.90    2.00
  17   2  -5    2.30    0.40
 -17   2   5    2.70    0.40
 -17   2   5    2.70    0.40
  17   2  -5    1.10    1.00
 -17   2   5    3.40    0.40
 -17   2   5    2.20    1.40
  17   2  -5    2.70    0.50
  17  -2  -5    3.30    0.50
  17  -2  -5    3.20    0.50
 -17  -2   5    1.70    0.40
  17  -2  -5    2.90    0.50
 -17  -2   5    2.40    0.50
  17  -2  -5    3.80    2.00
 -17  -2   5    2.20    0.40
  17   2  -4   73.29    3.10
 -17   2   4   75.89    2.80
 -17   2   4   69.19    5.60
 -17   2   4   78.29    2.90
  17   2  -4   63.79    5.70
  17   2  -4   73.09    2.90
 -17   2   4   75.99    2.90
  17  -2  -4   72.09    3.00
 -17  -2   4   74.99    3.10
  17  -2  -4   66.69    6.30
 -17  -2   4   72.29    2.90
  17  -2  -4   73.49    3.00
 -17  -2   4   71.89    2.90
  17  -2  -4   76.19    3.00
  17   2  -3    0.80    0.90
  17   2  -3    0.00    0.30
 -17   2   3   -0.30    0.70
 -17   2   3    0.00    0.20
 -17   2   3    0.30    0.20
  17   2  -3    0.30    0.30
  17  -2  -3    0.00    0.20
 -17  -2   3    0.20    0.20
  17  -2  -3    0.30    0.30
 -17  -2   3    0.30    0.20
 -17  -2   3    0.30    0.20
  17  -2  -3    0.50    0.30
  17   2  -2   61.69    2.70
 -17   2   2   63.29    5.10
 -17   2   2   62.89    2.50
 -17   2   2   61.69    2.40
  17   2  -2   63.39    2.50
  17   2  -2   60.19    5.40
  17  -2  -2   59.79    5.70
 -17  -2   2   64.59    2.50
 -17  -2   2   64.79    2.60
  17  -2  -2   62.19    2.60
  17  -2  -2   63.89    2.60
  17   2  -1   22.80    1.20
 -17   2   1   23.40    1.00
 -17   2   1   24.60    3.10
 -17   2   1   22.60    1.10
  17   2  -1   24.40    1.20
  17   2  -1   23.20    1.30
  17   2  -1   21.00    3.00
 -17   2   1   23.30    1.10
  17  -2  -1   23.60    1.30
 -17  -2   1   23.90    1.20
  17  -2  -1   19.40    3.30
 -17  -2   1   23.40    1.20
  17  -2  -1   24.00    1.30
  17   2   0    3.30    0.40
  17   2   0    4.40    1.60
 -17   2   0    3.60    0.30
 -17   2   0    3.00    0.40
 -17   2   0    3.40    0.40
  17   2   0    3.30    0.40
 -17   2   0    3.40    1.40
  17   2   0    3.80    0.50
  17  -2   0    3.70    0.50
  17  -2   0    3.70    0.50
 -17  -2   0    3.60    0.50
 -17  -2   0    3.60    0.40
 -17  -2   0    3.70    0.30
  17  -2   0    2.50    1.70
  17   2   1    7.30    0.60
 -17   2  -1    5.90    0.50
 -17   2  -1    7.10    0.50
 -17   2  -1    5.20    2.20
 -17   2  -1    6.80    0.50
  17   2   1    7.30    0.60
 -17  -2  -1    6.70    0.60
 -17  -2  -1    6.20    0.50
  17  -2   1    6.40    0.60
  17  -2   1    6.00    0.60
 -17  -2  -1    6.10    0.60
  17  -2   1    8.60    2.90
 -17   2  -2   14.40    0.80
  17   2   2   13.30    0.90
  17   2   2   13.20    0.90
 -17   2  -2   13.00    0.70
 -17   2  -2   14.10    2.50
 -17  -2  -2   13.80    0.90
  17  -2   2   12.90    0.90
 -17  -2  -2   13.60    0.90
 -17  -2  -2   13.60    0.80
  17  -2   2   11.80    0.90
  17   2   3    0.60    0.30
 -17   2  -3    1.00    0.30
  17   2   3    1.10    0.40
 -17   2  -3    3.40    1.60
 -17   2  -3    1.10    0.30
  17  -2   3    1.30    0.30
  17  -2   3    0.90    0.40
 -17  -2  -3    0.70    0.30
 -17  -2  -3    0.60    0.20
 -17  -2  -3    0.40    0.30
  17   2   4    0.10    0.20
  17   2   4    0.00    0.20
 -17   2  -4    0.10    0.20
 -17   2  -4   -0.10    0.20
 -17  -2  -4    0.00    0.20
  17  -2   4    0.10    0.20
  17  -2   4    0.30    0.30
 -17  -2  -4    0.40    0.20
  17   3  -7   10.60    2.80
  17   3  -7   10.90    0.80
 -17   3   7    9.20    0.70
  17   3  -7   10.20    0.90
 -17   3   7    8.90    0.70
 -17  -3   7   10.40    0.90
  17  -3  -7   10.50    0.90
  17  -3  -7    9.70    0.80
 -17  -3   7    9.80    0.80
  17  -3  -7    8.30    1.00
 -17   3   6    1.90    0.40
 -17   3   6    1.30    0.30
  17   3  -6    1.60    0.40
  17   3  -6    1.90    1.60
  17   3  -6    1.50    0.40
 -17  -3   6    1.80    0.40
  17  -3  -6    1.90    0.50
  17  -3  -6    2.30    0.50
 -17  -3   6    1.80    0.50
  17  -3  -6    1.50    0.40
 -17   3   5   39.00    1.60
 -17   3   5   37.60    1.60
  17   3  -5   35.40    1.70
  17   3  -5   35.00    1.70
 -17   3   5   33.80    4.20
  17   3  -5   30.90    3.70
  17  -3  -5   40.90    4.90
  17  -3  -5   37.70    1.90
 -17  -3   5   35.90    1.70
 -17  -3   5   35.00    1.80
  17  -3  -5   37.90    1.80
  17  -3  -5   38.50    1.80
 -17  -3   5   35.70    1.70
  17   3  -4    8.70    2.30
 -17   3   4   10.90    2.60
  17   3  -4    7.40    0.80
 -17   3   4    8.60    0.60
  17   3  -4    8.90    0.70
 -17   3   4    9.10    0.70
 -17  -3   4    8.10    0.70
 -17  -3   4    7.70    0.70
  17  -3  -4    5.50    2.20
  17  -3  -4    9.10    0.70
 -17  -3   4    8.30    0.70
  17  -3  -4    8.70    0.80
  17  -3  -4    9.20    0.80
 -17   3   3   30.90    1.40
  17   3  -3   30.40    1.40
  17   3  -3   27.40    3.50
  17   3  -3   32.90    1.60
 -17   3   3   29.30    1.40
 -17   3   3   27.80    3.60
  17  -3  -3   32.30    1.50
 -17  -3   3   28.90    1.50
  17  -3  -3   28.90    4.00
  17  -3  -3   30.60    1.50
 -17  -3   3   30.70    1.50
 -17  -3   3   30.00    1.60
  17  -3  -3   28.60    1.60
 -17  -3   3   30.60    3.70
 -17   3   2    1.90    0.30
 -17   3   2    1.10    0.90
  17   3  -2    1.50    0.40
  17   3  -2    2.50    1.20
 -17   3   2    1.40    0.30
  17   3  -2    2.00    0.40
 -17  -3   2    1.60    1.60
  17  -3  -2    1.80    0.40
  17  -3  -2    1.70    0.40
 -17  -3   2    1.80    0.30
  17  -3  -2    1.50    1.30
  17  -3  -2    1.70    0.50
 -17  -3   2    2.30    0.50
 -17   3   1   52.39    2.20
  17   3  -1   56.09    4.80
 -17   3   1   57.19    5.00
  17   3  -1   55.19    2.40
  17   3  -1   54.69    2.30
 -17   3   1   56.49    2.20
 -17  -3   1   56.09    2.40
  17  -3  -1   53.59    2.30
 -17  -3   1   53.79    2.30
  17  -3  -1   49.90    5.30
  17  -3  -1   54.19    2.40
 -17   3   0   17.10    2.80
  17   3   0   15.70    1.00
 -17   3   0   18.20    0.90
 -17   3   0   18.90    0.90
 -17   3   0   17.70    0.90
  17   3   0   15.10    1.00
  17  -3   0   12.80    3.20
  17  -3   0   19.70    1.10
 -17  -3   0   16.60    1.00
  17  -3   0   20.10    1.10
 -17  -3   0   16.30    1.10
  17   3   1    0.70    0.30
 -17   3  -1    0.50    0.20
  17   3   1    1.00    0.30
 -17   3  -1    0.60    0.20
 -17   3  -1    1.60    1.20
 -17  -3  -1    1.20    0.40
  17  -3   1    0.80    1.30
  17  -3   1    0.80    0.30
 -17  -3  -1    0.60    0.20
 -17  -3  -1    1.10    0.30
  17  -3   1    0.90    0.30
  17   3   2    3.10    0.50
  17   3   2    3.10    0.50
 -17   3  -2    2.80    0.40
 -17   3  -2    3.00    0.40
 -17  -3  -2    3.10    0.50
  17  -3   2    2.80    0.50
 -17  -3  -2    4.30    0.60
 -17  -3  -2    2.90    0.40
  17  -3   2    2.40    0.50
 -17   3  -3   11.60    3.00
 -17   3  -3   12.50    0.80
 -17   3  -3   12.20    0.70
  17   3   3   12.60    0.90
  17   3   3   12.30    0.90
 -17  -3  -3   12.90    1.00
  17  -3   3   12.00    0.90
 -17  -3  -3   12.90    0.80
  17  -3   3   11.70    1.00
 -17  -3  -3   12.50    0.90
 -17   3  -4    0.70    1.30
  17   3   4    1.10    0.40
 -17   3  -4    0.80    0.30
  17   3   4    0.90    0.40
 -17   3  -4    1.10    0.30
 -17  -3  -4    0.90    0.40
 -17  -3  -4    1.00    0.30
  17  -3   4    1.20    0.40
 -17  -3  -4    1.40    0.40
  17  -3   4    0.40    0.40
 -17   4   7    2.10    0.50
 -17   4   7    1.90    0.40
  17   4  -7    2.10    0.50
  17   4  -7    1.90    0.40
  17  -4  -7    1.40    0.60
 -17  -4   7    2.50    0.50
  17  -4  -7    1.60    0.50
 -17  -4   7    2.10    0.50
  17   4  -6   28.20    1.40
 -17   4   6   26.90    1.30
  17   4  -6   27.30    4.10
 -17   4   6   28.20    1.30
  17   4  -6   26.40    1.50
  17  -4  -6   26.60    1.50
  17  -4  -6   24.80    1.60
  17  -4  -6   26.50    1.50
 -17  -4   6   25.70    1.40
 -17  -4   6   26.90    1.50
 -17   4   5    3.50    0.50
  17   4  -5    3.60    0.50
  17   4  -5    3.30    1.80
 -17   4   5    3.60    0.50
  17   4  -5    3.90    0.60
  17  -4  -5    4.10    0.60
  17  -4  -5    3.70    0.70
 -17  -4   5    3.70    0.50
  17  -4  -5    4.00    0.50
 -17  -4   5    3.70    0.60
 -17  -4   5    3.90    0.50
  17  -4  -5    3.40    1.90
  17   4  -4   31.20    1.60
  17   4  -4   31.30    1.50
 -17   4   4   32.80    1.50
 -17   4   4   33.30    1.50
 -17   4   4   30.70    5.20
 -17  -4   4   31.20    1.60
  17  -4  -4   34.40    1.60
 -17  -4   4   30.20    1.60
  17  -4  -4   32.30    1.60
  17  -4  -4   36.20    4.60
 -17  -4   4   32.00    1.60
  17  -4  -4   32.20    1.80
  17   4  -3   -0.10    0.30
 -17   4   3    0.20    0.20
 -17   4   3    0.20    0.30
  17   4  -3    0.30    0.20
 -17   4   3   -0.50    1.00
 -17  -4   3    0.00    0.20
 -17  -4   3    0.10    0.20
  17  -4  -3    0.10    0.20
  17  -4  -3    0.20    0.30
 -17  -4   3    0.00    0.20
  17  -4  -3    0.30    0.30
  17   4  -2   42.00    2.00
 -17   4   2   41.10    4.30
 -17   4   2   41.30    1.80
 -17   4   2   40.70    1.80
  17  -4  -2   40.80    2.00
 -17  -4   2   42.00    1.90
  17  -4  -2   38.20    4.60
  17  -4  -2   42.60    1.90
 -17  -4   2   44.80    2.00
  17  -4  -2   43.10    2.00
 -17   4   1   30.80    1.40
 -17   4   1   29.90    3.70
  17   4  -1   29.60    1.50
  17   4  -1   31.30    1.60
 -17   4   1   29.90    1.40
 -17  -4   1   29.10    1.50
  17  -4  -1   28.50    4.10
  17  -4  -1   32.30    1.60
  17  -4  -1   31.80    1.60
  17  -4  -1   30.40    1.50
 -17  -4   1   30.40    1.60
  17   4   0    7.10    0.60
 -17   4   0    7.90    0.60
 -17   4   0    7.30    0.50
  17   4   0    7.40    0.70
 -17   4   0    5.70    1.90
 -17   4   0    7.80    0.60
 -17  -4   0    7.20    0.70
  17  -4   0    7.30    2.50
  17  -4   0    6.30    0.70
 -17  -4   0    7.60    0.70
  17  -4   0    6.60    0.70
  17   4   1    6.20    0.60
 -17   4  -1    6.20    0.60
  17   4   1    5.80    0.60
 -17   4  -1    5.60    0.50
 -17   4  -1    4.10    2.00
  17  -4   1    6.50    2.60
 -17  -4  -1    6.40    0.70
  17  -4   1    5.90    0.70
 -17  -4  -1    5.40    0.60
  17  -4   1    6.10    0.60
 -17   4  -2   20.20    1.10
 -17   4  -2   20.80    3.10
  17   4   2   20.70    1.20
 -17   4  -2   16.70    3.90
 -17   4  -2   20.70    1.00
  17   4   2   21.20    1.20
 -17  -4  -2   22.00    1.10
  17  -4   2   19.80    1.20
 -17  -4  -2   21.20    1.30
  17  -4   2   18.80    1.30
 -17  -4  -2   20.90    1.20
  17   4   3    0.30    0.30
  17   4   3    0.20    0.30
 -17   4  -3    0.20    0.20
 -17   4  -3    0.40    0.20
 -17  -4  -3    0.20    0.30
  17  -4   3    0.20    0.30
 -17  -4  -3    0.60    0.30
 -17  -4  -3   -0.10    0.30
  17  -4   3    0.30    0.30
 -17   4  -4    0.80    0.30
 -17   4  -4    1.00    0.30
  17   4   4    0.90    0.40
  17   4   4    0.90    0.40
 -17  -4  -4    0.60    0.40
 -17  -4  -4    0.70    0.30
  17  -4   4    1.00    0.40
 -17  -4  -4    0.50    0.40
  17  -4   4    1.80    0.50
 -17   5   6    0.30    0.30
 -17   5   6   -0.10    0.20
  17   5  -6    0.40    0.40
  17   5  -6   -0.10    0.30
 -17  -5   6    0.20    0.30
  17  -5  -6    0.50    0.40
  17  -5  -6    0.40    0.40
 -17  -5   6    0.50    0.30
 -17   5   5    9.30    0.70
  17   5  -5    9.30    0.80
  17   5  -5    9.60    0.80
 -17   5   5    8.80    0.70
 -17  -5   5   10.00    0.90
  17  -5  -5    9.90    1.00
 -17  -5   5    9.30    0.80
 -17  -5   5   10.00    0.90
  17  -5  -5    9.30    0.80
 -17   5   4    1.60    0.40
  17   5  -4    1.10    0.40
 -17   5   4    2.00    0.40
 -17  -5   4    2.00    0.50
 -17  -5   4    1.90    0.50
  17  -5  -4    1.60    0.40
 -17  -5   4    1.80    0.40
  17  -5  -4    1.40    0.50
  17  -5  -4    1.40    0.40
 -17   5   3   21.80    1.10
  17   5  -3   20.80    1.30
 -17   5   3   21.00    1.10
  17  -5  -3   21.30    1.30
  17  -5  -3   15.10    3.80
 -17  -5   3   21.80    1.30
 -17  -5   3   21.10    1.30
  17  -5  -3   20.80    1.20
 -17  -5   3   21.00    1.30
  17  -5  -3   23.50    1.40
 -17   5   2    6.30    0.60
  17   5  -2    5.30    0.60
 -17   5   2    5.80    0.50
  17   5  -2    4.90    0.70
  17  -5  -2    7.10    0.70
  17  -5  -2    6.70    0.70
 -17  -5   2    4.70    0.60
  17  -5  -2    7.80    0.80
  17  -5  -2    3.80    1.90
 -17  -5   2    5.50    0.60
  17   5  -1   34.10    1.70
 -17   5   1   34.00    1.50
  17   5  -1   35.00    1.70
 -17   5   1   32.00    4.10
 -17   5   1   32.90    1.50
 -17  -5   1   34.80    1.70
  17  -5  -1   32.30    1.70
 -17  -5   1   34.60    1.70
  17  -5  -1   33.80    1.80
  17  -5  -1   34.80    1.80
  17  -5  -1   28.10    4.50
  17   5   0    7.50    0.70
  17   5   0    8.40    0.80
 -17   5   0    9.00    0.70
 -17   5   0    8.80    0.60
 -17  -5   0    7.90    0.80
  17  -5   0    8.80    0.80
 -17  -5   0    8.30    0.80
  17  -5   0    9.00    0.80
  17  -5   0    8.80    0.90
  17  -5   0    6.20    2.30
 -17   5  -1    2.00    0.40
  17   5   1    2.40    0.50
 -17   5  -1    2.20    0.40
  17   5   1    3.00    0.50
 -17  -5  -1    3.40    0.50
 -17  -5  -1    2.80    0.50
  17  -5   1    1.70    0.40
  17  -5   1    2.10    0.50
  17  -5   1    1.30    2.10
 -17   5  -2    0.30    0.20
  17   5   2    0.10    0.30
  17   5   2    0.70    0.30
 -17   5  -2    0.50    0.30
  17  -5   2    0.00    0.30
 -17  -5  -2    0.10    0.30
  17  -5   2    0.00    0.30
 -17  -5  -2    0.20    0.30
  17   5   3    9.70    0.90
 -17   5  -3   10.80    0.70
  17   5   3   10.40    0.80
 -17   5  -3   11.20    0.70
 -17  -5  -3   12.30    1.00
  17  -5   3   10.30    0.80
  17  -5   3   10.20    1.00
 -17  -5  -3   11.60    0.90
 -17  -5  -3   10.60    0.80
  17   6  -5    0.00    0.30
 -17   6   5    0.40    0.30
 -17   6   5    0.10    0.20
  17  -6  -5    0.30    0.30
  17  -6  -5   -0.20    0.30
 -17  -6   5    0.10    0.30
 -17  -6   5    0.40    0.30
  17   6  -4   12.20    1.00
 -17   6   4   13.70    0.80
 -17   6   4   13.20    0.80
  17  -6  -4   13.40    1.10
  17  -6  -4   13.40    1.00
 -17  -6   4   13.00    1.00
 -17  -6   4   12.90    1.00
 -17  -6   4   14.40    1.10
 -17   6   3    1.40    0.30
  17   6  -3    0.60    0.40
 -17   6   3    1.30    0.30
 -17  -6   3    0.90    0.40
 -17  -6   3    1.20    0.50
 -17  -6   3    1.30    0.40
  17  -6  -3    1.50    0.40
  17  -6  -3    1.40    0.50
  17  -6  -3    1.50    0.40
 -17   6   2    5.50    0.50
  17   6  -2    5.90    0.70
 -17   6   2    5.40    0.50
  17   6  -2    5.90    0.70
  17  -6  -2    5.10    0.70
 -17  -6   2    5.60    0.70
 -17  -6   2    5.60    0.70
  17  -6  -2    6.10    0.70
  17  -6  -2    6.10    0.80
  17   6  -1    5.20    0.60
 -17   6   1    6.30    0.60
 -17   6   1    5.90    0.60
  17   6  -1    4.10    0.70
 -17  -6   1    4.20    0.70
  17  -6  -1    6.10    0.70
  17  -6  -1    6.60    0.80
 -17  -6   1    5.30    0.70
  17  -6  -1    6.40    0.70
  17   6   0   22.30    1.30
 -17   6   0   22.90    1.10
  17   6   0   22.50    1.30
 -17  -6   0   20.00    1.30
  17  -6   0   21.80    1.40
  17  -6   0   21.80    1.40
  17  -6   0   22.20    1.30
 -17  -6   0   20.60    1.30
 -17   6  -1    1.40    0.40
  17   6   1    1.90    0.50
  17   6   1    1.20    0.40
 -17   6  -1    1.40    0.30
  17  -6   1    1.00    0.40
  17  -6   1    0.60    0.30
 -17  -6  -1    1.70    0.50
 -17  -6  -1    1.20    0.40
  17   6   2    7.10    0.70
 -17   6  -2    7.50    0.60
 -17   6  -2    7.70    0.60
  17   6   2    6.60    0.70
  17  -6   2    6.90    0.70
 -17  -6  -2    7.30    0.80
  17  -6   2    7.10    0.80
 -17  -6  -2    6.90    0.80
 -17   7   3    7.60    0.70
 -17   7   3    8.50    0.70
  17   7  -3    8.20    0.80
  17  -7  -3    7.50    0.90
  17  -7  -3    7.70    0.80
 -17  -7   3    9.60    0.90
 -17  -7   3    7.50    0.90
 -17  -7   3    7.70    0.80
  17   7  -2    0.20    0.40
 -17   7   2    0.10    0.30
 -17   7   2    0.40    0.30
  17   7  -2    0.50    0.40
 -17  -7   2    0.20    0.30
  17  -7  -2    0.50    0.30
  17  -7  -2    0.50    0.40
 -17  -7   2    0.50    0.40
  17  -7  -2    0.40    0.40
 -17   7   1   14.00    0.90
 -17   7   1   14.00    0.90
  17   7  -1   14.50    1.10
  17   7  -1   14.20    1.00
 -17  -7   1   13.50    1.10
  17  -7  -1   12.90    1.10
  17  -7  -1   14.30    1.00
 -17  -7   1   14.90    1.10
  17  -7  -1   13.60    1.10
 -17   7   0    7.00    0.60
  17   7   0    5.20    0.70
  17   7   0    5.50    0.70
 -17  -7   0    6.30    0.80
  17  -7   0    6.60    0.80
 -17  -7   0    5.20    0.70
  17  -7   0    6.70    0.90
  17  -7   0    7.20    0.80
  18   0  -8   19.70    1.10
 -18   0   8   19.10    1.30
  18   0  -8   18.50    1.30
 -18   0   8   17.50    1.10
  18   0  -7   -0.10    0.30
  18   0  -7    0.20    0.40
 -18   0   7    0.10    0.30
 -18   0   7   -0.10    0.20
 -18   0   6   32.40    4.00
  18   0  -6   35.70    1.70
 -18   0   6   34.00    1.70
  18   0  -6   35.50    1.80
  18   0  -6   30.80    4.20
 -18   0   6   33.60    1.50
 -18   0   6   35.20    1.60
 -18   0   5    0.00    0.20
 -18   0   5    0.30    0.20
 -18   0   5    0.20    0.20
  18   0  -5    0.10    0.30
  18   0  -5    0.00    0.30
 -18   0   5   -0.50    0.90
  18   0  -5   -0.70    1.00
  18   0  -4   54.99    2.40
  18   0  -4   54.39    5.40
  18   0  -4   55.19    2.40
 -18   0   4   56.89    2.40
 -18   0   4   53.99    2.30
 -18   0   4   57.69    5.00
 -18   0   4   55.19    2.20
 -18   0   3   -0.10    0.10
  18   0  -3    0.00    0.20
  18   0  -3   -1.80    0.80
  18   0  -3    0.10    0.20
 -18   0   3    0.10    0.20
 -18   0   3    0.10    0.20
 -18   0   3   -0.30    0.80
 -18   0   2    0.90    0.80
 -18   0   2    0.20    0.20
  18   0  -2    0.20    0.20
 -18   0   2    0.50    0.20
  18   0  -2    0.60    0.30
  18   0  -2    0.10    0.90
  18   0  -2    0.10    0.20
 -18   0   1    0.00    0.10
  18   0  -1   -0.10    0.20
 -18   0   1   -0.20    0.10
 -18   0   1   -0.10    0.20
  18   0  -1    0.00    0.20
  18   0  -1    1.90    1.40
  18   0  -1    0.10    0.20
  18   0   0   17.00    1.10
  18   0   0   18.10    1.00
  18   0   0   20.10    3.20
 -18   0   0   17.80    0.90
 -18   0   0   16.90    0.90
 -18   0   0   18.60    1.00
  18   0   0   18.50    1.00
  18   0   1    0.80    0.30
 -18   0  -1    0.50    0.20
 -18   0  -1    0.40    0.20
  18   0   1    1.50    1.30
 -18   0  -1    0.50    0.20
  18   0   1    0.60    0.30
  18   0   1    0.70    0.30
 -18   0  -2    2.20    0.40
  18   0   2    1.90    0.50
 -18   0  -2    2.10    0.40
 -18   0  -2    2.10    0.40
  18   0   2    1.80    0.40
  18   0   2    1.80    0.40
  18   0   3    0.10    0.30
  18   0   3   -0.10    0.20
 -18   0  -3    0.10    0.20
 -18   0  -3    0.10    0.20
  18   0   4   15.40    1.10
 -18   0  -4   14.70    0.90
  18   0   4   16.50    1.10
 -18   0  -4   16.50    1.00
  18   1  -8    0.30    0.30
  18   1  -8    1.10    0.40
 -18   1   8    0.20    0.30
 -18   1   8    0.20    0.30
  18  -1  -8    0.20    0.30
 -18  -1   8    0.40    0.30
  18  -1  -8    0.30    0.40
 -18  -1   8    0.30    0.30
 -18   1   7   22.40    1.20
  18   1  -7   24.40    1.30
  18   1  -7   24.30    1.40
 -18   1   7   24.10    1.40
 -18  -1   7   23.00    1.30
  18  -1  -7   25.10    1.40
 -18  -1   7   24.90    1.50
  18  -1  -7   24.40    1.40
 -18   1   6    3.60    1.60
  18   1  -6    2.30    0.50
 -18   1   6    2.70    0.50
  18   1  -6    1.20    1.40
  18   1  -6    2.70    0.50
 -18   1   6    2.40    0.40
 -18   1   6    2.60    0.50
 -18  -1   6    4.20    2.00
  18  -1  -6   -0.20    1.40
 -18  -1   6    2.80    0.40
 -18  -1   6    2.70    0.50
  18  -1  -6    2.50    0.50
  18  -1  -6    2.20    0.50
 -18  -1   6    2.70    0.50
 -18   1   5   21.30    1.20
  18   1  -5   20.40    3.30
 -18   1   5   22.00    1.10
 -18   1   5   21.50    1.10
  18   1  -5   22.00    1.20
 -18   1   5   16.80    3.00
  18   1  -5   21.70    1.30
 -18  -1   5   21.40    1.10
 -18  -1   5   20.70    1.20
 -18  -1   5   21.60    1.20
  18  -1  -5   18.10    3.50
  18  -1  -5   21.30    1.30
  18  -1  -5   20.30    1.20
  18   1  -4    0.10    0.30
 -18   1   4    0.40    0.30
 -18   1   4    0.40    1.10
 -18   1   4    0.20    0.20
 -18   1   4    0.60    0.20
  18   1  -4    0.20    0.30
 -18  -1   4    0.20    0.20
 -18  -1   4    0.40    0.20
  18  -1  -4    0.10    0.90
  18  -1  -4    0.20    0.30
 -18  -1   4    0.20    0.20
  18  -1  -4    0.30    0.30
  18   1  -3   45.10    2.00
  18   1  -3   42.80    4.70
 -18   1   3   48.20    4.50
  18   1  -3   44.00    2.10
 -18   1   3   45.40    1.90
 -18   1   3   44.10    1.70
 -18   1   3   46.70    1.90
  18  -1  -3   45.50    1.90
 -18  -1   3   46.20    2.00
  18  -1  -3   43.20    4.80
 -18  -1   3   47.10    2.10
 -18  -1   3   45.30    1.90
  18  -1  -3   48.20    2.10
  18  -1  -3   45.10    2.00
  18   1  -2    6.80    2.10
 -18   1   2    8.50    2.30
  18   1  -2    7.50    0.60
 -18   1   2    7.60    0.60
 -18   1   2    7.70    0.50
  18   1  -2    7.00    0.60
 -18   1   2    7.30    0.50
  18   1  -2    7.80    0.70
  18  -1  -2    9.10    2.60
  18  -1  -2    8.10    0.70
 -18  -1   2    7.70    0.60
 -18  -1   2    7.30    0.60
  18  -1  -2    7.90    0.60
  18  -1  -2    7.40    0.70
  18   1  -1    0.50    0.30
  18   1  -1    1.30    0.30
 -18   1   1    1.10    0.30
  18   1  -1    0.30    1.10
 -18   1   1    1.20    1.00
  18   1  -1    1.00    0.30
 -18   1   1    1.40    0.30
 -18   1   1    1.20    0.20
 -18  -1   1    2.90    1.30
 -18  -1   1    0.90    0.20
  18  -1  -1    1.50    0.30
 -18  -1   1    0.90    0.30
  18  -1  -1   -0.30    1.00
  18  -1  -1    1.10    0.30
  18  -1  -1    1.00    0.30
 -18   1   0    3.20    0.40
  18   1   0    3.50    0.50
  18   1   0    3.30    0.40
 -18   1   0    3.60    0.40
 -18   1   0    3.20    1.50
 -18   1   0    3.70    0.30
  18   1   0    3.20    0.40
  18   1   0    4.60    1.90
 -18  -1   0    4.00    0.40
  18  -1   0    0.00    1.20
  18  -1   0    3.20    0.50
  18  -1   0    3.40    0.50
 -18  -1   0    4.00    0.50
  18  -1   0    3.30    0.40
 -18  -1   0    3.90    0.30
  18   1   1   15.10    1.00
 -18   1  -1   15.80    0.80
 -18   1  -1   16.90    1.00
 -18   1  -1   16.40    0.90
  18   1   1   17.30    0.90
  18   1   1   16.20    1.00
  18  -1   1   16.20    1.00
  18  -1   1   16.50    1.00
  18  -1   1   16.40    1.10
 -18  -1  -1   16.30    1.00
 -18  -1  -1   15.90    0.90
 -18  -1  -1   16.20    0.80
  18  -1   1   17.90    3.30
  18   1   2    0.40    0.30
  18   1   2    0.40    0.30
 -18   1  -2    0.30    0.20
 -18   1  -2    0.10    0.20
 -18   1  -2   -0.70    0.90
  18  -1   2    0.30    0.30
 -18  -1  -2    0.30    0.30
 -18  -1  -2    0.60    0.20
 -18  -1  -2    0.40    0.20
  18  -1   2    0.60    0.30
  18  -1   2    0.70    0.30
 -18   1  -3   23.60    1.10
  18   1   3   22.80    1.30
 -18   1  -3   22.90    1.20
  18   1   3   22.80    1.40
 -18  -1  -3   24.30    1.20
 -18  -1  -3   24.30    1.20
  18  -1   3   21.90    1.30
  18  -1   3   23.00    1.30
  18  -1   3   22.50    1.40
  18   1   4    1.20    0.40
 -18   1  -4    1.30    0.30
  18   1   4    1.60    0.40
 -18   1  -4    1.50    0.40
  18  -1   4    0.90    0.30
  18  -1   4    0.60    0.40
 -18  -1  -4    1.40    0.30
  18  -1   4    0.50    0.40
 -18  -1  -4    1.00    0.40
  18   2  -7    0.10    0.30
 -18   2   7    0.40    0.30
 -18   2   7    0.40    0.20
  18   2  -7    0.30    0.30
 -18  -2   7    0.10    0.30
  18  -2  -7    0.30    0.40
  18  -2  -7    0.50    0.40
 -18  -2   7    0.20    0.30
  18   2  -6   18.30    1.10
 -18   2   6   18.20    1.00
  18   2  -6   18.70    1.20
 -18   2   6   18.20    1.00
 -18  -2   6   18.40    1.10
  18  -2  -6   16.90    1.10
 -18  -2   6   17.80    1.20
 -18  -2   6   15.20    3.20
 -18  -2   6   16.90    1.10
  18  -2  -6   17.70    1.10
  18   2  -5    0.30    0.30
  18   2  -5   -0.50    1.10
  18   2  -5    0.10    0.30
 -18   2   5   -0.80    0.90
 -18   2   5    0.00    0.20
 -18   2   5    0.30    0.20
 -18  -2   5    0.20    0.30
  18  -2  -5   -0.20    0.20
  18  -2  -5    1.30    1.50
  18  -2  -5   -0.10    0.20
  18  -2  -5    0.00    0.30
 -18  -2   5    0.20    0.20
 -18  -2   5    0.00    0.20
 -18   2   4   61.69    2.40
  18   2  -4   60.29    5.50
  18   2  -4   58.79    2.50
  18   2  -4   62.09    2.60
 -18   2   4   61.99    2.50
 -18   2   4   56.99    5.10
  18  -2  -4   59.99    2.60
  18  -2  -4   61.79    2.60
  18  -2  -4   60.39    2.60
 -18  -2   4   60.09    2.50
 -18  -2   4   59.69    2.60
 -18  -2   4   59.79    2.50
  18  -2  -4   53.99    5.70
 -18  -2   4   60.39    5.20
 -18   2   3   10.20    2.40
 -18   2   3   11.90    0.70
 -18   2   3   12.70    0.80
  18   2  -3   10.80    0.90
  18   2  -3   10.50    2.70
  18   2  -3   11.20    0.80
 -18  -2   3   12.00    0.80
  18  -2  -3   12.50    0.90
  18  -2  -3   11.60    0.80
 -18  -2   3   11.10    0.80
 -18  -2   3   10.80    0.80
  18  -2  -3   11.10    0.80
  18  -2  -3    9.90    3.00
  18   2  -2    0.70    1.00
  18   2  -2    1.30    0.30
 -18   2   2    1.20    0.90
 -18   2   2    1.50    0.30
  18   2  -2    2.00    0.40
  18   2  -2    1.10    0.40
 -18   2   2    1.60    0.30
 -18   2   2    2.00    0.40
  18  -2  -2    2.00    0.50
  18  -2  -2    1.20    1.30
  18  -2  -2    1.80    0.40
 -18  -2   2    1.30    0.30
 -18  -2   2    1.40    0.30
 -18   2   1    3.20    1.60
  18   2  -1    4.10    1.70
 -18   2   1    7.10    0.50
 -18   2   1    6.60    0.50
 -18   2   1    6.60    0.60
  18   2  -1    7.40    0.60
  18   2  -1    6.70    0.60
  18   2  -1    8.00    0.70
  18  -2  -1    6.00    0.60
 -18  -2   1    7.30    0.60
  18  -2  -1    3.60    1.70
 -18  -2   1   10.60    2.20
 -18  -2   1    6.60    0.60
  18  -2  -1    6.90    0.60
  18   2   0   47.60    2.10
 -18   2   0   44.60    2.00
  18   2   0   47.50    2.00
  18   2   0   51.19    2.00
 -18   2   0   46.70    1.90
 -18   2   0   47.50    1.90
  18  -2   0   45.30    2.10
 -18  -2   0   45.20    2.10
 -18  -2   0   46.10    2.00
  18  -2   0   43.20    4.90
  18  -2   0   46.30    2.20
 -18   2  -1    1.10    0.30
 -18   2  -1    1.50    0.30
  18   2   1    0.90    0.40
 -18   2  -1    1.30    0.30
  18   2   1    1.00    0.30
  18  -2   1    1.20    1.30
  18  -2   1    0.90    0.30
 -18  -2  -1    0.90    0.30
 -18  -2  -1    0.60    0.30
  18  -2   1    1.60    0.40
 -18  -2  -1    0.50    0.20
  18   2   2    6.50    0.70
 -18   2  -2    6.10    0.50
 -18   2  -2    7.10    2.10
 -18   2  -2    7.10    0.50
  18   2   2    5.90    0.60
  18  -2   2    5.90    0.70
 -18  -2  -2    5.50    0.60
 -18  -2  -2    6.10    0.50
 -18  -2  -2    6.60    0.60
  18  -2   2    6.10    0.60
 -18   2  -3    7.60    0.60
 -18   2  -3    7.00    0.60
  18   2   3    8.00    0.70
  18   2   3    8.40    0.80
 -18  -2  -3    8.20    0.80
 -18  -2  -3    7.70    0.70
  18  -2   3    7.40    0.70
 -18  -2  -3    8.40    0.60
  18  -2   3    6.70    0.80
  18   2   4   22.20    1.40
  18   2   4   22.40    1.30
 -18   2  -4   23.50    1.20
 -18   2  -4   23.20    1.10
 -18  -2  -4   22.90    1.30
  18  -2   4   24.30    1.40
 -18  -2  -4   23.50    1.20
  18  -2   4   21.80    1.30
  18   3  -7   13.90    1.00
  18   3  -7   12.40    0.90
 -18   3   7   14.50    0.90
 -18   3   7   14.10    0.90
  18  -3  -7   14.40    1.00
  18  -3  -7   13.90    1.00
 -18  -3   7   15.10    1.10
 -18  -3   7   14.40    1.00
 -18   3   6    0.20    0.30
  18   3  -6    0.50    0.40
 -18   3   6    0.00    0.20
  18   3  -6    0.30    0.30
  18   3  -6    1.10    1.10
 -18  -3   6    0.10    0.30
  18  -3  -6   -0.30    0.20
  18  -3  -6   -0.10    0.30
  18  -3  -6    0.30    0.30
 -18  -3   6    0.10    0.20
 -18   3   5   20.60    1.10
 -18   3   5   21.70    1.10
  18   3  -5   18.80    3.20
  18   3  -5   20.80    1.10
  18   3  -5   20.30    1.30
  18  -3  -5   19.80    1.30
  18  -3  -5   20.00    1.20
  18  -3  -5   19.70    3.80
 -18  -3   5   19.90    1.20
 -18  -3   5   18.80    1.10
 -18  -3   5   19.40    1.10
  18  -3  -5   21.30    1.20
  18   3  -4   10.10    0.80
  18   3  -4    9.00    2.40
 -18   3   4   11.60    2.90
 -18   3   4    9.30    0.70
  18   3  -4    8.40    0.80
 -18   3   4   10.60    0.70
  18  -3  -4   10.00    0.80
 -18  -3   4    9.80    0.80
  18  -3  -4    8.50    2.60
 -18  -3   4    9.00    0.70
  18  -3  -4   10.10    0.80
 -18  -3   4    9.70    0.80
  18  -3  -4    8.90    0.80
  18   3  -3   45.40    1.90
 -18   3   3   39.20    4.30
  18   3  -3   44.00    2.00
  18   3  -3   42.30    4.60
 -18   3   3   43.10    1.80
 -18   3   3   41.20    1.80
  18  -3  -3   41.90    2.00
  18  -3  -3   42.30    2.00
 -18  -3   3   43.20    1.90
 -18  -3   3   42.80    1.90
 -18  -3   3   45.10    2.00
  18  -3  -3   39.40    4.90
  18  -3  -3   43.80    2.00
  18   3  -2    1.70    0.50
  18   3  -2    1.70    0.40
 -18   3   2    1.80    0.40
 -18   3   2    1.50    0.30
  18   3  -2    2.30    0.50
  18  -3  -2    1.80    0.40
 -18  -3   2    1.70    0.40
 -18  -3   2    2.20    0.40
  18  -3  -2    2.30    0.50
  18  -3  -2    2.50    1.70
  18  -3  -2    2.10    0.50
 -18   3   1    0.20    0.20
  18   3  -1    0.80    0.40
 -18   3   1   -0.30    0.80
 -18   3   1    0.60    0.20
  18   3  -1    0.70    0.30
 -18   3   1    0.80    0.30
  18  -3  -1    0.80    1.30
  18  -3  -1    0.40    0.30
 -18  -3   1    0.70    0.30
 -18  -3   1    0.40    0.30
  18  -3  -1    0.50    0.30
  18   3   0    0.20    0.30
 -18   3   0    0.10    0.20
  18   3   0    0.30    0.30
 -18   3   0    0.40    0.20
 -18   3   0    0.30    0.20
 -18   3   0   -0.10    0.70
  18  -3   0    0.30    0.30
  18  -3   0    2.60    1.70
  18  -3   0    0.20    0.20
 -18  -3   0    0.20    0.30
 -18  -3   0    0.10    0.20
  18   3   1   21.40    1.20
  18   3   1   20.70    1.10
 -18   3  -1   20.80    1.00
 -18   3  -1   21.70    1.10
 -18  -3  -1   21.10    1.10
  18  -3   1   20.60    1.20
  18  -3   1   17.50    3.50
 -18  -3  -1   20.80    1.20
 -18  -3  -1   19.40    1.20
  18  -3   1   21.70    1.30
 -18   3  -2    4.20    1.90
  18   3   2    5.10    0.60
  18   3   2    5.30    0.60
 -18   3  -2    4.00    0.40
 -18   3  -2    4.70    0.40
 -18  -3  -2    4.80    0.50
 -18  -3  -2    4.60    0.60
 -18  -3  -2    5.60    0.60
  18  -3   2    4.80    0.60
  18  -3   2    4.40    0.70
 -18   3  -3    4.80    1.90
 -18   3  -3    7.50    0.60
 -18   3  -3    6.90    0.60
  18   3   3    6.90    0.70
  18   3   3    7.20    0.70
  18  -3   3    7.00    0.80
 -18  -3  -3    7.20    0.70
  18  -3   3    7.30    0.70
 -18  -3  -3    7.80    0.70
 -18  -3  -3    6.50    0.60
 -18   4   6   20.40    1.10
  18   4  -6   18.50    1.20
 -18   4   6   18.70    1.00
  18   4  -6   20.30    1.20
  18  -4  -6   19.20    1.40
  18  -4  -6   20.10    1.20
 -18  -4   6   18.80    1.20
  18  -4  -6   19.20    1.20
 -18  -4   6   18.60    1.20
  18   4  -5    1.30    0.40
  18   4  -5    1.10    0.40
 -18   4   5    1.80    0.40
 -18   4   5    1.20    0.30
  18  -4  -5    2.10    0.50
 -18  -4   5    0.80    0.30
 -18  -4   5    1.10    0.40
 -18  -4   5    1.50    0.40
  18  -4  -5    1.10    0.40
  18  -4  -5    1.20    0.50
 -18   4   4    8.20    0.70
  18   4  -4    7.60    0.80
  18   4  -4    8.10    0.70
 -18   4   4    7.40    0.60
 -18  -4   4    8.30    0.80
 -18  -4   4    7.50    0.70
 -18  -4   4    7.40    0.70
  18  -4  -4    7.50    0.70
  18  -4  -4    8.30    0.70
  18  -4  -4    7.30    0.80
  18  -4  -4   14.80    3.80
 -18   4   3   10.40    0.70
 -18   4   3   10.60    0.70
 -18   4   3   15.60    3.20
  18   4  -3    9.40    0.90
  18  -4  -3   10.90    0.90
 -18  -4   3   10.40    0.80
  18  -4  -3   10.70    0.90
  18  -4  -3   10.90    0.90
  18  -4  -3   10.20    3.00
 -18  -4   3   10.90    0.90
 -18   4   2   19.70    1.10
  18   4  -2   19.30    1.20
  18   4  -2   20.40    1.20
 -18   4   2   18.70    3.10
 -18   4   2   19.40    1.00
  18  -4  -2   19.20    3.70
 -18  -4   2   20.50    1.20
  18  -4  -2   18.90    1.20
  18  -4  -2   20.60    1.20
  18  -4  -2   18.50    1.30
 -18  -4   2   20.70    1.20
 -18   4   1    7.30    0.60
 -18   4   1    8.10    2.50
  18   4  -1    7.00    0.70
  18   4  -1    8.00    0.70
 -18   4   1    7.00    0.60
  18  -4  -1    7.20    0.70
  18  -4  -1    6.70    0.70
  18  -4  -1    5.10    0.70
 -18  -4   1    6.20    0.70
  18  -4  -1    3.70    2.10
 -18  -4   1    7.00    0.70
 -18   4   0    7.40    2.30
 -18   4   0   10.20    0.70
 -18   4   0    9.00    0.70
 -18   4   0    8.00    0.60
  18   4   0   11.40    0.80
  18   4   0   10.70    0.80
  18  -4   0    8.90    0.80
  18  -4   0    8.60    0.80
  18  -4   0    6.20    2.90
 -18  -4   0   10.00    0.80
 -18  -4   0   11.00    0.80
  18   4   1    1.20    0.40
 -18   4  -1    1.40    0.30
 -18   4  -1    1.20    1.40
  18   4   1    0.80    0.30
 -18   4  -1    0.90    0.30
 -18  -4  -1    1.00    0.30
  18  -4   1    1.30    0.40
 -18  -4  -1    0.80    0.40
  18  -4   1   -2.20    1.30
  18  -4   1    1.70    0.50
 -18   4  -2    3.10    0.40
  18   4   2    3.00    0.50
 -18   4  -2    3.90    0.50
  18   4   2    3.40    0.50
 -18  -4  -2    3.10    0.50
 -18  -4  -2    3.30    0.40
  18  -4   2    3.40    0.50
 -18  -4  -2    3.10    0.50
  18  -4   2    2.80    0.60
 -18   4  -3   12.20    0.80
  18   4   3   11.60    0.90
 -18   4  -3   11.30    0.70
  18   4   3   11.00    0.90
 -18  -4  -3   11.80    1.00
  18  -4   3    9.90    0.80
 -18  -4  -3   10.30    0.90
  18  -4   3    9.30    0.90
 -18  -4  -3   10.70    0.80
 -18   5   5   10.40    0.70
  18   5  -5   10.40    0.90
 -18   5   5    9.80    0.70
  18   5  -5    9.80    0.80
 -18  -5   5   10.30    0.90
 -18  -5   5   10.20    0.90
 -18  -5   5   10.90    0.90
  18  -5  -5   10.90    0.90
  18  -5  -5   10.50    1.00
  18   5  -4    0.40    0.40
 -18   5   4    0.70    0.30
 -18   5   4    0.50    0.30
  18  -5  -4    0.90    0.40
  18  -5  -4    0.80    0.40
 -18  -5   4    0.50    0.30
  18  -5  -4    0.30    0.30
 -18  -5   4    0.50    0.30
 -18  -5   4    0.60    0.30
  18   5  -3   27.90    1.50
 -18   5   3   26.50    1.30
 -18   5   3   27.20    1.30
  18  -5  -3   27.40    1.60
  18  -5  -3   26.30    1.40
 -18  -5   3   27.30    1.50
  18  -5  -3   27.10    1.50
 -18  -5   3   28.90    1.50
 -18  -5   3   27.20    1.50
  18   5  -2   11.80    0.90
 -18   5   2   12.90    0.80
 -18   5   2   13.50    0.80
  18   5  -2   11.80    1.00
  18  -5  -2   14.90    1.00
  18  -5  -2   14.10    1.10
 -18  -5   2   14.30    1.00
 -18  -5   2   10.70    0.90
  18  -5  -2   15.50    1.10
  18   5  -1    1.80    0.50
 -18   5   1    2.00    0.40
 -18   5   1    1.80    0.40
  18   5  -1    2.20    0.50
  18  -5  -1    1.90    0.50
 -18  -5   1    2.50    0.50
 -18  -5   1    2.20    0.50
  18  -5  -1    1.90    0.50
  18  -5  -1    2.20    0.50
  18   5   0    1.30    0.40
  18   5   0    0.90    0.40
 -18   5   0    1.70    0.40
 -18   5   0    1.40    0.30
  18  -5   0    1.10    0.40
 -18  -5   0    1.60    0.40
  18  -5   0    0.80    0.30
 -18  -5   0    1.40    0.50
  18   5   1   14.60    1.00
  18   5   1   14.70    1.00
 -18   5  -1   14.20    0.90
 -18   5  -1   16.00    0.80
 -18  -5  -1   13.30    1.00
 -18  -5  -1   14.80    1.10
  18  -5   1   15.00    1.10
  18  -5   1   14.30    1.00
  18   5   2    1.40    0.40
  18   5   2    0.70    0.40
 -18   5  -2    1.10    0.30
 -18   5  -2    0.90    0.30
  18  -5   2    1.40    0.40
 -18  -5  -2    0.80    0.40
  18  -5   2    1.00    0.40
 -18  -5  -2    0.70    0.30
 -18   6   4    4.90    0.60
  18   6  -4    5.00    0.70
 -18   6   4    5.50    0.50
 -18  -6   4    5.50    0.70
  18  -6  -4    6.10    0.80
 -18  -6   4    6.50    0.70
  18  -6  -4    5.30    0.70
 -18  -6   4    5.40    0.70
 -18   6   3    5.00    0.50
  18   6  -3    5.20    0.70
 -18   6   3    5.30    0.60
  18  -6  -3    4.90    0.70
 -18  -6   3    5.00    0.70
  18  -6  -3    5.50    0.70
 -18  -6   3    4.90    0.70
  18  -6  -3    5.20    0.80
 -18  -6   3    5.30    0.70
  18   6  -2   14.40    1.00
 -18   6   2   13.40    0.90
  18   6  -2   13.40    1.00
 -18   6   2   14.30    0.80
 -18  -6   2   13.70    1.00
 -18  -6   2   13.10    1.00
  18  -6  -2   14.30    1.10
  18  -6  -2   14.30    1.00
  18  -6  -2   11.20    1.10
  18   6  -1    1.40    0.50
 -18   6   1    1.80    0.40
 -18   6   1    1.50    0.40
  18   6  -1    1.30    0.40
  18  -6  -1    0.70    0.40
  18  -6  -1    0.80    0.40
 -18  -6   1    2.50    0.60
  18  -6  -1    0.90    0.40
 -18  -6   1    1.60    0.50
 -18   6   0   11.60    0.80
  18   6   0   12.30    0.90
  18   6   0   11.50    0.90
  18  -6   0   11.80    0.90
 -18  -6   0   11.70    0.90
 -18  -6   0   11.90    1.00
  18  -6   0   11.50    1.00
 -18   6  -1    0.00    0.20
 -18   6  -1    0.30    0.20
  18   6   1    0.10    0.30
  18   6   1    0.50    0.30
 -18  -6  -1    0.00    0.20
  18  -6   1    0.20    0.30
  18  -6   1    0.50    0.40
 -18  -6  -1    0.10    0.30
 -19   0   7    0.10    0.30
 -19   0   7    0.10    0.30
  19   0  -7    0.00    0.30
  19   0  -7    0.00    0.30
 -19   0   6   29.40    1.40
  19   0  -6   30.50    4.30
 -19   0   6   29.60    1.60
 -19   0   6   29.00    1.40
  19   0  -6   29.50    1.50
  19   0  -6   31.20    1.60
 -19   0   5    0.10    0.20
  19   0  -5    0.00    0.30
 -19   0   5   -0.10    0.10
 -19   0   5    0.20    0.20
  19   0  -5   -0.10    0.30
  19   0  -5    0.30    1.40
 -19   0   5    2.00    1.40
  19   0  -4    1.30    0.40
 -19   0   4    1.30    0.30
 -19   0   4    2.00    0.40
  19   0  -4    2.10    1.50
  19   0  -4    2.00    0.50
 -19   0   4    2.40    0.40
 -19   0   3    0.00    0.20
 -19   0   3    0.00    0.20
  19   0  -3   -0.20    0.80
  19   0  -3    0.00    0.20
  19   0  -3    0.00    0.20
  19   0  -3    0.10    0.20
  19   0  -2   53.49    5.50
 -19   0   2   50.19    4.70
 -19   0   2   51.59    2.20
  19   0  -2   50.99    2.20
  19   0  -2   52.49    2.20
 -19   0   2   51.59    2.10
  19   0  -1    0.30    0.30
  19   0  -1    0.50    0.30
 -19   0   1    0.60    0.20
 -19   0   1    0.50    0.30
  19   0  -1    0.50    0.20
 -19   0   1    0.50    0.20
  19   0  -1   -0.60    1.20
  19   0   0   21.40    3.50
  19   0   0   16.10    1.00
 -19   0   0   15.90    0.90
  19   0   0   16.60    1.00
  19   0   0   16.00    1.00
 -19   0   0   16.90    0.80
 -19   0   0   15.50    1.00
  19   0   1    0.00    0.20
 -19   0  -1    0.20    0.20
 -19   0  -1    0.30    0.20
  19   0   1    0.30    0.30
 -19   0  -1    0.30    0.20
  19   0   1    0.20    0.20
  19   0   2   71.49    2.90
  19   0   2   68.49    3.00
 -19   0  -2   71.29    2.80
  19   0   2   71.29    2.90
 -19   0  -2   69.59    2.70
 -19   0  -3    0.20    0.20
  19   0   3    0.10    0.20
 -19   0  -3    0.00    0.20
  19   0   3    0.00    0.20
 -19   1   7   13.00    0.90
  19   1  -7   12.40    1.00
 -19   1   7   11.80    1.00
  19   1  -7   12.40    0.90
 -19  -1   7   11.60    0.80
  19  -1  -7   13.20    1.00
  19  -1  -7   13.20    1.00
 -19  -1   7   12.30    1.00
 -19   1   6    1.60    0.30
 -19   1   6    1.40    0.40
  19   1  -6    1.30    0.50
 -19   1   6    1.00    0.30
  19   1  -6    1.20    0.40
  19   1  -6   -1.90    1.30
 -19  -1   6    1.40    0.40
 -19  -1   6    1.40    0.30
 -19  -1   6    1.70    0.40
  19  -1  -6    1.10    0.40
  19  -1  -6    1.50    0.50
  19   1  -5   25.00    1.30
 -19   1   5   23.10    1.10
 -19   1   5   23.40    1.30
  19   1  -5   21.20    1.30
  19   1  -5   17.90    3.30
 -19   1   5   26.70    3.50
 -19   1   5   24.00    1.20
 -19  -1   5   23.50    1.20
 -19  -1   5   23.40    1.20
 -19  -1   5   23.30    1.40
  19  -1  -5   23.20    1.30
  19  -1  -5   21.80    1.30
  19  -1  -5   17.30    3.40
  19   1  -4    0.00    0.30
  19   1  -4    0.20    0.30
  19   1  -4    0.20    1.40
 -19   1   4    0.10    0.20
 -19   1   4    0.20    0.20
 -19   1   4    0.00    0.20
 -19   1   4    0.50    1.00
  19  -1  -4    0.80    1.30
 -19  -1   4    0.30    0.20
  19  -1  -4    0.20    0.30
  19  -1  -4    0.30    0.30
 -19  -1   4    0.20    0.30
 -19  -1   4    0.20    0.20
  19   1  -3    0.30    0.30
  19   1  -3    1.20    0.40
  19   1  -3    0.20    1.20
 -19   1   3    0.30    0.20
 -19   1   3    0.80    0.90
 -19   1   3    0.20    0.20
 -19  -1   3    0.50    0.30
 -19  -1   3    1.20    1.20
 -19  -1   3    0.70    0.30
  19  -1  -3    0.60    0.30
  19  -1  -3    0.90    1.30
 -19  -1   3    0.50    0.20
  19  -1  -3    0.70    0.30
  19   1  -2    0.80    0.30
  19   1  -2    1.20    0.40
 -19   1   2    1.50    0.30
 -19   1   2    1.20    0.30
  19   1  -2    0.60    1.20
  19   1  -2    1.10    0.40
 -19   1   2    1.00    0.20
  19  -1  -2    0.90    0.30
  19  -1  -2    2.00    1.30
 -19  -1   2    0.70    0.30
  19  -1  -2    1.70    0.40
 -19  -1   2    0.60    0.30
 -19   1   1   17.60    0.90
 -19   1   1   18.60    1.00
  19   1  -1   18.20    1.00
  19   1  -1   18.70    3.30
 -19   1   1   17.60    0.90
  19   1  -1   18.20    1.00
  19   1  -1   17.10    1.10
 -19  -1   1   17.40    1.00
 -19  -1   1   17.90    1.00
  19  -1  -1   15.90    3.20
  19  -1  -1   17.90    1.10
  19  -1  -1   17.80    1.10
  19   1   0    4.00    0.50
 -19   1   0    3.40    0.50
  19   1   0    3.60    0.50
  19   1   0    3.80    0.50
 -19   1   0    3.30    0.40
 -19   1   0    2.80    0.30
 -19  -1   0    3.40    0.30
 -19  -1   0    3.70    0.40
  19  -1   0    3.10    0.50
  19  -1   0    2.80    0.50
  19  -1   0    5.00    2.20
 -19  -1   0    3.60    0.50
  19   1   1   16.90    1.10
 -19   1  -1   17.70    0.90
  19   1   1   18.20    1.10
 -19   1  -1   17.90    1.00
 -19   1  -1   19.30    1.10
 -19  -1  -1   18.10    1.00
  19  -1   1   16.00    1.10
 -19  -1  -1   18.50    1.10
  19  -1   1   18.50    1.10
  19  -1   1   21.00    3.90
 -19  -1  -1   17.30    0.90
  19   1   2    0.30    0.30
 -19   1  -2    0.00    0.20
 -19   1  -2    0.30    0.20
  19   1   2    0.30    0.30
 -19  -1  -2    0.50    0.20
 -19  -1  -2    0.50    0.30
  19  -1   2    0.20    0.20
  19  -1   2    0.30    0.30
 -19  -1  -2    0.20    0.20
  19   1   3   23.70    1.40
 -19   1  -3   23.80    1.20
  19   1   3   22.70    1.40
 -19   1  -3   24.80    1.30
  19  -1   3   25.80    1.40
 -19  -1  -3   25.00    1.20
  19  -1   3   25.50    1.50
 -19  -1  -3   25.70    1.30
  19   2  -7    0.40    0.40
  19   2  -7    0.50    0.40
 -19   2   7    0.40    0.20
 -19   2   7    0.00    0.20
 -19  -2   7    0.30    0.30
  19  -2  -7    0.00    0.40
  19  -2  -7    0.40    0.40
 -19  -2   7    0.40    0.40
  19   2  -6   10.50    0.90
  19   2  -6    9.80    0.80
 -19   2   6   10.50    0.70
  19   2  -6    5.70    2.30
 -19   2   6    7.70    0.70
  19  -2  -6    9.80    0.80
 -19  -2   6    9.30    0.80
  19  -2  -6    9.90    0.80
 -19  -2   6    9.60    0.90
 -19  -2   6    9.40    0.80
  19   2  -5    1.40    0.40
 -19   2   5    2.00    0.30
  19   2  -5    2.20    1.70
 -19   2   5    2.60    0.50
  19   2  -5    2.00    0.40
  19  -2  -5    1.80    0.40
 -19  -2   5    1.60    0.30
  19  -2  -5    2.10    0.50
  19  -2  -5    0.70    1.90
 -19  -2   5    2.00    0.50
 -19  -2   5    1.90    0.40
 -19   2   4    3.90    1.70
  19   2  -4    6.10    0.60
  19   2  -4    7.40    2.20
 -19   2   4    5.10    0.50
  19   2  -4    5.80    0.70
 -19   2   4    5.20    0.50
 -19  -2   4    5.90    0.70
 -19  -2   4    6.20    0.60
  19  -2  -4    4.90    0.60
 -19  -2   4    5.60    0.50
  19  -2  -4    3.10    2.00
  19  -2  -4    6.30    0.60
  19  -2  -4    5.10    0.60
 -19   2   3    3.20    0.40
  19   2  -3    1.60    1.40
 -19   2   3    3.60    0.40
  19   2  -3    3.10    0.60
 -19   2   3    4.50    1.90
  19   2  -3    3.20    0.50
 -19  -2   3    3.20    0.50
  19  -2  -3    2.40    1.90
  19  -2  -3    3.70    0.50
 -19  -2   3    3.40    0.40
 -19  -2   3    3.70    0.50
  19  -2  -3    3.20    0.50
  19   2  -2   13.60    0.90
  19   2  -2   13.00    0.90
 -19   2   2   11.50    0.70
 -19   2   2   11.60    0.70
 -19   2   2   12.30    0.80
 -19   2   2   14.60    2.60
  19   2  -2   13.20    0.90
  19   2  -2   11.50    3.10
  19  -2  -2   11.70    0.90
  19  -2  -2   12.10    0.90
  19  -2  -2   11.10    2.90
 -19  -2   2   11.50    0.80
 -19  -2   2   12.90    0.90
 -19   2   1    1.30    0.30
  19   2  -1    0.50    0.30
 -19   2   1    1.40    0.30
  19   2  -1    1.10    0.30
 -19   2   1    1.10    0.20
  19   2  -1    0.90    0.30
  19  -2  -1    2.20    0.50
  19  -2  -1    2.00    0.50
 -19  -2   1    0.60    0.30
  19  -2  -1    4.30    2.10
 -19  -2   1    1.30    0.30
 -19   2   0    0.10    0.20
  19   2   0    0.20    0.20
 -19   2   0    0.10    0.20
 -19   2   0    0.30    0.20
  19   2   0    0.30    0.30
 -19  -2   0    0.50    0.30
  19  -2   0    1.50    1.40
 -19  -2   0    0.00    0.20
  19  -2   0    0.20    0.20
  19  -2   0    0.50    0.30
  19   2   1   22.40    1.20
 -19   2  -1   21.40    1.10
 -19   2  -1   22.00    1.00
  19   2   1   22.50    1.30
  19  -2   1   20.40    1.20
 -19  -2  -1   22.70    1.20
 -19  -2  -1   22.90    1.10
  19  -2   1   20.20    1.30
  19  -2   1   15.40    3.90
 -19  -2  -1   22.60    1.30
 -19   2  -2   21.30    1.10
 -19   2  -2   20.70    1.00
 -19   2  -2   23.00    3.30
  19   2   2   20.50    1.30
  19   2   2   20.80    1.20
  19  -2   2   20.90    1.30
 -19  -2  -2   19.70    1.10
 -19  -2  -2   20.80    1.20
 -19  -2  -2   21.20    1.30
  19  -2   2   21.40    1.20
 -19   2  -3    0.60    0.20
 -19   2  -3    0.70    0.30
  19   2   3    1.00    0.40
  19   2   3    0.50    0.40
 -19  -2  -3    0.70    0.30
  19  -2   3    1.30    0.40
  19  -2   3    0.80    0.30
 -19  -2  -3    0.70    0.30
 -19  -2  -3    0.20    0.50
  19   3  -6    0.30    0.30
 -19   3   6    0.20    0.30
  19   3  -6   -0.10    0.30
 -19   3   6    0.20    0.20
  19  -3  -6    0.20    0.30
  19  -3  -6    0.20    0.30
 -19  -3   6    0.00    0.20
 -19  -3   6    0.10    0.30
  19   3  -5   25.20    1.30
 -19   3   5   25.90    1.30
  19   3  -5   25.00    1.40
  19  -3  -5   27.20    1.40
  19  -3  -5   25.30    1.50
 -19  -3   5   24.60    1.40
 -19  -3   5   24.00    1.30
  19  -3  -5   25.90    1.40
 -19  -3   5   23.80    1.40
  19   3  -4    8.20    0.70
 -19   3   4    9.10    0.70
  19   3  -4    8.00    0.80
 -19   3   4    9.30    0.70
  19  -3  -4    7.10    2.40
 -19  -3   4    8.60    0.80
  19  -3  -4    9.50    0.80
  19  -3  -4    9.30    0.80
 -19  -3   4    7.50    0.70
 -19  -3   4    8.80    0.70
  19  -3  -4    9.30    0.80
 -19   3   3    0.30    0.20
 -19   3   3    0.30    0.20
  19   3  -3   -0.10    0.30
  19   3  -3    0.10    0.20
 -19   3   3   -2.00    1.00
 -19  -3   3    0.20    0.30
  19  -3  -3    0.30    0.30
  19  -3  -3    0.20    0.30
 -19  -3   3    0.00    0.20
  19  -3  -3    2.60    1.60
 -19  -3   3    0.40    0.30
  19  -3  -3    0.20    0.20
 -19   3   2    3.10    1.70
 -19   3   2    2.10    0.40
 -19   3   2    1.60    0.30
  19   3  -2    3.30    0.60
  19   3  -2    3.20    0.50
 -19  -3   2    2.20    0.40
 -19  -3   2    2.60    0.50
  19  -3  -2   -0.10    1.10
  19  -3  -2    2.10    0.40
  19  -3  -2    1.60    0.40
 -19   3   1   21.90    1.20
  19   3  -1   22.80    1.20
 -19   3   1   21.50    1.10
 -19   3   1   21.50    3.40
 -19   3   1   20.90    1.00
  19  -3  -1   22.80    1.30
  19  -3  -1   23.60    1.30
  19  -3  -1   17.60    3.50
 -19  -3   1   22.40    1.30
 -19  -3   1   22.50    1.20
 -19   3   0    1.30    0.30
  19   3   0    2.30    0.40
 -19   3   0    1.40    0.30
  19   3   0    2.00    0.50
 -19   3   0    1.30    0.30
 -19   3   0    0.80    1.20
  19  -3   0    2.50    1.70
 -19  -3   0    1.90    0.40
 -19  -3   0    1.60    0.40
  19  -3   0    1.40    0.40
  19  -3   0    0.90    0.30
  19   3   1   12.10    0.90
 -19   3  -1   12.80    0.80
  19   3   1   12.50    0.90
 -19   3  -1   12.10    0.70
  19  -3   1   12.60    1.00
  19  -3   1   12.70    0.90
 -19  -3  -1   12.70    1.00
  19  -3   1    7.70    2.80
 -19  -3  -1   11.90    0.90
  19   3   2    4.80    0.60
 -19   3  -2    4.30    0.50
 -19   3  -2    4.40    0.40
  19   3   2    4.70    0.60
 -19   3  -2    2.70    1.50
  19  -3   2    4.90    0.70
  19  -3   2    4.70    0.60
 -19  -3  -2    3.70    0.50
 -19  -3  -2    4.50    0.60
 -19  -3  -2    4.90    0.60
 -19   3  -3   19.10    1.00
  19   3   3   19.10    1.20
  19   3   3   18.40    1.20
 -19   3  -3   21.20    1.10
 -19  -3  -3   19.80    1.20
  19  -3   3   18.50    1.20
 -19  -3  -3   20.70    1.30
  19  -3   3   21.50    1.30
 -19  -3  -3   20.20    1.10
 -19   4   6    7.70    0.70
  19   4  -6    7.80    0.80
  19   4  -6    8.60    0.80
 -19   4   6    8.00    0.70
 -19  -4   6    8.70    0.90
  19  -4  -6    8.90    0.90
 -19  -4   6    7.40    0.70
  19  -4  -6    8.90    0.80
  19  -4  -6    9.20    0.80
 -19   4   5    5.10    0.50
  19   4  -5    4.70    0.70
 -19   4   5    4.60    0.60
  19   4  -5    4.50    0.60
 -19  -4   5    4.80    0.60
  19  -4  -5    4.40    0.60
 -19  -4   5    4.60    0.60
  19  -4  -5    4.70    0.60
  19  -4  -5    4.80    0.70
 -19  -4   5    4.80    0.60
 -19   4   4    5.00    0.60
  19   4  -4    5.70    0.70
 -19   4   4    5.40    0.50
  19  -4  -4    6.10    0.80
  19  -4  -4    5.20    0.70
 -19  -4   4    5.40    0.60
  19  -4  -4    5.50    0.60
 -19  -4   4    5.20    0.60
 -19  -4   4    5.30    0.70
 -19   4   3    4.50    0.50
 -19   4   3    4.30    0.50
  19   4  -3    4.50    0.70
 -19  -4   3    5.10    0.60
 -19  -4   3    5.00    0.60
 -19  -4   3    4.30    0.60
  19  -4  -3    3.10    0.50
  19  -4  -3    4.20    0.60
  19  -4  -3    3.80    0.60
  19   4  -2   21.10    1.20
 -19   4   2   20.20    1.10
 -19   4   2   19.50    1.10
  19   4  -2   21.10    1.30
 -19  -4   2   21.50    1.20
 -19  -4   2   22.60    1.30
  19  -4  -2   19.10    1.20
  19  -4  -2   20.40    1.30
  19  -4  -2   19.90    1.30
  19  -4  -2   14.00    3.50
 -19   4   1    1.70    0.40
 -19   4   1    1.00    0.30
  19   4  -1    1.20    0.40
 -19   4   1    1.20    0.30
  19   4  -1    1.00    0.30
  19  -4  -1   -1.40    1.40
  19  -4  -1    1.70    0.50
 -19  -4   1    1.10    0.40
  19  -4  -1    1.90    0.50
 -19  -4   1    1.20    0.40
 -19   4   0    1.10    0.30
  19   4   0    0.10    0.20
 -19   4   0    0.50    0.30
  19   4   0    0.30    0.30
  19  -4   0    0.40    0.30
  19  -4   0    0.50    1.80
 -19  -4   0    0.10    0.20
 -19  -4   0    0.20    0.30
  19  -4   0    0.20    0.30
  19   4   1   17.40    1.10
 -19   4  -1   18.10    0.90
  19   4   1   18.30    1.10
 -19   4  -1   19.00    1.00
 -19  -4  -1   17.10    1.20
  19  -4   1   17.60    1.20
 -19  -4  -1   19.20    1.10
  19  -4   1   18.60    1.10
  19   4   2   12.20    1.00
 -19   4  -2   12.80    0.80
  19   4   2   12.80    0.90
 -19   4  -2   13.10    0.80
 -19  -4  -2   11.10    1.00
 -19  -4  -2   12.00    0.90
  19  -4   2   12.90    0.90
  19  -4   2   12.60    1.00
  19   5  -5   11.40    1.00
 -19   5   5   12.00    0.80
 -19   5   5   10.30    0.80
  19  -5  -5   10.60    1.00
  19  -5  -5   12.20    0.90
 -19  -5   5   11.90    1.00
 -19  -5   5   11.40    1.00
 -19  -5   5   11.10    0.90
  19   5  -4    2.60    0.50
 -19   5   4    2.40    0.40
 -19   5   4    2.90    0.40
 -19  -5   4    2.60    0.60
 -19  -5   4    3.30    0.50
  19  -5  -4    2.60    0.50
  19  -5  -4    2.80    0.70
 -19  -5   4    2.90    0.60
  19  -5  -4    3.30    0.60
 -19   5   3    3.30    0.50
 -19   5   3    3.50    0.60
  19   5  -3    3.90    0.70
 -19  -5   3    4.30    0.60
 -19  -5   3    4.70    0.60
  19  -5  -3    2.70    0.50
  19  -5  -3    4.10    0.70
  19  -5  -3    3.10    0.60
  19   5  -2    0.20    0.30
 -19   5   2    0.20    0.30
 -19   5   2    0.50    0.30
  19   5  -2    0.10    0.40
 -19  -5   2    0.00    0.20
  19  -5  -2   -0.10    0.30
  19  -5  -2    0.00    0.30
  19  -5  -2    0.50    0.40
 -19  -5   2    0.00    0.30
 -19   5   1   14.50    0.90
 -19   5   1   15.60    0.90
  19   5  -1   14.50    1.00
  19   5  -1   14.50    1.00
 -19  -5   1   15.60    1.10
  19  -5  -1   15.70    1.10
 -19  -5   1   15.90    1.10
  19  -5  -1   15.00    1.00
  19  -5  -1   14.20    1.10
 -19   5   0    4.00    0.50
 -19   5   0    4.20    0.40
  19   5   0    4.00    0.50
  19   5   0    3.50    0.60
  19  -5   0    4.20    0.60
  19  -5   0    3.90    0.60
 -19  -5   0    3.20    0.60
 -19  -5   0    3.30    0.60
 -19   5  -1    6.10    0.50
 -19   5  -1    7.80    0.60
  19   5   1    7.00    0.70
  19   5   1    6.30    0.70
 -19  -5  -1    7.20    0.70
  19  -5   1    6.40    0.70
 -19  -5  -1    7.30    0.80
  19  -5   1    7.40    0.80
  19   6  -2    6.20    0.70
  19   6  -2    5.30    0.70
 -19   6   2    5.00    0.50
 -19   6   2    5.90    0.60
  19  -6  -2    4.50    0.70
 -19  -6   2    6.20    0.70
 -19  -6   2    6.30    0.70
  19  -6  -2    6.40    0.80
  19  -6  -2    6.20    0.70
 -19   6   1    0.20    0.30
  19   6  -1    0.00    0.30
  19   6  -1    0.00    0.20
  19  -6  -1    0.00    0.30
  19  -6  -1    0.50    0.40
 -19  -6   1    0.30    0.30
 -19  -6   1    0.40    0.30
  19  -6  -1    0.30    0.30
 -20   0   7    0.00    0.30
 -20   0   7    0.00    0.20
  20   0  -7   -0.20    0.30
  20   0  -7    0.40    0.40
 -20   0   6    4.50    0.60
  20   0  -6    4.30    0.70
 -20   0   6    5.20    0.60
 -20   0   6    4.40    0.50
  20   0  -6    5.00    0.60
  20   0  -5   -0.20    0.30
  20   0  -5    1.10    1.40
 -20   0   5   -0.10    0.20
 -20   0   5   -0.20    0.20
 -20   0   5   -0.10    0.20
  20   0  -5   -0.10    0.30
  20   0  -4    7.80    2.50
  20   0  -4    9.70    0.90
 -20   0   4    9.90    0.70
 -20   0   4    9.80    0.70
 -20   0   4    9.60    0.80
  20   0  -4   10.30    0.80
  20   0  -3    0.60    0.30
  20   0  -3    0.40    0.30
 -20   0   3    0.30    0.20
 -20   0   3    0.30    0.20
  20   0  -3    0.20    0.30
  20   0  -3   -0.30    1.10
 -20   0   2    0.30    0.20
  20   0  -2    0.40    0.20
  20   0  -2    0.70    0.30
 -20   0   2    0.80    0.30
  20   0  -2    0.50    1.20
  20   0  -2    0.40    0.30
 -20   0   1    0.20    0.20
 -20   0   1    0.10    0.20
  20   0  -1   -0.10    0.20
  20   0  -1   -2.10    1.40
  20   0  -1    0.00    0.20
  20   0  -1    0.10    0.20
  20   0   0   47.50    2.10
  20   0   0   48.60    2.10
  20   0   0   47.10    2.10
 -20   0   0   45.60    2.10
 -20   0   0   46.30    2.00
 -20   0   0   45.20    1.90
 -20   0  -1    0.20    0.20
  20   0   1    0.10    0.20
  20   0   1    0.10    0.20
 -20   0  -1    0.00    0.20
 -20   0  -1    0.00    0.10
  20   0   1    0.20    0.30
  20   0   2   25.70    1.40
 -20   0  -2   26.50    1.30
 -20   0  -2   26.90    1.30
  20   0   2   26.30    1.40
  20   0   3    0.20    0.30
 -20   0  -3   -0.10    0.20
  20   0   3    0.10    0.30
 -20   0  -3    0.00    0.20
 -20   1   6    1.10    0.30
  20   1  -6    1.30    0.50
 -20   1   6    0.90    0.30
  20   1  -6    0.70    0.40
 -20  -1   6    1.20    0.40
 -20  -1   6    1.20    0.30
  20  -1  -6    1.30    0.40
  20  -1  -6    1.40    0.40
 -20  -1   6    0.70    0.30
 -20   1   5    0.20    0.20
  20   1  -5    0.30    0.30
 -20   1   5    0.30    0.20
  20   1  -5   -0.10    0.30
  20   1  -5    0.30    1.40
  20  -1  -5    0.10    0.30
  20  -1  -5    0.20    0.30
 -20  -1   5    0.10    0.20
 -20  -1   5    0.20    1.40
 -20  -1   5    0.30    0.30
  20  -1  -5   -1.80    1.30
 -20  -1   5    0.40    0.30
 -20   1   4    0.00    1.00
  20   1  -4    0.80    0.40
  20   1  -4    2.80    1.90
 -20   1   4    0.60    0.20
  20   1  -4    1.10    0.50
 -20   1   4    0.80    0.30
 -20  -1   4    0.60    0.20
  20  -1  -4   -1.80    1.10
 -20  -1   4    0.90    0.40
 -20  -1   4    0.70    0.30
  20  -1  -4    0.60    0.30
  20  -1  -4    0.90    0.40
 -20   1   3   16.10    0.90
  20   1  -3   16.00    1.10
  20   1  -3   16.10    1.00
  20   1  -3   17.50    3.20
  20   1  -3   17.00    1.00
 -20   1   3   16.40    1.00
 -20  -1   3   16.90    0.90
  20  -1  -3   15.20    1.00
  20  -1  -3   16.00    1.00
  20  -1  -3   16.90    3.30
 -20  -1   3   16.00    1.00
 -20   1   2    0.60    0.30
  20   1  -2    0.10    0.30
  20   1  -2    0.60    1.30
 -20   1   2    0.30    0.20
  20   1  -2    0.40    0.30
  20   1  -2    0.40    0.40
  20  -1  -2    0.30    0.30
  20  -1  -2    0.30    0.30
 -20  -1   2    0.90    0.30
 -20  -1   2    0.30    0.20
  20  -1  -2    0.30    1.60
  20   1  -1   12.40    1.00
  20   1  -1   15.30    0.90
 -20   1   1   14.50    0.80
 -20   1   1   15.60    0.90
 -20   1   1   15.00    0.80
  20   1  -1   13.90    0.90
 -20  -1   1   14.00    0.90
  20  -1  -1   13.40    3.40
  20  -1  -1   13.90    1.00
 -20  -1   1   14.60    1.00
  20  -1  -1   15.50    1.00
  20   1   0    2.00    0.40
  20   1   0    1.50    0.40
 -20   1   0    1.30    0.30
 -20   1   0    1.60    0.30
 -20   1   0    1.50    0.40
  20  -1   0    0.80    0.30
 -20  -1   0    2.00    0.50
 -20  -1   0    1.40    0.30
  20  -1   0   -0.70    1.30
 -20   1  -1   56.49    2.50
  20   1   1   51.69    2.40
  20   1   1   52.19    2.30
 -20   1  -1   53.49    2.20
 -20   1  -1   55.09    2.20
  20  -1   1   50.49    2.40
  20  -1   1   53.49    2.30
 -20  -1  -1   50.39    2.20
 -20  -1  -1   52.79    2.20
 -20  -1  -1   52.99    2.40
 -20   1  -2    1.10    0.30
 -20   1  -2    0.60    0.20
  20   1   2    1.30    0.40
  20   1   2    0.50    0.30
 -20  -1  -2    1.40    0.40
 -20  -1  -2    0.40    0.20
  20  -1   2    0.70    0.30
  20  -1   2    1.10    0.40
 -20  -1  -2    1.00    0.30
  20   1   3   12.00    0.90
  20   1   3   13.00    1.00
 -20   1  -3   12.00    0.80
 -20   1  -3   13.00    0.80
 -20  -1  -3   10.60    0.80
 -20  -1  -3   13.40    0.80
  20  -1   3   13.30    1.00
  20  -1   3   13.70    1.00
 -20   2   6    1.80    0.40
  20   2  -6    0.40    2.10
  20   2  -6    1.40    0.50
 -20   2   6    1.20    0.30
  20   2  -6    1.00    0.40
 -20  -2   6    1.10    0.30
  20  -2  -6    1.10    0.40
  20  -2  -6    1.70    0.50
 -20  -2   6    1.50    0.40
 -20  -2   6    1.70    0.60
  20   2  -5    2.00    0.50
  20   2  -5    1.50    0.50
  20   2  -5    1.90    1.70
 -20   2   5    1.70    0.30
 -20   2   5    1.40    0.40
  20  -2  -5    1.10    0.40
 -20  -2   5    1.50    0.40
  20  -2  -5    1.10    0.40
 -20  -2   5    2.00    0.50
 -20  -2   5    2.00    0.40
 -20   2   4   24.10    1.30
 -20   2   4   16.90    3.10
  20   2  -4   25.20    1.40
  20   2  -4   24.60    1.40
 -20   2   4   24.00    1.20
 -20  -2   4   22.00    1.20
 -20  -2   4   24.70    1.30
  20  -2  -4   24.10    1.40
 -20  -2   4   25.20    1.40
  20  -2  -4   24.50    4.10
  20  -2  -4   24.50    1.40
  20   2  -3    0.90    0.40
 -20   2   3    0.80    0.20
  20   2  -3    0.90    0.40
 -20   2   3    0.90    0.30
 -20   2   3    1.30    0.30
 -20   2   3    1.70    1.00
 -20  -2   3    0.80    0.30
 -20  -2   3    0.60    0.30
  20  -2  -3    1.70    0.50
  20  -2  -3    1.10    0.40
  20  -2  -3    0.60    1.70
  20   2  -2    5.60    0.60
  20   2  -2    5.70    0.70
 -20   2   2    5.80    0.60
 -20   2   2    5.50    0.50
  20   2  -2    5.90    0.60
 -20   2   2    6.60    0.50
  20  -2  -2    5.70    0.60
 -20  -2   2    5.50    0.60
  20  -2  -2    4.30    2.20
 -20  -2   2    6.30    0.60
  20  -2  -2    5.60    0.60
  20   2  -1   19.10    1.10
 -20   2   1   16.80    1.00
 -20   2   1   16.60    0.90
  20   2  -1   19.50    1.10
 -20   2   1   16.80    0.90
 -20  -2   1   16.60    1.00
  20  -2  -1   22.20    3.80
  20  -2  -1   17.30    1.10
 -20  -2   1   17.70    1.10
  20  -2  -1   16.90    1.10
 -20   2   0   58.79    2.40
 -20   2   0   60.89    2.50
 -20   2   0   58.79    2.30
  20   2   0   56.39    2.50
  20   2   0   56.69    2.50
  20  -2   0   59.79    2.60
 -20  -2   0   58.09    2.40
  20  -2   0   61.79    2.60
 -20  -2   0   54.99    2.60
  20  -2   0   63.09    6.30
 -20   2  -1    3.10    0.40
  20   2   1    2.20    0.50
  20   2   1    2.10    0.40
 -20   2  -1    2.70    0.40
  20  -2   1    5.90    2.20
  20  -2   1    2.70    0.50
 -20  -2  -1    2.30    0.40
 -20  -2  -1    2.70    0.50
  20  -2   1    3.50    0.50
 -20   2  -2    7.70    0.60
 -20   2  -2    8.10    0.60
  20   2   2    7.20    0.80
  20   2   2    7.20    0.70
 -20  -2  -2    7.20    0.80
  20  -2   2    7.80    0.80
  20  -2   2    8.50    0.70
 -20  -2  -2    6.70    0.60
 -20  -2  -2    7.60    0.70
  20   3  -6    0.70    0.40
 -20   3   6    0.60    0.30
  20   3  -6    0.60    0.40
 -20   3   6    0.50    0.30
 -20  -3   6    0.30    0.30
  20  -3  -6    0.50    0.40
  20  -3  -6    0.20    0.30
 -20  -3   6    0.50    0.30
  20   3  -5    1.20    0.40
 -20   3   5    0.30    0.30
 -20   3   5    0.70    0.30
  20   3  -5    0.80    0.40
  20  -3  -5    0.40    0.30
  20  -3  -5    0.30    0.30
 -20  -3   5    0.80    0.40
 -20  -3   5    1.50    0.40
 -20  -3   5    1.10    0.40
 -20   3   4    0.20    0.20
  20   3  -4   -0.30    0.30
  20   3  -4    0.20    0.30
 -20   3   4    0.40    0.20
 -20  -3   4    0.20    0.30
  20  -3  -4   -0.10    0.30
 -20  -3   4    0.30    0.30
  20  -3  -4    0.10    0.30
 -20  -3   4    0.10    0.20
  20  -3  -4   -0.20    0.20
 -20   3   3   12.40    0.90
 -20   3   3   14.40    0.80
  20   3  -3   14.30    1.10
 -20  -3   3   14.00    1.00
  20  -3  -3   13.50    1.00
  20  -3  -3   13.80    1.00
  20  -3  -3   14.40    1.00
 -20  -3   3   14.10    0.90
  20  -3  -3   11.90    3.40
 -20   3   2    9.40    2.50
  20   3  -2    9.10    0.80
 -20   3   2    7.30    0.60
 -20   3   2    7.10    0.50
  20   3  -2    7.60    0.80
 -20   3   2    7.40    0.60
 -20  -3   2    8.60    0.70
 -20  -3   2    7.50    0.70
  20  -3  -2    6.20    2.40
  20  -3  -2    6.50    0.70
  20  -3  -2    7.10    0.70
  20   3  -1   13.10    0.90
 -20   3   1   14.20    0.90
  20   3  -1   13.30    1.00
 -20   3   1   13.90    0.80
 -20   3   1   14.50    0.80
  20  -3  -1   12.50    1.00
  20  -3  -1   13.80    1.00
  20  -3  -1    8.40    3.00
 -20  -3   1   14.20    1.00
 -20  -3   1   13.40    0.90
 -20   3   0    1.90    0.30
  20   3   0    2.50    0.50
 -20   3   0    2.60    0.60
 -20   3   0    2.00    0.40
  20   3   0    2.60    0.40
  20  -3   0    2.20    2.40
 -20  -3   0    1.50    0.40
  20  -3   0    2.00    0.40
  20  -3   0    2.50    0.60
 -20  -3   0    2.30    0.50
  20   3   1   26.40    1.50
  20   3   1   28.40    1.50
 -20   3  -1   29.50    1.30
 -20   3  -1   28.20    1.30
 -20  -3  -1   28.60    1.50
  20  -3   1   26.60    1.50
 -20  -3  -1   26.80    1.60
  20  -3   1   26.60    4.40
  20  -3   1   29.20    1.60
 -20   3  -2    3.80    0.40
 -20   3  -2    3.70    0.40
  20   3   2    3.60    0.60
  20   3   2    3.90    0.60
 -20  -3  -2    3.40    0.50
 -20  -3  -2    3.90    0.60
  20  -3   2    3.10    0.50
  20  -3   2    3.50    0.60
 -20   4   5    0.10    0.20
  20   4  -5    0.40    0.30
  20   4  -5    0.20    0.40
 -20   4   5    0.00    0.20
 -20  -4   5   -0.20    0.20
 -20  -4   5    0.20    0.30
 -20  -4   5    0.00    0.30
  20  -4  -5    0.10    0.20
  20  -4  -5    0.20    0.40
  20  -4  -5    0.10    0.30
  20   4  -4    5.30    0.70
 -20   4   4    4.40    0.50
 -20   4   4    5.30    0.60
  20  -4  -4    4.20    0.60
 -20  -4   4    4.60    0.60
  20  -4  -4    5.30    0.70
 -20  -4   4    5.40    0.70
 -20  -4   4    5.20    0.60
  20  -4  -4    5.40    0.70
 -20   4   3    0.40    0.30
  20   4  -3    0.40    0.40
 -20   4   3    0.20    0.20
  20  -4  -3    0.40    0.30
  20  -4  -3    0.20    0.30
 -20  -4   3    0.30    0.30
  20  -4  -3    0.10    0.40
 -20  -4   3    0.00    0.20
 -20   4   2    1.90    0.40
  20   4  -2    1.60    0.40
 -20   4   2    1.60    0.40
  20   4  -2    2.00    0.40
  20  -4  -2    2.30    0.60
 -20  -4   2    1.60    0.40
  20  -4  -2    2.30    0.50
 -20  -4   2    2.30    0.50
 -20   4   1   15.20    0.90
  20   4  -1   16.40    1.10
 -20   4   1   15.10    0.90
  20   4  -1   16.10    1.00
 -20   4   1   15.70    0.90
  20  -4  -1   16.00    1.10
 -20  -4   1   16.70    1.10
 -20  -4   1   16.10    1.10
  20  -4  -1   15.30    1.00
  20   4   0    7.20    0.70
  20   4   0    6.90    0.70
 -20   4   0    6.20    0.50
 -20   4   0    5.90    0.60
  20  -4   0    6.30    0.70
 -20  -4   0    5.90    0.60
 -20  -4   0    7.00    0.80
  20  -4   0    7.40    0.80
  20   4   1    0.40    0.30
 -20   4  -1    0.60    0.30
 -20   4  -1    0.40    0.20
  20   4   1    0.60    0.30
  20  -4   1    1.00    0.40
 -20  -4  -1    0.40    0.30
  20  -4   1    0.90    0.40
 -20  -4  -1    0.40    0.30
  20   5  -3   12.10    1.00
 -20   5   3   11.00    0.80
 -20   5   3   11.10    0.80
  20   5  -3   11.90    0.90
  20  -5  -3   12.60    1.00
  20  -5  -3   11.70    0.90
 -20  -5   3   12.50    1.00
 -20  -5   3   10.20    0.90
  20  -5  -3   11.30    1.00
  20   5  -2    1.10    0.40
 -20   5   2    0.90    0.30
  20   5  -2    1.20    0.50
 -20   5   2    1.00    0.30
  20  -5  -2    0.90    0.40
 -20  -5   2    1.00    0.40
  20  -5  -2    1.10    0.40
  20  -5  -2    0.50    0.30
 -20  -5   2    1.40    0.40
  20   5  -1    6.80    0.80
  20   5  -1    7.60    0.70
 -20   5   1    8.10    0.70
 -20   5   1    7.50    0.60
 -20   5   1    7.90    0.80
 -20  -5   1    7.80    0.80
  20  -5  -1    9.10    0.80
 -20  -5   1    8.00    0.80
  20  -5  -1    7.80    0.80
 -21   0   6   12.80    0.90
 -21   0   6   13.50    0.90
 -21   0   6   12.70    1.00
  21   0  -6   12.80    1.10
  21   0  -6   12.40    0.90
 -21   0   5    0.30    0.20
  21   0  -5   -2.30    1.50
 -21   0   5    0.30    0.30
  21   0  -5    0.20    0.30
  21   0  -5    0.10    0.40
 -21   0   5    0.00    0.20
 -21   0   4    6.00    3.10
  21   0  -4    6.20    0.70
  21   0  -4    7.10    0.70
 -21   0   4    7.60    0.60
 -21   0   4    5.60    0.60
  21   0  -4    3.10    2.00
  21   0  -3    0.40    0.30
 -21   0   3    0.20    0.20
  21   0  -3    0.00    0.30
 -21   0   3    0.10    0.20
  21   0  -2   74.59    3.10
 -21   0   2   68.59    3.00
 -21   0   2   75.09    2.90
  21   0  -2   77.89    7.10
  21   0  -2   75.99    3.10
  21   0  -1   -0.30    0.20
 -21   0   1    0.20    0.20
 -21   0   1    0.10    0.20
  21   0  -1    0.10    0.30
 -21   0   0    2.80    0.50
  21   0   0    2.90    0.50
 -21   0   0    1.60    0.30
  21   0   0    2.10    0.50
  21   0   1    0.10    0.30
 -21   0  -1    0.20    0.20
 -21   0  -1    0.00    0.20
 -21   0  -1   -0.10    0.10
 -21   0  -2   81.19    3.20
  21   0   2   82.39    3.40
 -21   0  -2   82.39    3.20
  21   1  -6    0.20    0.30
 -21   1   6    0.30    0.20
 -21   1   6    0.20    0.30
  21   1  -6    0.20    0.30
 -21  -1   6    0.20    0.20
  21  -1  -6    0.10    0.40
 -21  -1   6    0.20    0.30
  21  -1  -6    0.20    0.30
 -21  -1   6    0.30    0.20
  21   1  -5    8.80    0.90
 -21   1   5    8.50    0.60
 -21   1   5    9.10    0.70
  21   1  -5    3.20    1.90
  21   1  -5   10.10    0.90
 -21  -1   5    8.80    0.70
  21  -1  -5    8.30    0.80
  21  -1  -5    8.60    0.80
 -21  -1   5    9.30    0.90
 -21  -1   5    9.00    0.70
  21   1  -4    2.30    0.50
  21   1  -4    1.60    1.60
 -21   1   4    2.10    0.40
  21   1  -4    3.10    0.60
 -21   1   4    2.50    0.40
 -21  -1   4    3.00    0.50
 -21  -1   4    2.30    0.50
  21  -1  -4    1.50    0.40
  21  -1  -4    1.50    1.80
 -21  -1   4    3.40    0.40
  21  -1  -4    1.50    0.40
 -21   1   3   16.50    0.90
 -21   1   3   14.30    2.90
  21   1  -3   15.40    1.00
  21   1  -3   14.90    1.10
  21   1  -3   16.50    1.10
 -21   1   3   15.50    1.00
  21  -1  -3   17.00    1.10
 -21  -1   3   15.10    1.00
 -21  -1   3   17.00    1.00
  21  -1  -3   16.30    1.10
  21  -1  -3   15.50    4.00
  21   1  -2    0.30    0.20
  21   1  -2    0.80    0.30
 -21   1   2    0.20    0.20
  21   1  -2    0.20    0.30
 -21   1   2    0.00    0.20
 -21  -1   2    0.20    0.20
  21  -1  -2    0.20    0.30
 -21  -1   2    0.10    0.20
  21  -1  -2   -0.30    1.50
  21  -1  -2    0.50    0.30
 -21   1   1   57.99    2.30
 -21   1   1   57.09    2.40
  21   1  -1   57.19    2.40
  21   1  -1   56.79    2.50
  21   1  -1   55.19    2.50
 -21  -1   1   56.29    2.50
 -21  -1   1   57.49    2.40
  21  -1  -1   58.79    2.50
  21  -1  -1   55.49    2.50
  21  -1  -1   51.39    6.00
 -21   1   0    2.70    0.50
 -21   1   0    2.80    0.40
  21   1   0    3.30    0.50
  21   1   0    3.20    0.50
 -21   1   0    2.90    0.40
 -21  -1   0    2.60    0.50
  21  -1   0    3.10    0.50
 -21  -1   0    3.10    0.40
  21  -1   0    3.30    0.50
  21   1   1   18.30    1.20
 -21   1  -1   20.10    1.10
  21   1   1   19.10    1.20
 -21   1  -1   20.10    1.00
 -21  -1  -1   19.80    1.20
  21  -1   1   18.10    1.10
 -21  -1  -1   19.20    1.10
  21  -1   1   20.20    1.20
  21   1   2    0.50    0.30
  21   1   2    0.60    0.40
 -21   1  -2    0.60    0.30
 -21   1  -2    1.00    0.30
 -21  -1  -2    0.30    0.20
 -21  -1  -2    0.80    0.30
  21  -1   2    0.70    0.30
  21  -1   2    0.00    0.30
 -21   2   5    0.10    0.20
 -21   2   5    0.30    0.30
  21   2  -5    0.00    0.40
  21   2  -5   -0.10    0.30
  21  -2  -5    0.00    0.30
 -21  -2   5   -0.10    0.30
  21  -2  -5    0.10    0.30
 -21  -2   5   -0.20    0.20
 -21  -2   5   -0.20    0.20
  21   2  -4    0.60    0.40
  21   2  -4    0.20    0.30
 -21   2   4    0.20    0.20
 -21   2   4    0.10    0.20
 -21  -2   4    0.30    0.30
 -21  -2   4    0.40    0.30
 -21  -2   4    0.20    0.30
  21  -2  -4    0.50    0.40
  21  -2  -4    0.30    0.30
  21   2  -3    4.90    0.60
 -21   2   3    4.60    0.50
  21   2  -3    5.10    0.70
  21   2  -3    4.00    0.60
 -21   2   3    4.70    0.50
  21  -2  -3    2.40    2.20
 -21  -2   3    5.00    0.60
 -21  -2   3    5.90    0.60
  21  -2  -3    4.80    0.60
  21  -2  -3    4.70    0.60
 -21   2   2   22.50    1.20
 -21   2   2   22.10    1.10
  21   2  -2   22.40    1.30
 -21   2   2   23.00    1.10
  21   2  -2   21.90    1.30
 -21  -2   2   22.40    1.20
  21  -2  -2   23.20    1.30
  21  -2  -2   19.30    3.70
  21  -2  -2   23.40    1.30
 -21  -2   2   22.40    1.30
  21   2  -1    1.10    0.40
 -21   2   1    1.10    0.30
  21   2  -1    0.70    0.40
 -21   2   1    1.20    0.30
 -21   2   1    1.10    0.30
 -21  -2   1    1.60    0.40
  21  -2  -1    0.80    2.00
  21  -2  -1    1.50    0.40
 -21  -2   1    0.50    0.30
  21  -2  -1    1.70    0.40
  21   2   0   20.20    1.20
 -21   2   0   19.80    1.00
  21   2   0   18.90    1.20
 -21   2   0   21.30    1.20
 -21   2   0   21.10    1.10
  21  -2   0   21.00    1.20
 -21  -2   0   18.90    1.10
 -21  -2   0   19.90    1.20
  21  -2   0   22.10    1.30
  21  -2   0   18.10    3.70
  21   2   1    0.30    0.30
  21   2   1   -0.10    0.20
 -21   2  -1    0.40    0.20
 -21   2  -1   -0.10    0.20
 -21  -2  -1   -0.20    0.20
  21  -2   1   -0.20    0.20
  21  -2   1    0.00    0.30
 -21  -2  -1    0.00    0.20
 -21   3   5    9.50    0.70
  21   3  -5    8.40    0.80
  21   3  -5    9.00    0.90
 -21   3   5    9.20    0.70
 -21  -3   5    9.20    0.80
  21  -3  -5    8.90    0.80
 -21  -3   5    8.80    0.80
 -21  -3   5    8.60    0.80
  21  -3  -5    8.60    0.80
  21   3  -4    1.40    0.50
 -21   3   4    1.10    0.30
  21   3  -4    1.40    0.50
 -21   3   4    1.40    0.30
 -21  -3   4    1.00    0.30
 -21  -3   4    1.00    0.30
  21  -3  -4    0.80    0.40
  21  -3  -4    0.90    0.40
 -21  -3   4    1.00    0.40
 -21   3   3    7.20    0.60
 -21   3   3    8.40    0.70
 -21   3   3    9.00    0.70
  21   3  -3    8.40    0.80
  21   3  -3    8.70    0.80
 -21  -3   3    7.50    0.70
 -21  -3   3    7.90    0.70
  21  -3  -3    9.50    0.80
  21  -3  -3    9.40    0.80
  21   3  -2    6.00    0.70
 -21   3   2    4.00    0.50
 -21   3   2    4.40    0.50
 -21   3   2    3.90    0.40
  21   3  -2    5.00    0.60
 -21  -3   2    4.20    0.50
  21  -3  -2    4.70    0.60
  21  -3  -2    4.20    0.60
 -21  -3   2    5.20    0.60
  21   3  -1   25.70    1.40
 -21   3   1   25.80    1.30
 -21   3   1   25.90    1.20
 -21   3   1   27.50    1.40
  21   3  -1   25.30    1.40
  21  -3  -1   26.50    1.50
  21  -3  -1   28.30    1.50
 -21  -3   1   25.30    1.50
 -21  -3   1   25.90    1.40
 -21   3   0    2.70    0.40
 -21   3   0    3.10    0.40
  21   3   0    3.60    0.60
  21   3   0    2.90    0.50
 -21  -3   0    4.30    0.60
  21  -3   0    3.10    0.50
  21  -3   0    2.50    0.50
 -21  -3   0    3.50    0.50
  21   3   1    8.80    0.80
  21   3   1    7.90    0.70
 -21   3  -1    9.60    0.60
 -21   3  -1    9.10    0.70
  21  -3   1    9.20    0.80
 -21  -3  -1    8.20    0.70
 -21  -3  -1    8.80    0.90
  21  -3   1    8.80    0.80
  21   4  -4    1.00    0.50
 -21   4   4    1.10    0.40
 -21   4   4    0.80    0.30
 -21  -4   4    1.00    0.30
  21  -4  -4    0.90    0.40
 -21  -4   4    1.10    0.40
  21  -4  -4    0.70    0.30
 -21  -4   4    0.60    0.30
  21  -4  -4    0.70    0.40
 -21   4   3    8.60    0.70
 -21   4   3    8.60    0.70
  21   4  -3   10.00    0.90
  21   4  -3    9.90    0.80
  21  -4  -3   10.10    0.90
 -21  -4   3    9.80    0.80
  21  -4  -3    8.80    0.80
  21  -4  -3   10.00    0.90
 -21  -4   3    8.80    0.80
 -21   4   2   12.50    0.90
 -21   4   2   12.10    0.80
  21   4  -2   11.50    0.90
  21   4  -2   11.00    0.90
  21  -4  -2   14.30    1.00
 -21  -4   2   11.20    0.90
 -21  -4   2   10.90    0.90
  21  -4  -2   12.40    1.00
 -21   4   1    0.20    0.20
 -21   4   1    0.30    0.20
  21   4  -1    0.20    0.30
 -21   4   1    0.50    0.30
  21   4  -1    0.40    0.30
  21  -4  -1    0.40    0.30
 -21  -4   1    0.10    0.30
 -21  -4   1    0.10    0.30
  21  -4  -1    0.30    0.30
 -22   0   5    0.20    0.20
 -22   0   5    0.20    0.20
  22   0  -5    0.20    0.40
  22   0  -5    0.20    0.30
  22   0  -4   18.00    1.20
  22   0  -4   18.00    1.20
 -22   0   4   19.50    1.00
 -22   0   4   18.00    1.10
 -22   0   3    0.20    0.20
 -22   0   3    0.20    0.20
  22   0  -3    0.20    0.30
  22   0  -3    0.40    0.30
  22   0  -2   18.20    1.20
 -22   0   2   17.20    1.10
  22   0  -2   19.30    1.20
 -22   0   2   18.90    1.00
  22   0  -1   -0.40    0.20
 -22   0   1    0.00    0.20
  22   0  -1   -0.10    0.20
 -22   0   1    0.00    0.20
 -22   0   0   84.99    3.60
  22   0   0   78.89    3.50
 -22   0   0   84.99    3.30
  22   0   0   96.09    4.00
 -22   1   5    9.80    0.70
  22   1  -5    9.50    0.90
  22   1  -5    9.40    0.90
 -22   1   5   10.10    0.80
 -22  -1   5    9.10    0.80
  22  -1  -5   10.20    0.90
  22  -1  -5    9.40    0.90
 -22  -1   5   10.70    0.90
 -22  -1   5    9.60    0.70
 -22   1   4    1.20    0.40
  22   1  -4    0.80    0.30
  22   1  -4    1.50    0.50
 -22   1   4    1.10    0.30
  22   1  -4    1.50    0.40
 -22  -1   4    0.70    0.30
  22  -1  -4    0.90    0.40
  22  -1  -4    0.80    0.40
 -22  -1   4    1.40    0.30
  22   1  -3   27.70    1.50
 -22   1   3   29.30    1.40
  22   1  -3   28.60    1.50
 -22   1   3   28.40    1.50
  22   1  -3   28.50    1.50
 -22  -1   3   27.70    1.50
  22  -1  -3   27.00    1.50
  22  -1  -3   28.90    1.50
 -22  -1   3   30.00    1.40
  22  -1  -3   22.00    4.30
  22   1  -2   -0.10    0.20
 -22   1   2    0.10    0.20
  22   1  -2    0.00    0.30
 -22   1   2    0.10    0.20
  22   1  -2    0.30    0.30
 -22  -1   2    0.50    0.30
 -22  -1   2    0.20    0.30
  22  -1  -2    0.00    0.30
  22  -1  -2    0.00    0.30
 -22   1   1   23.20    1.20
 -22   1   1   23.60    1.30
  22   1  -1   22.10    1.30
  22   1  -1   20.80    1.30
  22  -1  -1   21.20    1.30
  22  -1  -1   23.30    1.40
 -22  -1   1   23.50    1.20
 -22  -1   1   21.50    1.30
 -22   1   0    0.60    0.20
  22   1   0    0.30    0.30
 -22   1   0    0.50    0.20
  22   1   0    0.40    0.30
 -22   1   0    0.40    0.30
 -22  -1   0    0.50    0.30
  22  -1   0    0.10    0.20
 -22  -1   0    0.40    0.30
  22  -1   0    0.40    0.30
 -22   2   4   23.90    1.20
  22   2  -4   23.50    1.40
 -22   2   4   24.60    1.30
  22   2  -4   22.80    1.40
 -22  -2   4   23.10    1.30
 -22  -2   4   22.90    1.30
  22  -2  -4   23.30    1.40
  22  -2  -4   23.30    1.40
  22   2  -3    0.10    0.30
 -22   2   3    0.20    0.20
  22   2  -3    0.00    0.20
 -22   2   3    0.30    0.20
  22  -2  -3    0.10    0.30
 -22  -2   3    0.30    0.30
  22  -2  -3    0.40    0.30
 -22  -2   3   -0.10    0.20
  22   2  -2    7.30    0.80
 -22   2   2    8.00    0.60
 -22   2   2    8.40    0.70
  22   2  -2    7.40    0.70
 -22  -2   2    8.30    0.70
  22  -2  -2    6.90    0.70
 -22  -2   2    6.50    0.70
  22  -2  -2    8.00    0.80
 -22   2   1   -0.10    0.20
  22   2  -1   -0.10    0.20
 -22   2   1    0.20    0.20
  22   2  -1    0.10    0.30
 -22   2   1    0.20    0.20
  22  -2  -1    0.00    0.20
  22  -2  -1    0.10    0.30
 -22  -2   1   -0.10    0.20
 -22  -2   1   -0.20    0.20
 -22   2   0   72.19    2.90
 -22   2   0   74.89    2.90
  22   2   0   74.69    3.10
  22   2   0   72.69    3.10
 -22  -2   0   74.79    3.00
  22  -2   0   74.09    3.10
 -22  -2   0   71.59    3.10
  22  -2   0   73.99    3.10
  22   3  -3   16.90    1.20
 -22   3   3   17.80    1.00
  22   3  -3   18.00    1.20
 -22   3   3   18.70    1.10
  22  -3  -3   18.80    1.20
  22  -3  -3   18.10    1.20
 -22  -3   3   15.70    1.10
 -22  -3   3   18.90    1.20
 -22   3   2    1.00    0.30
  22   3  -2    1.70    0.40
  22   3  -2    1.20    0.40
 -22   3   2    1.40    0.30
 -22   3   2    1.20    0.40
  22  -3  -2    1.00    0.40
 -22  -3   2    1.60    0.40
 -22  -3   2    1.00    0.30
  22  -3  -2    1.60    0.50
 -22   3   1    8.10    0.70
 -22   3   1    7.80    0.60
  22   3  -1    7.50    0.70
 -22   3   1    7.80    0.60
  22   3  -1    7.20    0.80
  22  -3  -1    8.20    0.80
  22  -3  -1    8.60    0.80
 -22  -3   1    7.50    0.70
 -22  -3   1    6.90    0.70
 -23   0   3    0.00    0.20
  23   0  -3   -0.30    0.30
  23   0  -3    0.20    0.30
 -23   0   3    0.10    0.20
 -23   0   2   83.59    3.40
  23   0  -2   78.49    3.40
  23   0  -2   81.39    3.40
 -23   0   2   86.29    3.30
 -23   1   2    0.00    0.20
  23   1  -2    0.40    0.30
 -23   1   2    0.10    0.20
  23  -1  -2    0.00    0.30
 -23  -1   2    0.20    0.20
 -23  -1   2    0.20    0.20
  23  -1  -2    0.00    0.20
   0   0   0    0.00    0.00




_computing_structure_solution     'SHELXT 2014/5 (Sheldrick, 2014)'
_computing_structure_solution     'SHELXT 2014/5 (Sheldrick, 2014)'
_computing_structure_solution     'SHELXT 2014/5 (Sheldrick, 2014)'
_computing_structure_solution     'SHELXT 2014/5 (Sheldrick, 2014)'
;
_shelx_hkl_checksum              58809
_olex2_submission_special_instructions 'No special instructions were received'
loop_
_space_group_symop_operation_xyz
'x, y, z'
'-x, y+1/2, -z+1/2'
'-x, -y, -z'
'x, -y-1/2, z-1/2'
loop_
_atom_site_label
_atom_site_type_symbol
_atom_site_fract_x
_atom_site_fract_y
_atom_site_fract_z
_atom_site_U_iso_or_equiv
_atom_site_adp_type
_atom_site_occupancy
_atom_site_site_symmetry_order
_atom_site_calc_flag
_atom_site_refinement_flags_posn
_atom_site_refinement_flags_adp
_atom_site_refinement_flags_occupancy
_atom_site_disorder_assembly
_atom_site_disorder_group
In01 In 1.000000 0.500000 0.500000 0.03906(18) Uani 0.167(6) 2 d S T P A 1
Cl2 Cl 0.85975(6) 0.45250(17) 0.43101(17) 0.0672(3) Uani 1 1 d . . . . .
Cl3 Cl 0.49742(8) -0.0514(3) 0.2518(2) 0.0946(5) Uani 1 1 d . . . . .
Cl1 Cl 0.97769(8) 0.7495(3) 0.73994(19) 0.0933(5) Uani 1 1 d . . . . .
N1 N 0.8645(2) 0.0267(5) 0.4320(6) 0.0653(10) Uani 1 1 d . . . . .
H1A H 0.885809 -0.021329 0.341842 0.078 Uiso 1 1 calc GR . . . .
H1B H 0.886277 -0.025342 0.540764 0.078 Uiso 1 1 calc GR . . . .
H1C H 0.876489 0.141162 0.440276 0.078 Uiso 1 1 calc GR . . . .
C1 C 0.7739(2) 0.0032(5) 0.3878(5) 0.0491(8) Uani 1 1 d . . . . .
C4 C 0.6052(2) -0.0300(6) 0.3054(6) 0.0578(10) Uani 1 1 d . . . . .
C5 C 0.6410(3) 0.0922(8) 0.2127(8) 0.0593(14) Uani 0.753(6) 1 d . . . B 1
H5 H 0.608159 0.164024 0.122709 0.071 Uiso 0.753(6) 1 calc R . . B 1
C6 C 0.7268(3) 0.1086(8) 0.2537(7) 0.0573(13) Uani 0.753(6) 1 d . . . B 1
H6 H 0.752381 0.190746 0.190463 0.069 Uiso 0.753(6) 1 calc R . . B 1
C3 C 0.6510(4) -0.1317(9) 0.4400(9) 0.0731(18) Uani 0.753(6) 1 d . . . B 1
H3 H 0.625037 -0.211244 0.505311 0.088 Uiso 0.753(6) 1 calc R . . B 1
C2 C 0.7378(4) -0.1172(8) 0.4811(8) 0.0670(16) Uani 0.753(6) 1 d . . . B 1
H2 H 0.770282 -0.189333 0.571175 0.080 Uiso 0.753(6) 1 calc R . . B 1
Cu1 Cu 1.000000 0.500000 0.500000 0.03906(18) Uani 0.833(6) 2 d S T P A 2
C9 C 0.7261(9) 0.111(3) 0.476(3) 0.062(4) Uani 0.247(6) 1 d . . . B 2
H9 H 0.750242 0.195280 0.562887 0.074 Uiso 0.247(6) 1 calc R . . B 2
C10 C 0.6410(9) 0.086(3) 0.428(3) 0.072(5) Uani 0.247(6) 1 d . . . B 2
H10 H 0.607587 0.156071 0.485961 0.086 Uiso 0.247(6) 1 calc R . . B 2
C8 C 0.6536(11) -0.146(3) 0.206(3) 0.074(6) Uani 0.247(6) 1 d . . . B 2
H8 H 0.629001 -0.229615 0.118783 0.088 Uiso 0.247(6) 1 calc R . . B 2
C7 C 0.7386(12) -0.119(3) 0.255(3) 0.079(6) Uani 0.247(6) 1 d . . . B 2
H7 H 0.773018 -0.185304 0.196937 0.095 Uiso 0.247(6) 1 calc R . . B 2
loop_
_atom_site_aniso_label
_atom_site_aniso_U_11
_atom_site_aniso_U_22
_atom_site_aniso_U_33
_atom_site_aniso_U_23
_atom_site_aniso_U_13
_atom_site_aniso_U_12
In01 0.0366(3) 0.0435(3) 0.0369(3) 0.00025(19) 0.00776(17) -0.00113(19)
Cl2 0.0450(5) 0.0749(7) 0.0800(7) 0.0027(5) 0.0098(5) 0.0066(4)
Cl3 0.0449(5) 0.1293(13) 0.1066(10) -0.0021(9) 0.0099(6) -0.0204(7)
Cl1 0.0710(8) 0.1373(14) 0.0715(7) 0.0353(8) 0.0155(6) 0.0003(8)
N1 0.0389(16) 0.073(2) 0.082(2) -0.0049(19) 0.0080(15) 0.0064(15)
C1 0.0400(16) 0.055(2) 0.0514(18) -0.0034(16) 0.0086(13) 0.0026(15)
C4 0.0425(18) 0.070(3) 0.060(2) -0.0059(19) 0.0092(16) -0.0069(17)
C5 0.050(3) 0.067(3) 0.057(3) 0.010(3) 0.003(2) 0.002(2)
C6 0.051(3) 0.067(3) 0.055(3) 0.014(2) 0.011(2) -0.003(2)
C3 0.070(4) 0.080(4) 0.068(4) 0.020(3) 0.012(3) -0.018(3)
C2 0.066(3) 0.065(4) 0.063(3) 0.019(3) 0.001(3) -0.002(3)
Cu1 0.0366(3) 0.0435(3) 0.0369(3) 0.00025(19) 0.00776(17) -0.00113(19)
C9 0.035(7) 0.076(11) 0.073(11) -0.003(9) 0.008(6) -0.003(7)
C10 0.034(7) 0.088(13) 0.099(14) 0.007(11) 0.026(8) 0.007(8)
C8 0.052(9) 0.077(12) 0.095(14) -0.028(11) 0.023(9) -0.013(8)
C7 0.056(10) 0.083(14) 0.110(17) -0.003(12) 0.045(11) 0.002(9)
loop_
_atom_type_symbol
_atom_type_description
_atom_type_scat_dispersion_real
_atom_type_scat_dispersion_imag
_atom_type_scat_source
C C 0.0034 0.0017 'International Tables Vol C Tables 4.2.6.8 and 6.1.1.4'
H H 0.0000 0.0000 'International Tables Vol C Tables 4.2.6.8 and 6.1.1.4'
Cl Cl 0.1549 0.1679 'International Tables Vol C Tables 4.2.6.8 and 6.1.1.4'
Cu Cu 0.3203 1.3289 'International Tables Vol C Tables 4.2.6.8 and 6.1.1.4'
In In -0.6542 1.3759 'International Tables Vol C Tables 4.2.6.8 and 6.1.1.4'
N N 0.0065 0.0035 'International Tables Vol C Tables 4.2.6.8 and 6.1.1.4'
loop_
_geom_angle_atom_site_label_1
_geom_angle_atom_site_label_2
_geom_angle_atom_site_label_3
_geom_angle
_geom_angle_site_symmetry_1
_geom_angle_site_symmetry_3
_geom_angle_publ_flag
Cl2 In01 Cl2 180.0 . 3_766 ?
Cl2 In01 Cl1 91.10(4) 3_766 4_575 ?
Cl2 In01 Cl1 91.10(4) . 2_746 ?
Cl2 In01 Cl1 88.82(4) 3_766 3_766 ?
Cl2 In01 Cl1 88.82(4) . . ?
Cl2 In01 Cl1 91.18(4) 3_766 . ?
Cl2 In01 Cl1 88.90(4) . 4_575 ?
Cl2 In01 Cl1 88.90(4) 3_766 2_746 ?
Cl2 In01 Cl1 91.18(4) . 3_766 ?
Cl1 In01 Cl1 180.0 3_766 . ?
Cl1 In01 Cl1 180.0 4_575 2_746 ?
Cl1 In01 Cl1 93.150(8) 2_746 . ?
Cl1 In01 Cl1 86.850(8) 2_746 3_766 ?
Cl1 In01 Cl1 86.850(8) 4_575 . ?
Cl1 In01 Cl1 93.150(8) 4_575 3_766 ?
In01 Cl1 In01 164.53(6) 2_756 . ?
H1A N1 H1B 109.5 . . ?
H1A N1 H1C 109.5 . . ?
H1B N1 H1C 109.5 . . ?
C1 N1 H1A 109.5 . . ?
C1 N1 H1B 109.5 . . ?
C1 N1 H1C 109.5 . . ?
C6 C1 N1 118.4(4) . . ?
C2 C1 N1 120.6(4) . . ?
C2 C1 C6 121.0(4) . . ?
C9 C1 N1 118.6(7) . . ?
C7 C1 N1 119.4(8) . . ?
C7 C1 C9 121.9(10) . . ?
C5 C4 Cl3 118.9(4) . . ?
C3 C4 Cl3 119.5(4) . . ?
C3 C4 C5 121.6(4) . . ?
C10 C4 Cl3 120.3(7) . . ?
C10 C4 C8 121.9(10) . . ?
C8 C4 Cl3 117.8(8) . . ?
C4 C5 H5 120.4 . . ?
C4 C5 C6 119.1(5) . . ?
C6 C5 H5 120.4 . . ?
C1 C6 C5 119.6(5) . . ?
C1 C6 H6 120.2 . . ?
C5 C6 H6 120.2 . . ?
C4 C3 H3 120.2 . . ?
C4 C3 C2 119.6(5) . . ?
C2 C3 H3 120.2 . . ?
C1 C2 C3 119.0(5) . . ?
C1 C2 H2 120.5 . . ?
C3 C2 H2 120.5 . . ?
Cl2 Cu1 Cl2 180.0 . 3_766 ?
Cl2 Cu1 Cl1 91.10(4) . 2_746 ?
Cl2 Cu1 Cl1 88.90(4) 3_766 2_746 ?
Cl2 Cu1 Cl1 88.82(4) 3_766 3_766 ?
Cl2 Cu1 Cl1 88.82(4) . . ?
Cl2 Cu1 Cl1 91.18(4) 3_766 . ?
Cl2 Cu1 Cl1 88.90(4) . 4_575 ?
Cl2 Cu1 Cl1 91.18(4) . 3_766 ?
Cl2 Cu1 Cl1 91.10(4) 3_766 4_575 ?
Cl1 Cu1 Cl1 180.0 3_766 . ?
Cl1 Cu1 Cl1 180.0 4_575 2_746 ?
Cl1 Cu1 Cl1 93.150(8) 2_746 . ?
Cl1 Cu1 Cl1 93.150(8) 4_575 3_766 ?
Cl1 Cu1 Cl1 86.850(8) 4_575 . ?
Cl1 Cu1 Cl1 86.850(8) 2_746 3_766 ?
C1 C9 H9 121.6 . . ?
C10 C9 C1 116.8(16) . . ?
C10 C9 H9 121.6 . . ?
C4 C10 C9 123.1(17) . . ?
C4 C10 H10 118.4 . . ?
C9 C10 H10 118.4 . . ?
C4 C8 H8 123.0 . . ?
C7 C8 C4 114.1(16) . . ?
C7 C8 H8 123.0 . . ?
C1 C7 C8 122.1(16) . . ?
C1 C7 H7 118.9 . . ?
C8 C7 H7 118.9 . . ?
loop_
_geom_bond_atom_site_label_1
_geom_bond_atom_site_label_2
_geom_bond_distance
_geom_bond_site_symmetry_2
_geom_bond_publ_flag
In01 Cl2 2.2782(10) . ?
In01 Cl2 2.2782(10) 3_766 ?
In01 Cl1 2.6619(19) 3_766 ?
In01 Cl1 2.6619(19) . ?
In01 Cl1 2.6574(19) 2_746 ?
In01 Cl1 2.6574(19) 4_575 ?
Cl2 Cu1 2.2782(10) . ?
Cl3 C4 1.736(4) . ?
Cl1 Cu1 2.6619(19) . ?
N1 H1A 0.8900 . ?
N1 H1B 0.8900 . ?
N1 H1C 0.8900 . ?
N1 C1 1.464(5) . ?
C1 C6 1.366(6) . ?
C1 C2 1.354(7) . ?
C1 C9 1.386(18) . ?
C1 C7 1.37(2) . ?
C4 C5 1.357(7) . ?
C4 C3 1.344(8) . ?
C4 C10 1.30(2) . ?
C4 C8 1.479(19) . ?
C5 H5 0.9300 . ?
C5 C6 1.383(7) . ?
C6 H6 0.9300 . ?
C3 H3 0.9300 . ?
C3 C2 1.397(9) . ?
C2 H2 0.9300 . ?
C9 H9 0.9300 . ?
C9 C10 1.38(2) . ?
C10 H10 0.9300 . ?
C8 H8 0.9300 . ?
C8 C7 1.38(2) . ?
C7 H7 0.9300 . ?
