#------------------------------------------------------------------------------
#$Date: 2021-04-27 04:10:30 +0300 (Tue, 27 Apr 2021) $
#$Revision: 264565 $
#$URL: file:///home/coder/svn-repositories/cod/cif/1/56/21/1562127.cif $
#------------------------------------------------------------------------------
#
# This file is available in the Crystallography Open Database (COD),
# http://www.crystallography.net/
#
# All data on this site have been placed in the public domain by the
# contributors.
#
data_1562127
loop_
_publ_author_name
'Van Lommel, Ruben'
'Bock, Jonathan'
'Daniliuc, Constantin'
'Hennecke, Ulrich'
'De Proft, Frank'
_publ_section_title
;
 A Dynamic Picture of the Halolactonization Reaction through a Combination
 of ab-initio Metadynamics and Experimental Investigations .
;
_journal_name_full               'Chemical Science'
_journal_paper_doi               10.1039/D1SC01014J
_journal_year                    2021
_chemical_formula_sum            'C13 H13 Cl O2'
_chemical_formula_weight         236.68
_space_group_crystal_system      triclinic
_space_group_IT_number           2
_space_group_name_Hall           '-P 1'
_space_group_name_H-M_alt        'P -1'
_atom_sites_solution_hydrogens   geom
_audit_creation_method           'APEX3 v2019.1-0'
_audit_update_record
;
2021-01-14 deposited with the CCDC.	2021-04-23 downloaded from the CCDC.
;
_cell_angle_alpha                76.7530(10)
_cell_angle_beta                 69.1750(10)
_cell_angle_gamma                65.8030(10)
_cell_formula_units_Z            2
_cell_length_a                   8.5302(3)
_cell_length_b                   8.5648(3)
_cell_length_c                   8.8272(3)
_cell_measurement_reflns_used    5764
_cell_measurement_temperature    101.(2)
_cell_measurement_theta_max      66.9011
_cell_measurement_theta_min      5.9513
_cell_volume                     547.18(3)
_computing_cell_refinement       'SAINT V8.40A (Bruker Nano, Inc., 2019)'
_computing_data_collection       'APEX3 v2019.1-0'
_computing_data_reduction        'SAINT V8.40A (Bruker Nano, Inc., 2019)'
_computing_molecular_graphics    'shelXle (C.B. Huebschle, rev 958)'
_computing_structure_refinement  'SHELXL-2018/3 (Sheldrick, 2018)'
_computing_structure_solution    'SHELXT 2014/5 (Sheldrick, 2014)'
_diffrn_ambient_temperature      101.(2)
_diffrn_detector_area_resol_mean 7.3910
_diffrn_measured_fraction_theta_full 0.985
_diffrn_measured_fraction_theta_max 0.985
_diffrn_measurement_device_type  'Bruker D8 Venture PHOTON III Diffractometer'
_diffrn_measurement_method       'phi / omega scans'
_diffrn_radiation_monochromator  'MX mirror'
_diffrn_radiation_type           CuK\a
_diffrn_radiation_wavelength     1.54178
_diffrn_reflns_av_R_equivalents  0.0276
_diffrn_reflns_av_unetI/netI     0.0270
_diffrn_reflns_limit_h_max       10
_diffrn_reflns_limit_h_min       -10
_diffrn_reflns_limit_k_max       10
_diffrn_reflns_limit_k_min       -10
_diffrn_reflns_limit_l_max       10
_diffrn_reflns_limit_l_min       -10
_diffrn_reflns_number            7594
_diffrn_reflns_theta_full        66.92
_diffrn_reflns_theta_max         66.92
_diffrn_reflns_theta_min         5.39
_diffrn_source                   'Cu Ims'
_diffrn_source_type              'micro focus tube'
_exptl_absorpt_coefficient_mu    2.933
_exptl_absorpt_correction_T_max  0.85
_exptl_absorpt_correction_T_min  0.75
_exptl_absorpt_correction_type   multi-scan
_exptl_absorpt_process_details
;
SADABS-2016/2 Bruker AXS area detector scaling and absorption correction.
Krause, L., Herbst-Irmer, R., Sheldrick G.M. & Stalke D.,
J. Appl. Cryst. 48 (2015) 3-10
;
_exptl_crystal_colour            colourless
_exptl_crystal_density_diffrn    1.437
_exptl_crystal_density_method    'not measured'
_exptl_crystal_description       plate
_exptl_crystal_F_000             248
_exptl_crystal_size_max          0.143
_exptl_crystal_size_mid          0.121
_exptl_crystal_size_min          0.057
_refine_diff_density_max         0.294
_refine_diff_density_min         -0.224
_refine_ls_extinction_method     none
_refine_ls_goodness_of_fit_ref   1.070
_refine_ls_hydrogen_treatment    constr
_refine_ls_matrix_type           full
_refine_ls_number_parameters     145
_refine_ls_number_reflns         1910
_refine_ls_number_restraints     0
_refine_ls_restrained_S_all      1.070
_refine_ls_R_factor_all          0.0282
_refine_ls_R_factor_gt           0.0271
_refine_ls_shift/su_max          0.000
_refine_ls_shift/su_mean         0.000
_refine_ls_structure_factor_coef Fsqd
_refine_ls_weighting_details
'w=1/[\s^2^(Fo^2^)+(0.0309P)^2^+0.2414P] where P=(Fo^2^+2Fc^2^)/3'
_refine_ls_weighting_scheme      calc
_refine_ls_wR_factor_gt          0.0702
_refine_ls_wR_factor_ref         0.0711
_reflns_number_gt                1828
_reflns_number_total             1910
_reflns_threshold_expression     'I > 2\s(I)'
_cod_data_source_file            d1sc01014j3.cif
_cod_data_source_block           dan9940
_cod_depositor_comments
;
The following automatic conversions were performed:

data item '_exptl_absorpt_correction_type' value 'Multi-Scan' was
changed to 'multi-scan' in accordance with the
/home/data/users/saulius/crontab/automatic-downloads/rss-feeds/RSC/lib/dictionaries/cif_core.dic
dictionary named 'cif_core.dic' version 2.4.2 last updated on
2011-04-26.

Automatic conversion script
Id: cif_fix_values 7556 2019-12-06 15:28:31Z antanas 
;
_cod_database_code               1562127
_shelx_res_file
;

TITL dan9940.res in P-1
    dan9940.res
    created by SHELXL-2018/3 at 12:32:43 on 04-Nov-2020
CELL  1.54178   8.5302   8.5648   8.8272   76.753   69.175   65.803
ZERR    2.000   0.0003   0.0003   0.0003    0.001    0.001    0.001
LATT 1
SFAC C  H  Cl O
UNIT 26  26  2  4
LIST 4
REM Old TITL dan9940a in P-1
REM SHELXT solution in P-1
REM R1 0.090,  Rweak 0.006,  Alpha 0.049,  Orientation as input
REM Formula found by SHELXT:  C13 Cl O2
SIZE 0.057 0.121 0.143
TEMP -172.150
ACTA
CONF

L.S. 30
BOND $H
FMAP 2
PLAN 10

OMIT    -2  -8   1
OMIT     8   3   4
OMIT     6   2  10

HTAB

WGHT    0.030900    0.241400
FVAR       1.79207
CL1   3    0.239624    0.964865    0.208273    11.00000    0.01874    0.01262 =
         0.02280   -0.00047   -0.00320   -0.00206
O1    4    0.194974    0.608382    0.245247    11.00000    0.01150    0.01923 =
         0.01555   -0.00400   -0.00397   -0.00558
O2    4   -0.099875    0.675987    0.357192    11.00000    0.01464    0.02518 =
         0.02664   -0.00104   -0.00580   -0.00799
C1    1    0.461390    0.289501    0.307052    11.00000    0.01729    0.01920 =
         0.01405   -0.00310   -0.00339   -0.00797
AFIX  43
H1    2    0.340952    0.299098    0.365752    11.00000   -1.20000
AFIX   0
C2    1    0.594934    0.128181    0.286080    11.00000    0.02758    0.01425 =
         0.01721   -0.00071   -0.00816   -0.00848
AFIX  43
H2    2    0.566217    0.027863    0.330851    11.00000   -1.20000
AFIX   0
C3    1    0.771203    0.113522    0.199269    11.00000    0.02235    0.01431 =
         0.01837   -0.00409   -0.00913   -0.00015
AFIX  43
H3    2    0.863179    0.003192    0.183687    11.00000   -1.20000
AFIX   0
C4    1    0.812003    0.260364    0.135698    11.00000    0.01476    0.02137 =
         0.01570   -0.00469   -0.00478   -0.00332
AFIX  43
H4    2    0.932622    0.249608    0.076421    11.00000   -1.20000
AFIX   0
C5    1    0.679109    0.424435    0.156985    11.00000    0.01580    0.01753 =
         0.01139   -0.00315   -0.00529   -0.00519
C6    1    0.501763    0.438900    0.242692    11.00000    0.01571    0.01414 =
         0.01023   -0.00269   -0.00528   -0.00428
C7    1    0.731718    0.580726    0.087365    11.00000    0.01411    0.01845 =
         0.01686   -0.00254   -0.00253   -0.00676
AFIX  23
H7A   2    0.753766    0.596484   -0.032094    11.00000   -1.20000
H7B   2    0.845356    0.560596    0.108394    11.00000   -1.20000
AFIX   0
C8    1    0.588065    0.744478    0.159892    11.00000    0.01664    0.01455 =
         0.01633   -0.00102   -0.00355   -0.00711
AFIX  23
H8A   2    0.586834    0.743009    0.272776    11.00000   -1.20000
H8B   2    0.614414    0.846268    0.094771    11.00000   -1.20000
AFIX   0
C9    1    0.406792    0.754207    0.159117    11.00000    0.01506    0.01260 =
         0.01415   -0.00260   -0.00279   -0.00320
AFIX  13
H9    2    0.417154    0.737865    0.046886    11.00000   -1.20000
AFIX   0
C10   1    0.350204    0.612670    0.277443    11.00000    0.01188    0.01647 =
         0.01329   -0.00180   -0.00459   -0.00601
C11   1    0.281704    0.643678    0.459864    11.00000    0.01708    0.01590 =
         0.01243   -0.00289   -0.00360   -0.00545
AFIX  23
H11A  2    0.323887    0.534855    0.527795    11.00000   -1.20000
H11B  2    0.324565    0.727619    0.477258    11.00000   -1.20000
AFIX   0
C12   1    0.077226    0.714283    0.501624    11.00000    0.01681    0.01680 =
         0.01500   -0.00352   -0.00111   -0.00501
AFIX  23
H12A  2    0.022861    0.660769    0.608495    11.00000   -1.20000
H12B  2    0.028349    0.840576    0.504610    11.00000   -1.20000
AFIX   0
C13   1    0.041090    0.667099    0.366359    11.00000    0.01508    0.01145 =
         0.01772    0.00104   -0.00370   -0.00420
HKLF 4




REM  dan9940.res in P-1
REM wR2 = 0.071075, GooF = S = 1.06970, Restrained GooF = 1.06970 for all data
REM R1 = 0.027083 for 1828 Fo > 4sig(Fo) and 0.028210 for all 1910 data
REM 145 parameters refined using 0 restraints

END

WGHT      0.0309      0.2414

REM Instructions for potential hydrogen bonds
EQIV $1 -x+1, -y+2, -z
HTAB C8 Cl1_$1
EQIV $2 -x, -y+1, -z+1
HTAB C12 O2_$2

REM Highest difference peak  0.294,  deepest hole -0.224,  1-sigma level  0.042
Q1    1   0.7012  0.4991  0.1320  11.00000  0.05    0.29
Q2    1   0.3209  0.6233  0.3713  11.00000  0.05    0.28
Q3    1   0.4978  0.7364  0.1533  11.00000  0.05    0.27
Q4    1   0.3745  0.6916  0.2221  11.00000  0.05    0.25
Q5    1   0.6531  0.6558  0.1304  11.00000  0.05    0.21
Q6    1   0.6755  0.1266  0.2171  11.00000  0.05    0.21
Q7    1   0.0536  0.6944  0.4383  11.00000  0.05    0.20
Q8    1   0.4299  0.5377  0.2612  11.00000  0.05    0.19
Q9    1   0.5854  0.4420  0.1955  11.00000  0.05    0.19
Q10   1   0.5277  0.2121  0.2696  11.00000  0.05    0.19
;
_shelx_res_checksum              41285
_shelx_hkl_file
;
   0   2   0  624.24   26.00
   0  -3   0 7885.21  296.97
   0   4   0    5.70    3.10
   0   4   0    4.60    2.50
   0   5   0   65.39    7.60
   0   5   0   61.79    5.50
   0   5   0   63.19    7.80
   0   5   0   61.79    5.60
   0  -5   0   55.29    4.30
   0   6   0  345.47   22.50
   0   6   0  360.36   20.30
   0   6   0  372.06   18.20
   0   6   0  349.17   21.50
   0   6   0  393.96   19.00
   0   6   0  393.16   18.50
   0  -6   0  362.56   23.20
   0   7   0  588.74   33.00
   0   7   0  629.44   27.90
   0   7   0  544.05   27.80
   0   7   0  575.24   26.50
   0   7   0  595.84   27.20
   0   8   0   43.30    5.20
   0   8   0   46.00    5.30
   0   8   0   49.20    4.80
   0   9   0   14.30    3.40
   0   9   0   17.00    7.80
  -1   8   0  926.21   38.00
  -1   8   0  854.71   37.10
  -1   7   0  162.38   10.20
  -1   7   0  164.58   10.60
  -1   7   0  162.98   14.50
  -1   7   0  158.88   11.70
  -1   7   0  143.19    9.30
  -1   7   0  153.38   17.00
  -1   6   0   29.00    4.80
  -1   6   0   26.30    6.30
  -1   6   0   25.80    4.10
  -1   6   0   28.10    4.60
  -1   6   0   22.80    4.00
  -1   6   0   29.80    6.70
  -1   6   0   30.30    6.20
   1  -5   0  902.31   42.50
   1  -5   0  888.51   38.50
  -1   5   0  879.21   38.30
  -1   5   0  922.51   38.20
  -1   5   0  927.51   45.30
  -1   5   0  909.71   41.20
  -1   5   0  914.31   42.60
  -1   5   0  906.41   38.80
  -1   5   0  908.71   38.10
   1  -4   0 1120.19   49.00
  -1   4   0 1141.89   49.80
  -1   4   0 1170.18   49.50
   1  -3   0  250.57   13.20
  -1   3   0  237.18   13.20
   1  -2   0  144.19    8.10
  -1   2   0  147.19    8.50
  -1   2   0  155.58    9.40
   1   0   0 1225.18   47.10
  -1   0   0 1243.88   47.10
  -1   0   0 1207.68   47.30
   1   2   0    3.10    1.60
   1   2   0    3.50    1.20
  -1  -2   0    3.10    1.00
   1   4   0  166.28   10.60
   1   4   0  144.79    9.60
  -1  -4   0  147.29    6.80
   1   5   0   88.49    6.70
   1   5   0   94.39    6.60
   1   5   0   86.69    8.00
   1   5   0   87.59    8.90
   1   6   0 3819.92  151.88
   1   6   0 3707.73  146.29
   1   6   0 3847.91  146.99
   1   6   0 3820.22  146.49
   1   6   0 3775.42  149.88
   1   7   0  156.48   10.20
   1   7   0  149.59   13.80
   1   7   0  151.48   10.30
   1   7   0  152.98   10.10
   1   8   0  156.68   11.00
   1   8   0  155.18   10.80
   1   8   0  176.78   16.70
   1   8   0  139.69    9.30
   1   9   0  848.42   37.90
  -2   8   0  211.38   11.10
  -2   7   0   23.10    4.00
  -2   7   0   20.80    3.10
  -2   7   0   17.80    3.80
  -2   7   0   15.20    3.50
  -2   7   0   19.50    4.30
  -2   6   0   62.19    8.60
  -2   6   0   69.49    9.40
  -2   6   0   62.59    6.20
  -2   6   0   63.49    7.00
  -2   6   0   58.59    6.10
  -2   6   0   78.69   10.40
  -2   6   0   58.49    6.00
   2  -5   0 2215.68   94.99
  -2   5   0 2343.27   97.89
  -2   5   0 2542.05   94.69
  -2   5   0 2338.27   96.69
  -2   5   0 2388.96   94.09
  -2   5   0 2304.77   92.59
  -2   5   0 2340.47   99.29
   2  -4   0    0.50    1.90
   2  -4   0   -1.80    2.00
  -2   4   0    2.90    2.20
  -2   4   0    6.20    3.70
  -2   4   0    2.40    2.00
  -2   4   0    2.40    2.20
  -2   4   0    0.70    3.10
  -2   4   0    4.60    2.10
  -2   3   0    8.70    3.30
  -2   3   0    7.10    3.70
   2  -2   0 5803.62  222.48
  -2   2   0 5830.02  222.48
  -2   2   0 5910.41  224.08
   2  -1   0  990.40   40.60
  -2   1   0 1021.50   41.80
   2   0   0 3493.35  133.49
  -2   0   0 3433.46  133.69
  -2   0   0 3587.34  134.89
   2   1   0  613.74   25.90
   2   1   0  633.04   25.70
  -2  -1   0  612.14   26.10
  -2  -2   0 5917.61  224.88
   2   3   0 3206.88  121.39
   2   3   0 3194.48  123.19
   2   4   0 1153.48   45.80
   2   4   0 1061.99   46.40
   2   5   0  667.23   29.20
   2   5   0  702.73   32.30
   2   5   0  663.23   30.50
   2   5   0  696.93   29.40
   2   5   0  680.83   27.50
   2   6   0   76.19    4.60
   2   6   0   81.89    6.70
   2   6   0   79.99    9.40
   2   6   0   81.79    6.80
   2   6   0   64.49    7.20
   2   7   0   16.50    5.10
   2   7   0   23.70    4.40
   2   7   0   15.50    3.90
   2   7   0   13.20    1.80
   2   7   0   16.60    3.70
   2   8   0   15.40    5.10
   2   8   0   14.00    3.10
   2   8   0   17.40    8.00
   2   8   0   15.40    4.10
   2   9   0  170.78   10.40
   2   9   0  181.38   11.30
   2   9   0  160.58   17.30
  -3   7   0  138.39    8.20
  -3   7   0  152.18    9.90
  -3   7   0  142.09    8.50
  -3   7   0  107.59    7.90
  -3   6   0  831.22   34.90
  -3   6   0  836.52   36.10
  -3   6   0  783.52   34.50
  -3   6   0  825.82   38.80
  -3   6   0  779.62   34.20
  -3   5   0  289.77   21.30
  -3   5   0  280.97   16.40
  -3   5   0  286.57   15.20
  -3   5   0  293.97   15.60
  -3   5   0  310.57   15.80
  -3   5   0  297.97   18.90
   3  -4   0  311.47   19.70
  -3   4   0  303.47   16.00
  -3   4   0  337.77   21.90
  -3   4   0  382.26   23.50
  -3   4   0  318.47   16.50
  -3   4   0  312.17   16.20
   3  -3   0  234.78   15.10
   3  -3   0  208.28   13.70
  -3   3   0  240.78   16.50
  -3   3   0  224.58   13.00
  -3   3   0  224.28   14.80
   3  -2   0    3.10    1.80
  -3   2   0   -0.40    2.80
   3  -1   0   73.69    6.20
  -3   1   0   71.49    7.70
   3   0   0  124.89    8.10
  -3   0   0  106.59    8.70
  -3   0   0  125.39    8.40
   3   1   0 1435.66   60.29
   3   1   0 1530.95   60.59
  -3  -1   0 1570.44   63.69
   3   2   0   43.20    4.80
   3   2   0   48.50    4.10
  -3  -2   0   45.00    5.30
   3   3   0  587.04   25.40
   3   3   0  599.24   25.90
   3   4   0 4232.58  162.88
   3   4   0 4200.28  160.18
   3   5   0  124.29    6.80
   3   5   0  124.29    7.80
   3   5   0  127.99    9.10
   3   5   0  126.19   10.20
   3   6   0  383.76   18.90
   3   6   0  376.66   19.70
   3   6   0  420.56   23.20
   3   6   0  409.26   17.20
  -3  -6   0  376.16   18.70
   3   7   0 1075.39   47.20
   3   7   0 1066.69   44.70
   3   7   0 1057.19   50.19
   3   7   0 1063.09   41.90
  -3  -7   0 1016.50   44.10
   3   8   0  182.68   11.30
   3   8   0  141.59   14.70
   3   8   0  191.08   22.40
   3   8   0  173.38   10.50
  -3  -8   0  164.58   10.20
   3   9   0  196.88   11.30
   3   9   0  184.98   10.10
   3   9   0  186.18   21.30
  -4   6   0  131.59   10.90
  -4   6   0  118.79   10.40
  -4   6   0  122.79    7.70
  -4   6   0  123.29    7.40
  -4   5   0  335.27   18.20
  -4   5   0  306.57   16.10
  -4   5   0  327.67   16.50
  -4   5   0  325.37   20.50
   4  -4   0   10.90    5.30
  -4   4   0    9.80    5.30
  -4   4   0    9.00    2.70
  -4   4   0    9.50    3.70
  -4   4   0    3.80    2.10
  -4   4   0    7.90    4.50
   4  -3   0  849.22   42.90
  -4   3   0  772.42   34.20
  -4   3   0  784.52   41.10
  -4   3   0  790.02   35.80
  -4   3   0  781.32   38.20
  -4   3   0  834.82   35.00
   4  -2   0 3787.22  149.39
   4  -2   0 3626.64  146.49
  -4   2   0 3814.72  147.69
  -4   2   0 3797.72  144.19
  -4   2   0 3740.43  150.28
  -4   2   0 3727.03  143.69
  -4   2   0 3687.03  144.99
   4  -1   0  358.16   18.70
   4  -1   0  352.76   20.10
  -4   1   0  338.77   19.00
  -4   1   0  354.46   16.80
  -4   1   0  330.37   17.10
  -4   1   0  355.36   20.50
   4   0   0  955.50   41.20
   4   1   0  447.86   22.40
   4   1   0  467.45   23.00
   4   2   0  993.80   41.80
   4   2   0 1087.39   44.60
   4   3   0    2.90    1.80
   4   3   0    3.20    2.30
   4   4   0   33.40    4.40
   4   4   0   31.70    3.90
   4   4   0   37.50    3.50
   4   4   0   32.00    3.40
   4   4   0   36.50    4.30
  -4  -4   0   31.80    4.40
   4   5   0  213.38   14.00
   4   5   0  239.38   12.80
   4   5   0  223.08   12.40
   4   5   0  214.68   10.90
  -4  -5   0  217.38   12.30
   4   6   0   65.99    5.80
   4   6   0   75.39    8.50
   4   6   0   72.79    7.60
   4   6   0   73.29    5.30
  -4  -6   0   64.69    5.80
   4   7   0   79.69    9.20
   4   7   0   73.89    6.60
   4   7   0   80.39    5.60
   4   7   0   68.49    9.40
  -4  -7   0   71.89    6.90
   4   8   0  335.57   16.60
   4   8   0  325.27   14.30
   4   8   0  324.37   18.80
   4   8   0  277.67   21.30
  -4  -8   0  340.97   16.80
   4   9   0  104.59   10.20
   4   9   0  105.29    8.00
   4   9   0   83.59    6.40
  -4  -9   0   89.89    6.50
  -5   6   0  490.15   22.60
  -5   6   0  478.45   21.30
  -5   5   0   10.30    2.50
  -5   5   0    8.00    3.60
  -5   5   0    7.40    4.20
  -5   5   0    9.50    2.40
  -5   4   0  374.66   19.80
  -5   4   0  385.36   22.60
  -5   4   0  364.46   17.70
  -5   4   0  360.96   18.20
   5  -3   0  214.28   17.60
  -5   3   0  201.18   15.60
  -5   3   0  212.98   12.60
  -5   3   0  206.38   13.40
  -5   3   0  215.38   12.20
   5  -2   0  854.81   44.00
  -5   2   0  875.11   37.10
  -5   2   0  878.81   37.80
  -5   2   0  879.61   38.80
  -5   2   0  869.01   41.40
   5  -1   0  781.32   33.80
   5  -1   0  652.23   34.30
   5  -1   0  597.14   30.90
  -5   1   0  623.84   31.90
  -5   1   0  664.53   29.20
  -5   1   0  648.34   26.80
  -5   1   0  630.14   29.70
   5   0   0  165.78   12.20
   5   0   0  178.18   13.60
   5   0   0  171.88    9.70
  -5   0   0  175.38    9.00
  -5   0   0  168.38   10.40
  -5   0   0  176.48   10.80
  -5   0   0  164.98   12.20
   5   1   0 1500.75   59.29
   5   1   0 1552.24   64.89
  -5  -1   0 1439.86   60.09
  -5  -1   0 1493.25   58.89
   5   2   0  435.46   20.60
   5   2   0  458.95   24.80
   5   2   0  499.05   22.00
  -5  -2   0  472.05   20.70
  -5  -2   0  455.45   20.80
  -5  -2   0  485.95   21.80
   5   3   0    5.40    3.40
   5   3   0   11.30    2.50
   5   3   0   10.40    2.30
  -5  -3   0   11.10    2.60
  -5  -3   0   10.60    2.40
   5   4   0 2133.19   84.19
   5   4   0 2119.29   87.09
   5   4   0 2196.38   83.89
   5   4   0 2192.48   84.99
   5   4   0 2099.59   86.29
  -5  -4   0 2161.08   84.39
  -5  -4   0 2178.78   84.99
   5   5   0  142.89   10.70
   5   5   0  139.09    9.60
   5   5   0  113.99   10.20
   5   5   0  147.39    8.50
  -5  -5   0  155.28    9.80
  -5  -5   0  138.69    8.80
   5   6   0    2.40    1.40
   5   6   0    8.70    2.80
   5   6   0    1.00    1.80
   5   6   0    4.30    3.10
  -5  -6   0    3.90    2.20
  -5  -6   0    5.60    2.70
   5   7   0  682.43   30.80
   5   7   0  738.53   32.50
   5   7   0  710.73   36.20
   5   7   0  739.53   30.40
  -5  -7   0  722.33   32.20
   5   8   0  946.11   40.90
   5   8   0  903.01   39.50
   5   8   0  997.90   38.60
  -5  -8   0  978.90   40.80
   5   9   0  162.88    9.70
   5   9   0  138.99    8.80
   5   9   0  156.28    6.70
   5   9   0  180.68   13.70
  -5  -9   0  145.99    8.90
  -6   4   0  784.72   33.80
  -6   4   0  844.32   36.00
  -6   4   0  846.12   38.20
  -6   3   0  526.65   24.40
  -6   3   0  566.74   28.80
  -6   3   0  532.35   26.00
  -6   3   0  511.65   23.50
  -6   2   0   80.69    9.50
   6  -1   0 3821.12  151.38
   6  -1   0 3921.71  161.78
  -6   1   0 3981.50  153.68
  -6   1   0 3973.60  156.68
  -6   1   0 3923.21  151.68
  -6   1   0 3966.40  152.78
  -6   1   0 3998.20  149.49
   6   0   0 1234.38   59.49
   6   0   0 1185.38   51.39
  -6   0   0 1298.77   55.89
  -6   0   0 1279.07   53.09
  -6   0   0 1293.97   52.89
  -6   0   0 1307.17   50.59
   6   1   0   17.90    5.30
   6   1   0   16.30    3.40
  -6  -1   0   15.30    3.40
  -6  -1   0   13.60    2.90
  -6  -1   0   18.40    5.30
  -6  -1   0   15.00    3.40
   6   2   0   67.29    5.90
   6   2   0   54.19    9.00
   6   2   0   75.09    6.50
  -6  -2   0   76.09    7.90
  -6  -2   0   65.29    5.80
   6   3   0  212.78   11.50
   6   3   0  212.08   15.90
   6   3   0  209.58   12.00
  -6  -3   0  218.48   12.00
  -6  -3   0  209.78   13.50
   6   4   0   17.90    3.30
   6   4   0   15.30    5.30
   6   4   0   18.70    3.80
  -6  -4   0   17.10    3.60
  -6  -4   0   28.60    4.40
   6   5   0  317.27   15.80
   6   5   0  325.27   16.20
  -6  -5   0  321.67   16.40
  -6  -5   0  320.97   16.90
   6   6   0   80.29    6.40
   6   6   0   88.99    6.80
  -6  -6   0   87.39    7.00
  -6  -6   0   95.39    7.70
   6   7   0    7.70    2.70
  -6  -7   0    5.60    2.90
   6   8   0   75.39    5.60
  -6  -8   0   80.49    7.20
  -7   3   0   34.30    4.40
  -7   3   0   52.99    6.00
  -7   3   0   56.29    7.20
  -7   2   0  413.16   22.60
  -7   2   0  407.66   20.00
  -7   2   0  381.46   18.90
   7  -1   0  102.59    7.50
  -7   1   0  104.49   10.50
  -7   1   0  100.19    8.90
  -7   1   0  100.69    7.80
   7   0   0  356.06   18.10
  -7   0   0  414.16   22.70
  -7   0   0  375.06   19.20
  -7   0   0  375.66   19.60
  -7   0   0  372.16   16.80
   7   1   0   75.09    6.50
   7   1   0   84.49   12.30
  -7  -1   0   83.49    7.90
  -7  -1   0   74.89    6.00
  -7  -1   0   72.29    8.00
  -7  -1   0   70.29    6.80
   7   2   0 2192.08   89.09
  -7  -2   0 2266.87   90.29
  -7  -2   0 2300.27   91.99
  -7  -2   0 2266.87   88.49
   7   3   0  164.88   10.60
   7   3   0  191.08   11.60
   7   3   0  190.58   16.80
  -7  -3   0  173.78   10.20
  -7  -3   0  204.18   11.00
  -7  -3   0  171.58   12.20
   7   4   0  275.17   14.80
   7   4   0  265.47   14.00
  -7  -4   0  268.97   14.60
  -7  -4   0  274.17   14.60
   7   5   0  317.37   17.00
  -7  -5   0  317.87   17.40
  -7  -5   0  403.56   20.40
   7   6   0   48.00    5.40
   7   6   0   51.69    4.80
  -7  -6   0   51.19    5.40
  -7  -6   0   56.69    5.80
   7   7   0  384.36   17.70
  -7  -7   0  340.27   19.40
  -7  -7   0  401.66   18.90
   7   8   0   21.80    4.70
  -7  -8   0   23.00    3.70
  -8   2   0  705.83   31.10
  -8   2   0  715.73   31.40
   8  -1   0  187.68    9.40
  -8   1   0  189.58   12.00
  -8   1   0  182.68   10.30
   8   0   0   19.30    3.10
  -8   0   0   19.50    4.80
  -8   0   0   25.60    4.00
   8   1   0  578.14   25.50
  -8  -1   0  565.74   24.00
  -8  -1   0  561.64   27.50
  -8  -2   0  401.86   21.40
  -8  -2   0  427.36   19.20
   8   3   0  232.58   13.10
  -8  -3   0  203.48   11.80
   8   4   0  246.88   13.60
   8   4   0  248.38   13.10
  -8  -4   0  259.17   13.50
  -8  -4   0  228.68   12.00
   8   5   0  211.98   11.50
   8   5   0  222.28   12.10
  -8  -5   0  211.48   11.60
  -8  -5   0  221.08   12.00
   8   6   0    9.70    2.80
   8   6   0    7.60    2.40
  -8  -6   0   13.50    2.80
  -8  -6   0   10.50    2.60
   8   7   0   52.49    4.30
  -8  -7   0   49.00    5.10
   9   1   0   40.40    3.50
  -9  -1   0   33.70    4.70
   9   2   0  355.76   15.70
  -9  -2   0  309.97   14.10
   9   3   0  231.48   11.90
   9   4   0  259.47   13.30
   9   4   0  300.77   14.20
  -9  -4   0  307.67   14.00
   9   5   0    0.10    1.80
   9   5   0   -0.60    1.90
  -9  -5   0    2.10    2.10
   9   6   0  455.15   19.20
   9   6   0  445.26   18.80
  -9  -6   0  451.25   20.90
  -9  -4   1   63.89    4.60
   9   4  -1   74.69    5.30
  -9  -3   1   61.19    4.20
   9   3  -1   53.99    4.50
  -9  -2   1   82.19    4.50
   9   2  -1  102.89    6.20
  -8  -7   1  580.24   23.90
  -8  -7   1  572.24   24.50
   8   7  -1  546.95   23.50
  -8  -6   1    5.40    2.00
  -8  -6   1    1.70    2.00
   8   6  -1    5.70    2.00
   8   6  -1    1.50    2.00
  -8  -5   1  415.46   19.10
  -8  -5   1  384.66   17.90
   8   5  -1  413.86   18.60
   8   5  -1  414.96   18.80
  -8  -4   1  509.75   22.70
   8   4  -1  495.15   22.40
  -8  -3   1   83.19    7.40
  -8  -3   1   94.39    6.90
   8   3  -1   91.69    7.00
  -8  -2   1   27.40    3.90
  -8  -2   1   29.90    6.60
   8   2  -1   38.70    4.50
  -8  -1   1  254.77   11.80
  -8   0   1   30.50    4.30
  -8   0   1   27.80    5.00
   8   0  -1   31.30    3.90
  -8   1   1   76.89    6.10
  -7  -8   1  389.36   17.40
   7   8  -1  358.86   16.10
  -7  -7   1   33.40    4.20
  -7  -7   1   35.20    4.10
   7   7  -1   33.10    3.60
  -7  -6   1   56.69    5.60
  -7  -6   1   52.69    5.20
   7   6  -1   51.09    4.90
   7   6  -1   52.39    5.30
  -7  -5   1  446.16   21.30
  -7  -5   1  462.05   21.10
   7   5  -1  425.46   20.40
  -7  -4   1  469.15   21.70
  -7  -4   1  445.66   21.20
   7   4  -1  440.66   21.10
   7   4  -1  472.95   21.90
  -7  -3   1  112.29    9.30
   7   3  -1  117.99    8.80
  -7  -2   1 1146.39   48.20
   7   2  -1 1194.18   50.99
  -7  -1   1  799.42   32.40
  -7  -1   1  763.02   34.40
  -7  -1   1  788.12   36.90
  -7  -1   1  703.53   32.80
   7   1  -1  784.42   33.50
  -7   0   1   18.90    4.00
  -7   0   1   20.30    2.80
  -7   0   1   26.30    4.20
  -7   0   1   25.20    6.10
   7   0  -1   16.80    3.60
  -7   1   1  592.24   27.50
  -7   1   1  592.14   27.30
  -7   1   1  624.14   30.50
  -7   2   1  384.16   21.40
  -7   2   1  427.96   24.10
  -7   3   1  114.39    7.90
  -7   3   1  141.79   10.00
  -7   3   1  123.79    7.20
   6   9  -1  258.97   10.30
  -6  -8   1   31.80    4.20
   6   8  -1   25.40    3.30
  -6  -7   1  119.99    9.70
  -6  -7   1  173.78   10.50
   6   7  -1  173.68    9.20
  -6  -6   1  657.53   28.70
  -6  -6   1  544.95   29.80
   6   6  -1  677.53   27.70
   6   6  -1  681.13   28.00
  -6  -5   1 3118.09  121.19
  -6  -5   1 3129.09  120.69
   6   5  -1 3010.50  119.69
   6   5  -1 3130.29  120.09
  -6  -4   1   14.50    3.50
  -6  -4   1   24.50    4.00
   6   4  -1   17.40    5.30
   6   4  -1   19.60    3.60
   6   4  -1   23.60    4.20
  -6  -3   1  595.34   26.70
  -6  -3   1  613.44   26.80
   6   3  -1  608.94   26.90
   6   3  -1  577.34   26.30
   6   3  -1  609.84   32.70
  -6  -2   1   23.50    3.60
  -6  -2   1   21.60    4.30
   6   2  -1   22.40    6.50
   6   2  -1   29.40    4.30
   6   2  -1   17.80    3.60
  -6  -1   1   13.80    3.50
   6   1  -1   10.80    5.00
  -6   0   1  270.97   13.30
  -6   0   1  273.57   15.30
  -6   0   1  265.97   15.50
  -6   0   1  288.07   18.30
   6   0  -1  261.17   14.20
   6   0  -1  284.77   21.40
  -6   1   1  951.90   44.20
  -6   1   1  911.01   37.10
  -6   1   1  981.30   40.80
  -6   1   1  955.80   41.30
   6  -1  -1  880.81   38.90
   6  -1  -1  940.51   48.60
  -6   2   1   39.00    6.00
  -6   2   1   48.30    6.10
  -6   2   1   48.10    7.40
  -6   3   1  171.68   11.40
  -6   3   1  169.58   10.40
  -6   3   1  172.88   13.20
  -6   4   1  169.18   10.70
  -6   4   1  178.98   12.20
  -6   4   1  162.28    9.30
  -5  -9   1   22.30    3.00
   5   9  -1   15.10    3.10
   5   9  -1   19.70    3.10
  -5  -8   1  243.78   13.10
   5   8  -1  232.68   12.90
   5   8  -1  221.28   12.60
   5   8  -1  247.48   11.40
  -5  -7   1   30.00    4.70
   5   7  -1   28.20    3.80
   5   7  -1   25.60    4.60
   5   7  -1   21.90    3.40
  -5  -6   1   20.70    4.30
  -5  -6   1   19.10    3.60
   5   6  -1   22.60    3.60
   5   6  -1   26.70    3.70
   5   6  -1   24.50    4.30
  -5  -5   1 1181.78   49.00
   5   5  -1 1147.59   48.40
   5   5  -1 1168.78   47.40
   5   5  -1 1176.08   47.60
  -5  -4   1 3159.48  119.99
  -5  -4   1 3155.98  120.59
   5   4  -1 3097.59  124.09
   5   4  -1 3008.70  119.49
   5   4  -1 3065.09  119.29
  -5  -3   1 1257.27   51.19
  -5  -3   1 1246.58   50.79
   5   3  -1 1280.47   55.79
   5   3  -1 1269.97   50.59
   5   3  -1 1245.58   50.79
  -5  -2   1  677.53   28.70
  -5  -2   1  646.14   27.40
  -5  -2   1  629.94   27.50
   5   2  -1  626.94   27.60
   5   2  -1  613.64   27.40
   5   2  -1  650.93   32.60
  -5  -1   1    8.30    2.40
  -5  -1   1   14.20    3.40
  -5  -1   1   11.50    2.50
  -5  -1   1    3.00    2.20
   5   1  -1    8.20    2.40
   5   1  -1    8.60    3.80
  -5   0   1 2205.08   83.89
  -5   0   1 2112.39   85.89
  -5   0   1 2221.38   85.99
   5   0  -1 2080.89   84.59
   5   0  -1 2214.58   91.89
  -5   1   1 1541.25   60.19
  -5   1   1 1427.46   56.09
  -5   1   1 1411.86   57.39
  -5   1   1 1391.26   61.89
  -5   1   1 1513.45   59.19
   5  -1  -1 1325.37   57.29
   5  -1  -1 1453.25   65.39
  -5   2   1 1118.29   47.00
  -5   2   1 1147.59   50.99
  -5   2   1 1129.39   48.00
  -5   2   1 1060.79   45.30
   5  -2  -1 1098.19   53.69
  -5   3   1 1568.64   69.59
  -5   3   1 1643.24   67.19
  -5   3   1 1616.34   65.69
  -5   4   1  397.86   20.30
  -5   4   1  374.46   19.00
  -5   4   1  370.06   22.40
  -5   5   1  118.79   10.50
  -5   5   1  112.99    7.50
  -5   5   1  111.19   12.80
  -4  -9   1  151.18   10.90
   4   9  -1  159.38   11.40
   4   9  -1  163.18    9.00
   4   8  -1  301.97   13.40
   4   8  -1  279.37   16.00
   4   8  -1  309.47   15.40
  -4  -7   1  327.67   16.80
   4   7  -1  306.27   14.50
   4   7  -1  294.67   15.80
   4   7  -1  301.87   20.00
   4   7  -1  315.77   16.50
  -4  -6   1  564.84   27.10
   4   6  -1  604.24   25.40
   4   6  -1  612.84   27.30
   4   6  -1  560.34   26.20
   4   6  -1  635.64   30.80
  -4  -5   1  731.83   32.50
   4   5  -1  747.83   31.10
   4   5  -1  723.13   35.40
   4   5  -1  767.72   32.60
   4   5  -1  750.02   34.40
   4   5  -1  782.12   31.90
   4   5  -1  728.23   31.10
  -4  -4   1  875.01   37.00
  -4  -4   1  872.31   37.30
  -4  -4   1  880.01   37.00
   4   4  -1  897.91   36.50
   4   4  -1  928.61   36.30
   4   4  -1  889.81   37.30
   4   4  -1  884.11   39.20
   4   4  -1  888.01   38.30
  -4  -3   1  675.33   28.60
  -4  -3   1  640.44   28.10
   4   3  -1  688.83   30.80
   4   3  -1  640.44   27.70
   4   3  -1  653.93   27.80
  -4  -2   1  151.98    9.30
   4   2  -1  156.88   11.20
   4   2  -1  146.69    6.80
  -4  -1   1  268.37   14.10
   4   1  -1  271.67   16.20
  -4   0   1    7.70    2.20
  -4   0   1    7.00    1.70
   4   0  -1    6.50    3.70
  -4   1   1  480.85   22.10
  -4   1   1  464.75   22.50
  -4   1   1  462.05   20.00
   4  -1  -1  524.45   26.40
  -4   2   1  112.19    9.10
  -4   2   1  121.89    8.30
  -4   2   1  121.49   10.80
  -4   2   1  116.49    8.90
   4  -2  -1  107.39   10.30
  -4   3   1   33.30    5.30
  -4   3   1   44.40    6.70
  -4   3   1   44.30    5.50
  -4   3   1   38.30    4.70
   4  -3  -1   27.20    6.60
  -4   4   1  403.76   19.60
  -4   4   1  414.76   20.90
  -4   4   1  432.26   22.30
  -4   4   1  437.26   24.70
  -4   5   1    7.70    2.60
  -4   5   1    8.10    3.50
  -4   5   1    9.50    4.90
  -4   5   1   11.80    2.90
  -4   6   1  571.54   28.80
  -4   6   1  519.25   25.80
  -4   6   1  502.25   22.90
   3   9  -1    9.10    3.00
  -3  -8   1   95.29    7.20
   3   8  -1   84.19   11.00
   3   8  -1   90.39    6.90
   3   8  -1   90.39    7.60
   3   8  -1   79.09   10.40
  -3  -7   1   40.30    5.00
   3   7  -1   53.09   10.20
   3   7  -1   44.50    7.90
   3   7  -1   47.30    4.00
   3   7  -1   50.79    5.90
  -3  -6   1   19.40    3.80
   3   6  -1   25.30    5.80
   3   6  -1   20.90    2.90
   3   6  -1   22.60    5.50
   3   6  -1   21.50    5.90
  -3  -5   1  507.65   23.50
   3   5  -1  533.75   24.00
   3   5  -1  528.75   26.10
   3   5  -1  533.95   26.50
   3   5  -1  517.35   22.10
   3   5  -1  517.45   23.30
   3   4  -1  544.85   23.40
   3   4  -1  561.04   25.40
   3   4  -1  582.74   26.00
   3   3  -1  398.46   18.50
   3   3  -1  413.56   19.60
   3   2  -1 2188.78   84.79
   3   2  -1 2092.89   81.99
  -3  -1   1 2843.72  113.69
   3   1  -1 2964.00  111.09
   3   1  -1 3078.49  115.89
  -3   0   1 3233.28  125.69
   3   0  -1 3276.47  127.09
   3  -1  -1  382.76   17.20
   3  -1  -1  387.36   20.10
  -3   2   1   33.70    4.90
  -3   2   1   37.40    4.50
  -3   2   1   36.30    5.90
  -3   2   1   28.30    6.00
   3  -2  -1   32.70    3.30
   3  -2  -1   38.40    6.40
  -3   3   1 2494.55   96.59
  -3   3   1 2424.16   99.59
  -3   3   1 2407.36   95.59
  -3   3   1 2448.46   97.29
  -3   3   1 2442.76  101.69
   3  -3  -1 2543.95  100.59
  -3   4   1    5.60    2.40
  -3   4   1    4.80    2.60
  -3   4   1    5.30    2.20
  -3   4   1   -3.10    2.80
  -3   4   1   -2.40    3.80
  -3   4   1    0.20    2.80
   3  -4  -1    9.80    3.40
  -3   5   1    3.10    4.10
  -3   5   1   -2.50    1.20
  -3   5   1   -0.30    1.90
  -3   5   1    1.70    1.70
  -3   5   1    3.70    2.50
  -3   6   1  767.32   32.70
  -3   6   1  797.72   37.10
  -3   6   1  779.52   34.70
  -3   6   1  726.43   33.00
  -3   6   1  809.22   33.70
  -3   7   1   21.90    3.40
  -3   7   1   23.20    3.60
  -3   7   1   22.60    3.90
  -3   7   1   22.80    3.20
  -3   7   1   15.70    3.80
   2   9  -1  309.97   16.50
   2   9  -1  360.76   34.60
   2   8  -1  859.61   46.90
  -2  -7   1  191.08   11.50
   2   7  -1  205.28    9.20
   2   7  -1  184.38   15.90
   2   7  -1  198.48   11.60
   2   7  -1  204.98   13.10
   2   7  -1  215.98   12.80
  -2  -6   1 1071.59   45.00
   2   6  -1 1044.60   47.50
   2   6  -1 1078.69   48.70
   2   6  -1 1143.59   42.90
   2   6  -1 1083.29   49.90
   2   5  -1 1055.49   46.60
   2   5  -1 1010.20   41.50
   2   5  -1 1071.29   46.70
   2   5  -1 1098.79   43.60
   2   5  -1 1039.00   43.40
   2   4  -1   19.20    4.40
   2   4  -1   22.50    4.40
   2   3  -1  662.53   29.20
   2   3  -1  715.33   29.30
  -2  -2   1   58.19    5.20
   2   2  -1   53.09    4.00
   2   2  -1   59.89    5.10
  -2  -1   1  696.53   28.40
   2   1  -1  642.84   25.90
   2   1  -1  681.83   28.50
  -2   0   1 2573.74   96.29
   2   0  -1 2443.86   97.29
  -2   1   1   69.69    6.40
  -2   1   1   48.20    3.70
   2  -1  -1   53.09    3.60
   2  -1  -1   53.99    5.60
  -2   2   1  950.70   37.60
  -2   2   1  868.61   39.40
   2  -2  -1  921.31   38.90
   2  -2  -1  901.51   36.60
  -2   3   1 5018.00  202.28
  -2   3   1 5346.27  204.68
   2  -3  -1 5307.77  201.18
   2  -3  -1 5454.65  203.38
  -2   4   1  488.65   21.80
  -2   4   1  480.85   25.90
  -2   4   1  477.85   21.90
  -2   4   1  490.45   23.00
  -2   4   1  494.95   25.20
  -2   4   1  479.85   24.30
  -2   4   1  487.65   22.20
   2  -4  -1  487.05   24.10
   2  -4  -1  414.86   24.10
  -2   5   1   57.19    5.70
  -2   5   1   56.59    8.80
  -2   5   1   53.49    7.20
  -2   5   1   54.79    6.80
  -2   5   1   53.79    5.20
  -2   5   1   56.79    9.30
  -2   5   1   51.39    6.10
  -2   6   1  942.41   40.40
  -2   6   1  968.80   41.30
  -2   6   1  923.71   39.50
  -2   6   1  938.61   43.50
  -2   6   1  941.11   40.40
  -2   6   1  919.11   45.30
  -2   7   1  712.03   31.80
  -2   7   1  754.12   31.70
  -2   7   1  718.63   33.60
  -2   7   1  736.23   31.90
  -2   7   1  733.13   31.10
  -2   8   1  230.48   10.60
   1   9  -1  109.99   13.60
   1   9  -1  115.29    7.90
   1   8  -1   54.09    6.40
   1   8  -1   54.79    7.00
   1   8  -1   37.20    8.70
   1   7  -1 1058.39   51.89
   1   7  -1  925.81   45.20
   1   7  -1  886.51   39.50
   1   7  -1  950.60   40.80
   1   7  -1  960.70   41.20
   1   6  -1  588.34   23.40
   1   6  -1  581.14   26.10
   1   6  -1  591.34   26.80
   1   6  -1  615.94   31.00
   1   6  -1  615.14   31.80
   1   6  -1  595.84   27.10
   1   6  -1  549.74   30.90
   1   5  -1 5033.80  188.98
   1   5  -1 4794.02  182.48
   1   5  -1 4802.32  185.08
   1   5  -1 4735.63  184.78
   1   5  -1 4846.31  188.88
   1   4  -1  140.39   10.30
   1   4  -1  137.09   10.00
   1   3  -1   93.39    7.00
   1   3  -1   96.09    7.70
  -1  -1   1  111.29    6.70
   1   1  -1  121.99    5.60
   1   1  -1  118.49    6.40
  -1   0   1  329.87   14.80
  -1   0   1  317.47   12.90
   1   0  -1  294.27   13.80
   1  -1  -1 3604.44  136.09
   1  -1  -1 3551.64  134.39
  -1   2   1  305.07   15.10
  -1   2   1  305.07   14.10
   1  -2  -1  303.47   13.20
   1  -2  -1  301.47   14.30
  -1   3   1 6280.87  232.58
   1  -3  -1 5994.60  231.68
   1  -3  -1 6033.70  231.18
  -1   4   1   31.40    5.70
  -1   4   1   42.00    5.40
  -1   4   1   36.90    5.70
   1  -4  -1   34.70    4.10
   1  -4  -1   41.00    4.60
  -1   5   1  198.18   11.50
  -1   5   1  195.58   11.80
  -1   5   1  192.58   13.40
  -1   5   1  186.78   10.80
  -1   5   1  201.18   14.20
  -1   5   1  239.98   16.60
  -1   5   1  189.48   11.40
   1  -5  -1  181.48   13.10
  -1   6   1   38.40    5.00
  -1   6   1   31.10    7.50
  -1   6   1   38.50    5.50
  -1   6   1   26.80    6.80
  -1   6   1   35.20    5.10
  -1   6   1   30.80    6.00
  -1   6   1   41.50    5.60
  -1   7   1    8.20    5.10
  -1   7   1    6.20    3.10
  -1   7   1    2.40    2.40
  -1   7   1    4.70    3.60
  -1   7   1    1.60    2.10
  -1   7   1    3.10    2.70
  -1   8   1   -1.00    1.80
  -1   8   1   -2.40    3.70
  -1   8   1    2.00    1.90
   0   9  -1  461.15   22.90
   0   9  -1  482.05   21.00
   0   8  -1  158.88   10.50
   0   8  -1  142.99   10.00
   0   7  -1   53.49    9.70
   0   7  -1   82.89   12.10
   0   7  -1   85.29    7.30
   0   7  -1   96.19   14.90
   0   7  -1   79.99    7.40
   0  -6   1 7378.66  299.67
   0   6  -1 7605.74  290.37
   0   6  -1 7765.32  297.47
   0   6  -1 7728.83  291.27
   0   6  -1 7706.13  297.77
   0   6  -1 7771.02  291.67
   0   5  -1  179.88   12.90
   0   5  -1  157.58   12.50
   0   5  -1  169.28   10.10
   0   5  -1  149.99    9.70
   0   4  -1  153.18   11.10
   0   4  -1  142.29   10.70
   0   3  -1 2231.18   89.49
   0   3  -1 2269.97   89.29
   0   1  -1  295.57   13.00
   0   1  -1  308.87   13.10
   0   0   1    2.50    0.90
   0   0  -1    2.00    1.10
   0   2   1  247.88   11.30
   0   2   1  230.08   11.30
   0  -2  -1  235.88   10.30
   0   3   1  524.25   22.80
   0   3   1  502.25   22.30
   0  -3  -1  486.15   20.60
   0   4   1 3578.74  138.19
   0   4   1 3575.74  137.69
   0  -4  -1 3389.16  134.29
   0  -4  -1 3573.74  133.99
   0   5   1 1591.94   67.19
   0   5   1 1553.74   63.69
   0   5   1 1533.35   63.59
   0   5   1 1678.53   63.49
   0   5   1 1587.24   66.19
   0   6   1  809.92   35.20
   0   6   1  840.12   40.10
   0   6   1  808.62   35.50
   0   6   1  734.33   36.30
   0   6   1  908.61   36.60
   0  -6  -1  761.92   39.00
   0   7   1  741.03   32.30
   0   7   1  720.93   31.40
   0   7   1  691.73   31.50
   0   7   1  663.53   36.80
   0   8   1  529.95   24.70
   0   8   1  487.85   23.30
   0   8   1  524.65   24.50
   0   9   1  287.77   21.70
   0   9   1  354.66   15.80
   0   9   1  314.87   14.20
  -1   8  -1    1.40    1.90
  -1   8  -1    0.20    3.90
  -1   8  -1    2.90    4.90
  -1   7  -1  148.49   14.50
  -1   7  -1  145.19   11.40
  -1   7  -1  144.39    9.80
  -1   7  -1  146.49   10.40
  -1   6  -1    2.50    2.50
  -1   6  -1    3.20    4.10
  -1   6  -1    3.90    2.80
  -1   6  -1    2.80    2.30
  -1   6  -1    4.90    3.70
  -1   6  -1    1.70    2.50
  -1   6  -1    5.10    3.80
   1  -5   1  687.13   34.40
  -1   5  -1  624.74   28.80
  -1   5  -1  642.54   31.40
  -1   5  -1  645.14   28.60
  -1   5  -1  645.64   28.00
  -1   5  -1  650.13   28.70
  -1   5  -1  644.04   33.00
   1  -4   1 1154.58   49.60
  -1   4  -1 1121.59   48.90
  -1   4  -1 1080.09   45.50
  -1   4  -1 1077.69   45.50
  -1   4  -1 1171.58   50.09
   1  -2   1  201.98   11.00
  -1   2  -1  213.78   12.00
  -1   2  -1  191.98   10.90
  -1   1  -1  481.65   21.20
  -1   1  -1  487.85   20.60
   1   1   1  203.98    9.40
   1   1   1  205.88    8.70
  -1  -1  -1  208.48    9.50
   1   2   1  162.98    8.40
   1   2   1  145.89    6.70
  -1  -2  -1  164.68    8.30
   1   3   1 2376.46   92.39
   1   3   1 2456.45   93.89
  -1  -3  -1 2406.96   93.99
   1   4   1   38.50    5.60
   1   4   1   33.50    4.30
   1   5   1  679.63   29.80
   1   5   1  682.63   29.50
   1   5   1  727.33   33.20
   1   6   1  740.03   36.30
   1   6   1  726.43   32.00
   1   6   1  724.23   31.50
   1   6   1  711.53   31.90
   1   7   1 1465.65   59.89
   1   7   1 1441.96   66.29
   1   7   1 1478.55   60.69
   1   7   1 1478.55   60.39
   1   8   1   87.79   12.30
   1   8   1  105.59   13.50
   1   8   1   94.09    7.80
   1   8   1   98.59    8.00
   1   9   1  148.49    9.30
   1   9   1  145.29    8.40
  -2   8  -1 1108.59   53.19
  -2   8  -1 1340.97   49.60
  -2   8  -1 1290.57   49.90
  -2   7  -1   28.70    4.40
  -2   7  -1    5.00    3.60
  -2   7  -1   16.30    3.70
  -2   7  -1   30.50    5.60
  -2   6  -1  787.92   41.80
  -2   6  -1  744.83   40.30
  -2   6  -1  832.12   38.80
  -2   6  -1  795.32   35.10
  -2   6  -1  789.82   35.00
  -2   6  -1  794.12   34.90
  -2   5  -1  537.05   24.40
  -2   5  -1  542.05   24.40
  -2   5  -1  525.45   25.00
  -2   5  -1  519.55   29.70
  -2   5  -1  512.35   27.40
  -2   5  -1  503.95   28.70
  -2   5  -1  504.25   23.50
  -2   4  -1  114.89   10.50
  -2   4  -1  132.99   12.00
  -2   4  -1  117.39   10.30
  -2   4  -1  112.19    8.40
  -2   4  -1  114.79    8.00
  -2   4  -1  112.79    7.70
   2  -3   1 1877.71   79.49
  -2   3  -1 2048.10   81.29
  -2   3  -1 1934.91   79.29
   2  -2   1 2027.70   82.19
  -2   2  -1 2112.89   83.29
  -2   2  -1 2060.69   83.09
   2  -1   1  131.09    8.30
  -2   1  -1  130.09    7.90
  -2   1  -1  132.29    9.00
  -2   0  -1 2726.03  103.29
  -2   0  -1 2621.74  102.79
  -2  -1  -1  112.69    7.30
  -2  -1  -1  112.69    6.10
   2   2   1  584.74   25.50
  -2  -2  -1  608.64   26.00
   2   3   1 1960.90   74.29
   2   3   1 1911.51   76.49
  -2  -3  -1 1979.10   77.79
   2   4   1  149.39   10.10
   2   4   1  146.09    7.90
   2   5   1 2371.56   88.79
   2   5   1 2264.27   90.89
   2   5   1 2089.59   87.09
   2   5   1 2226.58   87.29
   2   6   1  352.66   20.80
   2   6   1  326.07   16.50
   2   6   1  341.37   17.00
   2   6   1  326.77   14.30
   2   7   1 2204.68   94.59
   2   7   1 2160.88   88.39
   2   7   1 2226.68   88.59
   2   7   1 2294.37   88.79
   2   8   1  682.43   30.80
   2   8   1  684.93   37.10
   2   8   1  653.73   33.10
   2   8   1  712.93   31.30
   2   9   1   28.60    4.70
   2   9   1   24.30    4.40
   2   9   1   20.50   10.50
  -3   7  -1  127.49   10.20
  -3   7  -1  128.69    8.80
  -3   7  -1  126.89    8.20
  -3   7  -1  126.59   10.00
  -3   6  -1  245.68   13.50
  -3   6  -1  239.58   13.20
  -3   6  -1  242.88   16.80
  -3   6  -1  231.78   14.00
  -3   5  -1  470.65   23.50
  -3   5  -1  482.75   22.60
  -3   5  -1  440.26   21.60
  -3   5  -1  502.55   23.20
  -3   5  -1  487.75   29.80
  -3   5  -1  489.95   26.60
   3  -4   1  366.56   23.50
  -3   4  -1  362.56   17.60
  -3   4  -1  369.46   23.60
  -3   4  -1  352.16   17.90
  -3   4  -1  386.26   22.00
   3  -3   1  911.21   43.00
  -3   3  -1  931.91   39.00
  -3   3  -1  925.61   39.80
  -3   3  -1  981.10   44.70
  -3   3  -1  913.11   41.90
   3  -2   1 3890.51  154.78
  -3   2  -1 4030.20  155.88
   3  -1   1  364.66   18.60
  -3   1  -1  361.46   19.20
   3   0   1  729.73   31.50
  -3   0  -1  702.13   31.80
  -3   0  -1  731.23   31.60
   3   1   1 3935.31  152.48
  -3  -1  -1 3813.32  152.98
  -3  -1  -1 4126.29  151.48
   3   2   1  104.99    7.70
  -3  -2  -1  106.79    7.90
   3   3   1  154.18    9.40
   3   3   1  159.98    8.20
   3   4   1   12.20    3.20
   3   5   1  173.78   12.20
   3   5   1  182.68    8.90
   3   5   1  175.18   10.70
   3   6   1    3.30    2.20
   3   6   1    3.50    3.50
   3   6   1    0.70    4.50
   3   6   1    1.40    1.40
  -3  -6  -1    3.90    2.30
   3   7   1    3.30    2.30
   3   7   1    2.80    4.30
   3   7   1    5.50    1.60
   3   7   1    3.60    7.40
  -3  -7  -1    3.30    1.90
   3   8   1  606.74   27.00
   3   8   1  536.45   31.70
   3   8   1  459.05   40.10
   3   8   1  590.04   26.60
  -3  -8  -1  514.05   24.60
   3   9   1  166.58   10.60
   3   9   1  166.68   10.50
   3   9   1  177.08   17.00
   3  10   1  166.18   11.00
   3  10   1  151.68    8.80
  -4   6  -1  688.73   32.80
  -4   6  -1  686.83   29.80
  -4   5  -1   10.50    5.10
  -4   5  -1    6.10    2.10
  -4   5  -1   12.70    3.60
  -4   5  -1   -2.90    5.80
  -4   5  -1    9.80    3.80
   4  -4   1    5.80    5.50
  -4   4  -1    8.00    2.70
  -4   4  -1    2.20    3.90
  -4   4  -1    7.50    3.20
  -4   4  -1    8.40    3.70
  -4   4  -1   13.20    5.10
   4  -3   1  118.19   11.70
  -4   3  -1  118.59   10.90
  -4   3  -1  121.59    8.30
  -4   3  -1  147.69   13.80
  -4   3  -1  137.59    9.30
  -4   3  -1  111.49    9.80
   4  -2   1   15.00    4.40
  -4   2  -1    9.50    4.90
  -4   2  -1   16.70    3.10
  -4   2  -1   17.90    3.70
  -4   2  -1   13.50    4.20
   4  -1   1  807.12   36.50
  -4   1  -1  761.82   33.70
  -4   1  -1  783.92   37.10
   4   0   1  670.43   31.30
  -4   0  -1  675.53   31.50
   4   1   1 4243.88  168.68
  -4  -1  -1 4448.35  167.98
   4   2   1 5675.43  218.88
   4   2   1 5685.13  217.28
   4   3   1 3762.02  142.19
   4   3   1 3615.54  142.59
   4   4   1    3.40    1.80
   4   4   1   10.70    3.60
   4   5   1  737.93   32.00
   4   5   1  759.42   32.60
   4   5   1  798.02   35.90
   4   5   1  744.93   31.10
  -4  -5  -1  766.92   33.80
   4   6   1  624.94   31.70
   4   6   1  593.54   26.80
   4   6   1  616.54   25.80
   4   6   1  611.94   28.10
  -4  -6  -1  605.14   27.30
   4   7   1 1597.24   63.89
   4   7   1 1559.94   70.09
   4   7   1 1613.44   62.09
   4   7   1 1581.94   64.79
  -4  -7  -1 1548.15   64.09
   4   8   1    6.90    1.60
   4   8   1    4.80    2.70
   4   8   1   10.80    5.30
   4   8   1   -2.30    8.20
  -4  -8  -1    6.20    2.50
   4   9   1    2.00    2.60
   4   9   1    0.70    1.60
   4   9   1    0.40    6.00
  -4  -9  -1    4.30    2.30
   4  10   1  900.11   34.00
   4  10   1  746.53   32.60
  -5   6  -1  652.83   28.70
  -5   6  -1  618.04   25.40
  -5   6  -1  510.15   23.80
  -5   5  -1 1135.19   48.70
  -5   5  -1 1159.58   46.50
  -5   5  -1  975.90   45.90
  -5   4  -1   66.79   11.40
  -5   4  -1   73.79    9.70
  -5   4  -1   80.29    7.10
  -5   4  -1   72.39    6.10
  -5   4  -1   75.39    8.20
   5  -3   1  385.06   26.90
  -5   3  -1  348.37   24.50
  -5   3  -1  354.66   17.40
  -5   3  -1  346.57   19.10
  -5   3  -1  324.87   17.70
  -5   3  -1  330.97   20.70
   5  -2   1 1080.19   52.09
   5  -2   1 1024.00   50.79
  -5   2  -1 1115.69   45.80
  -5   2  -1 1096.99   47.00
  -5   2  -1 1122.59   49.70
  -5   2  -1 1115.99   53.39
   5  -1   1  372.26   22.10
   5  -1   1  379.96   23.20
  -5   1  -1  393.96   18.50
  -5   1  -1  382.26   23.60
  -5   1  -1  371.86   19.30
  -5   1  -1  375.56   16.50
  -5   1  -1  383.06   21.00
   5   0   1   42.00    6.20
  -5   0  -1   26.50    4.30
  -5   0  -1   36.70    7.00
  -5   0  -1   22.20    2.90
  -5   0  -1   20.60    3.90
  -5   0  -1   23.30    5.20
   5   1   1  795.12   37.30
   5   1   1  791.72   37.40
  -5  -1  -1  779.42   33.50
  -5  -1  -1  794.42   32.40
   5   2   1 1829.72   73.89
   5   2   1 1920.81   78.09
   5   2   1 1876.31   79.09
  -5  -2  -1 1888.21   73.69
  -5  -2  -1 1937.81   74.79
   5   4   1  950.90   39.10
   5   4   1  937.71   38.60
   5   4   1  969.60   39.90
   5   4   1  923.91   40.80
   5   4   1  939.11   41.80
  -5  -4  -1  985.00   39.80
  -5  -4  -1  943.01   39.20
   5   5   1  622.94   27.60
   5   5   1  580.14   29.80
   5   5   1  615.44   26.30
   5   5   1  602.84   25.90
  -5  -5  -1  594.24   27.20
  -5  -5  -1  637.04   27.10
   5   6   1  103.39   10.20
   5   6   1   99.79    8.00
   5   6   1   98.59    6.80
   5   6   1  104.89    6.90
  -5  -6  -1  102.19    8.10
   5   7   1   30.70    5.30
   5   7   1   32.30    4.00
   5   7   1   31.10    6.80
   5   7   1   24.60    3.80
  -5  -7  -1   26.90    4.40
   5   8   1 1453.75   60.19
   5   8   1 1536.25   59.09
   5   8   1 1515.55   61.79
  -5  -8  -1 1505.45   61.29
   5   9   1   80.19    6.40
   5   9   1   76.39    3.80
   5   9   1   78.29    7.50
   5   9   1   80.49    5.60
  -5  -9  -1   83.89    6.50
   5  10   1   32.00    3.20
  -6   5  -1   19.40    2.40
  -6   5  -1   27.40    4.60
  -6   4  -1  176.18   11.20
  -6   4  -1  167.98    9.60
  -6   4  -1  183.38   13.40
  -6   3  -1  316.17   17.30
  -6   3  -1  315.07   19.70
  -6   3  -1  304.77   15.90
  -6   3  -1  298.07   15.30
  -6   2  -1  764.22   33.60
  -6   2  -1  764.42   37.70
  -6   2  -1  776.62   35.30
  -6   2  -1  798.42   34.30
   6  -1   1  322.77   22.80
   6  -1   1  308.57   16.10
  -6   1  -1  330.67   17.10
  -6   1  -1  337.47   18.20
  -6   1  -1  335.27   14.50
  -6   1  -1  337.57   20.40
   6   0   1  458.85   27.30
   6   0   1  459.35   21.70
   6   0   1  474.75   28.60
  -6   0  -1  492.55   22.70
  -6   0  -1  456.85   20.60
  -6   0  -1  478.95   23.20
  -6   0  -1  476.95   25.10
   6   1   1  304.37   15.20
   6   1   1  281.27   19.60
   6   1   1  287.17   20.20
  -6  -1  -1  298.47   15.70
  -6  -1  -1  293.07   14.40
  -6  -1  -1  297.17   17.40
  -6  -1  -1  314.57   15.90
   6   2   1  332.57   15.90
   6   2   1  324.57   20.50
   6   2   1  326.57   15.80
  -6  -2  -1  305.57   15.20
  -6  -2  -1  307.67   17.60
  -6  -2  -1  307.47   16.30
  -6  -2  -1  334.57   16.70
  -6  -2  -1  319.67   15.30
   6   3   1   26.40    3.80
   6   3   1   29.20    5.60
   6   3   1   35.10    4.60
   6   3   1   31.70    5.30
  -6  -3  -1   24.20    4.00
  -6  -3  -1   30.00    4.30
   6   4   1  363.36   19.50
   6   4   1  347.57   16.80
  -6  -4  -1  361.96   17.40
   6   5   1 5165.08  195.18
   6   5   1 5059.39  195.38
  -6  -5  -1 5087.09  196.38
  -6  -5  -1 5165.18  195.98
   6   6   1   16.30    5.40
   6   6   1   26.10    3.70
   6   6   1   25.50    4.00
  -6  -6  -1   25.60    4.00
  -6  -6  -1   32.50    5.00
   6   7   1  510.15   26.60
   6   8   1  157.38   10.70
   6   8   1  177.38    9.40
  -6  -8  -1  168.38   10.60
   6   9   1    1.00    1.20
  -6  -9  -1    3.80    2.40
  -7   3  -1  208.48   12.50
  -7   3  -1  212.28   14.60
  -7   2  -1  171.78   11.80
  -7   2  -1  182.08   13.00
  -7   2  -1  163.58    9.60
  -7   2  -1  161.78   10.00
   7  -1   1  193.38   11.00
  -7   1  -1  184.78   11.30
  -7   1  -1  205.48   14.80
  -7   1  -1  202.08   11.50
  -7   1  -1  197.78   12.50
   7   0   1    5.00    2.10
  -7   0  -1    3.40    2.70
  -7   0  -1    4.80    2.00
  -7   0  -1    4.10    3.60
  -7   0  -1    4.10    2.50
   7   1   1  257.57   20.10
  -7  -1  -1  256.27   16.50
  -7  -1  -1  270.77   13.50
  -7  -1  -1  270.27   14.80
  -7  -1  -1  259.87   14.80
   7   2   1  261.97   19.80
   7   2   1  287.57   15.00
  -7  -2  -1  264.97   14.60
  -7  -2  -1  298.57   14.50
  -7  -2  -1  278.67   16.70
   7   3   1  168.68   10.50
   7   3   1  144.09   14.30
   7   3   1  150.78    9.70
  -7  -3  -1  154.28    9.40
  -7  -3  -1  153.28    9.90
   7   4   1  115.99   13.70
   7   4   1  120.19    8.40
  -7  -4  -1  137.29    9.20
  -7  -4  -1  136.99    9.20
   7   5   1 1055.69   42.80
   7   5   1 1000.70   42.90
  -7  -5  -1 1029.50   43.30
  -7  -5  -1 1030.60   43.70
   7   6   1 1649.83   63.99
   7   6   1 1557.04   63.79
  -7  -6  -1 1619.14   65.49
  -7  -6  -1 1542.15   64.19
   7   7   1  211.88   11.50
  -7  -7  -1  202.18   12.00
  -7  -7  -1  211.08   12.70
   7   8   1  146.39    8.40
  -7  -8  -1  166.18    9.90
   7   9   1  208.48    9.90
  -7  -9  -1  242.88   11.80
  -8   2  -1    0.80    1.70
  -8   2  -1    2.10    2.30
   8  -1   1  175.78   11.20
  -8   1  -1  177.68   13.70
  -8   1  -1  175.88    9.60
   8   0   1  289.67   14.10
  -8   0  -1  259.97   15.70
  -8   0  -1  277.87   14.40
  -8   0  -1  261.77   13.50
  -8   0  -1  243.18   11.40
   8   1   1    6.60    2.70
  -8  -1  -1    5.00    2.10
  -8  -1  -1    3.90    3.20
  -8  -1  -1    8.00    3.20
   8   2   1 1068.59   43.70
  -8  -2  -1 1058.59   42.50
  -8  -2  -1  972.30   44.30
   8   3   1    3.30    2.30
   8   3   1   -0.50    2.30
  -8  -3  -1    4.40    2.60
   8   4   1  199.38   11.50
   8   4   1  209.88   12.00
  -8  -4  -1  209.48   11.80
  -8  -4  -1  198.28   10.90
   8   5   1 1128.89   47.60
   8   5   1 1207.18   47.70
  -8  -5  -1 1122.29   47.50
  -8  -5  -1 1178.78   48.00
   8   6   1   22.60    3.80
   8   6   1   24.20    3.80
  -8  -6  -1   26.50    4.30
  -8  -6  -1   25.40    4.20
   8   7   1  395.76   17.70
   8   7   1  336.87   16.40
  -8  -7  -1  433.06   18.90
  -8  -7  -1  390.86   18.10
   8   8   1  495.85   21.10
  -8  -8  -1  501.65   22.00
   9   0   1  400.16   16.40
  -9   0  -1  356.76   17.00
   9   1   1  108.19    6.50
  -9  -1  -1  102.49    7.00
  -9  -1  -1   90.89    7.30
   9   2   1   67.89    6.10
  -9  -2  -1   72.59    5.10
   9   3   1   33.40    4.10
  -9  -3  -1   37.90    4.10
   9   4   1   22.90    3.90
   9   4   1   27.40    4.30
  -9  -4  -1   24.80    3.90
   9   5   1  180.88   11.60
   9   5   1  126.89    8.30
  -9  -5  -1  173.58   11.50
   9   6   1   66.79    4.80
   9   6   1   65.39    4.60
  -9  -6  -1   59.19    4.60
  -9  -6  -1   67.29    5.40
   9   7   1    4.10    2.40
  -9  -7  -1    8.60    1.80
  -9  -7  -1    8.50    2.40
  -8  -6   2   -0.10    1.20
  -8  -6   2    1.90    1.80
   8   6  -2    1.30    1.40
   8   6  -2    3.10    1.50
  -8  -5   2   85.49    6.10
   8   5  -2   78.09    5.30
   8   5  -2   81.69    5.40
  -8  -4   2  114.29    7.30
   8   4  -2  104.79    6.90
  -8  -3   2  181.68   10.30
  -8  -3   2  151.28   11.00
  -8  -2   2  152.88   10.40
  -8  -2   2  166.88    8.60
   8   2  -2  171.48    9.70
  -8  -1   2  195.78    9.10
  -8  -1   2  222.38   12.70
   8   0  -2  405.06   17.60
  -7  -7   2  232.28   12.40
  -7  -7   2  280.37   13.00
   7   7  -2  270.77   12.30
  -7  -6   2   17.50    3.50
  -7  -6   2   14.80    3.00
   7   6  -2   14.80    2.70
   7   6  -2   17.60    2.70
  -7  -5   2  916.81   38.80
  -7  -5   2  926.21   38.90
   7   5  -2  940.71   38.40
   7   5  -2  935.21   38.50
  -7  -4   2   17.40    3.30
  -7  -4   2   18.40    3.30
  -7  -4   2   17.80    4.10
   7   4  -2   18.00    3.50
   7   4  -2   24.80    4.40
  -7  -3   2    2.50    2.50
  -7  -3   2    1.40    3.20
  -7  -3   2    3.00    2.80
   7   3  -2    3.60    2.90
   7   3  -2    6.10    2.70
  -7  -2   2 1999.20   79.19
  -7  -2   2 2006.50   82.89
   7   2  -2 2040.20   80.09
  -7  -1   2  282.37   13.80
  -7  -1   2  283.07   17.40
  -7  -1   2  301.37   15.80
   7   1  -2  278.47   14.70
  -7   0   2   58.79    7.50
  -7   0   2   54.39    5.50
  -7   0   2   50.99    4.20
  -7   0   2   62.29    6.70
   7   0  -2   56.39    5.70
  -7   1   2    5.40    2.90
  -7   1   2    4.50    2.40
  -7   1   2    1.50    3.80
  -7   2   2    5.10    3.00
  -7   2   2    1.40    2.40
  -7   2   2    1.50    2.50
  -6  -8   2  231.48   11.70
   6   8  -2  220.98   10.40
  -6  -7   2   16.80    4.60
  -6  -7   2   16.70    3.50
   6   7  -2   24.80    3.20
  -6  -6   2    3.70    2.60
  -6  -6   2    2.70    2.00
   6   6  -2   -1.30    1.80
   6   6  -2    3.90    2.10
  -6  -5   2 1335.47   54.79
  -6  -5   2 1346.27   54.49
   6   5  -2 1308.07   53.69
   6   5  -2 1318.47   53.59
  -6  -4   2    1.30    2.40
  -6  -4   2    4.90    2.60
   6   4  -2    6.70    2.10
   6   4  -2    6.90    6.40
   6   4  -2    6.30    2.90
  -6  -3   2   61.49    6.00
  -6  -3   2   60.09    5.70
   6   3  -2   65.29    5.70
   6   3  -2   66.39    5.90
  -6  -2   2 1027.80   43.10
  -6  -2   2  905.51   40.20
  -6  -2   2 1109.79   41.80
   6   2  -2  966.70   41.20
   6   2  -2 1013.10   41.90
   6   2  -2  929.11   49.30
  -6  -1   2 1051.19   46.80
  -6  -1   2 1149.19   48.00
  -6  -1   2 1087.09   45.90
   6   1  -2 1305.17   62.79
   6   1  -2 1125.59   46.80
  -6   0   2   64.19    9.60
  -6   0   2   43.40    5.70
  -6   0   2   50.89    4.60
  -6   0   2   40.80    6.00
   6   0  -2   42.50    4.90
   6   0  -2   18.90    8.40
  -6   1   2 1647.94   67.99
  -6   1   2 1485.45   63.59
  -6   1   2 1608.84   64.19
  -6   1   2 1535.45   60.09
   6  -1  -2 1494.25   61.99
  -6   2   2  165.48   11.50
  -6   2   2  161.58   10.50
  -6   2   2  149.39   12.60
  -6   3   2  111.99    9.90
  -6   3   2  118.69    8.10
  -6   3   2  115.89    9.20
  -6   4   2  667.33   30.10
  -6   4   2  667.03   28.60
  -6   4   2  637.64   27.60
  -5  -8   2  394.96   20.40
  -5  -7   2  380.66   18.70
   5   7  -2  342.87   16.80
   5   7  -2  377.96   17.00
   5   7  -2  376.86   18.00
   5   6  -2  207.88   12.50
  -5  -5   2   82.99    6.90
  -5  -5   2   82.09    7.50
   5   5  -2   73.69    5.90
   5   5  -2   79.99    6.50
  -5  -4   2    5.30    2.80
  -5  -4   2    9.70    2.90
   5   4  -2    4.20    2.30
   5   4  -2    6.70    2.30
   5   4  -2    5.20    4.70
  -5  -3   2  683.33   30.10
  -5  -3   2  695.83   31.30
  -5  -3   2  686.33   29.70
   5   3  -2  669.53   35.10
   5   3  -2  692.03   29.70
   5   3  -2  663.23   29.20
  -5  -2   2    6.10    2.50
  -5  -2   2    8.10    3.10
   5   2  -2    3.90    4.10
   5   2  -2   13.90    3.50
   5   2  -2   11.20    2.80
  -5  -1   2    0.40    2.20
  -5  -1   2   -1.10    2.20
   5   1  -2    1.90    1.80
  -5   0   2  656.73   28.90
  -5   0   2  676.73   26.90
   5   0  -2  577.14   28.60
   5   0  -2  590.24   33.50
  -5   1   2  201.98   12.70
  -5   1   2  193.18   14.50
  -5   1   2  194.08   12.30
  -5   1   2  198.38    9.80
   5  -1  -2  186.68   16.30
   5  -1  -2  175.18   10.60
  -5   2   2 1125.49   52.09
  -5   2   2 1124.89   49.20
  -5   2   2 1189.38   48.90
   5  -2  -2 1144.99   55.89
  -5   3   2   84.19    8.60
  -5   3   2   74.09   10.00
  -5   3   2   69.79    6.90
  -5   4   2  665.03   32.90
  -5   4   2  652.43   29.40
  -5   4   2  663.63   30.70
  -5   5   2  585.54   26.70
  -5   5   2  629.54   29.40
  -5   5   2  667.93   28.20
  -4  -9   2  102.99    6.20
   4   9  -2  105.09    6.70
  -4  -8   2    9.90    3.00
   4   8  -2   18.20    2.50
   4   8  -2   15.50    4.00
   4   8  -2   11.80    2.80
  -4  -7   2  516.45   24.20
   4   7  -2  473.85   23.00
   4   7  -2  510.45   23.80
   4   7  -2  516.85   22.00
  -4  -6   2   95.29    8.10
   4   6  -2   77.79    6.80
   4   6  -2   79.29    6.70
   4   6  -2   86.79    6.30
  -4  -5   2  836.52   35.70
  -4  -5   2  822.32   36.20
  -4  -5   2  810.62   35.30
   4   5  -2  794.12   35.00
   4   5  -2  878.41   35.70
   4   5  -2  855.11   34.70
  -4  -4   2  137.89    9.20
  -4  -4   2  130.79    9.10
  -4  -4   2  142.49    8.70
   4   4  -2  144.79   11.40
   4   4  -2  133.49    8.70
   4   4  -2  136.69    8.20
   4   4  -2  142.99    8.30
  -4  -3   2  318.17   15.90
  -4  -3   2  327.87   15.60
  -4  -3   2  329.57   16.60
   4   3  -2  324.57   15.40
   4   3  -2  317.17   18.90
   4   3  -2  319.07   15.10
  -4  -2   2 1167.78   46.00
  -4  -2   2 1142.69   47.00
  -4  -2   2 1168.78   47.40
  -4  -2   2 1110.69   46.10
   4   2  -2 1112.49   50.29
   4   2  -2 1118.49   46.00
  -4  -1   2    2.00    2.20
  -4  -1   2    5.70    1.90
  -4  -1   2    8.00    2.20
  -4  -1   2    4.60    2.10
   4   1  -2    2.10    3.20
   4   1  -2    3.40    2.20
  -4   0   2  732.53   32.60
  -4   0   2  760.42   30.30
  -4   0   2  721.53   33.10
  -4   0   2  731.93   31.70
   4   0  -2  709.33   30.80
   4   0  -2  729.83   35.70
  -4   1   2 1301.57   52.49
  -4   1   2 1242.48   52.69
  -4   1   2 1304.47   50.19
   4  -1  -2 1268.37   57.19
   4  -1  -2 1252.97   51.29
  -4   2   2 2260.47   90.79
  -4   2   2 2142.69   86.89
  -4   2   2 2165.08   87.79
  -4   2   2 2181.88   83.59
  -4   3   2   72.99    8.20
  -4   3   2   69.89    9.80
  -4   3   2   67.89    7.30
   4  -3  -2   76.89    9.40
  -4   4   2   79.39   10.70
  -4   4   2   73.49    7.30
  -4   5   2   13.50    5.20
  -4   5   2   11.30    3.30
  -4   5   2    5.60    3.20
  -4   6   2    7.90    3.80
  -4   6   2    3.80    1.80
  -4   6   2    4.00    2.50
  -3  -9   2  110.79    6.80
   3   9  -2  115.79    7.30
   3   9  -2  123.99   10.90
  -3  -8   2  785.82   32.70
   3   8  -2  776.62   34.20
   3   8  -2  713.33   29.90
   3   8  -2  761.52   32.90
  -3  -7   2  985.70   44.70
  -3  -6   2   81.49    7.10
   3   6  -2   84.09   10.50
   3   6  -2   82.89    5.80
   3   6  -2   75.39    8.10
   3   6  -2   90.09    9.70
   3   6  -2   77.49    6.60
  -3  -5   2  609.04   27.40
   3   5  -2  600.14   29.40
   3   5  -2  630.44   25.90
   3   5  -2  618.04   33.90
   3   5  -2  626.14   27.50
   3   5  -2  581.74   25.40
  -3  -4   2   44.40    4.80
  -3  -4   2   44.40    5.20
   3   4  -2   56.59    5.00
   3   4  -2   38.60    5.00
   3   4  -2   43.00    4.00
  -3  -3   2  582.24   25.70
  -3  -3   2  561.64   25.60
   3   3  -2  579.04   25.00
   3   3  -2  631.44   25.50
   3   3  -2  589.34   27.90
  -3  -2   2  687.23   29.60
   3   2  -2  701.43   31.90
  -3  -1   2   24.40    4.00
  -3  -1   2   27.40    4.20
   3   1  -2   29.00    5.00
  -3   0   2 2154.28   86.19
  -3   0   2 2232.48   85.39
   3   0  -2 2207.38   88.79
  -3   1   2 2671.23  101.89
  -3   1   2 2546.45  102.19
   3  -1  -2 2630.44  105.09
  -3   2   2    7.90    3.10
  -3   2   2    8.80    2.40
   3  -2  -2   10.90    3.90
  -3   3   2  601.54   28.10
  -3   3   2  600.74   30.30
  -3   3   2  621.04   27.50
  -3   3   2  565.94   26.40
   3  -3  -2  618.44   31.10
  -3   4   2 1237.78   52.09
  -3   4   2 1268.57   52.99
  -3   4   2 1298.07   56.69
  -3   4   2 1281.47   54.09
   3  -4  -2 1258.57   57.09
  -3   5   2  777.02   36.80
  -3   5   2  750.52   34.30
  -3   5   2  659.73   32.30
  -3   5   2  774.02   33.40
  -3   6   2  533.65   25.40
  -3   6   2  499.35   23.20
  -3   6   2  537.15   26.80
  -3   6   2  509.75   24.20
  -3   7   2  178.58    9.70
  -3   7   2  164.38   10.50
  -3   7   2  168.88   10.20
   2   9  -2  338.07   17.90
   2   9  -2  315.37   15.40
  -2  -8   2    2.30    2.20
   2   8  -2    3.40    2.90
   2   8  -2  -10.40    7.30
  -2  -7   2  539.45   26.60
   2   7  -2  543.75   25.70
   2   7  -2  550.84   22.30
   2   7  -2  529.65   30.40
   2   7  -2  547.25   25.80
  -2  -6   2  130.89    9.00
   2   6  -2  140.99   13.10
   2   6  -2  128.69    8.90
   2   6  -2  136.89   12.40
   2   6  -2  101.69   14.40
   2   6  -2  155.98   10.00
   2   6  -2  141.69    7.60
  -2  -5   2  148.29    9.50
   2   5  -2  142.89    9.10
   2   5  -2  127.89   12.70
   2   5  -2  159.98   13.10
   2   5  -2  148.89   11.50
   2   5  -2  156.18    8.00
  -2  -4   2   11.40    2.50
   2   4  -2    9.90    3.40
   2   4  -2    8.60    3.10
   2   4  -2   21.10    5.00
   2   4  -2    6.70    1.80
  -2  -3   2 3908.71  159.88
   2   3  -2 4339.97  161.18
   2   3  -2 4362.96  162.38
   2   2  -2 1013.70   42.20
   2   2  -2  993.00   39.80
  -2  -1   2  298.97   14.50
   2   1  -2  284.77   15.20
   2   0  -2 1930.51   76.89
   2  -1  -2  949.80   40.60
  -2   2   2  998.80   41.60
  -2   2   2  990.50   40.50
   2  -2  -2 1047.50   43.60
  -2   3   2  195.38   13.50
  -2   3   2  231.98   12.30
  -2   4   2   64.79    6.40
  -2   4   2   67.99    8.00
  -2   4   2   70.59    7.10
  -2   4   2   58.69    6.90
  -2   4   2   75.09    6.20
  -2   4   2   64.09    5.90
   2  -4  -2   64.59    7.00
  -2   5   2  242.38   14.20
  -2   5   2  236.58   14.80
  -2   5   2  271.87   17.10
  -2   5   2  234.88   12.70
  -2   5   2  231.98   13.50
  -2   5   2  239.78   15.90
  -2   6   2    4.00    2.10
  -2   6   2    2.60    2.30
  -2   6   2   -0.70    4.90
  -2   6   2    8.70    8.20
  -2   6   2    2.80    3.00
  -2   7   2  340.47   16.70
  -2   7   2  313.17   16.50
  -2   7   2  305.17   18.80
  -2   7   2  323.67   16.20
  -2   8   2   89.49    5.80
   1   9  -2   94.89    6.40
   1   9  -2   92.79   11.80
   1   8  -2 1005.10   42.20
   1   8  -2  979.10   42.10
   1   7  -2   27.30    6.90
   1   7  -2   28.70    4.80
   1   7  -2   32.70    7.50
   1   7  -2   23.90    4.10
  -1  -6   2  742.33   34.10
   1   6  -2  794.12   41.90
   1   6  -2  796.92   40.00
   1   6  -2  797.52   34.90
   1   6  -2  822.22   31.90
   1   6  -2  849.61   35.50
   1   6  -2  802.12   40.40
  -1  -5   2  832.32   36.50
   1   5  -2  843.42   39.90
   1   5  -2  940.21   41.10
   1   5  -2  869.61   41.60
   1   5  -2  846.62   36.50
   1   5  -2  874.61   34.50
  -1  -4   2 2324.67   92.29
   1   4  -2 2473.85   97.69
   1   4  -2 2380.96   95.59
   1   3  -2 8350.76  316.67
   1   2  -2  658.03   27.60
   1   2  -2  664.83   28.60
  -1   0   2  617.14   24.50
   1   0  -2  609.44   26.30
  -1   1   2   41.00    2.70
   1  -1  -2   50.59    4.90
  -1   2   2  334.87   16.10
   1  -2  -2  368.86   16.90
   1  -3  -2 9981.40  377.16
  -1   4   2    8.00    2.30
  -1   4   2    9.10    3.20
  -1   4   2    6.40    2.40
  -1   4   2    8.80    3.60
  -1   4   2    7.10    3.10
   1  -4  -2    5.20    0.90
   1  -4  -2    6.60    2.50
   1  -4  -2    5.10    1.00
  -1   5   2  117.29    8.60
  -1   5   2  123.69    7.90
  -1   5   2  117.99    9.30
  -1   5   2  121.49   10.30
  -1   5   2  121.99    8.70
  -1   6   2 1683.43   70.39
  -1   6   2 1676.83   68.69
  -1   6   2 1622.54   72.79
  -1   6   2 1675.73   67.09
  -1   6   2 1668.93   68.39
  -1   6   2 1752.22   68.89
  -1   7   2  111.59    8.60
  -1   7   2  108.79    8.30
  -1   7   2  103.39    7.80
  -1   7   2  101.99    8.20
  -1   8   2  388.06   23.60
  -1   8   2  506.15   21.30
  -1   8   2  455.65   25.10
   0   8  -2  663.53   30.10
   0   8  -2  712.63   30.50
   0   7  -2   80.99   12.20
   0   7  -2   84.49   12.10
   0   7  -2   93.69    8.10
   0   7  -2  104.69    8.50
   0   7  -2  101.29   18.80
   0   6  -2   -0.80    6.80
   0   6  -2    0.00    3.30
   0   6  -2   -0.50    4.00
   0   6  -2    3.40    2.20
   0   6  -2    3.70    2.30
   0  -5   2 2767.02  116.19
   0   5  -2 2777.42  109.09
   0   5  -2 2838.92  109.39
   0   5  -2 2924.61  117.99
   0   5  -2 2819.92  113.99
   0   5  -2 2779.92  105.99
   0   5  -2 2683.73  111.69
   0   4  -2   52.09    6.30
   0   4  -2   49.80    4.60
   0   4  -2   61.09    7.80
   0   3  -2  242.88   15.10
   0   3  -2  247.38   13.80
   0   2  -2 6739.13  256.77
   0   1  -2  374.36   17.60
   0   1  -2  414.16   17.20
   0   1   2 1656.03   60.79
   0  -1  -2 1555.04   62.29
   0  -2  -2   18.80    1.50
   0  -2  -2   18.80    2.70
   0   3   2  836.22   34.70
   0   3   2  825.12   34.40
   0  -3  -2  814.02   33.10
   0  -3  -2  803.02   32.80
   0   4   2    4.00    2.60
   0  -4  -2    2.30    1.40
   0  -4  -2    1.90    1.60
   0   5   2  261.87   14.10
   0   5   2  269.97   14.40
   0   5   2  293.47   13.90
   0   5   2  271.57   16.90
   0   5   2  270.07   15.80
   0   5   2  269.57   14.40
   0  -5  -2  261.77   14.70
   0   6   2  578.64   26.30
   0   6   2  606.54   26.80
   0   6   2  527.15   29.60
   0   6   2  548.15   28.20
   0   6   2  557.64   26.10
   0   7   2  138.69   10.40
   0   7   2  147.09   13.10
   0   7   2  126.99    9.20
   0   7   2  141.09    9.90
   0   8   2  201.18   12.30
   0   8   2  200.58   18.30
   0   8   2  205.38   12.10
   0   9   2  237.28   11.80
   0   9   2  222.58   13.60
   0   9   2  216.78   11.00
  -1   8  -2  439.16   30.10
  -1   8  -2  552.54   23.50
  -1   8  -2  554.44   23.60
  -1   7  -2  577.54   26.60
  -1   7  -2  587.54   26.50
  -1   7  -2  551.44   32.70
  -1   7  -2  571.14   34.30
  -1   6  -2  188.18   14.60
  -1   6  -2  187.78   11.80
  -1   6  -2  199.28   17.00
  -1   6  -2  203.98   12.50
  -1   6  -2  189.38   16.50
   1  -5   2  141.79   14.50
  -1   5  -2  136.59   12.70
  -1   5  -2  145.09   12.00
  -1   5  -2  156.38   10.00
  -1   5  -2  166.38   14.00
  -1   5  -2  133.49    9.70
   1  -4   2  318.27   19.30
  -1   4  -2  305.97   18.40
  -1   4  -2  299.07   19.00
  -1   4  -2  303.27   15.30
   1  -3   2   99.19    9.00
  -1   3  -2  106.39    8.50
  -1   3  -2  115.89   10.10
   1  -2   2 1079.19   44.20
  -1   2  -2 1016.20   44.50
  -1   2  -2 1040.30   43.40
   1  -1   2 1193.78   48.40
  -1   1  -2 1195.88   48.10
  -1   1  -2 1207.68   48.90
   1   2   2 1651.73   65.29
   1   2   2 1711.43   65.89
  -1  -2  -2 1776.62   66.19
  -1  -2  -2 1679.83   65.09
   1   3   2 3516.25  135.99
  -1  -3  -2 3551.94  135.39
   1   4   2 1153.38   48.10
   1   4   2 1153.28   45.70
  -1  -4  -2 1112.09   47.70
   1   5   2  883.11   39.00
   1   5   2  970.00   41.50
   1   5   2  896.11   37.40
   1   5   2  881.71   38.00
   1   6   2 2428.76  101.39
   1   6   2 2471.45   96.79
   1   6   2 2454.55   97.09
   1   6   2 2456.15   95.89
   1   7   2  772.52   33.90
   1   7   2  723.93   39.10
   1   7   2  811.72   35.00
   1   7   2  790.12   34.90
   1   8   2  337.77   23.00
   1   8   2  305.77   23.60
   1   8   2  328.07   17.30
   1   8   2  309.07   16.90
   1   9   2  224.58   19.50
   1   9   2  217.88   14.80
   1   9   2  238.38   12.30
  -2   8  -2  206.98   16.30
  -2   8  -2  228.28   11.20
  -2   8  -2  269.47   12.10
  -2   7  -2  420.56   26.10
  -2   7  -2  450.15   21.10
  -2   7  -2  446.96   21.20
  -2   6  -2  471.95   26.10
  -2   6  -2  599.14   27.90
  -2   6  -2  512.55   31.10
  -2   5  -2  283.37   15.20
  -2   5  -2  274.87   18.00
  -2   5  -2  279.67   15.20
  -2   5  -2  291.37   19.60
  -2   5  -2  271.17   15.50
  -2   5  -2  284.57   20.90
   2  -4   2  753.92   38.10
  -2   4  -2  758.02   39.30
  -2   4  -2  738.83   32.80
  -2   4  -2  735.53   32.30
  -2   4  -2  751.32   35.80
  -2   4  -2  772.72   32.70
   2  -3   2  598.04   29.40
  -2   3  -2  566.04   29.90
  -2   3  -2  580.54   25.60
  -2   3  -2  600.74   28.70
  -2   3  -2  579.64   28.40
   2  -2   2  294.07   16.60
  -2   2  -2  303.87   17.00
  -2   2  -2  292.57   15.90
   2  -1   2 2821.62  106.99
  -2   1  -2 2641.44  106.69
   2   0   2   61.99    5.60
  -2   0  -2   51.69    5.20
  -2   0  -2   50.99    5.10
   2   2   2 2131.79   85.19
   2   2   2 2208.88   83.79
  -2  -2  -2 2219.68   85.69
   2   3   2  571.74   25.80
  -2  -3  -2  590.74   26.30
   2   4   2   21.90    4.50
   2   5   2   37.90    6.40
   2   5   2   48.80    5.10
   2   5   2   30.80    4.10
   2   6   2 1115.59   42.90
   2   6   2 1113.19   50.29
   2   6   2 1094.49   45.90
   2   6   2 1081.29   45.50
   2   7   2 1345.17   55.59
   2   7   2 1268.17   60.69
   2   7   2 1332.67   55.29
   2   7   2 1362.16   55.59
   2   8   2  147.69   10.30
   2   8   2  147.59   10.50
   2   8   2  127.99   17.00
   2   8   2  141.29   14.50
   2   9   2  228.08   13.00
   2   9   2  231.98   12.80
   2   9   2  205.88   22.10
  -3   7  -2   16.90    9.00
  -3   7  -2   21.40    3.50
  -3   7  -2   16.10    2.90
  -3   6  -2    4.70    3.00
  -3   6  -2    0.70    2.60
  -3   6  -2  -10.40    6.30
  -3   6  -2    1.40    2.30
  -3   6  -2   -0.80    3.40
  -3   5  -2  559.44   26.20
  -3   5  -2  577.34   30.10
  -3   5  -2  558.24   33.40
  -3   5  -2  535.45   25.40
  -3   5  -2  537.25   26.30
   3  -4   2   22.20    5.90
  -3   4  -2   23.30    7.20
  -3   4  -2   15.40    3.90
  -3   4  -2   18.40    3.50
  -3   4  -2   17.60    3.80
  -3   4  -2   20.20    5.10
   3  -3   2  519.75   28.60
  -3   3  -2  516.35   23.80
  -3   3  -2  533.75   29.30
  -3   3  -2  505.35   23.20
  -3   3  -2  527.85   26.70
  -3   3  -2  528.05   24.50
   3  -2   2   54.89    6.90
  -3   2  -2   51.69    7.10
   3  -1   2  285.87   16.40
  -3   1  -2  289.07   16.60
   3   0   2  934.71   39.90
  -3   0  -2  916.91   39.20
   3   1   2 2534.75  101.29
  -3  -1  -2 2618.24  102.19
   3   2   2 1315.77   57.39
   3   3   2  157.68    8.30
   3   3   2  174.58   11.00
   3   4   2 3277.27  128.29
   3   5   2 2607.04  102.39
   3   5   2 2699.23  104.29
   3   5   2 2742.23  107.89
   3   6   2   58.49    9.60
   3   6   2   61.09    4.30
   3   6   2   53.89    5.40
   3   6   2   48.40    8.30
   3   7   2  134.49    7.10
   3   7   2  147.59   13.40
   3   7   2  125.59    9.40
   3   7   2  120.59   15.00
   3   8   2  372.86   24.10
   3   8   2  316.47   23.40
   3   9   2   32.00    4.60
   3   9   2   33.00   14.00
   3   9   2   27.50    4.50
   3  10   2    4.90    2.10
   3  10   2    5.50    2.90
   3  10   2    4.80    4.60
  -4   6  -2  189.38   13.30
  -4   6  -2  184.88   11.50
  -4   6  -2  184.88   10.90
  -4   5  -2   17.80    4.10
  -4   5  -2   21.40    6.00
  -4   5  -2   21.50    7.80
  -4   5  -2   20.40    4.70
  -4   4  -2 2011.90   89.79
  -4   4  -2 1985.60   84.49
  -4   4  -2 1969.10   81.29
  -4   4  -2 2049.29   80.69
   4  -3   2 1177.58   55.79
  -4   3  -2 1168.48   56.19
  -4   3  -2 1152.38   52.29
  -4   3  -2 1167.48   49.90
  -4   3  -2 1213.38   49.30
   4  -2   2    7.00    3.60
  -4   2  -2   14.30    1.80
  -4   2  -2    8.40    3.70
  -4   2  -2    7.90    4.80
  -4   2  -2   13.00    3.00
   4  -1   2 2846.22  113.79
  -4   1  -2 2767.52  109.79
  -4   1  -2 2775.22  111.79
  -4   1  -2 2887.91  113.79
   4   0   2  148.39   11.30
  -4   0  -2  152.38   11.10
   4   1   2  227.98   14.20
  -4  -1  -2  220.98   12.70
   4   2   2  656.93   31.00
   4   3   2  610.84   29.60
   4   4   2  514.75   21.10
   4   4   2  503.05   24.90
   4   5   2  746.83   31.00
   4   5   2  690.63   29.00
   4   5   2  712.13   34.00
  -4  -5  -2  674.53   30.20
   4   6   2  306.27   14.20
   4   6   2  307.27   19.50
   4   6   2  312.57   17.00
   4   6   2  289.47   15.20
  -4  -6  -2  296.97   15.50
   4   7   2   41.70    5.30
   4   7   2   48.60    8.70
   4   7   2   45.60    4.30
   4   7   2   43.70    8.60
  -4  -7  -2   45.90    5.40
   4   8   2  941.21   41.80
   4   8   2  980.10   48.90
   4   8   2  960.90   43.60
   4   8   2 1070.99   39.30
  -4  -8  -2  949.31   41.50
   4   9   2  175.18   10.40
   4   9   2  170.78   11.10
   4   9   2  166.08   14.00
  -4  -9  -2  170.08    9.50
   4  10   2  136.69    8.30
   4  10   2  148.09    8.50
   4  10   2  136.39    7.70
  -5   6  -2  128.39   10.60
  -5   6  -2  121.09    8.30
  -5   5  -2   -0.50    3.50
  -5   5  -2   -0.70    2.80
  -5   5  -2   -0.30    2.40
  -5   4  -2    0.70    2.30
  -5   4  -2    2.90    4.40
  -5   4  -2   -0.60    1.80
  -5   4  -2    2.20    5.60
  -5   3  -2   -2.50    2.40
  -5   3  -2    7.20    6.10
  -5   3  -2    6.50    3.40
  -5   3  -2    4.80    3.30
  -5   3  -2    5.60    2.50
   5  -2   2  368.06   24.40
  -5   2  -2  367.46   19.60
  -5   2  -2  362.36   17.60
  -5   2  -2  381.86   21.80
  -5   2  -2  358.56   24.30
  -5   2  -2  387.76   18.90
  -5   2  -2  370.16   15.10
   5  -1   2 2142.29   91.89
   5  -1   2 2424.56   99.49
  -5   1  -2 2362.16   93.69
  -5   1  -2 2326.57   92.19
  -5   1  -2 2727.83  103.69
  -5   1  -2 2302.67   95.59
  -5   1  -2 2319.67   90.59
   5   0   2 1566.14   67.69
  -5   0  -2 1523.35   66.49
  -5   0  -2 1619.24   62.19
  -5   0  -2 1634.04   65.49
  -5   0  -2 1523.65   60.89
  -5   0  -2 1476.95   62.79
   5   1   2   72.09    8.40
  -5  -1  -2   89.89    8.40
  -5  -1  -2   84.89    5.70
   5   2   2 3427.86  131.89
  -5  -2  -2 3143.69  125.59
   5   3   2 1494.75   58.09
   5   3   2 1529.05   64.09
   5   3   2 1419.86   60.49
  -5  -3  -2 1427.76   57.89
  -5  -3  -2 1433.66   58.29
   5   4   2   60.69    7.00
   5   4   2   53.89    4.50
   5   4   2   57.49    5.60
   5   4   2   55.49    5.00
  -5  -4  -2   51.99    5.00
  -5  -4  -2   53.99    5.40
   5   5   2 1460.45   57.69
   5   5   2 1398.36   56.29
   5   5   2 1474.65   61.79
   5   5   2 1387.76   56.09
  -5  -5  -2 1428.16   57.39
  -5  -5  -2 1352.66   57.29
   5   6   2    4.20    3.40
   5   6   2    6.00    2.20
   5   6   2    4.50    2.40
   5   6   2    7.90    2.50
  -5  -6  -2    4.80    2.60
   5   7   2  242.18   18.00
   5   7   2  216.98   13.70
   5   7   2  239.28   12.60
   5   7   2  228.68   11.70
  -5  -7  -2  215.38   12.90
   5   8   2  927.31   40.20
   5   8   2  921.71   46.30
   5   8   2  890.81   38.80
   5   8   2  950.40   37.60
  -5  -8  -2  947.71   39.80
   5   9   2  169.88   10.70
   5   9   2  161.58   10.90
   5   9   2  182.08   10.60
  -5  -9  -2  192.38   13.60
   5  10   2   53.79    3.70
   5  10   2   52.79    4.40
  -5 -10  -2   62.89    4.90
  -6   5  -2   78.79    8.10
  -6   5  -2   59.49    5.40
  -6   5  -2   70.49    7.60
  -6   4  -2  228.88   13.30
  -6   4  -2  179.98   12.00
  -6   4  -2  224.78   14.90
  -6   3  -2  467.05   22.40
  -6   3  -2  462.35   23.60
  -6   3  -2  461.45   25.50
   6  -2   2   24.30    8.10
  -6   2  -2   35.70    7.80
  -6   2  -2   29.10    5.40
  -6   2  -2   31.40    5.10
  -6   2  -2   26.80    4.00
  -6   2  -2   43.30    7.20
   6  -1   2 4594.14  192.18
   6  -1   2 4511.65  182.38
  -6   1  -2 4837.42  182.78
  -6   1  -2 4739.93  191.28
  -6   1  -2 4899.61  184.78
  -6   1  -2 4856.41  180.58
  -6   1  -2 4947.21  187.48
   6   0   2   32.10    4.20
   6   0   2   33.40   10.90
  -6   0  -2   35.60    3.50
  -6   0  -2   37.70    4.80
  -6   0  -2   32.10    5.90
   6   1   2   66.59    5.80
   6   1   2   72.09    9.90
   6   1   2   65.89    8.40
  -6  -1  -2   81.19    5.80
  -6  -1  -2   73.59    6.30
  -6  -1  -2   60.49    6.20
  -6  -1  -2   66.29    6.80
   6   2   2    5.90    3.30
   6   2   2   -0.70    2.20
   6   2   2    6.80    3.40
  -6  -2  -2    2.10    1.70
  -6  -2  -2    2.60    2.00
   6   3   2  208.28   14.70
   6   3   2  209.18   11.20
   6   3   2  192.88   11.40
  -6  -3  -2  203.38   11.50
  -6  -3  -2  216.48   11.40
   6   4   2  130.59   11.10
   6   4   2  141.69    9.00
   6   4   2  138.69   10.70
   6   4   2  145.49    8.70
  -6  -4  -2  127.39    8.90
  -6  -4  -2  141.89    8.90
   6   5   2 2375.16   93.59
   6   5   2 2433.16   93.39
   6   5   2 2393.96   98.79
  -6  -5  -2 2377.96   94.49
  -6  -5  -2 2393.36   94.19
   6   6   2    0.30    3.70
   6   6   2    2.40    2.20
   6   6   2    5.70    2.30
  -6  -6  -2    1.40    2.30
  -6  -6  -2    7.60    2.70
   6   7   2    4.60    3.20
   6   7   2   10.70    2.90
   6   7   2    4.80    4.80
  -6  -7  -2    3.20    2.40
   6   8   2  361.46   18.70
   6   8   2  378.56   26.10
   6   8   2  369.26   17.00
  -6  -8  -2  385.96   18.90
  -6  -9  -2  141.69    8.80
  -7   3  -2  517.75   28.50
  -7   3  -2  619.54   32.40
  -7   3  -2  496.35   23.40
  -7   2  -2    4.50    3.30
  -7   2  -2    3.90    2.30
  -7   2  -2    3.50    3.50
   7  -1   2  397.66   19.40
  -7   1  -2  393.96   19.50
  -7   1  -2  433.36   23.30
  -7   1  -2  433.36   21.80
  -7   1  -2  439.06   20.90
   7   0   2 2843.12  124.49
   7   0   2 2930.81  113.99
  -7   0  -2 2913.21  114.09
  -7   0  -2 2993.60  112.19
  -7   0  -2 2883.71  117.39
  -7   0  -2 2971.10  115.59
   7   1   2  102.29   13.40
   7   1   2   98.39    7.30
  -7  -1  -2   87.49    8.40
  -7  -1  -2   85.49    8.20
  -7  -1  -2   91.69    6.80
   7   2   2  975.10   48.40
   7   2   2  993.60   41.70
  -7  -2  -2  999.50   40.90
  -7  -2  -2  960.80   43.00
  -7  -2  -2  986.10   41.80
   7   3   2 1159.68   50.29
   7   3   2 1153.58   46.90
   7   3   2 1121.79   53.19
   7   3   2 1095.69   47.20
  -7  -3  -2 1168.28   47.10
  -7  -3  -2 1131.69   46.50
   7   4   2   15.20    3.00
   7   4   2   10.40    4.30
   7   4   2   14.60    3.20
   7   4   2    6.00    6.20
  -7  -4  -2   14.00    3.60
  -7  -4  -2   12.70    3.00
   7   5   2 1040.90   42.80
   7   5   2 1022.00   42.40
   7   5   2  959.70   46.50
  -7  -5  -2 1062.59   43.50
  -7  -5  -2  998.00   42.90
   7   6   2   23.90    4.00
   7   6   2   18.00    3.40
   7   6   2   32.30    6.70
  -7  -6  -2   18.80    3.70
  -7  -6  -2   20.40    3.90
   7   7   2   -1.10    6.80
   7   7   2    3.10    1.90
  -7  -7  -2    4.10    2.30
  -7  -7  -2    1.70    2.70
   7   8   2   18.20    3.20
  -7  -8  -2   18.80    3.50
   7   9   2  180.88    9.10
  -7  -9  -2  215.68   11.00
  -8   2  -2   32.90    3.50
  -8   2  -2   21.60    4.50
  -8   2  -2   32.40    4.40
  -8   1  -2  653.33   28.60
  -8   1  -2  671.13   29.50
   8   0   2   19.00    3.30
  -8   0  -2   18.30    4.00
  -8   0  -2   17.10    2.00
  -8   0  -2   22.40    4.40
  -8   0  -2   13.10    4.20
   8   1   2  155.28   10.00
  -8  -1  -2  153.98    8.60
  -8  -1  -2  156.18   10.30
  -8  -1  -2  131.29   10.50
   8   2   2  247.78   13.70
  -8  -2  -2  252.27   12.70
  -8  -2  -2  212.18   12.90
   8   3   2  962.30   40.90
   8   3   2  953.30   40.20
  -8  -3  -2  968.90   40.40
   8   4   2  186.48   10.80
   8   4   2  188.58   11.30
  -8  -4  -2  193.48   11.40
  -8  -4  -2  180.38   10.30
   8   5   2  355.56   17.20
   8   5   2  324.07   16.60
  -8  -5  -2  322.47   16.70
  -8  -5  -2  337.07   16.70
   8   6   2 1182.58   47.10
   8   6   2 1144.09   46.80
  -8  -6  -2 1131.99   47.50
  -8  -6  -2 1142.69   47.60
   8   7   2   28.30    2.70
   8   7   2   22.40    3.40
  -8  -7  -2   28.70    4.90
  -8  -7  -2   27.70    4.10
   8   8   2   82.59    5.80
  -8  -8  -2   91.99    6.80
   9   0   2  238.18   11.00
  -9   0  -2  221.98   11.50
  -9   0  -2  203.48   11.40
  -9   0  -2  237.28   11.10
   9   1   2  415.26   18.20
  -9  -1  -2  346.87   17.70
  -9  -1  -2  405.46   15.80
  -9  -1  -2  396.76   18.00
   9   2   2  124.69    8.30
  -9  -2  -2  120.89    7.10
   9   3   2  451.95   20.80
  -9  -3  -2  443.36   20.10
   9   4   2  177.78   10.40
   9   4   2  158.18    9.60
  -9  -4  -2  161.58    9.40
   9   5   2  455.05   20.50
   9   5   2  468.85   20.30
  -9  -5  -2  454.05   20.50
  -9  -5  -2  420.16   18.80
   9   6   2    2.80    1.70
   9   6   2    3.80    1.80
  -9  -6  -2    1.20    2.20
  -9  -6  -2    2.00    1.50
   9   7   2   10.00    2.50
  -9  -7  -2    9.40    2.00
  -9  -7  -2    7.60    2.50
  10   4   2  358.66   16.30
 -10  -4  -2  308.77   15.20
  -8  -3   3   25.60    3.00
  -8  -2   3    4.50    1.80
  -8  -2   3    2.10    1.40
  -7  -6   3   88.29    6.10
  -7  -6   3  106.29    6.20
   7   6  -3  106.39    6.10
  -7  -5   3   10.80    2.80
  -7  -5   3   15.60    2.80
   7   5  -3   11.10    2.60
  -7  -4   3  728.03   30.50
  -7  -4   3  686.53   28.90
  -7  -4   3  697.63   31.50
   7   4  -3  735.43   30.20
   7   4  -3  738.33   30.50
  -7  -3   3   69.69    6.00
  -7  -3   3   65.59    9.00
   7   3  -3   67.69    5.90
   7   3  -3   72.19    6.00
  -7  -2   3  786.22   35.90
  -7  -2   3  792.12   32.70
   7   2  -3  773.22   33.40
  -7  -1   3  196.18   13.60
  -7  -1   3  200.18   10.20
   7   1  -3  213.78   11.30
  -7   0   3   46.20    8.60
  -7   0   3   43.80    5.90
  -7   0   3   52.79    3.20
  -7   0   3   48.40    5.20
   7   0  -3   65.59    5.40
  -7   1   3  651.43   31.10
  -7   1   3  730.73   30.30
  -7   1   3  641.34   28.80
  -6  -7   3  196.88   10.40
   6   7  -3  189.28    9.60
  -6  -6   3  224.88   12.00
  -6  -6   3  233.88   12.30
   6   6  -3  219.88   11.40
   6   6  -3  214.58   10.20
  -6  -5   3 1677.83   68.29
  -6  -5   3 1738.43   68.19
   6   5  -3 1732.83   67.49
   6   5  -3 1667.83   67.39
  -6  -4   3  162.88   10.50
  -6  -4   3  165.18   10.50
   6   4  -3  176.98   10.60
   6   4  -3  182.18   10.20
  -6  -3   3   12.20    2.90
  -6  -3   3   12.00    3.30
   6   3  -3   13.40    2.80
   6   3  -3   13.70    3.40
  -6  -2   3 1135.89   48.30
  -6  -2   3 1143.19   47.00
   6   2  -3 1058.79   46.50
   6   2  -3 1232.78   47.90
  -6  -1   3 1090.19   45.60
  -6  -1   3  971.80   43.60
  -6  -1   3 1089.59   43.60
   6   1  -3 1097.29   44.40
  -6   0   3  121.19    8.80
  -6   0   3  125.69   12.30
  -6   0   3  125.79    9.70
  -6   0   3  119.99    7.50
   6   0  -3  131.39    8.60
  -6   1   3    3.50    1.30
  -6   1   3    5.80    4.70
  -6   1   3    3.20    3.00
  -6   1   3    1.60    2.10
   6  -1  -3    1.50    1.60
  -6   2   3  437.56   23.70
  -6   2   3  419.36   20.90
  -6   2   3  447.06   21.20
   6  -2  -3  432.66   22.20
  -6   3   3   27.80    4.40
  -6   3   3   32.40    4.60
  -6   3   3   32.80    5.30
  -5  -8   3   26.10    3.30
   5   8  -3   20.90    2.30
  -5  -7   3   53.69    6.00
   5   7  -3   54.89    4.70
  -5  -6   3   24.60    3.90
  -5  -6   3   35.20    4.70
   5   6  -3   20.70    3.20
  -5  -5   3   14.90    3.80
  -5  -5   3    9.20    3.40
   5   5  -3   13.00    3.60
   5   5  -3    9.00    3.20
  -5  -4   3 2848.01  109.49
  -5  -4   3 2826.02  109.99
  -5  -4   3 2805.92  110.79
   5   4  -3 2645.94  108.69
   5   4  -3 2876.01  108.79
  -5  -3   3  119.99    8.40
  -5  -3   3  136.19   10.70
  -5  -3   3  133.19    9.10
   5   3  -3  130.89   13.30
   5   3  -3  125.69    8.60
   5   3  -3  126.29    8.40
  -5  -2   3 1080.89   45.00
  -5  -2   3 1034.50   44.60
  -5  -2   3 1135.79   46.30
  -5  -2   3 1136.29   47.80
   5   2  -3 1074.19   45.20
   5   2  -3 1088.19   44.70
   5   2  -3 1083.29   52.49
  -5  -1   3  475.05   22.80
  -5  -1   3  428.16   21.80
  -5  -1   3  482.05   21.30
   5   1  -3  488.65   28.70
   5   1  -3  467.35   21.70
  -5   0   3  451.65   21.70
  -5   0   3  435.26   19.60
  -5   0   3  441.56   21.40
   5   0  -3  415.96   20.20
   5   0  -3  412.56   26.90
  -5   1   3  831.82   33.80
  -5   1   3  846.12   36.90
  -5   1   3  852.51   36.80
   5  -1  -3  807.32   35.00
   5  -1  -3  779.62   42.50
  -5   2   3  618.84   28.10
  -5   2   3  598.84   28.60
  -5   2   3  617.44   31.90
   5  -2  -3  560.74   25.80
  -5   3   3  245.48   14.50
  -5   3   3  233.28   16.40
  -5   3   3  242.88   14.00
  -5   4   3  212.58   14.60
  -5   4   3  215.58   12.80
  -5   4   3  215.68   12.20
  -5   5   3    2.80    2.40
  -5   5   3    0.80    1.40
  -5   5   3    2.90    2.00
  -4  -8   3  184.48   10.40
   4   8  -3  185.18    8.30
   4   8  -3  182.58    9.50
  -4  -7   3  195.08   11.80
   4   7  -3  188.48   10.70
   4   7  -3  189.38   10.80
   4   7  -3  186.28    9.80
  -4  -6   3  145.89    9.90
   4   6  -3  134.09    8.90
   4   6  -3  148.29    8.60
   4   6  -3  152.18    9.30
   4   6  -3  138.19   15.30
  -4  -5   3  109.99    8.80
  -4  -5   3  102.69    8.00
  -4  -5   3  108.29    7.70
   4   5  -3  103.09    7.50
   4   5  -3  113.59    7.30
   4   5  -3   97.39   12.10
   4   5  -3  104.49    7.40
  -4  -4   3 1643.04   64.79
  -4  -4   3 1621.24   64.29
  -4  -4   3 1549.24   64.99
   4   4  -3 1585.24   69.99
   4   4  -3 1572.34   63.49
   4   4  -3 1598.84   63.39
  -4  -3   3   30.60    4.20
  -4  -3   3   28.80    5.10
   4   3  -3   24.30    6.10
   4   3  -3   25.00    3.80
  -4  -2   3   13.90    3.00
  -4  -2   3   16.40    3.30
  -4  -2   3   15.30    4.20
  -4  -2   3   15.60    3.00
   4   2  -3   16.10    3.00
   4   2  -3   16.40    2.90
   4   2  -3   17.70    5.40
  -4  -1   3  838.62   35.40
  -4  -1   3  812.62   34.20
  -4  -1   3  809.12   32.90
  -4  -1   3  765.22   32.70
  -4  -1   3  726.53   33.40
   4   1  -3  766.62   38.40
   4   1  -3  756.02   33.10
   4   1  -3  776.62   32.90
  -4   0   3   82.39    7.10
  -4   0   3  108.19    8.00
  -4   0   3   91.59    6.40
  -4   0   3   88.89    8.00
   4   0  -3   82.29    6.60
   4   0  -3   85.19    9.50
  -4   1   3  283.57   13.50
  -4   1   3  279.27   15.90
  -4   1   3  279.87   15.20
   4  -1  -3  265.97   14.00
   4  -1  -3  277.97   19.20
  -4   2   3 2769.72  113.99
  -4   2   3 2844.82  113.49
  -4   2   3 2754.02  109.79
   4  -2  -3 2783.32  119.69
   4  -2  -3 3266.47  114.59
  -4   3   3   70.49    7.60
  -4   3   3   73.79    7.70
  -4   3   3   70.79    9.70
   4  -3  -3   88.99   11.60
  -4   4   3  137.79   10.00
  -4   4   3  147.09   11.40
  -4   4   3  143.39   12.30
  -4   5   3  193.68   13.70
  -4   5   3  197.48   11.70
  -4   5   3  199.98   12.90
  -4   6   3  628.74   27.00
  -4   6   3  626.34   26.50
  -4   6   3  608.74   28.20
  -3  -8   3   85.99    6.30
   3   8  -3   81.29    8.00
   3   8  -3   95.09    7.20
  -3  -7   3   94.69    7.70
   3   7  -3   87.39    6.90
   3   7  -3   79.99    6.80
   3   7  -3   92.89    5.80
  -3  -6   3   28.40    4.70
   3   6  -3   31.40    4.70
   3   6  -3   23.30    8.20
   3   6  -3   27.60    3.70
   3   6  -3   36.60    5.10
  -3  -5   3  908.11   39.40
  -3  -5   3  948.01   40.10
   3   5  -3  955.90   39.50
   3   5  -3  973.50   38.40
   3   5  -3  919.71   46.40
   3   5  -3  878.91   41.40
  -3  -4   3   42.40    5.00
  -3  -4   3   39.10    5.30
  -3  -4   3   39.30    5.20
   3   4  -3   48.60    4.70
   3   4  -3   56.99    7.80
   3   4  -3   36.80    3.80
   3   4  -3   43.90    4.50
  -3  -3   3 1825.52   71.99
  -3  -3   3 1773.62   72.09
  -3  -3   3 1802.92   71.49
   3   3  -3 1856.51   70.79
   3   3  -3 1786.82   75.69
   3   3  -3 1797.82   70.99
  -3  -2   3 2188.38   87.79
  -3  -2   3 2300.37   88.89
  -3  -2   3 2288.67   89.59
   3   2  -3 2239.08   87.49
   3   2  -3 2280.17   92.09
   3   2  -3 2193.28   87.09
  -3  -1   3  585.14   26.20
  -3  -1   3  574.54   25.40
   3   1  -3  608.44   29.50
   3   1  -3  595.84   25.50
  -3   0   3  755.92   33.60
  -3   0   3  852.91   32.90
  -3   0   3  783.92   34.40
   3   0  -3  758.82   32.90
   3   0  -3  800.22   37.20
  -3   1   3  786.12   33.80
  -3   1   3  783.82   32.10
  -3   1   3  774.32   34.50
  -3   1   3  750.22   34.20
   3  -1  -3  781.12   37.60
   3  -1  -3  845.92   34.20
  -3   2   3   70.69    6.70
  -3   2   3   60.69    4.40
  -3   2   3   70.59    7.50
  -3   2   3   66.79    7.40
   3  -2  -3   56.29    8.40
  -3   3   3  328.57   17.00
  -3   3   3  343.47   19.90
  -3   3   3  331.97   17.90
  -3   3   3  309.17   16.30
   3  -3  -3  278.87   21.50
  -3   4   3   97.49    8.80
  -3   4   3   96.69    8.10
  -3   4   3   97.99   10.00
  -3   4   3   93.39    8.00
   3  -4  -3  104.89   12.50
  -3   5   3   24.60    4.90
  -3   5   3   26.70    4.80
  -3   5   3   29.20    5.10
  -3   5   3   22.70    5.90
  -3   6   3  114.59    8.20
  -3   6   3  122.49    8.90
  -3   6   3   94.79    6.80
  -3   7   3   14.40    2.90
  -3   7   3   15.20    4.00
  -2  -8   3  984.40   42.00
   2   8  -3 1115.49   49.40
   2   8  -3 1019.90   42.90
  -2  -7   3  172.28   10.40
   2   7  -3  157.78    8.00
   2   7  -3  176.78   19.50
   2   7  -3  174.48   10.90
   2   7  -3  158.38   11.70
  -2  -6   3    2.30    2.50
   2   6  -3    2.20    1.50
   2   6  -3   -0.20    4.20
   2   6  -3    3.10    3.00
   2   6  -3   -6.30    4.10
   2   6  -3    4.10    2.30
  -2  -5   3  216.88   12.20
   2   5  -3  232.78   15.10
   2   5  -3  230.18   11.40
   2   5  -3  219.58   15.00
   2   5  -3  233.88   12.70
   2   5  -3  222.18   17.60
  -2  -4   3  940.61   40.20
   2   4  -3  942.21   42.40
   2   4  -3  934.51   38.60
   2   4  -3  975.60   42.00
   2   4  -3  953.30   45.60
   2   4  -3  909.51   42.90
   2   4  -3 1032.20   41.20
  -2  -3   3  246.58   13.10
  -2  -3   3  249.78   12.90
   2   3  -3  250.07   15.40
   2   3  -3  255.67   12.10
   2   3  -3  266.77   13.60
   2   3  -3  233.98   12.00
  -2  -2   3  820.22   34.80
   2   2  -3  843.02   37.50
  -2  -1   3  882.81   36.90
  -2  -1   3  872.11   38.00
   2   1  -3  904.61   39.30
  -2   0   3 1433.26   59.19
  -2   0   3 1570.74   60.89
   2   0  -3 1575.84   63.29
  -2   1   3 2841.82  110.09
   2  -1  -3 2828.12  112.49
  -2   2   3  444.06   21.20
  -2   2   3  445.36   21.00
   2  -2  -3  476.45   23.60
  -2   3   3  985.30   42.90
  -2   3   3 1020.20   42.00
  -2   3   3 1036.00   42.50
  -2   3   3  979.10   39.10
   2  -3  -3 1001.90   45.00
  -2   4   3  601.64   27.20
  -2   4   3  568.04   27.40
  -2   4   3  586.34   26.50
   2  -4  -3  557.24   28.70
  -2   5   3  341.07   19.30
  -2   5   3  353.16   18.80
  -2   5   3  341.77   20.50
  -2   5   3  345.27   17.90
  -2   6   3  316.27   16.30
  -2   6   3  319.87   17.50
  -2   6   3  294.57   16.90
  -2   6   3  289.07   17.70
  -2   7   3  174.38   10.90
  -2   7   3  157.38   10.00
  -2   7   3  148.39    9.60
   1   8  -3   14.40    7.10
   1   8  -3   13.90    3.60
  -1  -7   3 1123.59   45.70
   1   7  -3 1155.18   46.60
   1   7  -3 1061.59   49.20
   1   7  -3  991.60   55.99
   1   7  -3 1174.08   47.20
  -1  -6   3   29.80    4.60
   1   6  -3   31.60    4.90
   1   6  -3   27.40    4.70
   1   6  -3   27.30    7.20
   1   6  -3   30.80    6.70
   1   6  -3   31.40    3.30
   1   6  -3   36.70   11.00
  -1  -5   3 1016.60   43.40
  -1  -5   3  998.30   42.70
   1   5  -3 1051.59   43.30
   1   5  -3 1046.00   47.50
   1   5  -3 1044.40   49.00
   1   5  -3 1077.39   50.49
  -1  -4   3 2236.98   78.79
  -1  -4   3 1770.82   75.49
   1   4  -3 1805.02   79.09
   1   4  -3 1813.52   78.59
   1   4  -3 2052.29   77.39
   1   4  -3 1895.31   81.69
   1   4  -3 1892.41   74.29
  -1  -3   3  729.83   31.90
   1   3  -3  765.72   34.70
   1   3  -3  791.62   33.70
  -1  -2   3  661.73   28.40
   1   2  -3  651.53   29.90
  -1  -1   3 1578.84   62.99
   1   1  -3 1629.94   64.99
  -1   0   3 2368.76   91.49
   1   0  -3 2414.06   94.19
  -1   1   3  399.56   18.80
  -1   1   3  407.96   16.20
   1  -1  -3  430.56   20.00
  -1   2   3 2156.48   85.99
   1  -2  -3 2326.47   88.89
  -1   3   3  216.48   11.90
  -1   3   3  220.78   12.10
  -1   3   3  220.98   11.90
   1  -3  -3  233.08   13.10
  -1   4   3  613.24   26.60
  -1   4   3  632.54   27.10
  -1   4   3  580.94   27.10
  -1   4   3  495.35   29.20
  -1   4   3  640.74   28.10
   1  -4  -3  575.74   27.30
  -1   5   3  171.78   12.00
  -1   5   3  188.38   11.80
  -1   5   3  178.88   13.10
  -1   5   3  177.68   11.20
  -1   5   3  177.18   13.40
  -1   6   3  651.53   28.90
  -1   6   3  589.44   28.90
  -1   6   3  588.54   29.80
  -1   6   3  659.03   29.60
  -1   7   3    6.00    2.60
  -1   7   3   -0.90    2.60
  -1   7   3    1.60    2.80
  -1   8   3  104.09    7.40
  -1   8   3   95.59    7.10
   0   8  -3  165.88   10.00
   0   8  -3  153.98   10.50
   0   7  -3    7.40    3.20
   0   7  -3   13.40   16.80
   0   7  -3    8.50    3.40
   0  -6   3 3564.04  145.09
   0   6  -3 3689.93  148.99
   0   6  -3 3714.33  143.29
   0   6  -3 3808.32  144.09
   0  -5   3   30.90    4.10
   0  -5   3   12.80    2.90
   0  -5   3   13.80    4.60
   0   5  -3   20.30    2.50
   0   5  -3   19.50    6.50
   0   5  -3   15.60    5.40
   0   5  -3   12.50   15.00
   0   5  -3   16.70    3.50
   0  -4   3  587.24   26.10
   0  -4   3  590.64   31.50
   0   4  -3  612.84   31.00
   0   4  -3  585.94   26.20
   0   4  -3  634.44   32.30
   0   4  -3  591.34   24.50
   0   4  -3  592.64   29.70
   0  -3   3   46.10    4.70
   0   3  -3   59.69    7.40
   0   3  -3   56.59    6.40
   0  -2   3  147.49    8.70
   0   2  -3  154.18    9.90
   0   2  -3  174.68   11.00
   0   1  -3 1859.21   74.09
   0   0   3 4361.86  168.88
   0   0  -3 4536.35  170.28
   0   1   3  132.09    6.40
   0  -1  -3  138.69    8.30
   0   2   3  303.97   14.30
   0  -2  -3  305.67   14.90
   0   3   3   39.00    4.60
   0  -3  -3   36.40    4.00
   0   4   3 2339.77   91.79
   0   4   3 2281.67   91.29
   0   4   3 2352.36   93.19
   0  -4  -3 2369.76   90.89
   0   5   3 1477.55   57.89
   0   5   3 1390.86   57.59
   0   5   3 1356.56   58.89
   0   5   3 1381.86   56.99
   0   5   3 1351.26   55.69
   0   5   3 1447.86   60.39
   0   6   3  175.78   14.10
   0   6   3  166.88   10.90
   0   6   3  170.28   11.70
   0   6   3  163.88   10.90
   0   6   3  172.18   11.70
   0   7   3  133.29   11.40
   0   7   3  111.19   11.30
   0   7   3  101.19    8.70
   0   7   3   81.79   11.80
   0   8   3 1210.28   49.80
   0   8   3 1176.98   49.80
   0   9   3   22.00    3.00
  -1   8  -3  135.39    8.90
  -1   8  -3  119.59    9.30
  -1   8  -3  140.39    8.30
  -1   7  -3   19.30    3.60
  -1   7  -3   19.60    4.20
  -1   7  -3   10.10   13.70
  -1   6  -3   49.00    6.40
  -1   6  -3   54.89    6.40
  -1   6  -3   51.29   12.50
  -1   6  -3   50.99    9.70
   1  -5   3 3679.83  145.19
  -1   5  -3 3919.51  146.39
  -1   5  -3 3837.82  154.58
  -1   5  -3 3871.81  152.48
  -1   5  -3 3775.42  149.88
  -1   5  -3 3519.15  145.79
  -1   5  -3 3822.92  146.09
  -1   5  -3 3733.53  141.89
   1  -4   3  545.65   29.70
  -1   4  -3  523.75   21.30
  -1   4  -3  495.05   24.20
  -1   4  -3  526.35   23.80
  -1   4  -3  523.45   26.80
   1  -3   3 3063.59  117.39
  -1   3  -3 2720.53  114.59
  -1   3  -3 2888.21  117.09
  -1   3  -3 2923.11  115.29
   1  -2   3  405.56   20.60
  -1   2  -3  383.36   21.10
   1  -1   3  812.02   34.90
  -1   1  -3  796.62   35.30
   1   2   3  756.62   31.00
  -1  -2  -3  770.82   31.20
  -1  -2  -3  767.22   31.50
   1   3   3  338.17   16.90
  -1  -3  -3  345.17   15.10
  -1  -3  -3  335.67   15.60
   1   4   3   11.10    3.60
  -1  -4  -3   10.10    2.10
   1   5   3    2.40    1.80
   1   5   3    2.50    3.00
   1   5   3    2.70    2.60
   1   5   3    1.90    1.60
   1   6   3  100.29   10.80
   1   6   3  115.09    9.00
   1   6   3  113.09    8.80
   1   6   3  107.19   10.80
   1   6   3  110.39    8.20
   1   7   3  163.18   11.10
   1   7   3  161.18   18.20
   1   7   3  175.68   12.00
   1   8   3  741.73   32.70
   1   8   3  750.02   32.90
   1   8   3  681.23   37.80
   1   8   3  722.43   35.40
   1   9   3  293.37   14.70
   1   9   3  294.07   15.10
  -2   7  -3  232.98   14.40
  -2   7  -3  237.28   30.70
  -2   7  -3  205.48   12.00
  -2   6  -3   60.99    6.90
  -2   6  -3   78.89   11.00
  -2   6  -3   57.99    6.00
  -2   6  -3   57.69   10.40
  -2   5  -3  636.34   28.60
  -2   5  -3  589.74   28.80
  -2   5  -3  613.74   35.70
  -2   5  -3  640.94   28.80
  -2   5  -3  624.84   31.90
   2  -4   3    2.30    2.90
  -2   4  -3   -0.20    4.10
  -2   4  -3    0.40    1.00
  -2   4  -3    0.40    2.90
  -2   4  -3    0.10    1.40
  -2   4  -3    1.50    2.20
   2  -3   3  189.98   14.30
  -2   3  -3  175.48   10.40
  -2   3  -3  168.38   12.60
  -2   3  -3  184.08   14.50
  -2   3  -3  174.58   10.80
  -2   3  -3  170.18    8.20
   2  -2   3  577.34   28.90
  -2   2  -3  599.84   29.40
   2  -1   3  443.66   22.20
  -2   1  -3  443.26   22.30
   2   1   3  571.44   25.00
  -2  -1  -3  533.45   30.60
  -2  -1  -3  558.34   23.70
   2   2   3   24.60    3.60
  -2  -2  -3   27.30    3.80
  -2  -2  -3   36.20    2.80
   2   3   3 4567.94  176.58
  -2  -3  -3 4763.22  179.38
   2   4   3  127.39    9.40
   2   5   3  555.24   27.40
   2   5   3  520.55   24.10
   2   5   3  538.35   22.20
   2   6   3 1027.70   44.30
   2   6   3 1057.69   44.10
   2   6   3 1072.39   48.90
   2   6   3 1039.10   41.00
   2   6   3 1040.50   44.10
   2   7   3  469.55   22.60
   2   7   3  452.65   27.90
   2   7   3  447.06   22.70
   2   7   3  459.65   27.40
   2   8   3  196.58   16.20
   2   8   3  177.78   11.80
   2   8   3  185.18   11.70
   2   8   3  161.28   17.20
   2   9   3   93.39   12.30
   2   9   3  114.99    8.50
   2   9   3  113.09    8.50
  -3   7  -3  176.28    9.70
  -3   7  -3  174.68   17.20
  -3   7  -3  162.48    8.40
  -3   6  -3  474.65   22.30
  -3   6  -3  443.16   21.00
  -3   6  -3  467.55   24.90
  -3   6  -3  451.25   23.70
  -3   5  -3  353.16   24.70
  -3   5  -3  266.17   18.80
  -3   5  -3  358.46   21.80
  -3   5  -3  347.97   17.80
  -3   4  -3  523.95   30.80
  -3   4  -3  503.05   27.30
  -3   4  -3  488.45   23.80
  -3   4  -3  478.15   24.20
  -3   4  -3  499.35   23.20
   3  -3   3 1309.07   61.19
  -3   3  -3 1330.57   55.09
  -3   3  -3 1319.67   57.49
  -3   3  -3 1366.56   54.69
  -3   3  -3 1329.97   61.09
  -3   3  -3 1318.47   51.19
   3  -2   3 2010.30   85.19
  -3   2  -3 1998.60   80.29
  -3   2  -3 2112.29   85.19
  -3   2  -3 1962.70   82.19
  -3   2  -3 2020.50   79.59
   3  -1   3  171.48   12.60
  -3   1  -3  181.28   12.70
   3   0   3 1095.39   47.00
  -3   0  -3 1082.49   45.80
   3   1   3   77.39    7.20
  -3  -1  -3   68.49    5.70
   3   2   3    4.70    2.60
  -3  -2  -3    4.20    1.30
   3   3   3 1508.35   62.29
   3   4   3    1.30    2.00
   3   5   3  311.87   18.80
   3   5   3  299.27   15.30
   3   5   3  335.37   16.60
   3   6   3 2161.38   91.19
   3   6   3 2222.48   86.09
   3   6   3 2230.68   86.49
   3   6   3 2214.38   83.69
  -3  -6  -3 2035.20   85.49
   3   7   3  255.47   11.30
   3   7   3  255.47   14.00
   3   7   3  243.68   18.50
   3   7   3  236.38   17.90
  -3  -7  -3  228.68   13.20
   3   8   3  460.35   23.00
   3   8   3  445.86   27.60
   3   8   3  477.75   22.70
   3   8   3  435.16   28.60
   3   9   3 1210.68   49.60
   3   9   3 1160.08   50.39
   3   9   3 1187.68   49.10
   3  10   3  282.17   13.60
   3  10   3  287.57   14.40
  -4   6  -3   20.80    3.30
  -4   6  -3   26.70    7.00
  -4   6  -3   26.80    7.70
  -4   5  -3   33.50    7.40
  -4   5  -3   18.30    4.10
  -4   5  -3   18.10    3.80
  -4   5  -3   24.60    5.70
  -4   4  -3  381.06   19.60
  -4   4  -3  369.76   20.00
  -4   4  -3  359.46   25.50
  -4   4  -3  364.36   22.10
  -4   3  -3  769.72   33.30
  -4   3  -3  754.72   39.90
  -4   3  -3  740.73   36.40
  -4   3  -3  741.03   33.70
  -4   3  -3  718.83   31.80
   4  -2   3   59.79    8.60
  -4   2  -3   72.99    8.60
  -4   2  -3   71.99    4.50
  -4   2  -3   73.49   11.90
  -4   2  -3   71.69    7.20
   4  -1   3  317.07   20.10
  -4   1  -3  328.57   14.50
  -4   1  -3  331.87   19.90
  -4   1  -3  302.37   17.80
  -4   1  -3  338.07   17.10
   4   0   3 1720.33   72.59
  -4   0  -3 1727.13   71.09
   4   1   3  225.48   14.50
  -4  -1  -3  224.48   12.80
   4   2   3 2579.04  103.79
   4   3   3 1530.45   64.69
   4   4   3   16.90    2.60
   4   4   3   11.50    1.90
   4   5   3  247.18   16.20
   4   5   3  230.08   11.60
   4   5   3  238.08   12.80
  -4  -5  -3  237.78   12.90
   4   6   3  576.04   24.80
   4   6   3  602.74   27.10
   4   6   3  576.14   31.00
   4   6   3  572.24   25.90
  -4  -6  -3  579.84   26.40
   4   7   3  102.89   12.00
   4   7   3  108.29    8.10
   4   7   3   90.29   11.30
   4   7   3   98.49    6.30
  -4  -7  -3   92.99    7.90
   4   8   3  122.59   12.30
   4   8   3  140.89    9.60
   4   8   3  137.19   10.00
   4   8   3  139.99    7.00
   4   8   3  139.99   14.00
  -4  -8  -3  138.49    9.00
   4   9   3   14.80    5.20
   4   9   3   15.10    3.30
   4   9   3   16.50    3.70
  -4  -9  -3   21.60    3.20
   4  10   3    9.10    2.00
   4  10   3    4.70    1.90
  -5   5  -3  619.34   31.50
  -5   5  -3  724.83   34.10
  -5   5  -3  663.33   29.10
  -5   4  -3  312.27   19.90
  -5   4  -3  312.57   16.70
  -5   4  -3  304.77   17.10
  -5   3  -3  413.06   27.60
  -5   3  -3  432.96   24.40
  -5   3  -3  409.86   22.40
  -5   3  -3  460.15   22.10
  -5   2  -3  157.58   15.70
  -5   2  -3  185.28   12.40
  -5   2  -3  184.18    8.50
  -5   2  -3  181.88   11.70
  -5   2  -3  175.98   14.00
   5  -1   3 1097.99   47.00
   5  -1   3 1133.69   54.59
  -5   1  -3 1155.58   48.90
  -5   1  -3 1172.78   53.79
  -5   1  -3 1178.28   50.89
  -5   1  -3 1197.98   45.90
   5   0   3  156.08   13.50
   5   0   3  152.38    9.30
  -5   0  -3  176.08    9.10
  -5   0  -3  172.58   10.70
  -5   0  -3  190.08   13.60
   5   1   3  358.76   21.50
   5   1   3  351.16   16.80
  -5  -1  -3  369.16   16.50
  -5  -1  -3  345.37   19.10
  -5  -1  -3  368.36   18.00
   5   2   3 4475.55  177.18
   5   2   3 4217.78  165.78
  -5  -2  -3 4410.36  165.68
  -5  -2  -3 4298.77  165.78
   5   3   3 1024.20   46.10
   5   3   3  939.01   39.60
  -5  -3  -3  976.10   40.00
   5   4   3  177.08    9.50
   5   4   3  180.78   10.00
  -5  -4  -3  179.88   10.20
  -5  -4  -3  176.88   10.50
   5   5   3   82.49    8.70
   5   5   3   73.89    5.80
   5   5   3   70.89    6.50
   5   5   3   71.99    5.40
  -5  -5  -3   61.09    7.10
  -5  -5  -3   78.79    6.60
   5   6   3  379.86   18.70
   5   6   3  373.26   17.10
   5   6   3  349.37   16.50
   5   6   3  347.07   17.30
   5   6   3  355.66   22.60
  -5  -6  -3  384.06   18.60
   5   7   3    0.20    3.60
   5   7   3    1.80    2.00
   5   7   3    6.90    2.50
   5   7   3    6.20    3.40
  -5  -7  -3    2.40    2.50
   5   8   3 1949.41   80.19
   5   8   3 2013.90   88.69
   5   8   3 2067.19   78.69
   5   8   3 2082.99   81.39
  -5  -8  -3 2044.70   81.09
   5   9   3  143.09    9.60
   5   9   3  139.89    9.90
   5   9   3  124.79    9.80
  -5  -9  -3  156.18    9.10
   5  10   3    8.00    2.70
   5  10   3   15.20    2.20
  -5 -10  -3    7.70    2.40
  -6   4  -3   23.70    5.00
  -6   4  -3   23.70    4.10
  -6   4  -3   28.40    5.30
  -6   3  -3  276.97   22.30
  -6   3  -3  306.57   18.90
  -6   3  -3  319.17   16.80
  -6   3  -3  314.37   17.60
  -6   2  -3  235.98   14.70
  -6   2  -3  237.08   16.30
  -6   2  -3  240.48   14.40
  -6   2  -3  240.58   19.00
   6  -1   3  501.15   23.40
  -6   1  -3  480.05   29.50
  -6   1  -3  524.65   27.30
  -6   1  -3  529.65   21.80
  -6   1  -3  525.75   25.60
   6   0   3  652.43   29.30
   6   0   3  661.33   37.00
  -6   0  -3  709.03   28.40
  -6   0  -3  680.53   31.10
  -6   0  -3  645.24   34.50
   6   1   3  230.98   17.40
   6   1   3  207.18   11.80
  -6  -1  -3  224.98   13.10
  -6  -1  -3  210.08   14.80
  -6  -1  -3  206.38   13.60
  -6  -1  -3  214.48   11.40
   6   2   3    3.60    2.30
   6   2   3    3.10    2.30
   6   2   3    4.70    2.30
  -6  -2  -3    6.00    2.20
  -6  -2  -3    4.80    1.80
  -6  -2  -3    5.70    2.50
   6   3   3  634.74   34.10
   6   3   3  609.74   26.70
   6   3   3  635.34   30.80
   6   3   3  619.34   27.10
  -6  -3  -3  593.24   26.80
  -6  -3  -3  600.24   26.80
   6   4   3 1054.39   43.70
   6   4   3 1025.70   43.10
  -6  -4  -3 1097.79   44.20
  -6  -4  -3 1042.70   43.70
   6   5   3  870.71   37.20
   6   5   3  948.31   43.20
   6   5   3  914.51   37.20
  -6  -5  -3  857.11   37.70
  -6  -5  -3  865.01   38.10
   6   6   3   56.69    5.30
   6   6   3   48.90    8.80
   6   6   3   59.99    5.30
  -6  -6  -3   56.29    5.80
  -6  -6  -3   63.39    6.70
   6   7   3  464.85   21.00
   6   7   3  462.45   27.80
  -6  -7  -3  447.16   22.30
   6   8   3  389.96   17.40
   6   8   3  359.16   23.70
  -6  -8  -3  383.36   19.00
   6   9   3  667.63   26.60
  -6  -9  -3  655.33   28.50
  -7   3  -3  700.23   32.70
  -7   3  -3  709.83   30.50
  -7   3  -3  725.93   35.50
  -7   2  -3    3.40    2.40
  -7   2  -3    1.80    3.60
  -7   2  -3   -2.00    2.90
   7  -1   3  115.79    8.20
  -7   1  -3  126.99   10.80
  -7   1  -3  120.89    6.00
  -7   1  -3  131.19    9.80
  -7   1  -3  129.19   10.30
   7   0   3   -4.40    4.20
   7   0   3    1.60    2.10
  -7   0  -3    8.00    4.10
  -7   0  -3    1.40    1.70
  -7   0  -3    8.00    3.30
   7   1   3  298.77   21.90
   7   1   3  277.57   15.00
  -7  -1  -3  275.77   16.00
  -7  -1  -3  291.87   14.20
  -7  -1  -3  274.47   16.60
   7   2   3  156.88   10.20
   7   2   3  153.88   14.30
  -7  -2  -3  162.18   10.80
  -7  -2  -3  160.68    9.50
   7   3   3   16.70    3.80
   7   3   3   16.30    3.00
   7   3   3    4.90    5.50
  -7  -3  -3   19.00    3.50
  -7  -3  -3   13.10    3.40
   7   4   3  303.37   19.20
   7   4   3  285.07   15.30
   7   4   3  293.97   15.70
  -7  -4  -3  313.07   15.90
  -7  -4  -3  313.37   15.90
   7   5   3  241.98   12.70
   7   5   3  220.48   16.60
   7   5   3  216.48   12.30
  -7  -5  -3  210.78   12.50
  -7  -5  -3  227.28   12.90
   7   6   3  635.84   27.70
   7   6   3  640.24   33.40
   7   6   3  642.74   27.40
  -7  -6  -3  597.24   28.50
  -7  -6  -3  619.54   28.10
   7   7   3  720.33   30.30
  -7  -7  -3  717.23   31.40
  -7  -7  -3  664.53   30.50
   7   8   3  338.77   15.80
  -7  -8  -3  343.47   17.10
   7   9   3   69.69    4.50
  -7  -9  -3   74.49    5.60
  -8   2  -3    1.80    2.50
  -8   2  -3   10.00    2.30
  -8   2  -3    8.80    5.00
   8  -1   3 1223.08   54.49
  -8   1  -3 1330.27   53.39
  -8   1  -3 1328.87   55.49
  -8   1  -3 1339.17   54.19
   8   0   3  403.06   19.00
  -8   0  -3  399.26   20.80
  -8   0  -3  403.86   20.10
  -8   0  -3  389.36   16.60
   8   1   3   25.40    4.10
  -8  -1  -3   30.50    3.80
  -8  -1  -3   20.30    4.30
  -8  -1  -3   22.80    4.50
   8   2   3  754.82   32.70
  -8  -2  -3  705.13   32.40
  -8  -2  -3  779.72   31.90
   8   3   3  304.57   15.60
   8   3   3  311.97   16.50
  -8  -3  -3  303.97   16.10
   8   4   3    5.00    2.50
   8   4   3    6.80    2.90
  -8  -4  -3    8.60    2.50
  -8  -4  -3    3.60    2.60
   8   5   3    4.60    2.60
   8   5   3    2.50    1.80
  -8  -5  -3    3.10    2.60
  -8  -5  -3    7.30    3.00
   8   6   3 2106.09   82.89
   8   6   3 2157.38   83.29
  -8  -6  -3 2092.09   83.49
  -8  -6  -3 2107.09   83.79
   8   7   3   28.20    3.00
   8   7   3   26.40    3.90
  -8  -7  -3   29.20    4.90
  -8  -7  -3   26.80    4.30
   8   8   3   14.20    4.30
  -8  -8  -3    9.50    3.10
   8   9   3   89.89    5.00
   9   0   3   68.69    5.80
  -9   0  -3   48.80    4.40
  -9   0  -3   45.90    4.40
   9   1   3    3.40    2.20
  -9  -1  -3    8.80    2.80
  -9  -1  -3    5.00    1.50
   9   2   3  241.08   12.60
  -9  -2  -3  230.28   11.40
   9   3   3  185.68   11.10
  -9  -3  -3  189.28   10.40
   9   4   3   91.49    7.20
   9   4   3   84.69    6.80
  -9  -4  -3   87.89    6.40
   9   5   3  253.87   13.70
   9   5   3  304.17   16.70
  -9  -5  -3  259.17   13.80
  -9  -5  -3  273.07   14.30
   9   6   3  133.99    8.10
   9   6   3  102.29    8.50
  -9  -6  -3  144.29    9.50
  -9  -6  -3  108.29    7.50
   9   7   3   85.79    5.40
   9   7   3  105.69    6.50
  -9  -7  -3  109.99    6.70
  -9  -7  -3  100.09    6.50
  10   3   3    0.70    1.40
 -10  -3  -3    0.00    1.40
  10   4   3  120.39    7.50
 -10  -4  -3  148.99    7.20
  10   5   3    6.20    1.70
  10   5   3    7.20    1.60
 -10  -5  -3    7.70    2.20
  -7  -4   4   65.59    5.50
  -7  -4   4   86.99    5.50
   7   4  -4   73.59    5.30
   7   4  -4   92.89    5.70
  -7  -3   4   34.10    3.90
  -7  -3   4   36.10    5.80
   7   3  -4   26.50    3.40
  -7  -2   4    1.60    3.00
  -7  -2   4    0.10    1.10
   7   2  -4    1.00    1.80
  -7  -1   4   49.80    5.80
  -7  -1   4   43.60    3.50
   7   1  -4   53.39    4.90
   7   0  -4   94.09    7.00
  -6  -6   4  165.18   10.50
  -6  -6   4  173.58    9.20
   6   6  -4  178.58    9.00
  -6  -5   4   41.30    5.80
  -6  -5   4   50.59    5.00
   6   5  -4   39.70    4.00
   6   5  -4   52.09    4.20
  -6  -4   4 1102.49   44.30
  -6  -4   4 1095.49   44.80
   6   4  -4 1083.29   44.30
   6   4  -4 1091.19   44.50
  -6  -3   4    4.10    3.50
  -6  -3   4    2.70    1.90
   6   3  -4    1.20    2.40
   6   3  -4    0.70    2.00
  -6  -2   4   76.29    6.00
   6   2  -4   72.99    6.10
   6   2  -4   85.09    6.80
  -6  -1   4 1656.63   67.99
  -6  -1   4 1654.83   66.39
   6   1  -4 1744.23   67.39
  -6   0   4    3.20    2.40
  -6   0   4    5.40    2.10
  -6   0   4    6.20    3.10
  -6   0   4   -0.40    2.90
   6   0  -4    3.20    2.40
  -6   1   4  126.09    8.50
  -6   1   4  125.69    8.50
  -6   1   4  128.29   10.70
   6  -1  -4  129.59    7.90
  -6   2   4   55.69    5.50
  -6   2   4   49.80    5.50
  -6   2   4   59.79    6.80
   6  -2  -4   53.39    4.30
  -5  -7   4   21.80    3.30
   5   7  -4   23.30    2.50
  -5  -6   4   94.19    7.50
  -5  -6   4   94.59    6.60
   5   6  -4   89.39    6.30
  -5  -5   4  268.27   14.30
  -5  -5   4  251.77   13.70
   5   5  -4  248.98   12.70
   5   5  -4  252.57   13.10
  -5  -4   4  532.75   23.90
  -5  -4   4  527.15   24.30
  -5  -4   4  486.95   24.80
   5   4  -4  527.75   23.30
   5   4  -4  506.35   23.30
  -5  -3   4    2.70    2.00
  -5  -3   4    5.40    3.20
  -5  -3   4    2.00    2.00
   5   3  -4    4.20    3.00
   5   3  -4    4.30    2.20
  -5  -2   4   -2.50    3.20
  -5  -2   4    0.80    1.90
  -5  -2   4   -0.20    2.10
   5   2  -4    1.50    1.50
   5   2  -4    0.40    1.70
  -5  -1   4   16.50    3.20
  -5  -1   4   12.50    2.70
  -5  -1   4   14.50    3.90
   5   1  -4   15.20    3.70
  -5   0   4  290.27   16.90
  -5   0   4  260.17   18.50
  -5   0   4  366.06   17.80
   5   0  -4  367.96   16.90
  -5   1   4  298.57   14.00
  -5   1   4  296.47   16.70
  -5   1   4  323.87   17.00
   5  -1  -4  299.67   15.30
  -5   2   4  204.18   13.00
  -5   2   4  202.18   13.20
  -5   2   4  230.18   16.30
   5  -2  -4  212.38   11.30
  -5   3   4  289.37   17.60
  -5   3   4  284.97   15.40
  -5   3   4  282.07   15.70
  -5   4   4  426.66   18.90
  -5   4   4  419.06   20.80
  -5   4   4  376.96   19.20
  -4  -7   4  362.86   22.90
   4   7  -4  434.26   19.40
   4   7  -4  527.55   22.00
  -4  -6   4  240.48   13.20
   4   6  -4  223.38   11.70
   4   6  -4  218.08   12.10
  -4  -5   4  727.83   31.80
  -4  -5   4  702.53   30.70
  -4  -5   4  710.63   31.50
   4   5  -4  719.13   30.00
   4   5  -4  688.53   38.50
   4   5  -4  657.53   29.20
  -4  -4   4 1424.06   59.29
  -4  -4   4 1428.26   58.59
  -4  -4   4 1505.05   58.29
   4   4  -4 1450.15   57.29
   4   4  -4 1434.06   57.39
   4   4  -4 1261.87   67.89
  -4  -3   4   33.50    6.00
  -4  -3   4   41.30    4.70
  -4  -3   4   38.00    4.70
   4   3  -4   35.30    4.80
   4   3  -4   39.60    7.50
   4   3  -4   37.10    4.60
  -4  -2   4  287.67   15.00
  -4  -2   4  297.67   15.10
  -4  -2   4  292.17   15.40
   4   2  -4  285.67   20.20
   4   2  -4  285.57   14.40
   4   2  -4  276.17   14.70
  -4  -1   4  407.36   19.60
  -4  -1   4  409.36   18.80
  -4  -1   4  351.36   24.50
  -4  -1   4  388.36   18.40
   4   1  -4  419.26   19.30
   4   1  -4  382.76   24.40
   4   1  -4  357.46   18.20
  -4   0   4  402.06   21.90
  -4   0   4  396.96   20.20
  -4   0   4  425.76   20.20
  -4   0   4  378.96   18.40
   4   0  -4  412.06   25.70
   4   0  -4  387.56   19.20
  -4   1   4   14.20    2.90
  -4   1   4   17.30    4.50
  -4   1   4   15.70    4.10
   4  -1  -4   17.40    5.30
   4  -1  -4   15.10    3.00
  -4   2   4  685.73   29.90
  -4   2   4  664.63   30.60
  -4   2   4  628.84   26.10
   4  -2  -4  556.94   36.60
   4  -2  -4  619.14   27.80
  -4   3   4  230.18   16.30
  -4   3   4  227.78   15.00
  -4   3   4  234.58   14.30
  -4   4   4  251.37   16.70
  -4   4   4  242.38   14.10
  -4   4   4  248.08   14.80
  -4   5   4    2.90    2.10
  -4   5   4    8.40    2.80
  -4   5   4    2.70    2.50
  -3  -8   4  118.49    7.10
   3   8  -4  110.79    6.90
  -3  -7   4  206.68   11.50
   3   7  -4  194.28   10.40
   3   7  -4  192.58   11.10
   3   7  -4  195.38    9.60
  -3  -6   4  389.96   18.90
   3   6  -4  359.06   16.60
   3   6  -4  331.27   17.00
   3   6  -4  372.36   18.00
  -3  -5   4   45.30    5.80
  -3  -5   4   48.10    6.30
  -3  -5   4   50.59    5.20
   3   5  -4   37.40    9.50
   3   5  -4   48.00    4.50
   3   5  -4   51.69    4.80
   3   5  -4   51.99    5.00
  -3  -4   4  590.34   26.60
  -3  -4   4  621.84   27.70
  -3  -4   4  533.15   28.30
   3   4  -4  587.54   25.70
   3   4  -4  623.74   26.00
   3   4  -4  579.54   32.30
  -3  -3   4    0.90    2.90
  -3  -3   4    0.50    2.00
  -3  -3   4    2.90    2.20
   3   3  -4   -1.40    1.00
   3   3  -4    5.20    2.20
  -3  -2   4  184.78   11.20
  -3  -2   4  187.38   10.80
  -3  -2   4  193.88   12.40
  -3  -2   4  206.68   11.20
   3   2  -4  187.28   14.70
   3   2  -4  202.08   10.60
   3   2  -4  179.98   10.70
  -3  -1   4  412.26   19.70
  -3  -1   4  399.06   19.20
  -3  -1   4  422.46   21.00
  -3  -1   4  413.36   19.10
   3   1  -4  443.56   24.60
   3   1  -4  413.06   19.40
   3   1  -4  403.66   18.90
  -3   0   4   67.89    7.30
  -3   0   4   61.59    6.10
  -3   0   4   62.79    5.10
  -3   0   4   59.69    5.00
   3   0  -4   60.99    5.60
   3   0  -4   66.69    9.30
  -3   1   4  255.57   15.30
  -3   1   4  271.97   14.70
  -3   1   4  279.47   13.30
  -3   1   4  272.67   15.90
   3  -1  -4  299.37   19.10
   3  -1  -4  255.67   13.80
  -3   2   4   13.30    2.40
  -3   2   4   12.50    4.10
  -3   2   4    9.00    3.40
  -3   2   4   19.00    3.40
   3  -2  -4   15.00    5.40
   3  -2  -4   12.60    2.90
  -3   3   4 2241.58   94.89
  -3   3   4 2519.35   96.99
  -3   3   4 2549.44   98.09
  -3   3   4 2418.56   92.29
  -3   4   4  392.46   19.70
  -3   4   4  474.25   29.80
  -3   5   4  310.07   16.60
  -3   5   4  393.86   20.10
  -3   5   4  367.46   18.80
  -3   5   4  388.46   20.90
  -3   6   4  896.61   37.50
  -3   6   4  864.81   36.90
  -3   6   4  845.82   39.80
  -2  -8   4   15.60    2.50
   2   8  -4   13.60    5.20
   2   8  -4   18.30    3.00
  -2  -7   4   60.39    5.40
   2   7  -4   60.59    4.10
   2   7  -4   71.49    8.40
   2   7  -4   67.29    6.00
  -2  -6   4 1628.64   65.29
   2   6  -4 1680.03   62.99
   2   6  -4 1560.54   64.49
   2   6  -4 1534.85   73.29
  -2  -5   4  170.68   10.70
  -2  -5   4  159.48   10.20
   2   5  -4  141.59   14.70
   2   5  -4  156.58    9.90
   2   5  -4  155.18    9.10
  -2  -4   4  192.88   12.10
  -2  -4   4  210.48   12.00
  -2  -4   4  209.18   12.60
   2   4  -4  218.18   11.10
   2   4  -4  215.88   17.80
   2   4  -4  212.88   11.60
   2   4  -4  211.88   10.90
  -2  -3   4 2487.15   98.39
  -2  -3   4 2496.95   98.69
  -2  -3   4 2511.15   97.79
   2   3  -4 2520.95   97.09
   2   3  -4 2491.85  102.99
   2   3  -4 2513.25   96.89
  -2  -2   4  463.45   21.70
  -2  -2   4  482.85   22.50
  -2  -2   4  478.25   21.30
   2   2  -4  458.45   25.20
   2   2  -4  471.55   20.70
   2   2  -4  469.85   21.00
  -2  -1   4  229.08   12.20
  -2  -1   4  208.78   12.10
   2   1  -4  195.18   11.00
   2   1  -4  220.58   14.90
  -2   0   4  650.93   27.80
  -2   0   4  642.54   29.00
  -2   0   4  646.94   27.50
   2   0  -4  688.53   32.30
   2   0  -4  639.74   27.80
  -2   1   4  228.18   12.40
  -2   1   4  243.28   13.50
  -2   1   4  246.88   13.80
  -2   1   4  232.28   11.50
   2  -1  -4  228.28   15.50
   2  -1  -4  215.18   11.70
  -2   2   4   46.00    6.30
  -2   2   4   46.10    5.50
  -2   2   4   42.10    4.80
  -2   2   4   46.70    4.10
   2  -2  -4   45.20    7.30
   2  -2  -4   48.20    4.50
  -2   3   4  684.43   28.30
  -2   3   4  743.53   33.20
  -2   3   4  674.13   30.90
   2  -3  -4  697.03   34.60
  -2   4   4  363.16   18.60
  -2   4   4  352.76   18.80
  -2   4   4  372.06   21.40
  -2   4   4  347.67   19.70
   2  -4  -4  322.07   21.30
  -2   5   4   61.99    6.70
  -2   5   4   68.99    8.00
  -2   5   4   49.20   11.10
  -2   6   4  301.17   16.90
  -2   6   4  286.67   15.70
  -2   6   4  292.87   16.90
  -2   6   4  300.57   16.50
  -2   7   4 1253.47   48.40
  -2   7   4 1110.29   47.10
  -2   7   4 1104.39   47.10
   1   8  -4  628.94   28.90
   1   8  -4  578.04   25.80
  -1  -7   4  235.78   15.10
   1   7  -4  215.38   13.20
   1   7  -4  220.38   13.10
  -1  -6   4    1.40    2.20
   1   6  -4   -1.60    2.10
   1   6  -4    0.70    1.70
   1   6  -4  -11.70    5.40
   1   6  -4    5.60    5.10
   1   6  -4    2.60    2.40
  -1  -5   4   79.59    7.30
  -1  -5   4   83.19    7.50
   1   5  -4   82.99    6.90
   1   5  -4   81.99    5.50
   1   5  -4   72.89   12.10
   1   5  -4   95.89   13.40
  -1  -4   4    2.50    2.10
  -1  -4   4    2.90    2.20
  -1  -4   4   -3.40    2.60
   1   4  -4    1.30    1.70
   1   4  -4    1.10    3.00
   1   4  -4    2.70    3.90
   1   4  -4    1.30    1.80
  -1  -3   4  208.18   12.00
  -1  -3   4  197.18   11.60
   1   3  -4  212.88   14.90
   1   3  -4  194.18   10.40
   1   3  -4  210.48   10.50
   1   3  -4  230.38   14.40
  -1  -2   4 1646.74   66.69
  -1  -2   4 1694.03   67.19
   1   2  -4 1563.74   65.69
   1   2  -4 1754.72   70.79
   1   2  -4 1687.53   65.69
   1   2  -4 1753.12   69.89
  -1  -1   4   54.19    5.40
  -1  -1   4   50.49    5.70
   1   1  -4   54.69    6.30
  -1   0   4 1969.80   74.59
  -1   0   4 1902.61   74.89
  -1   0   4 1876.21   75.69
  -1   1   4   54.49    5.40
  -1   2   4   78.19    5.10
  -1   2   4   78.89    6.60
  -1   2   4   88.99    6.90
   1  -2  -4   76.39    7.70
  -1   3   4 6154.18  242.28
  -1   3   4 6324.77  242.38
  -1   3   4 6549.34  240.08
  -1   3   4 6488.35  242.48
   1  -3  -4 6296.97  244.68
  -1   4   4   31.80    2.80
  -1   4   4   32.40    5.90
  -1   4   4   34.40    6.20
  -1   4   4   29.00    4.60
  -1   4   4   34.90    6.90
   1  -4  -4   26.30    4.90
  -1   5   4   37.00    5.30
  -1   5   4   37.20    6.20
  -1   5   4   26.40    5.80
  -1   5   4   31.20    5.50
  -1   6   4 2337.87   92.79
  -1   6   4 2258.77   92.59
  -1   6   4 2311.97   91.69
  -1   7   4    9.80    3.80
  -1   7   4    4.80    3.20
  -1   7   4   11.70    3.10
  -1   8   4   -4.40    2.00
  -1   8   4   -0.10    1.70
  -1   8   4    4.10    3.90
   0   8  -4  323.87   17.80
   0   8  -4  335.07   15.70
   0  -7   4  312.47   15.60
   0   7  -4  352.06   17.40
   0   7  -4  342.87   22.60
   0   7  -4  329.57   16.50
   0  -6   4  316.47   16.80
   0   6  -4  344.97   17.40
   0   6  -4  347.27   24.20
   0   6  -4  357.46   31.80
   0   6  -4  332.57   17.70
   0   6  -4  334.77   14.10
   0  -5   4 1145.99   48.30
   0   5  -4 1117.59   48.00
   0   5  -4 1159.18   45.80
   0   5  -4 1238.78   57.29
   0   5  -4 1137.19   56.29
   0  -4   4  257.57   14.30
   0  -4   4  257.57   14.10
   0  -4   4  255.77   25.90
   0   4  -4  268.57   13.90
   0   4  -4  276.27   20.00
   0   4  -4  247.88   22.00
   0   4  -4  283.87   12.70
   0  -3   4  152.38    9.70
   0  -3   4  155.68   12.70
   0   3  -4  153.08    8.20
   0   3  -4  164.18   13.90
   0   3  -4  152.28   14.80
   0  -2   4 3361.66  132.69
   0  -2   4 3602.64  136.39
   0   2  -4 3458.05  135.69
   0   2  -4 3214.58  131.09
   0   2  -4 3602.34  136.29
   0  -1   4  728.63   32.00
   0  -1   4  722.63   33.40
   0   1  -4  837.92   35.10
   0   0   4  342.27   16.70
   0   0   4  353.16   16.60
   0   0  -4  353.36   18.50
   0   1   4   25.20    3.70
   0   1   4   17.50    2.20
   0  -1  -4   15.80    3.80
   0   2   4  342.67   16.20
   0   2   4  338.87   16.80
   0  -2  -4  355.36   17.90
   0   3   4  327.07   15.70
   0   3   4  297.87   15.00
   0  -3  -4  305.47   16.30
   0   4   4 2592.24   98.59
   0   4   4 2553.44   99.79
   0   4   4 2347.27   96.39
   0   4   4 2523.35   98.29
   0   5   4    3.20    7.70
   0   5   4   24.90    4.80
   0   5   4   26.80    4.50
   0   6   4  451.45   21.90
   0   6   4  416.96   22.20
   0   6   4  442.76   22.50
   0   6   4  438.66   25.30
   0   7   4  133.59    9.40
   0   7   4  131.59    9.50
   0   7   4  135.09   10.00
   0   8   4  137.99    9.20
   0   8   4  129.29    9.00
  -1   7  -4   19.20   16.70
  -1   7  -4   15.30    3.70
  -1   7  -4   14.60    3.10
  -1   6  -4   20.80    4.40
  -1   6  -4   17.20   15.80
  -1   6  -4   17.50    3.90
  -1   6  -4   20.20    7.40
   1  -5   4  472.15   22.20
   1  -5   4  443.36   21.80
  -1   5  -4  466.55   31.00
  -1   5  -4  470.05   29.60
  -1   5  -4  456.35   22.30
  -1   5  -4  468.25   19.10
   1  -4   4    3.20    2.50
   1  -4   4    2.80    2.20
   1  -4   4    6.90    3.90
  -1   4  -4    1.80    5.20
  -1   4  -4   -0.90    9.70
  -1   4  -4   -2.10    4.10
  -1   4  -4    1.60    1.30
  -1   4  -4    0.10    1.30
   1  -3   4   32.60    4.00
   1  -3   4   29.20    5.80
  -1   3  -4   37.70    7.70
  -1   3  -4   35.10    4.30
  -1   3  -4   38.40    5.80
  -1   3  -4   27.40    3.10
  -1   3  -4   37.50    7.90
   1  -2   4  960.10   41.50
  -1   2  -4  888.01   41.40
  -1   2  -4  852.01   35.60
  -1   2  -4  876.51   40.10
   1  -1   4  378.46   19.60
  -1   1  -4  357.86   20.00
   1   0   4  134.79    8.40
   1   0   4  131.49    9.40
  -1   0  -4  137.59    9.90
   1   2   4    6.90    1.60
  -1  -2  -4    5.40    2.40
   1   3   4 1196.08   49.70
  -1  -3  -4 1193.98   48.80
   1   4   4 3686.53  144.49
   1   4   4 3629.44  142.19
   1   4   4 3744.13  142.49
   1   4   4 3650.53  140.29
  -1  -4  -4 3756.02  141.49
   1   5   4  238.18   13.40
   1   5   4  247.28   13.90
   1   5   4  264.57   16.60
   1   5   4  251.37   11.40
   1   6   4   23.20    4.50
   1   6   4   20.50    4.00
   1   6   4   12.40    5.40
   1   6   4   18.10    4.20
   1   6   4    0.20   10.90
   1   7   4    2.10    3.00
   1   7   4    0.80    2.90
   1   7   4   -0.50    4.10
   1   8   4  224.48   13.60
   1   8   4  233.48   13.60
   1   9   4   32.00    3.90
   1   9   4   31.20    3.90
  -2   7  -4  213.08   11.20
  -2   7  -4  222.98   24.10
  -2   7  -4  200.88   10.90
  -2   6  -4 1853.41   74.49
  -2   6  -4 1841.72   80.39
  -2   6  -4 1879.01   74.59
   2  -5   4  143.19   10.20
  -2   5  -4  156.28   15.60
  -2   5  -4  162.38   10.50
  -2   5  -4  163.88   10.70
  -2   5  -4  171.78   21.10
  -2   5  -4  175.08   17.20
   2  -4   4  186.68   11.00
  -2   4  -4  196.28   11.60
  -2   4  -4  170.38   14.90
  -2   4  -4  188.18    8.90
  -2   4  -4  178.68   16.60
  -2   4  -4  180.08   13.90
   2  -3   4  892.31   44.60
  -2   3  -4  910.41   44.10
  -2   3  -4  912.91   37.90
  -2   3  -4  873.31   38.90
  -2   3  -4  867.01   35.60
  -2   3  -4  901.11   41.10
   2  -2   4   15.70    5.90
  -2   2  -4   31.60    5.10
  -2   2  -4   34.60    6.50
  -2   2  -4   28.90    6.70
  -2   2  -4   29.40    3.70
   2  -1   4  643.14   31.50
  -2   1  -4  670.83   31.60
   2   0   4  211.48   13.30
  -2   0  -4  223.08   14.20
   2   1   4 1923.61   76.99
  -2  -1  -4 1919.41   76.09
   2   2   4  444.46   20.60
  -2  -2  -4  414.26   20.90
   2   3   4   17.20    3.00
  -2  -3  -4   20.60    3.40
  -2  -3  -4   20.60    2.50
   2   4   4 2254.67   88.29
   2   4   4 2360.16   92.79
   2   4   4 2278.27   89.89
   2   5   4   31.90    4.70
   2   5   4   36.00    3.40
   2   5   4   36.10    6.70
   2   5   4   41.00    4.80
   2   5   4   45.10    7.50
   2   6   4  249.58   11.40
   2   6   4  258.67   14.70
   2   6   4  239.08   14.30
   2   6   4  262.57   17.00
   2   6   4  248.58   14.20
   2   6   4  239.58   17.70
   2   7   4 4046.10  153.98
   2   7   4 3725.23  152.48
   2   7   4 4109.29  154.48
   2   8   4   52.09    5.90
   2   8   4   36.10    8.40
   2   8   4   48.40    9.20
   2   8   4   48.50    5.90
   2   9   4   44.30    6.20
  -3   6  -4  231.18   12.30
  -3   6  -4  245.08   13.40
  -3   6  -4  254.67   28.90
   3  -5   4  505.25   23.90
  -3   5  -4  482.05   31.10
  -3   5  -4  515.65   24.20
  -3   5  -4  477.05   23.10
  -3   5  -4  509.75   28.70
  -3   5  -4  505.05   27.20
  -3   4  -4   74.59    7.40
  -3   4  -4   72.59    9.60
  -3   4  -4   71.19   12.00
  -3   4  -4   67.49    6.50
  -3   4  -4   76.79    9.60
   3  -3   4  323.37   17.40
   3  -3   4  377.56   25.50
  -3   3  -4  392.06   18.60
  -3   3  -4  374.66   24.40
  -3   3  -4  362.76   21.10
  -3   3  -4  354.66   15.50
   3  -2   4  582.14   27.00
   3  -2   4  651.53   33.90
  -3   2  -4  640.54   32.70
  -3   2  -4  622.44   25.50
  -3   2  -4  616.64   27.40
  -3   2  -4  629.14   28.30
  -3   2  -4  599.14   29.90
   3  -1   4    3.40    2.90
  -3   1  -4    3.80    1.70
  -3   1  -4    3.70    3.50
  -3   1  -4    6.00    2.80
  -3   1  -4    7.40    3.00
   3   0   4 1915.31   78.39
  -3   0  -4 1861.11   76.49
   3   1   4  824.22   37.00
  -3  -1  -4  804.62   34.70
   3   2   4 3869.21  150.78
  -3  -2  -4 3862.61  147.19
   3   3   4 3379.96  132.69
   3   4   4  149.88   11.30
   3   4   4  134.49    7.60
   3   5   4 1321.67   58.39
   3   5   4 1340.07   52.49
   3   5   4 1291.47   53.69
   3   5   4 1369.46   54.19
   3   6   4  411.76   24.00
   3   6   4  327.97   17.70
   3   6   4  420.56   20.50
  -3  -6  -4  408.66   19.00
   3   7   4   94.49    8.70
   3   7   4   97.69   11.60
   3   7   4   91.49    8.10
   3   7   4  112.59   12.00
   3   7   4   91.49    5.70
  -3  -7  -4   97.69    7.40
   3   8   4 1012.70   42.20
   3   8   4  961.80   41.40
   3   8   4  921.71   47.60
   3   8   4  946.81   40.80
   3   9   4   19.80    3.60
   3   9   4   33.50    4.80
   3   9   4   24.10    4.20
  -4   6  -4  704.83   28.00
  -4   6  -4  711.33   33.20
  -4   6  -4  554.04   26.60
  -4   5  -4    5.20    2.90
  -4   5  -4    9.10    9.30
  -4   5  -4    7.70    5.50
  -4   4  -4  686.03   32.10
  -4   4  -4  669.83   33.60
  -4   4  -4  597.64   28.50
  -4   4  -4  708.23   31.40
  -4   4  -4  631.64   37.20
  -4   3  -4 1920.71   75.69
  -4   3  -4 1899.41   83.79
  -4   3  -4 1862.31   71.29
  -4   3  -4 1934.01   79.49
  -4   3  -4 1791.72   73.99
  -4   3  -4 1806.22   76.19
   4  -2   4  197.88   17.30
   4  -2   4  180.08   11.00
  -4   2  -4  186.48    9.40
  -4   2  -4  204.28   13.60
  -4   2  -4  197.38   16.30
  -4   2  -4  183.28   16.30
   4  -1   4   10.40    2.60
   4  -1   4    9.50    3.70
  -4   1  -4   16.90    2.70
  -4   1  -4   19.00    4.70
  -4   1  -4    9.60    3.30
  -4   1  -4    9.30    4.60
   4   0   4  928.11   45.10
  -4   0  -4  934.11   42.80
  -4   0  -4 1068.29   40.20
  -4   0  -4  895.01   42.20
   4   1   4   35.90    5.80
  -4  -1  -4   49.30    4.90
  -4  -1  -4   39.60    5.00
   4   2   4   -0.70    2.30
  -4  -2  -4    1.70    1.60
   4   3   4  666.43   31.50
   4   3   4  640.54   27.20
  -4  -3  -4  608.64   27.20
   4   4   4   35.80    3.40
   4   4   4   32.70    3.80
   4   5   4  213.58   11.70
   4   5   4  208.88   11.60
   4   5   4  204.08   10.80
   4   5   4  202.38   10.50
  -4  -5  -4  213.68   11.90
   4   6   4 1555.64   67.69
   4   6   4 1516.85   59.79
   4   6   4 1509.75   61.79
  -4  -6  -4 1488.45   61.49
   4   7   4  704.33   32.10
   4   7   4  721.03   32.30
   4   7   4  746.53   39.00
   4   7   4  751.72   30.30
  -4  -7  -4  729.23   32.30
   4   8   4  464.85   19.90
   4   8   4  470.95   28.90
   4   8   4  519.65   23.40
   4   8   4  474.65   23.20
   4   8   4  530.75   24.40
  -4  -8  -4  468.85   22.30
   4   9   4   20.30    3.90
   4   9   4   30.10    4.50
   4   9   4   33.70    5.00
  -4  -9  -4   18.40    3.60
   4  10   4  384.16   16.90
   5  -5   4  457.65   20.90
  -5   5  -4  484.45   21.80
  -5   5  -4  476.55   24.20
  -5   5  -4  478.45   23.10
  -5   4  -4  379.86   21.70
  -5   4  -4  379.06   19.20
  -5   4  -4  354.06   21.30
  -5   3  -4  343.57   20.30
  -5   3  -4  331.87   23.80
   5  -2   4  846.92   36.90
  -5   2  -4  876.31   41.20
  -5   2  -4  872.31   38.30
  -5   2  -4  877.91   34.60
  -5   2  -4  865.31   44.60
  -5   2  -4  872.71   39.00
   5  -1   4  283.87   14.90
   5  -1   4  288.97   21.60
  -5   1  -4  304.27   16.90
  -5   1  -4  313.57   20.50
   5   0   4  830.42   42.60
   5   0   4  809.62   35.60
  -5   0  -4  853.41   37.40
  -5   0  -4  866.61   34.90
  -5   0  -4  837.32   40.00
  -5   0  -4  891.41   38.90
   5   1   4    1.30    2.60
   5   1   4    3.80    1.60
  -5  -1  -4   12.60    3.20
  -5  -1  -4    2.80    1.80
  -5  -1  -4    2.10    1.70
  -5  -1  -4    4.20    3.00
   5   2   4 4506.95  174.38
   5   2   4 4218.08  167.08
  -5  -2  -4 4335.57  166.88
  -5  -2  -4 4640.94  168.38
  -5  -2  -4 4237.98  168.18
  -5  -2  -4 4322.77  166.98
   5   3   4  566.84   30.00
   5   3   4  620.54   25.70
   5   3   4  532.35   24.40
  -5  -3  -4  554.84   24.60
  -5  -3  -4  530.15   24.40
   5   4   4  307.07   20.10
   5   4   4  298.77   14.20
   5   4   4  292.07   14.60
  -5  -4  -4  293.47   14.90
  -5  -4  -4  291.87   15.00
   5   5   4 2004.60   77.79
   5   5   4 2003.70   77.69
   5   5   4 2005.90   84.19
  -5  -5  -4 1966.00   78.89
  -5  -5  -4 1942.31   78.59
   5   6   4   82.09    9.70
   5   6   4   86.69    6.80
   5   6   4   81.09    6.00
  -5  -6  -4   81.19    7.20
   5   7   4    8.60    2.20
   5   7   4    0.10    2.00
   5   7   4    2.40    3.00
  -5  -7  -4   -1.20    2.20
   5   8   4    9.10    4.80
   5   8   4    7.30    2.70
   5   8   4    8.40    2.10
   5   8   4    7.40    2.70
  -5  -8  -4    4.80    2.70
   5   9   4   30.30    4.00
   5   9   4   32.10    5.10
  -5  -9  -4   28.10    4.10
   5  10   4    4.30    2.20
   5  10   4    3.70    1.10
  -6   4  -4   12.30    3.30
  -6   4  -4   16.70    4.20
  -6   4  -4   13.00    6.20
  -6   3  -4  380.76   21.00
  -6   3  -4  425.36   22.70
  -6   3  -4  414.46   20.50
   6  -2   4  152.68    8.90
  -6   2  -4  108.29   12.70
  -6   2  -4  128.09    9.60
  -6   2  -4  140.09   12.40
  -6   2  -4  132.39   11.00
   6  -1   4  380.86   19.00
  -6   1  -4  407.96   21.40
  -6   1  -4  398.56   17.30
  -6   1  -4  369.16   24.30
  -6   1  -4  406.86   22.30
   6   0   4    1.80    2.20
  -6   0  -4    4.70    4.10
  -6   0  -4    0.60    2.70
  -6   0  -4    1.70    2.20
  -6   0  -4    5.20    2.20
   6   1   4    4.90    4.40
  -6  -1  -4   15.60    2.80
  -6  -1  -4   22.80    4.80
   6   2   4   58.89   10.50
   6   2   4   77.19    6.40
   6   2   4   71.69    6.10
  -6  -2  -4   75.49    5.90
  -6  -2  -4   73.39    5.70
  -6  -2  -4   80.19    7.30
   6   3   4  595.34   34.60
   6   3   4  642.14   27.60
   6   3   4  627.94   27.20
  -6  -3  -4  581.64   27.60
  -6  -3  -4  670.33   27.70
  -6  -3  -4  628.24   27.50
   6   4   4   11.60    3.60
   6   4   4   10.40    2.90
   6   4   4    9.40    4.10
  -6  -4  -4   12.90    2.90
  -6  -4  -4    9.20    2.50
   6   5   4 1352.56   59.69
   6   5   4 1317.77   53.49
   6   5   4 1312.77   53.19
  -6  -5  -4 1342.37   54.09
  -6  -5  -4 1264.07   54.09
   6   6   4  392.06   24.70
   6   6   4  397.16   18.70
   6   6   4  389.56   18.30
  -6  -6  -4  409.36   20.10
  -6  -6  -4  384.06   19.30
   6   7   4    5.50    2.30
   6   7   4    2.80    4.40
  -6  -7  -4    8.20    3.40
   6   8   4  677.33   37.40
   6   8   4  732.93   30.00
  -6  -8  -4  727.23   31.60
   6   9   4  409.56   19.40
   6   9   4  392.36   16.50
  -6  -9  -4  411.76   18.80
  -7   3  -4  357.36   19.00
  -7   3  -4  364.56   17.00
  -7   3  -4  348.57   18.60
   7  -2   4  442.36   20.60
  -7   2  -4  377.16   21.20
  -7   2  -4  378.66   19.50
  -7   2  -4  370.46   21.10
   7  -1   4  748.83   33.00
  -7   1  -4  797.02   34.70
  -7   1  -4  738.53   30.30
  -7   1  -4  787.92   36.60
  -7   1  -4  801.32   35.80
   7   0   4 2924.81  111.59
  -7   0  -4 2889.01  113.39
  -7   0  -4 2767.92  113.89
  -7   0  -4 2818.52  109.39
   7   1   4  824.62   35.10
  -7  -1  -4  789.72   33.80
  -7  -1  -4  824.62   36.50
  -7  -1  -4  786.62   36.60
   7   2   4  156.88   10.20
  -7  -2  -4  141.59    8.60
  -7  -2  -4  163.58    9.80
  -7  -2  -4  165.58   11.00
   7   3   4  334.07   16.40
   7   3   4  326.37   21.00
   7   3   4  335.57   16.90
  -7  -3  -4  339.37   16.80
  -7  -3  -4  330.57   16.20
  -7  -3  -4  320.07   16.80
   7   4   4  908.91   38.10
   7   4   4  859.61   37.50
  -7  -4  -4  895.01   38.00
  -7  -4  -4  899.91   37.90
   7   5   4  146.89    9.50
   7   5   4  142.49   13.10
   7   5   4  135.09    9.20
  -7  -5  -4  135.39    9.20
  -7  -5  -4  137.59    9.70
   7   6   4  947.81   46.40
   7   6   4  937.81   39.20
   7   6   4  951.40   39.50
  -7  -6  -4  947.81   40.10
  -7  -6  -4  940.81   40.50
   7   7   4  471.55   21.50
  -7  -7  -4  477.15   22.20
  -7  -7  -4  480.85   22.90
   7   8   4  167.28    9.40
  -7  -8  -4  187.48   10.70
   7   9   4    7.00    1.50
   7   9   4    4.40    2.30
  -7  -9  -4    9.80    2.40
  -8   2  -4    1.30    1.90
  -8   2  -4    0.40    4.60
  -8   2  -4    0.20    1.50
   8  -1   4   33.50    4.20
  -8   1  -4   35.10    5.00
  -8   1  -4   44.00   12.00
  -8   1  -4   25.60    4.30
   8   0   4  426.36   19.80
  -8   0  -4  431.46   21.60
  -8   0  -4  408.96   17.60
  -8   0  -4  432.76   21.60
   8   1   4  182.78   11.10
  -8  -1  -4  191.78    9.60
  -8  -1  -4  160.68   11.10
  -8  -1  -4  180.18   11.70
   8   2   4   29.30    4.70
  -8  -2  -4   24.30    4.20
  -8  -2  -4   28.50    3.90
  -8  -3  -4   90.89    6.90
   8   4   4  789.42   34.50
   8   4   4  784.32   33.90
   8   4   4  881.01   40.30
  -8  -4  -4  762.52   34.00
  -8  -4  -4  769.12   33.40
   8   5   4   90.79   12.00
   8   5   4  110.09    7.80
   8   5   4  124.49    8.60
  -8  -5  -4  117.09    8.40
  -8  -5  -4  117.29    8.30
   8   6   4 1004.90   40.60
   8   6   4  947.61   40.50
  -8  -6  -4  964.90   41.00
  -8  -6  -4 1005.00   41.40
   8   7   4  137.79    8.80
  -8  -7  -4  155.98    9.40
  -8  -7  -4  146.39   11.50
   8   8   4   23.80    3.90
   8   9   4    0.70    1.00
  -8  -9  -4    1.20    1.40
   9   0   4   27.20    3.00
  -9   0  -4   26.90    3.50
  -9   0  -4   22.50    3.60
   9   1   4  327.47   14.80
  -9  -1  -4  300.77   12.70
  -9  -1  -4  279.97   14.70
   9   2   4  433.96   19.90
  -9  -2  -4  419.06   19.80
  -9  -2  -4  419.76   18.50
   9   3   4   97.19    7.20
  -9  -3  -4   99.49    6.60
   9   4   4   96.69    7.40
   9   4   4  114.49    7.70
  -9  -4  -4  106.89    7.40
   9   5   4  246.98   14.40
   9   5   4  290.97   14.50
  -9  -5  -4  284.57   14.50
  -9  -5  -4  342.67   16.00
   9   6   4    8.10    3.10
   9   6   4   15.20    3.20
  -9  -6  -4    8.30    2.80
  -9  -6  -4    8.00    3.40
   9   7   4  178.68    9.30
  -9  -7  -4  137.49    9.90
  -9  -7  -4  180.78    9.10
   9   8   4   19.40    3.10
  -9  -8  -4   16.00    2.50
  -9  -8  -4    7.80    2.30
  10   3   4   15.00    2.70
 -10  -3  -4   11.30    1.90
  10   4   4  205.98   10.20
 -10  -4  -4  181.78    9.20
  10   5   4  175.08    9.40
  10   5   4  195.48    9.60
 -10  -5  -4  207.98    9.60
  -6  -4   5    3.00    1.50
   6   4  -5    1.60    1.80
   6   4  -5   -0.40    1.40
  -6  -3   5    0.00    1.90
   6   3  -5    1.60    1.60
   6   3  -5    0.60    1.70
  -6  -2   5   35.20    4.20
   6   2  -5   35.80    4.70
  -6  -1   5  903.81   38.50
   6   1  -5 1025.20   39.60
  -6   0   5  139.99    7.20
  -6   0   5  163.28   11.20
   6   0  -5  155.98    8.70
  -6   1   5    3.10    2.80
  -6   1   5    2.40    1.90
  -6   1   5    5.60    1.90
   6  -1  -5    2.40    1.90
  -5  -6   5  238.28   11.80
   5   6  -5  230.78   11.00
  -5  -5   5  208.48   10.60
  -5  -5   5  198.28   10.40
   5   5  -5  187.38    9.80
   5   5  -5  168.58    9.60
  -5  -4   5  535.55   24.00
  -5  -4   5  533.45   24.00
   5   4  -5  544.65   23.70
   5   4  -5  549.54   23.50
  -5  -3   5  372.16   17.80
  -5  -3   5  361.06   17.20
   5   3  -5  371.76   17.70
   5   3  -5  364.76   17.40
  -5  -2   5  157.28   10.00
   5   2  -5  167.28   10.00
   5   2  -5  173.98   10.00
  -5  -1   5  666.83   27.90
  -5  -1   5  604.94   28.20
   5   1  -5  646.64   28.20
  -5   0   5   37.70    3.90
  -5   0   5   40.90    5.30
  -5   0   5   37.10    4.70
   5   0  -5   41.10    4.50
  -5   1   5    1.60    2.80
  -5   1   5    0.50    1.50
  -5   1   5    1.70    2.60
   5  -1  -5    2.40    2.00
  -5   2   5    7.00    4.30
  -5   2   5    2.80    3.00
  -5   2   5    7.80    4.80
   5  -2  -5    6.00    1.80
  -5   3   5   -0.50    2.60
  -5   3   5   -0.80    2.30
  -5   3   5    0.50    2.10
   4   6  -5   -0.30    2.50
   4   6  -5    2.40    2.00
  -4  -5   5    5.00    2.80
  -4  -5   5   14.60    3.60
  -4  -5   5    8.00    2.60
   4   5  -5    8.20    2.10
   4   5  -5    5.90    2.10
   4   5  -5   11.40    3.00
  -4  -4   5  630.14   28.10
  -4  -4   5  623.84   29.10
  -4  -4   5  610.24   27.70
   4   4  -5  620.54   27.00
   4   4  -5  622.14   26.90
  -4  -3   5  245.58   15.40
  -4  -3   5  231.28   13.50
  -4  -3   5  242.38   13.60
   4   3  -5  257.87   13.00
   4   3  -5  228.48   12.70
  -4  -2   5  547.45   24.60
  -4  -2   5  549.05   24.90
  -4  -2   5  534.95   27.10
   4   2  -5  513.35   24.30
   4   2  -5  520.55   23.90
  -4  -1   5   11.40    2.80
  -4  -1   5   12.00    2.50
  -4  -1   5    9.10    3.00
  -4  -1   5   11.40    4.60
  -4  -1   5    7.30    3.00
   4   1  -5    4.90    2.50
   4   1  -5    7.50    2.90
  -4   0   5  411.96   20.50
  -4   0   5  388.46   22.70
  -4   0   5  451.25   23.50
  -4   0   5  430.46   19.60
   4   0  -5  416.26   20.30
  -4   1   5 1694.33   68.49
  -4   1   5 1660.73   68.99
  -4   1   5 1692.93   66.39
   4  -1  -5 1686.23   67.59
  -4   2   5  452.05   19.20
  -4   2   5  453.85   22.40
  -4   2   5  475.65   23.50
   4  -2  -5  440.26   20.80
  -4   3   5    6.70    3.30
  -4   3   5    3.80    2.80
  -4   3   5    7.10    4.60
   4  -3  -5    3.90    2.10
  -4   4   5  307.27   16.50
  -4   4   5  336.77   18.10
  -4   4   5  347.97   17.30
  -3  -7   5   61.19    5.00
   3   7  -5   57.49    6.10
  -3  -6   5   15.90    3.20
   3   6  -5   19.00    3.40
   3   6  -5   17.80    2.80
  -3  -5   5 1023.90   43.40
  -3  -5   5 1058.29   44.20
   3   5  -5 1038.00   42.50
  -3  -4   5   67.99    6.00
  -3  -4   5   77.69    7.40
  -3  -4   5   65.49    7.70
   3   4  -5   68.39    5.70
   3   4  -5   48.80   10.80
   3   4  -5   72.99    6.20
  -3  -3   5 1537.15   64.59
  -3  -3   5 1701.03   64.49
  -3  -3   5 1669.33   66.29
   3   3  -5 1569.94   63.59
   3   3  -5 1613.44   63.39
   3   3  -5 1395.56   73.49
  -3  -2   5  485.75   25.10
  -3  -2   5  500.65   23.40
  -3  -2   5  501.15   23.10
   3   2  -5  472.25   22.40
   3   2  -5  487.45   29.40
   3   2  -5  524.65   23.20
  -3  -1   5  307.77   15.60
  -3  -1   5  303.47   15.60
  -3  -1   5  312.27   15.70
  -3  -1   5  317.57   18.30
   3   1  -5  307.27   15.80
   3   1  -5  290.87   15.10
   3   1  -5  280.87   20.80
  -3   0   5  506.45   22.80
  -3   0   5  533.05   23.60
  -3   0   5  526.15   24.30
  -3   0   5  541.25   26.70
   3   0  -5  540.55   24.20
   3   0  -5  478.55   29.70
  -3   1   5   29.20    6.20
  -3   1   5   41.20    6.40
  -3   1   5   36.20    4.50
  -3   1   5   27.20    4.50
   3  -1  -5   28.80    4.40
   3  -1  -5   30.10    7.30
  -3   2   5   85.89    5.90
  -3   2   5   75.19    7.60
  -3   2   5   74.69    7.80
   3  -2  -5   75.39    6.40
   3  -2  -5   90.69   11.20
  -3   3   5  961.90   40.80
  -3   3   5  880.31   35.10
  -3   3   5  911.51   39.50
  -3   3   5  837.92   37.50
   3  -3  -5  900.81   37.60
  -3   4   5  121.09    9.00
  -3   4   5  104.59    7.60
  -3   4   5  117.39   10.30
  -3   5   5   19.90    3.90
  -3   5   5   20.20    4.50
  -3   5   5   21.40    3.80
  -3   6   5   26.30    3.80
  -2  -7   5   79.79    5.80
   2   7  -5   66.09    4.40
   2   7  -5   74.69    6.10
  -2  -6   5   92.49    7.20
   2   6  -5   93.09    6.00
   2   6  -5   82.89    7.40
  -2  -5   5    1.40    2.10
  -2  -5   5    0.50    2.30
   2   5  -5    0.80    1.80
   2   5  -5    5.30    5.90
  -2  -4   5  179.48   11.10
  -2  -4   5  195.68   12.30
  -2  -4   5  194.88   12.10
   2   4  -5  190.98   10.30
   2   4  -5  196.18   10.60
   2   4  -5  155.68   18.50
  -2  -3   5  467.95   23.90
  -2  -3   5  429.06   21.40
  -2  -3   5  414.16   26.70
  -2  -3   5  430.06   20.70
   2   3  -5  423.96   20.00
   2   3  -5  441.76   26.60
   2   3  -5  436.66   20.10
  -2  -2   5 1827.62   73.59
  -2  -2   5 1841.52   73.39
  -2  -2   5 1834.12   74.69
   2   2  -5 1810.42   72.69
   2   2  -5 1863.71   79.89
  -2  -1   5   20.80    3.40
  -2  -1   5   22.60    3.90
  -2  -1   5   22.80    4.60
   2   1  -5   20.50    5.70
   2   1  -5   23.50    3.90
   2   1  -5   19.10    3.30
  -2   0   5  287.77   14.60
  -2   0   5  297.37   16.70
  -2   0   5  280.47   14.70
  -2   0   5  293.57   14.50
   2   0  -5  293.17   14.90
   2   0  -5  295.47   19.10
   2   0  -5  290.47   14.50
  -2   1   5 4239.38  162.78
  -2   1   5 4208.98  161.08
   2  -1  -5 4020.20  160.38
   2  -1  -5 4266.17  170.08
  -2   2   5   30.70    5.60
  -2   2   5   33.90    5.00
  -2   2   5   29.00    3.90
  -2   2   5   37.70    4.90
   2  -2  -5   29.90    6.50
  -2   3   5 1824.52   68.69
  -2   3   5 1790.42   71.09
  -2   3   5 1771.12   71.69
  -2   3   5 1790.42   73.09
   2  -3  -5 1747.93   70.29
   2  -3  -5 1641.54   76.09
  -2   4   5   56.79    8.60
  -2   4   5   55.29    7.60
  -2   4   5   41.80    6.20
  -2   4   5   51.89    5.80
  -2   5   5    2.80    3.50
  -2   5   5    4.80    3.60
  -2   5   5    5.40    3.10
  -2   5   5    4.30    3.30
  -2   6   5  324.67   17.20
  -2   6   5  343.37   16.90
  -2   6   5  313.37   15.40
  -2   7   5    1.60    2.40
  -2   7   5   -0.50    1.50
  -2   7   5    6.00    2.40
  -1  -7   5  758.22   29.90
   1   7  -5  603.34   29.50
   1   7  -5  757.72   30.70
  -1  -6   5  462.95   22.30
   1   6  -5  474.85   21.80
   1   6  -5  477.85   20.10
   1   6  -5  489.05   23.10
  -1  -5   5  158.58   11.90
  -1  -5   5  133.79   10.00
   1   5  -5  116.49   14.40
   1   5  -5  128.69    8.20
  -1  -4   5   60.09    6.70
  -1  -4   5   49.10    6.60
   1   4  -5   59.49    4.80
   1   4  -5   38.60    8.60
  -1  -3   5 3204.38  126.29
  -1  -3   5 3178.78  126.89
  -1  -3   5 3125.69  127.39
  -1  -3   5 3314.97  135.19
   1   3  -5 3255.07  125.29
   1   3  -5 3275.97  134.89
   1   3  -5 3452.35  125.79
  -1  -2   5   53.69    6.80
  -1  -2   5   49.60    5.60
  -1  -2   5   51.09    7.10
  -1  -2   5   44.00    5.00
   1   2  -5   49.60    4.40
   1   2  -5   59.49    8.60
   1   2  -5   47.90    4.90
  -1  -1   5  128.99    8.00
  -1  -1   5  110.49    9.40
  -1  -1   5  121.39    9.20
  -1  -1   5  121.59    8.40
   1   1  -5  124.59    7.60
   1   1  -5  109.29   10.90
   1   1  -5  116.29    7.60
  -1   0   5 3066.09  120.89
  -1   0   5 3134.79  121.39
  -1   0   5 3211.48  122.89
   1   0  -5 3165.18  120.99
   1   0  -5 3267.07  126.79
   1   0  -5 3012.60  120.99
  -1   1   5  247.98   13.20
  -1   1   5  244.68   12.30
  -1   1   5  247.08   12.80
  -1   1   5  249.38   14.10
  -1   1   5  251.57   13.50
   1  -1  -5  248.68   12.90
   1  -1  -5  239.68   16.00
  -1   2   5    7.40    2.80
  -1   2   5    4.70    2.80
  -1   2   5    7.80    2.60
  -1   2   5    4.10    1.90
   1  -2  -5    6.40    2.30
   1  -2  -5    3.80    3.00
  -1   3   5    6.20    3.00
  -1   3   5    3.00    2.00
  -1   3   5    4.90    3.00
  -1   3   5    4.90    1.90
   1  -3  -5    3.30    1.90
   1  -3  -5    1.50    2.70
  -1   4   5 2065.59   82.69
  -1   4   5 2014.70   78.89
  -1   4   5 2135.19   82.59
   1  -4  -5 2003.70   81.29
  -1   5   5   51.49    7.30
  -1   5   5   48.80    7.10
  -1   5   5   53.69    6.30
  -1   6   5  215.48   13.00
  -1   6   5  217.28   13.60
  -1   6   5  214.18   13.20
  -1   7   5  952.40   40.30
  -1   7   5 1017.10   41.10
  -1   7   5  913.71   39.50
   0  -7   5   14.90    2.40
   0   7  -5   14.00    5.60
   0   7  -5   11.80    2.90
   0  -6   5   88.99    7.20
   0   6  -5   94.89   13.10
   0   6  -5   87.69    4.90
   0   6  -5   99.89    7.30
   0   6  -5   99.99    7.70
   0  -5   5   59.89    6.90
   0   5  -5   66.19    5.20
   0   5  -5   72.19   11.70
   0   5  -5   73.89   18.30
   0  -4   5  353.86   19.80
   0  -4   5  357.76   18.50
   0   4  -5  359.56   24.90
   0   4  -5  372.56   23.40
   0   4  -5  333.87   17.10
   0   4  -5  366.16   16.50
   0  -3   5   89.99    8.10
   0  -3   5   84.99   10.30
   0  -3   5   83.99    7.30
   0   3  -5   85.99   11.00
   0   3  -5   82.69    6.10
   0   3  -5   88.09    6.80
   0   3  -5   79.29   11.00
   0  -2   5 1992.40   81.09
   0  -2   5 1954.70   79.89
   0  -2   5 2026.20   85.09
   0  -2   5 1980.00   80.39
   0   2  -5 2051.29   83.79
   0   2  -5 2203.68   89.99
   0   2  -5 2017.40   79.19
   0   2  -5 2031.10   78.99
   0  -1   5 1389.86   56.99
   0  -1   5 1451.15   57.89
   0  -1   5 1432.46   59.99
   0  -1   5 1369.06   56.39
   0   1  -5 1395.76   56.29
   0   1  -5 1405.96   56.09
   0   1  -5 1459.05   61.59
   0   0   5   59.09    5.50
   0   0   5   43.60    5.50
   0   0   5   55.29    4.80
   0   0  -5   74.29    6.50
   0   0  -5   44.50    7.10
   0   1   5 1243.58   52.29
   0   1   5 1341.77   53.29
   0   1   5 1322.77   53.49
   0   1   5 1322.27   52.09
   0  -1  -5 1250.77   52.29
   0  -1  -5 1361.86   56.49
   0   2   5  430.16   20.10
   0   2   5  410.26   19.70
   0   2   5  412.76   18.50
   0  -2  -5  416.76   22.20
   0  -2  -5  413.36   19.20
   0   3   5 1812.52   73.59
   0   3   5 1937.41   72.29
   0   3   5 1889.01   73.99
   0  -3  -5 1858.51   76.39
   0  -3  -5 1752.42   73.09
   0   4   5   32.20    3.50
   0   4   5   31.80    5.40
   0   4   5   33.00    4.90
   0  -4  -5   25.10    4.90
   0   5   5  155.28    7.60
   0   5   5  158.78   10.80
   0   5   5  167.18   11.30
   0   5   5  158.98   12.00
   0   7   5  422.56   20.40
   0   7   5  415.16   20.70
   0   7   5  395.66   20.10
   0   8   5  184.48   10.50
   0   8   5  174.48   10.80
  -1   7  -5   10.50    3.50
  -1   7  -5   17.30    3.00
   1  -6   5   10.00    2.50
  -1   6  -5   26.70   12.30
  -1   6  -5    7.20    2.80
  -1   6  -5   12.30    3.20
   1  -5   5 2642.74  104.39
   1  -5   5 2668.23  104.69
  -1   5  -5 2696.13  104.19
  -1   5  -5 2753.32  111.99
  -1   5  -5 2659.93  101.39
  -1   5  -5 2513.15  113.79
   1  -4   5    8.10    2.70
   1  -4   5    8.80    3.40
  -1   4  -5   12.20    2.40
  -1   4  -5   12.30    3.40
  -1   4  -5   22.00   13.00
  -1   4  -5    9.70    4.80
   1  -3   5 1426.76   61.29
   1  -3   5 1508.05   68.79
   1  -3   5 1465.65   60.89
  -1   3  -5 1479.45   60.09
  -1   3  -5 1573.54   66.69
  -1   3  -5 1552.44   59.49
  -1   3  -5 1468.45   67.89
   1  -2   5  814.62   38.90
   1  -2   5  727.43   33.20
   1  -2   5  772.72   34.10
  -1   2  -5  789.42   37.10
  -1   2  -5  765.92   38.80
  -1   2  -5  802.12   32.20
  -1   2  -5  787.02   33.00
   1  -1   5  309.17   15.70
   1  -1   5  290.67   17.80
  -1   1  -5  291.27   14.30
  -1   1  -5  318.27   19.20
   1   0   5 1131.79   46.40
   1   0   5 1028.50   43.80
   1   0   5 1011.50   43.40
  -1   0  -5 1053.99   43.00
  -1   0  -5 1089.19   47.00
   1   1   5  606.54   28.20
   1   1   5  622.74   27.00
   1   1   5  586.74   26.90
  -1  -1  -5  611.44   29.40
  -1  -1  -5  641.74   27.60
   1   2   5 1074.79   42.60
   1   2   5 1050.19   41.50
   1   2   5 1073.09   42.50
   1   2   5 1019.80   41.00
  -1  -2  -5  910.71   42.70
   1   3   5   59.29    5.60
   1   3   5   63.79    5.70
   1   3   5   55.39    4.60
   1   3   5   81.29    7.00
   1   3   5   57.69    6.20
  -1  -3  -5   73.49    6.70
  -1  -3  -5   58.59    5.40
   1   4   5  163.28    8.60
   1   4   5  143.49    9.60
   1   4   5  152.58   11.30
   1   4   5  153.98    9.80
  -1  -4  -5  157.98    9.50
   1   5   5  751.32   36.60
   1   5   5  791.12   34.10
   1   5   5  783.92   34.20
  -1  -5  -5  733.53   32.90
   1   6   5  747.13   33.90
   1   6   5  757.72   37.70
   1   6   5  764.02   34.20
   1   6   5  744.73   34.30
   1   7   5   16.00    3.80
   1   7   5   14.60    4.20
   1   7   5   17.90    4.20
   1   7   5   22.80   12.50
   1   8   5  255.57   14.20
   1   8   5  279.57   14.90
  -2   6  -5   46.50    5.40
  -2   6  -5   51.09    5.20
  -2   6  -5   52.89   15.20
   2  -5   5  531.65   24.60
   2  -5   5  543.05   25.70
  -2   5  -5  569.84   25.40
  -2   5  -5  523.95   33.00
  -2   5  -5  528.65   25.30
  -2   5  -5  568.24   41.20
   2  -4   5  185.08   11.40
   2  -4   5  172.28   12.00
  -2   4  -5  172.88   19.10
  -2   4  -5  185.18   11.60
  -2   4  -5  191.68    9.30
  -2   4  -5  185.68   13.80
  -2   4  -5  191.58   21.60
   2  -3   5  363.86   19.00
  -2   3  -5  345.17   23.80
  -2   3  -5  360.26   16.30
  -2   3  -5  369.76   25.00
  -2   3  -5  362.56   20.20
   2  -2   5 1786.22   74.29
   2  -2   5 1885.61   81.69
  -2   2  -5 1779.02   75.09
  -2   2  -5 1904.61   72.89
  -2   2  -5 1852.81   73.99
  -2   2  -5 1939.51   81.09
  -2   2  -5 1943.11   78.39
   2  -1   5   32.40    5.70
  -2   1  -5   33.90    5.10
  -2   1  -5   30.80    6.10
  -2   1  -5   29.90    6.50
  -2   1  -5   31.70    3.50
  -2   1  -5   36.50    3.40
   2   0   5 2055.49   82.79
   2   0   5 1899.91   78.39
  -2   0  -5 2002.30   79.29
  -2   0  -5 1904.51   77.79
  -2   0  -5 2089.49   82.19
  -2   0  -5 2047.20   77.79
   2   1   5 9363.46  365.96
   2   1   5 9733.53  368.96
  -2  -1  -5 9999.00  368.56
   2   2   5 1388.16   54.39
   2   2   5 1347.57   54.69
   2   2   5 1360.16   56.49
   2   3   5  317.37   16.10
   2   3   5  311.87   15.40
   2   3   5  342.47   16.30
  -2  -3  -5  315.37   15.50
   2   4   5  372.36   18.60
   2   4   5  396.76   17.70
   2   4   5  405.96   19.30
   2   4   5  413.96   21.60
  -2  -4  -5  379.86   18.50
   2   5   5   38.10    6.70
   2   5   5   39.50    4.00
   2   5   5   38.60    6.10
   2   5   5   35.70    5.30
  -2  -5  -5   38.40    4.50
   2   6   5   47.50    8.20
   2   6   5   46.40    6.00
   2   6   5   45.70    5.60
   2   6   5   35.70    3.80
  -2  -6  -5   45.40    5.00
   2   8   5  143.89    9.70
   2   8   5  133.19    9.90
   2   9   5  104.89    7.30
   2   9   5  105.59    7.40
  -3   6  -5  145.89   19.20
  -3   6  -5  145.89    9.00
  -3   6  -5  168.68   10.30
   3  -5   5  148.79    9.70
  -3   5  -5  147.69    9.70
  -3   5  -5  141.29    9.30
  -3   5  -5  144.59   22.70
  -3   5  -5  138.09   11.10
   3  -4   5  895.21   39.70
  -3   4  -5  910.61   48.00
  -3   4  -5  924.21   45.60
   3  -3   5  281.47   15.40
  -3   3  -5  305.17   13.60
  -3   3  -5  309.67   16.00
  -3   3  -5  297.27   19.40
  -3   3  -5  284.87   18.50
  -3   3  -5  279.77   21.80
   3  -2   5  215.78   12.70
   3  -2   5  215.28   18.10
  -3   2  -5  239.18   15.90
  -3   2  -5  237.08   13.10
  -3   2  -5  216.08   15.80
  -3   2  -5  260.57   18.10
   3  -1   5  457.15   26.40
   3  -1   5  427.76   20.60
  -3   1  -5  452.35   19.70
  -3   1  -5  452.85   23.50
  -3   1  -5  458.05   25.20
  -3   1  -5  448.66   22.50
  -3   1  -5  421.06   20.40
  -3   0  -5   55.29    4.60
  -3   0  -5   50.79    6.60
  -3   0  -5   48.20    5.60
  -3   0  -5   58.19    4.50
  -3   0  -5   53.19    7.00
   3   1   5  567.64   25.40
   3   1   5  599.74   29.40
  -3  -1  -5  567.34   24.70
  -3  -1  -5  581.34   25.20
  -3  -1  -5  563.24   26.20
  -3  -1  -5  608.44   27.40
   3   2   5 1885.71   73.79
   3   2   5 1821.92   73.39
   3   2   5 1934.81   77.59
  -3  -2  -5 1806.52   73.59
  -3  -2  -5 1931.81   74.39
   3   3   5   98.89    6.50
   3   3   5   87.49    6.30
   3   3   5   91.49    8.10
   3   3   5   92.79    6.70
  -3  -3  -5   71.59    6.80
   3   4   5  466.95   20.00
   3   4   5  473.45   21.30
   3   4   5  453.45   24.40
   3   4   5  441.26   19.90
  -3  -4  -5  425.26   20.70
   3   5   5  368.46   16.70
   3   5   5  370.36   18.20
   3   5   5  346.97   18.00
   3   5   5  360.76   21.90
  -3  -5  -5  362.26   17.70
   3   6   5  257.27   14.50
   3   6   5  247.18   12.30
   3   6   5  246.38   14.00
   3   6   5  247.28   18.10
  -3  -6  -5  249.28   13.40
   3   7   5   10.50    2.00
   3   7   5   12.80    5.50
   3   7   5   13.10    3.40
   3   7   5   16.10    3.60
  -3  -7  -5    6.40    2.50
   3   8   5  515.45   24.20
   3   8   5  538.05   24.50
  -3  -8  -5  469.95   22.50
   3   9   5  423.36   20.60
   3   9   5  477.65   24.00
  -4   5  -5   58.19   13.80
  -4   5  -5   34.00    6.60
  -4   5  -5   46.60    5.00
  -4   5  -5   35.60    4.70
  -4   4  -5   23.30    9.60
  -4   4  -5   26.00    8.00
  -4   4  -5   32.90    5.10
  -4   4  -5   25.50    3.70
   4  -3   5  399.76   20.00
  -4   3  -5  415.46   20.90
  -4   3  -5  390.26   26.50
  -4   3  -5  401.76   19.60
  -4   3  -5  417.06   23.40
  -4   3  -5  414.96   17.40
  -4   3  -5  433.26   24.20
   4  -2   5  190.88   11.70
  -4   2  -5  194.08   16.90
  -4   2  -5  203.78   12.40
  -4   2  -5  203.98   14.30
  -4   2  -5  198.28   15.90
   4  -1   5  743.23   32.50
  -4   1  -5  727.83   35.20
  -4   1  -5  777.32   31.30
  -4   1  -5  752.72   38.00
  -4   1  -5  748.53   34.20
   4   0   5 1216.08   57.49
   4   0   5 1254.87   50.89
  -4   0  -5 1245.58   49.90
  -4   0  -5 1268.97   53.49
  -4   0  -5 1229.88   54.79
  -4   0  -5 1266.97   52.39
   4   1   5 1381.06   56.99
   4   1   5 1451.65   63.19
  -4  -1  -5 1388.16   59.29
  -4  -1  -5 1392.76   56.59
  -4  -1  -5 1481.35   58.49
  -4  -1  -5 1437.96   56.49
   4   2   5  893.11   36.30
   4   2   5  861.91   36.50
  -4  -2  -5  892.31   36.90
  -4  -2  -5  873.61   36.40
  -4  -2  -5  949.40   39.50
  -4  -2  -5  782.12   37.10
   4   3   5   69.59    5.70
   4   3   5   63.09    5.40
   4   3   5   53.89    9.20
  -4  -3  -5   68.89    5.80
  -4  -3  -5   69.59    5.60
   4   4   5  123.59    8.00
   4   4   5  139.99    8.20
   4   4   5  130.29   11.40
   4   4   5  131.59    8.30
  -4  -4  -5  136.29    8.70
  -4  -4  -5  133.69    8.70
   4   5   5   -0.50    3.20
   4   5   5    2.40    1.80
   4   5   5    4.20    2.60
   4   5   5    2.80    2.30
  -4  -5  -5   -1.10    1.80
   4   6   5   30.20    4.60
   4   6   5   30.90    4.00
   4   6   5   25.30    7.10
  -4  -6  -5   27.70    4.50
   4   7   5   17.40    4.30
   4   7   5   18.80    3.00
   4   7   5   17.20    5.90
   4   7   5   19.70    4.10
  -4  -7  -5   19.80    3.80
   4   8   5   34.20    8.00
   4   8   5   28.60    4.50
   4   8   5   31.40    5.30
   4   8   5   26.40    2.40
  -4  -8  -5   22.60    3.50
   4   9   5    2.00    1.80
   4   9   5    0.90    2.60
  -4  -9  -5    5.60    3.10
  -5   5  -5   89.59    6.00
  -5   5  -5   83.49   15.60
  -5   4  -5  282.67   18.60
  -5   4  -5  270.87   20.40
  -5   4  -5  268.87   14.80
   5  -3   5  196.18   11.30
  -5   3  -5  140.79   18.40
  -5   3  -5  221.58   15.50
  -5   3  -5  219.08   12.70
  -5   3  -5  189.68   19.10
   5  -2   5    7.30    2.30
  -5   2  -5    7.30    5.10
  -5   2  -5    9.20    4.60
  -5   2  -5    2.90    6.60
  -5   2  -5    9.40    3.00
   5  -1   5  827.22   36.30
  -5   1  -5  841.52   38.80
  -5   1  -5  831.52   39.30
  -5   1  -5  853.41   34.80
  -5   1  -5  878.11   42.70
   5   0   5  639.24   35.60
   5   0   5  604.14   27.60
  -5   0  -5  623.94   30.10
  -5   0  -5  593.54   31.60
  -5   0  -5  642.14   29.90
  -5   0  -5  616.54   26.50
   5   1   5   21.00    5.00
   5   1   5   27.20    4.20
   5   1   5   36.60    5.30
  -5  -1  -5   27.00    3.70
  -5  -1  -5   34.50    6.00
  -5  -1  -5   31.50    4.10
  -5  -1  -5   26.00    4.90
  -5  -1  -5   32.10    5.60
   5   2   5  281.37   14.80
   5   2   5  290.87   19.80
   5   2   5  295.27   14.60
  -5  -2  -5  294.27   14.50
  -5  -2  -5  296.17   14.40
  -5  -2  -5  297.87   15.90
   5   3   5 2246.48   94.59
   5   3   5 2234.68   87.09
   5   3   5 2276.37   87.59
  -5  -3  -5 2230.58   87.19
  -5  -3  -5 2162.18   87.39
   5   4   5  467.95   21.10
   5   4   5  479.75   27.40
   5   4   5  475.95   21.50
  -5  -4  -5  476.65   21.70
  -5  -4  -5  448.36   21.60
   5   5   5  329.67   21.10
   5   5   5  365.06   17.30
   5   5   5  301.27   15.80
   5   5   5  318.27   15.50
  -5  -5  -5  293.97   16.00
  -5  -5  -5  320.27   16.40
   5   6   5   23.00    3.50
   5   6   5   16.80    3.50
   5   6   5   19.80    5.90
  -5  -6  -5   23.90    4.50
   5   7   5  705.73   29.60
   5   7   5  685.63   30.70
   5   7   5  701.13   37.50
  -5  -7  -5  695.33   31.10
   5   8   5  375.66   19.10
   5   8   5  371.06   24.20
   5   8   5  384.26   16.60
   5   8   5  369.56   18.20
  -5  -8  -5  382.96   18.70
   5   9   5   14.90    2.70
   5   9   5   18.70    3.60
  -5  -9  -5   18.70    3.10
  -6   4  -5  433.56   20.70
  -6   4  -5  446.96   19.40
  -6   4  -5  400.46   22.70
  -6   3  -5   35.20    6.60
  -6   3  -5   42.90    4.90
  -6   3  -5   32.80    8.70
   6  -2   5  276.47   14.50
  -6   2  -5  289.77   16.10
  -6   2  -5  281.87   17.90
  -6   2  -5  298.77   20.50
   6  -1   5 1476.35   60.09
  -6   1  -5 1488.65   61.09
  -6   1  -5 1443.86   66.99
  -6   1  -5 1544.25   62.89
  -6   1  -5 1422.46   62.99
  -6   1  -5 1490.95   57.99
   6   0   5  247.78   13.80
  -6   0  -5  235.28   17.50
  -6   0  -5  256.17   16.20
  -6   0  -5  251.97   12.70
  -6   0  -5  252.67   15.90
   6   1   5   11.30    3.20
  -6  -1  -5   18.00    4.40
  -6  -1  -5   19.60    4.70
  -6  -1  -5    4.40    2.30
  -6  -1  -5    7.70    2.50
  -6  -1  -5    7.80    5.00
   6   2   5  491.45   23.40
   6   2   5  497.95   23.20
  -6  -2  -5  502.75   22.80
  -6  -2  -5  493.35   24.20
  -6  -2  -5  540.45   23.00
   6   3   5  252.87   13.90
   6   3   5  229.18   19.50
  -6  -3  -5  265.57   13.40
  -6  -3  -5  255.67   13.40
   6   4   5   18.70    3.60
   6   4   5   24.60    3.80
  -6  -4  -5   26.60    4.10
  -6  -4  -5   20.00    3.70
   6   5   5  572.14   25.60
   6   5   5  597.54   31.90
   6   5   5  591.74   25.70
  -6  -5  -5  562.34   25.80
  -6  -5  -5  550.84   26.20
   6   6   5  491.45   22.20
   6   6   5  527.55   23.10
  -6  -6  -5  498.95   23.50
  -6  -6  -5  506.45   24.10
   6   7   5   48.50    8.70
   6   7   5   46.20    5.00
  -6  -7  -5   41.80    5.20
   6   8   5  283.77   15.60
   6   8   5  287.87   13.80
  -6  -8  -5  294.97   15.30
   6   9   5 1154.88   44.50
   6   9   5  920.11   41.20
  -6  -9  -5 1163.78   43.80
  -7   3  -5  260.07   16.30
  -7   3  -5  280.77   12.80
  -7   3  -5  211.58   16.20
   7  -2   5    5.30    4.10
  -7   2  -5    0.00    2.00
  -7   2  -5   -2.20    5.90
   7  -1   5    0.10    2.00
  -7   1  -5    0.40    6.70
  -7   1  -5    1.60    3.20
  -7   1  -5    1.20    2.80
   7   0   5  169.38   10.60
  -7   0  -5  185.08   12.80
  -7   0  -5  171.08    9.20
  -7   0  -5  157.18   11.40
   7   1   5   19.90    4.00
  -7  -1  -5   19.00    4.60
  -7  -1  -5   12.20    4.20
  -7  -1  -5   16.00    3.20
   7   2   5 1236.38   51.79
   7   2   5 1312.67   52.59
  -7  -2  -5 1294.97   53.19
  -7  -2  -5 1312.37   51.49
  -7  -2  -5 1175.48   49.99
   7   3   5   41.80    5.10
   7   3   5   43.20    5.00
  -7  -3  -5   41.90    4.40
  -7  -3  -5   37.00    5.10
  -7  -3  -5   49.20    5.40
   7   4   5   62.39    6.00
   7   4   5   48.60    5.40
  -7  -4  -5   52.09    5.80
  -7  -4  -5   53.99    5.40
   7   5   5 1933.81   75.79
   7   5   5 1955.40   75.99
   7   5   5 1888.51   82.69
  -7  -5  -5 1872.41   75.99
  -7  -5  -5 1882.81   76.19
   7   6   5   66.89    8.80
   7   6   5   67.89    5.80
   7   6   5   68.69    5.70
  -7  -6  -5   66.19    6.30
  -7  -6  -5   70.79    6.00
   7   7   5    3.10    1.90
   7   7   5   -7.10    3.30
  -7  -7  -5    6.60    2.50
  -7  -7  -5    3.70    2.20
   7   8   5  833.12   34.80
  -7  -8  -5  874.41   36.20
   7   9   5  393.66   17.80
   7   9   5  373.16   15.90
  -7  -9  -5  393.26   17.40
   8  -1   5  504.05   20.40
  -8   1  -5  470.65   22.50
  -8   1  -5  419.76   22.90
  -8   1  -5  444.46   21.00
   8   0   5  919.51   39.90
  -8   0  -5  936.21   40.60
  -8   0  -5  927.21   37.50
  -8   0  -5 1008.80   40.90
  -8   0  -5 1026.50   41.30
   8   1   5    6.40    2.30
  -8  -1  -5    3.70    2.00
  -8  -1  -5   10.00    3.50
   8   2   5   13.80    3.20
  -8  -2  -5   11.00    3.10
  -8  -2  -5   10.00    2.50
   8   3   5   49.90    5.40
   8   3   5   51.79    5.60
  -8  -3  -5   50.59    5.50
   8   4   5  132.29    9.30
   8   4   5  134.79    8.50
  -8  -4  -5  131.09    8.90
  -8  -4  -5  127.89    8.20
   8   5   5   97.39   11.30
   8   5   5  111.89    8.10
   8   5   5   99.39    7.70
  -8  -5  -5  101.69    7.40
  -8  -5  -5  107.29    7.40
   8   6   5  135.29    8.30
   8   6   5  124.49    8.60
  -8  -6  -5  125.19    8.80
  -8  -6  -5  128.99    8.70
   8   7   5  120.49    7.90
  -8  -7  -5  121.69    8.10
  -8  -7  -5  115.99    7.90
   8   8   5  161.38    8.60
  -8  -8  -5  167.08    9.60
   9   0   5  582.64   23.30
  -9   0  -5  536.45   23.90
   9   1   5  165.08    8.70
  -9  -1  -5  136.59    8.40
  -9  -1  -5  141.79    6.80
  -9  -1  -5  146.29    9.10
  -9  -2  -5   66.39    5.00
   9   3   5  255.27   13.40
  -9  -3  -5  262.77   12.90
   9   4   5   10.60    3.00
   9   4   5    9.40    3.00
  -9  -4  -5   10.10    2.90
   9   5   5  715.43   29.10
   9   5   5  648.54   28.50
  -9  -5  -5  676.63   27.60
  -9  -5  -5  651.63   28.60
   9   6   5  152.78    8.90
   9   6   5  161.88    8.60
  -9  -6  -5  140.49    8.10
  -9  -6  -5  158.98    9.10
   9   7   5  313.67   13.70
  -9  -7  -5  257.97   13.10
  -9  -7  -5  282.77   13.30
  10   4   5    1.90    2.00
  10   5   5   37.30    3.50
  10   5   5   35.90    3.10
 -10  -5  -5   41.60    4.40
  -5  -4   6  210.38   12.10
  -5  -4   6  183.48    8.80
   5   4  -6  198.08    9.50
   5   4  -6  179.68    8.90
  -5  -3   6   14.30    2.50
   5   3  -6   15.90    2.90
   5   3  -6   14.60    3.10
   5   2  -6   74.79    7.00
   5   2  -6   52.59    5.20
  -5  -1   6  282.17   15.70
   5   1  -6  272.27   15.30
  -5   0   6  182.38    9.40
   5   0  -6  204.28   10.50
  -5   1   6  193.48   11.20
  -5   1   6  224.78   13.90
  -5   1   6  207.38   10.50
   5  -1  -6  217.28   10.60
  -4  -5   6  594.84   25.80
  -4  -5   6  599.34   26.00
   4   5  -6  621.84   25.30
  -4  -4   6  431.86   19.60
  -4  -4   6  407.76   22.40
  -4  -4   6  429.36   19.30
   4   4  -6  412.66   18.70
   4   4  -6  403.06   18.10
  -4  -3   6    6.80    2.30
  -4  -3   6    9.00    3.90
  -4  -3   6    8.40    2.50
   4   3  -6    9.30    2.90
   4   3  -6    4.40    2.40
  -4  -2   6  239.48   12.90
  -4  -2   6  253.87   15.10
  -4  -2   6  224.58   12.00
   4   2  -6  250.67   13.00
   4   2  -6  238.98   12.50
  -4  -1   6  154.38   16.90
  -4  -1   6  234.58   12.20
   4   1  -6  211.18   11.90
   4   1  -6  210.48   11.50
  -4   0   6  580.54   26.30
  -4   0   6  603.84   27.40
  -4   0   6  591.84   26.70
   4   0  -6  649.83   27.40
  -4   1   6    1.10    1.90
  -4   1   6    4.00    3.20
  -4   1   6    1.40    2.10
   4  -1  -6    4.10    2.60
  -4   2   6  194.38    8.70
  -4   2   6  202.48   13.90
  -4   2   6  240.78   13.70
  -4   2   6  217.38   12.90
   4  -2  -6  197.18   10.80
  -4   3   6   80.19    7.20
  -4   3   6   66.79    6.90
  -4   3   6   68.39    5.50
   4  -3  -6   67.59    4.90
  -3  -6   6   31.20    3.70
   3   6  -6   31.70    2.80
   3   6  -6   30.50    3.50
  -3  -5   6   -1.70    2.00
  -3  -5   6    0.40    3.40
  -3  -5   6    4.50    2.80
   3   5  -6    0.00    1.20
  -3  -4   6  316.57   17.30
  -3  -4   6  315.67   16.00
  -3  -4   6  306.27   16.10
   3   4  -6  314.87   15.20
  -3  -3   6  981.40   43.70
  -3  -3   6  993.70   42.00
  -3  -3   6 1015.10   41.80
   3   3  -6  999.30   41.10
   3   3  -6  970.40   40.90
  -3  -2   6  151.78   11.50
  -3  -2   6  150.18    9.60
  -3  -2   6  139.99    9.40
   3   2  -6  144.79    8.90
   3   2  -6  151.78    9.50
  -3  -1   6  278.17   17.40
  -3  -1   6  284.77   16.40
   3   1  -6  261.77   18.20
  -3   0   6   76.29   10.10
  -3   0   6   55.79    8.00
  -3   0   6   60.19    6.60
  -3   1   6  879.11   39.50
  -3   1   6  877.71   37.90
  -3   1   6  907.31   40.70
  -3   1   6  892.91   37.20
   3  -1  -6  888.31   37.90
  -3   2   6    5.10    2.20
  -3   2   6   10.30    4.60
  -3   2   6    5.40    2.80
   3  -2  -6    9.30    2.90
  -3   3   6  147.69   12.30
  -3   3   6  140.49   11.20
  -3   3   6  126.39    9.50
   3  -3  -6  148.59    9.00
  -3   4   6 1171.98   50.69
  -3   4   6 1221.38   50.49
  -3   5   6   45.40    4.60
  -3   5   6   55.79    5.20
  -3   5   6   57.39    5.20
  -2  -6   6   73.09    6.10
   2   6  -6   72.69    5.50
   2   6  -6   64.49    4.50
  -2  -5   6 1616.14   63.49
  -2  -5   6 1570.24   63.39
   2   5  -6 1493.65   61.29
  -2  -4   6  234.88   13.90
  -2  -4   6  260.07   14.10
  -2  -4   6  238.48   13.20
   2   4  -6  252.17   20.40
   2   4  -6  242.78   12.50
   2   4  -6  212.38   11.20
  -2  -3   6  313.17   16.70
  -2  -3   6  291.07   15.80
  -2  -3   6  324.57   18.20
   2   3  -6  305.57   15.50
   2   3  -6  308.77   22.70
   2   3  -6  309.77   15.50
  -2  -2   6   73.89    7.30
  -2  -2   6   71.99    8.80
  -2  -2   6   70.59    6.80
   2   2  -6   75.79    6.50
   2   2  -6   76.49    6.80
  -2  -1   6  338.87   17.20
  -2  -1   6  328.17   18.70
  -2  -1   6  343.87   17.00
   2   1  -6  318.57   16.70
   2   1  -6  312.17   16.10
   2   1  -6  349.07   23.70
  -2   0   6  253.67   13.60
  -2   0   6  254.77   16.20
  -2   0   6  247.58   13.10
   2   0  -6  234.18   13.10
   2   0  -6  254.17   13.70
   2   0  -6  242.48   19.30
  -2   1   6   10.30    4.60
  -2   1   6    1.90    2.10
  -2   1   6    8.80    2.40
   2  -1  -6    3.50    2.50
   2  -1  -6   -1.90    3.90
  -2   2   6 1042.60   44.70
  -2   2   6  991.10   42.60
  -2   2   6 1030.30   41.50
   2  -2  -6  909.61   48.70
   2  -2  -6 1037.00   42.60
  -2   3   6  625.24   28.30
  -2   3   6  679.43   31.50
  -2   3   6  636.94   26.30
  -2   3   6  622.04   28.70
   2  -3  -6  574.44   27.50
  -2   4   6   40.10    6.60
  -2   4   6   40.70    5.50
  -2   4   6   31.80    4.70
  -2   4   6   45.90    6.90
   2  -4  -6   46.70    5.00
  -2   5   6  500.55   22.80
  -2   5   6  488.75   23.80
  -2   5   6  470.55   23.00
  -2   5   6  480.15   21.70
  -2   6   6  297.77   15.30
  -2   6   6  297.87   14.70
  -1  -6   6   75.09    6.30
   1   6  -6   71.99    6.80
   1   6  -6   65.99    4.30
  -1  -5   6  259.67   14.60
  -1  -5   6  245.68   14.30
   1   5  -6  255.37   12.60
  -1  -4   6   24.20    4.00
  -1  -4   6   35.90    6.10
  -1  -4   6   34.40    5.40
   1   4  -6   36.40    4.50
   1   4  -6   33.70    7.30
  -1  -3   6  137.69   10.70
  -1  -3   6  149.88   10.60
  -1  -3   6  134.39    9.00
   1   3  -6  143.79    8.70
   1   3  -6  141.79    8.90
  -1  -2   6 1984.40   80.39
  -1  -2   6 2025.10   79.69
  -1  -2   6 2095.49   81.99
   1   2  -6 1984.10   78.69
   1   2  -6 1937.91   86.79
   1   2  -6 1970.80   78.99
  -1  -1   6  149.69   10.80
  -1  -1   6  143.29    9.90
  -1  -1   6  141.79    9.40
   1   1  -6  136.39    9.10
   1   1  -6  134.19    8.60
   1   1  -6  134.99   13.00
  -1   0   6  548.25   24.20
  -1   0   6  544.55   26.40
  -1   0   6  522.95   24.30
   1   0  -6  528.45   23.70
   1   0  -6  503.45   24.10
   1   0  -6  514.25   29.50
  -1   1   6  705.33   29.70
  -1   1   6  688.63   31.90
  -1   1   6  649.34   29.50
  -1   1   6  677.93   29.40
   1  -1  -6  657.53   29.50
   1  -1  -6  693.73   35.60
   1  -1  -6  695.03   30.20
  -1   2   6   46.70    5.40
  -1   2   6   41.40    5.30
  -1   2   6   51.99    7.70
  -1   2   6   51.59    5.20
   1  -2  -6   43.10    5.30
   1  -2  -6   37.50    7.90
  -1   3   6  126.19    7.90
  -1   3   6  120.19    9.30
  -1   3   6  126.39    9.20
  -1   3   6  117.39    9.70
   1  -3  -6  128.09    8.80
   1  -3  -6  119.39   12.10
  -1   4   6  725.83   32.70
  -1   4   6  731.73   35.10
  -1   4   6  753.42   30.00
  -1   4   6  694.43   34.30
  -1   4   6  741.53   32.80
   1  -4  -6  730.93   37.40
  -1   5   6   36.60    5.20
  -1   5   6   38.30    5.30
  -1   5   6   38.90    6.10
   1  -5  -6   27.70    4.30
  -1   6   6  569.14   26.60
  -1   6   6  542.25   24.70
  -1   6   6  557.04   25.50
  -1   7   6  197.68    9.90
  -1   7   6  183.78   10.30
  -1   7   6  202.28   10.40
   0  -6   6   38.20    4.00
   0   6  -6   26.90    2.10
   0   6  -6   37.00    6.10
   0  -5   6 1329.47   54.59
   0  -5   6 1312.77   54.59
   0  -4   6   15.50    4.10
   0   4  -6   12.70    6.40
   0  -3   6   54.19    6.40
   0  -3   6   62.99    6.20
   0  -3   6   60.59    6.90
   0   3  -6   66.69   11.50
   0   3  -6   62.29    5.20
   0   3  -6   51.69    4.70
   0  -2   6 1413.26   59.09
   0  -2   6 1417.96   58.09
   0  -2   6 1398.56   64.09
   0   2  -6 1362.06   64.89
   0   2  -6 1406.16   56.49
   0   2  -6 1433.26   56.59
   0  -1   6   19.30    4.30
   0  -1   6   24.50    6.20
   0  -1   6   23.30    3.80
   0  -1   6   22.70    4.80
   0   1  -6   19.40    3.50
   0   1  -6   17.50    5.80
   0   0   6  204.68   12.20
   0   0   6  225.48   12.20
   0   0   6  227.78   13.60
   0   0  -6  216.98   12.00
   0   0  -6  209.38   11.50
   0   0  -6  203.48   15.90
   0   1   6  772.02   35.30
   0   1   6  799.22   33.80
   0   1   6  765.12   33.90
   0  -1  -6  778.02   34.00
   0  -1  -6  807.42   33.70
   0  -1  -6  872.71   39.90
   0   2   6  532.55   24.60
   0   2   6  550.34   25.90
   0   2   6  542.75   23.90
   0  -2  -6  568.74   25.10
   0  -2  -6  550.74   29.20
   0   3   6  115.59    8.50
   0   3   6  113.29    7.50
   0   3   6  106.49    8.80
   0  -3  -6  104.99    7.70
   0   4   6 2962.60  111.59
   0   4   6 2842.02  113.89
   0   4   6 2995.00  113.99
   0  -4  -6 2801.72  112.99
   0   5   6   24.50    4.40
   0   5   6   24.70    5.80
   0   5   6   21.90    2.70
   0   5   6   28.20    5.90
   0   6   6   41.20    6.30
   0   6   6   39.00    5.60
   0   6   6   36.50    6.30
   0   7   6  810.92   37.50
   0   7   6  842.92   37.20
   0   7   6 1011.00   41.70
   1  -6   6   51.29    4.40
  -1   6  -6   47.80    4.90
  -1   6  -6   59.19    5.20
   1  -5   6  566.94   25.50
   1  -5   6  548.05   25.30
  -1   5  -6  512.75   22.40
  -1   5  -6  565.74   29.10
  -1   5  -6  563.14   24.30
   1  -4   6 1035.30   43.20
   1  -4   6  964.40   43.10
  -1   4  -6 1053.89   40.60
  -1   4  -6  939.71   41.00
  -1   4  -6  958.80   50.19
   1  -3   6   34.20    5.90
   1  -3   6   39.50    5.00
  -1   3  -6   34.00    4.40
  -1   3  -6   34.20    8.00
  -1   3  -6   49.40    8.30
  -1   3  -6   36.60    4.50
   1  -2   6   12.20    3.00
   1  -2   6    8.80    3.70
   1  -2   6   11.30    3.30
   1  -2   6    1.00    5.10
  -1   2  -6    9.60    5.60
  -1   2  -6   10.40    2.70
  -1   2  -6    8.70    4.70
   1  -1   6 1727.33   69.39
   1  -1   6 1750.02   67.89
   1  -1   6 1664.23   68.39
   1  -1   6 1661.63   73.59
  -1   1  -6 1705.43   74.39
  -1   1  -6 1686.43   67.09
  -1   1  -6 1682.73   67.29
  -1   1  -6 1682.73   71.09
   1   0   6  288.97   15.10
   1   0   6  301.07   15.80
   1   0   6  309.97   18.30
   1   0   6  306.37   16.50
  -1   0  -6  311.97   15.20
  -1   0  -6  301.27   14.90
   1   1   6  320.07   16.20
   1   1   6  315.77   16.80
   1   1   6  318.87   15.60
  -1  -1  -6  306.67   15.40
  -1  -1  -6  332.87   19.80
  -1  -1  -6  318.67   15.90
   1   2   6  778.22   33.00
   1   2   6  754.02   32.60
   1   2   6  712.83   34.00
   1   2   6  790.52   34.10
   1   2   6  822.42   34.00
  -1  -2  -6  744.53   32.90
  -1  -2  -6  816.02   37.40
  -1  -2  -6  788.62   33.40
   1   3   6  110.19    8.10
   1   3   6   84.49    7.10
   1   3   6  107.09    7.80
   1   3   6   99.39    7.00
  -1  -3  -6  116.49   10.00
  -1  -3  -6   99.09    7.50
   1   4   6 1420.46   57.69
   1   4   6 1392.56   57.09
   1   4   6 1408.16   55.69
  -1  -4  -6 1368.76   56.79
   1   5   6   20.10    3.00
   1   5   6   24.40    4.50
   1   5   6   21.50    4.50
  -1  -5  -6   28.10    3.70
   1   6   6  124.49   10.50
   1   6   6  114.69    9.60
   1   6   6  137.29   10.10
  -1  -6  -6  129.69    8.20
   1   7   6   -0.40    4.40
   1   7   6   -0.80    2.50
   1   7   6   -0.20    2.50
   1   8   6   69.19    6.10
   1   8   6   64.19    6.00
  -2   6  -6  607.64   25.50
  -2   6  -6  541.45   25.90
  -2   6  -6  637.34   28.60
   2  -5   6  540.15   29.50
  -2   5  -6  627.14   35.80
  -2   5  -6  609.14   26.30
  -2   5  -6  618.14   27.00
   2  -4   6  101.59    8.50
   2  -4   6   87.59    7.40
  -2   4  -6  110.79   14.00
  -2   4  -6   93.99    7.40
  -2   4  -6   98.19    6.20
  -2   4  -6   93.19   14.70
   2  -3   6  326.97   18.70
   2  -3   6  327.77   17.90
  -2   3  -6  334.47   16.80
  -2   3  -6  345.47   22.60
  -2   3  -6  342.37   15.90
  -2   3  -6  380.66   27.30
   2  -2   6   20.30    3.90
   2  -2   6   16.60    4.70
  -2   2  -6   17.50    6.60
  -2   2  -6   21.00    3.40
  -2   2  -6   20.10    3.30
  -2   2  -6   12.90    5.70
   2  -1   6   84.99   10.40
   2  -1   6   79.79    7.20
   2  -1   6   81.79    6.60
   2  -1   6   95.29    7.70
  -2   1  -6   83.59    6.40
  -2   1  -6  106.99   11.50
  -2   1  -6   98.29    6.80
  -2   1  -6   90.89    9.40
   2   0   6  117.09    8.60
   2   0   6  131.39    9.30
   2   0   6  122.89   11.40
   2   0   6  144.09    8.80
  -2   0  -6  136.39   11.60
  -2   0  -6  121.29    8.20
  -2   0  -6  131.59    8.20
  -2   0  -6  125.29    9.90
   2   1   6  106.99    7.90
   2   1   6  122.19   10.00
   2   1   6  124.89    8.80
   2   1   6  116.59    8.00
  -2  -1  -6  122.59    7.60
  -2  -1  -6  116.49   10.20
  -2  -1  -6  119.49    8.00
   2   2   6  358.86   17.80
   2   2   6  353.26   17.90
   2   2   6  377.46   17.40
   2   2   6  351.66   17.40
  -2  -2  -6  365.16   17.60
  -2  -2  -6  350.56   19.60
  -2  -2  -6  373.66   18.50
   2   3   6  264.97   13.20
   2   3   6  257.97   13.30
   2   3   6  249.38   13.00
   2   3   6  272.77   16.00
   2   3   6  259.87   13.80
   2   3   6  260.27   14.20
  -2  -3  -6  248.88   14.30
  -2  -3  -6  250.67   13.60
   2   4   6   13.30    4.40
   2   4   6    1.40    1.70
   2   4   6    3.60    2.30
   2   4   6    3.10    2.10
  -2  -4  -6    3.70    2.30
   2   5   6 1945.21   83.19
   2   5   6 2070.19   77.39
   2   5   6 1968.60   79.39
   2   5   6 1980.00   79.09
  -2  -5  -6 1921.01   78.59
   2   6   6  788.82   35.20
   2   6   6  800.92   32.40
   2   6   6  829.82   35.60
   2   6   6  773.12   39.50
  -2  -6  -6  795.22   34.40
   2   7   6  133.59    9.40
   2   7   6  140.09    9.90
   2   7   6  115.39    9.00
  -2  -7  -6  128.39    8.20
   2   8   6  321.97   16.30
   2   8   6  308.37   15.90
   3  -5   6  587.94   24.80
  -3   5  -6  573.54   25.00
  -3   5  -6  543.35   24.70
  -3   5  -6  593.84   35.60
   3  -4   6  732.13   31.70
  -3   4  -6  729.43   31.30
  -3   4  -6  701.93   39.70
  -3   4  -6  678.73   31.10
  -3   4  -6  698.33   28.10
  -3   4  -6  742.43   38.60
   3  -3   6  432.96   21.60
   3  -3   6  474.25   23.00
  -3   3  -6  439.56   28.20
  -3   3  -6  422.56   22.10
  -3   3  -6  443.16   26.80
  -3   3  -6  438.06   21.20
  -3   3  -6  438.46   19.40
   3  -2   6  257.07   14.40
  -3   2  -6  248.38   19.20
  -3   2  -6  254.17   15.10
  -3   2  -6  248.78   13.70
  -3   2  -6  248.88   12.80
  -3   2  -6  254.57   19.50
   3  -1   6  205.58   12.00
   3  -1   6  211.58   18.10
  -3   1  -6  208.28   15.80
  -3   1  -6  202.08   10.60
  -3   1  -6  202.68   11.50
  -3   1  -6  159.48   15.60
  -3   1  -6  204.08   13.10
   3   0   6 1059.19   48.50
   3   0   6  970.30   41.30
   3   0   6  974.90   41.80
  -3   0  -6 1009.90   44.10
  -3   0  -6  992.40   40.80
  -3   0  -6 1011.60   40.90
  -3   0  -6  938.21   45.50
   3   1   6  575.54   25.60
   3   1   6  580.04   30.20
   3   1   6  575.24   25.20
   3   1   6  555.04   25.70
  -3  -1  -6  567.04   28.10
  -3  -1  -6  560.44   24.90
  -3  -1  -6  557.84   25.00
   3   2   6 1947.51   76.99
   3   2   6 2034.90   81.99
   3   2   6 1932.31   76.49
   3   2   6 1946.61   77.09
   3   2   6 1940.21   76.79
  -3  -2  -6 1919.11   76.49
  -3  -2  -6 1885.61   76.79
   3   3   6  616.34   27.00
   3   3   6  591.44   26.60
   3   3   6  649.04   27.60
   3   3   6  630.34   30.10
   3   3   6  608.84   26.50
  -3  -3  -6  585.34   27.00
  -3  -3  -6  596.04   26.80
   3   4   6  175.18   13.20
   3   4   6  181.88   10.60
   3   4   6  190.98   10.00
   3   4   6  200.58   11.70
   3   4   6  164.68   11.30
  -3  -4  -6  171.08   10.70
   3   5   6  504.95   28.20
   3   5   6  501.15   24.10
   3   5   6  533.15   22.80
   3   5   6  501.35   23.70
  -3  -5  -6  507.85   23.70
   3   6   6  129.89    9.30
   3   6   6  125.79    9.40
   3   6   6  155.78   15.40
   3   6   6  144.99    8.30
  -3  -6  -6  132.49    9.20
   3   7   6  151.48    7.60
   3   7   6  155.88   10.90
   3   7   6  185.58   16.10
   3   7   6  153.78   10.40
  -3  -7  -6  138.99    9.00
   3   8   6  807.92   33.80
   3   8   6  791.22   33.70
  -3  -8  -6  731.03   31.90
   3   9   6  213.98   10.80
   3   9   6  190.18   10.60
  -4   5  -6  340.27   16.90
  -4   5  -6  438.46   24.00
   4  -4   6  229.78   13.30
   4  -4   6  224.68   12.10
  -4   4  -6  217.58   11.40
  -4   4  -6  224.58   12.60
  -4   4  -6  238.98   28.30
  -4   4  -6  224.38   13.10
   4  -3   6   46.10    5.70
  -4   3  -6   41.80    9.10
  -4   3  -6   46.30    5.80
  -4   3  -6   40.60    8.50
  -4   3  -6   47.20   11.60
  -4   3  -6   44.90    3.60
   4  -2   6  189.18   11.70
  -4   2  -6  176.38   11.10
  -4   2  -6  176.58   13.40
  -4   2  -6  185.88   17.50
  -4   2  -6  188.68   10.00
   4  -1   6   32.10    4.70
  -4   1  -6   37.70    4.50
  -4   1  -6   35.90    7.60
  -4   1  -6   29.30    6.20
  -4   1  -6   37.80    6.40
  -4   1  -6   27.60    4.60
   4   0   6   14.30    4.50
   4   0   6   23.90    3.70
   4   0   6   23.20    4.20
  -4   0  -6   26.40    6.30
  -4   0  -6   16.10    2.80
  -4   0  -6   26.00    4.50
  -4   0  -6   22.50    5.30
  -4   0  -6   24.20    3.70
   4   1   6  961.00   47.30
   4   1   6  969.50   40.70
   4   1   6  958.80   40.20
  -4  -1  -6  955.80   43.30
  -4  -1  -6  971.80   41.80
  -4  -1  -6  938.31   42.10
  -4  -1  -6  948.91   39.80
  -4  -1  -6 1007.00   40.00
   4   2   6  228.18   12.70
   4   2   6  246.58   12.50
   4   2   6  219.38   16.50
  -4  -2  -6  223.78   12.30
  -4  -2  -6  227.68   13.70
  -4  -2  -6  235.68   12.30
   4   3   6  385.06   18.00
   4   3   6  386.56   18.10
   4   3   6  382.46   18.20
   4   3   6  367.26   18.00
   4   3   6  376.86   22.60
  -4  -3  -6  376.76   18.30
  -4  -3  -6  368.46   17.90
   4   4   6    7.70    2.70
   4   4   6   10.10    2.70
   4   4   6    7.40    2.60
   4   4   6   10.80    2.80
  -4  -4  -6    3.90    2.00
  -4  -4  -6    6.70    2.30
   4   5   6 1198.28   54.89
   4   5   6 1199.58   49.40
   4   5   6 1159.58   48.80
   4   5   6 1217.78   48.30
  -4  -5  -6 1161.68   49.20
   4   6   6 1144.19   48.40
   4   6   6 1189.48   47.00
   4   6   6 1147.59   48.40
  -4  -6  -6 1146.49   48.20
   4   7   6    4.80    2.10
   4   7   6    5.30    3.20
   4   7   6    0.00    5.70
   4   7   6    1.40    2.80
  -4  -7  -6    0.80    1.60
   4   8   6 2918.91  116.99
   4   8   6 2986.70  116.69
  -4  -8  -6 3098.59  116.89
   4   9   6   85.89    6.40
   4   9   6   75.49    6.00
  -5   4  -6   16.40   11.00
  -5   4  -6   10.90    2.60
   5  -3   6 1552.14   58.69
  -5   3  -6 1381.06   63.69
  -5   3  -6 1413.76   58.19
  -5   3  -6 1357.16   59.09
   5  -2   6  435.16   20.60
  -5   2  -6  433.36   21.20
  -5   2  -6  387.96   24.50
  -5   2  -6  447.06   26.40
  -5   2  -6  413.76   27.40
  -5   2  -6  424.96   18.50
   5  -1   6  269.27   15.10
  -5   1  -6  283.97   17.70
  -5   1  -6  271.27   17.40
  -5   1  -6  280.07   13.60
  -5   1  -6  275.77   15.40
   5   0   6  379.36   19.20
  -5   0  -6  391.36   23.00
  -5   0  -6  383.66   18.00
  -5   0  -6  371.06   21.20
  -5   0  -6  394.96   20.90
   5   1   6    2.40    1.90
   5   1   6    2.40    2.40
  -5  -1  -6    0.40    3.00
  -5  -1  -6    5.20    2.50
  -5  -1  -6    2.30    2.00
  -5  -1  -6    7.30    4.50
  -5  -1  -6    2.00    1.70
   5   2   6  717.93   38.70
   5   2   6  701.63   31.20
   5   2   6  713.53   30.80
  -5  -2  -6  703.33   30.70
  -5  -2  -6  737.73   31.00
   5   3   6  296.37   15.30
   5   3   6  295.17   20.60
   5   3   6  283.07   14.80
  -5  -3  -6  307.87   15.40
  -5  -3  -6  292.17   14.80
   5   4   6  125.29    8.70
   5   4   6  124.79    8.30
   5   4   6  137.09    8.80
   5   4   6  153.18   14.20
  -5  -4  -6  130.89    9.10
  -5  -4  -6  130.09    8.40
   5   5   6  402.86   24.80
   5   5   6  410.96   19.50
   5   5   6  425.36   19.40
   5   5   6  393.46   18.80
  -5  -5  -6  406.36   20.00
  -5  -5  -6  407.66   19.60
   5   6   6   42.10    8.40
   5   6   6   43.80    5.10
   5   6   6   58.89    6.10
   5   6   6   42.40    5.20
  -5  -6  -6   45.00    6.00
   5   7   6    0.40    2.60
   5   7   6   14.40    6.40
   5   7   6    0.70    1.50
   5   7   6    4.50    2.60
  -5  -7  -6   -0.40    2.40
   5   8   6  223.08   13.10
   5   8   6  234.48   10.90
   5   8   6  226.78   12.20
  -5  -8  -6  244.78   12.50
   5   9   6  682.73   29.00
   5   9   6  637.84   28.20
  -5  -9  -6  701.83   28.10
   6  -3   6   16.90    2.80
  -6   3  -6   17.90    5.30
  -6   3  -6    8.60   11.90
  -6   3  -6   19.40    3.10
   6  -2   6  190.28   10.50
  -6   2  -6  184.68   14.80
  -6   2  -6  189.78   14.40
  -6   2  -6  157.08    8.00
  -6   2  -6  183.58   11.50
   6  -1   6    7.80    3.10
  -6   1  -6   12.80    2.50
  -6   1  -6   15.20    5.50
  -6   1  -6   14.40    5.00
  -6   1  -6   14.20    3.90
   6   0   6 1624.74   65.79
  -6   0  -6 1458.75   70.09
  -6   0  -6 1628.24   67.89
  -6   0  -6 1745.13   67.99
  -6   0  -6 1645.84   64.29
   6   1   6   11.00    2.90
  -6  -1  -6    3.30    2.40
  -6  -1  -6   11.70    3.80
  -6  -1  -6    8.80    3.90
  -6  -1  -6    7.40    2.60
   6   2   6  643.24   29.90
   6   2   6  673.63   29.60
  -6  -2  -6  656.13   28.90
  -6  -2  -6  705.83   31.50
  -6  -2  -6  690.43   29.40
   6   3   6 4621.74  174.48
   6   3   6 4575.04  173.88
  -6  -3  -6 4455.35  173.68
  -6  -3  -6 4485.05  173.78
   6   4   6  147.89    9.60
   6   4   6  161.28   10.40
  -6  -4  -6  169.48   10.20
  -6  -4  -6  168.38   10.60
   6   5   6   45.00    5.10
   6   5   6   42.60    8.90
   6   5   6   23.00    3.90
  -6  -5  -6   34.40    4.80
  -6  -5  -6   25.80    4.40
   6   6   6 1118.89   51.39
  -6  -6  -6  972.10   44.90
   6   7   6  115.79    7.70
   6   7   6  106.59    8.40
  -6  -7  -6  117.09    8.30
   6   8   6  680.33   30.20
  -6  -8  -6  702.03   30.10
   6   9   6   12.40    2.60
  -6  -9  -6    5.80    2.30
   7  -2   6  202.48   10.60
  -7   2  -6  162.78   12.60
  -7   2  -6  203.58   10.90
  -7   2  -6  182.38   13.30
  -7   1  -6  371.66   23.60
  -7   1  -6  360.96   18.00
  -7   1  -6  353.86   19.70
   7   0   6  161.58   10.10
  -7   0  -6  162.28    8.90
  -7   0  -6  160.48   10.90
  -7   0  -6  166.78   11.40
  -7   0  -6  181.18   12.00
   7   1   6   88.59    7.20
  -7  -1  -6   84.59    6.50
  -7  -1  -6   91.89    8.10
   7   2   6  953.00   40.80
  -7  -2  -6  903.11   40.40
   7   3   6   22.50    3.80
   7   3   6   24.40    4.50
  -7  -3  -6   22.10    3.60
  -7  -3  -6   14.60    2.90
   7   4   6    3.00    2.50
   7   4   6    3.90    2.90
  -7  -4  -6    7.30    2.80
  -7  -4  -6    6.00    2.70
   7   5   6  169.48   10.40
   7   5   6  169.88   14.50
   7   5   6  180.58   10.30
  -7  -5  -6  159.38   10.50
  -7  -5  -6  164.38   10.10
   7   6   6  573.74   26.50
   7   6   6  674.23   28.00
  -7  -6  -6  618.14   27.70
  -7  -6  -6  662.63   28.50
   7   7   6    4.70    2.50
  -7  -7  -6   -1.80    2.20
  -7  -7  -6    1.20    2.50
   7   8   6    1.80    2.20
   7   8   6    3.00    2.50
   7   9   6  429.46   18.10
  -7  -9  -6  386.46   17.90
   8  -1   6  153.58    8.10
  -8   1  -6  129.09   10.80
  -8   1  -6  137.69    8.80
  -8   1  -6  164.08    9.00
   8   0   6  326.37   15.90
  -8   0  -6  308.17   19.50
  -8   0  -6  393.46   21.60
   8   1   6  194.88   11.10
  -8  -1  -6  198.48   10.10
  -8  -1  -6  195.18   12.00
   8   2   6  154.68    9.60
  -8  -2  -6  138.79    8.40
   8   3   6  259.77   14.20
   8   3   6  246.48   13.60
  -8  -3  -6  268.17   13.60
   8   4   6  235.48   13.00
   8   4   6  237.58   12.70
  -8  -4  -6  234.88   12.10
  -8  -4  -6  242.98   12.80
   8   5   6  455.05   20.30
   8   5   6  423.06   20.10
  -8  -5  -6  418.96   19.80
  -8  -5  -6  418.36   20.00
   8   6   6  946.31   39.00
   8   6   6  963.90   39.70
  -8  -6  -6  961.90   39.80
  -8  -6  -6  976.30   40.00
   8   7   6   11.60    2.80
  -8  -7  -6   16.10    2.90
   8   8   6  219.38   11.10
   8   8   6  207.58   10.20
  -8  -8  -6  205.48   10.70
   9   1   6  278.97   14.70
  -9  -1  -6  259.57   13.20
   9   2   6  130.99    7.90
  -9  -2  -6  123.29    6.90
   9   3   6   26.00    3.80
  -9  -3  -6   24.20    3.10
   9   4   6   87.89    6.30
   9   4   6   82.19    6.10
  -9  -4  -6   79.69    6.10
   9   5   6   -1.50    1.80
   9   5   6    0.70    1.80
  -9  -5  -6   -0.20    1.90
  -9  -5  -6    1.10    1.40
   9   6   6    5.60    2.00
   9   6   6    4.10    1.90
  -9  -6  -6    3.00    1.60
  -9  -6  -6    3.10    1.30
   9   7   6  751.12   31.50
   9   7   6  873.41   32.30
  -9  -7  -6  680.23   32.20
  -9  -7  -6  881.41   32.30
  -4  -3   7    3.40    1.70
   4   3  -7    0.80    1.30
   4   3  -7    2.70    2.60
  -4  -2   7  275.07   13.40
   4   2  -7  295.47   13.60
   4   2  -7  267.87   13.10
  -4  -1   7  174.58    9.60
   4   1  -7  175.08    9.80
  -4   0   7  636.84   27.10
   4   0  -7  674.03   27.80
  -4   1   7  215.28   12.90
  -4   1   7  235.38   10.80
   4  -1  -7  293.97   12.70
  -4   2   7  105.19    7.30
  -4   2   7  106.39    7.90
   4  -2  -7   99.29    6.60
  -3  -4   7   16.30    3.90
  -3  -4   7   19.00    3.30
  -3  -4   7   23.50    3.60
   3   4  -7   21.40    3.10
  -3  -3   7  203.08   12.80
  -3  -3   7  150.18   12.30
   3   3  -7  179.38   10.70
   3   3  -7  214.28   12.80
  -3  -2   7  603.64   28.00
  -3  -2   7  581.64   25.70
  -3  -2   7  555.04   24.80
   3   2  -7  594.34   25.40
   3   2  -7  541.85   24.70
  -3  -1   7   14.10    2.90
  -3  -1   7   11.50    3.30
  -3  -1   7   13.80    5.00
   3   1  -7   14.00    4.40
   3   1  -7   11.40    3.30
  -3   0   7    6.90    3.10
  -3   0   7    7.00    3.20
  -3   0   7    8.60    2.80
   3   0  -7    7.20    2.40
  -3   1   7    0.60    2.60
  -3   1   7    1.50    3.10
  -3   1   7    2.70    2.30
   3  -1  -7    1.40    1.90
  -3   2   7   57.69    8.10
  -3   2   7   81.19    6.20
  -3   2   7   70.69    5.30
  -3   3   7  877.11   36.00
  -3   3   7  843.92   35.70
  -3   3   7  793.52   36.00
   3  -3  -7  798.02   34.60
  -3   4   7  102.99    6.70
  -3   4   7  125.99    6.60
  -2  -5   7    9.40    2.70
   2   5  -7    6.80    2.00
  -2  -4   7 1180.78   53.59
  -2  -4   7 1266.77   50.99
  -2  -4   7 1182.78   50.29
   2   4  -7 1337.97   49.90
  -2  -3   7  519.35   23.40
  -2  -3   7  488.45   25.10
  -2  -3   7  515.85   23.90
   2   3  -7  523.75   22.80
   2   3  -7  500.05   22.20
  -2  -2   7  774.82   33.70
  -2  -2   7  790.02   35.90
  -2  -2   7  745.73   33.40
   2   2  -7  753.52   32.70
   2   2  -7  788.72   33.10
  -2  -1   7  385.76   18.70
  -2  -1   7  392.86   21.60
  -2  -1   7  361.66   18.90
   2   1  -7  389.16   19.00
   2   1  -7  399.66   18.50
  -2   0   7  115.09   10.80
  -2   0   7  117.99    8.70
   2   0  -7  124.39    8.50
   2   0  -7  111.79    8.10
  -2   1   7 1244.48   54.29
  -2   1   7 1242.18   51.19
   2  -1  -7 1288.67   52.09
  -2   2   7  258.97   13.90
  -2   2   7  275.57   16.70
  -2   2   7  279.57   13.90
   2  -2  -7  299.97   14.90
  -2   3   7  703.83   32.10
  -2   3   7  793.22   35.00
  -2   3   7  736.83   30.50
   2  -3  -7  793.62   32.50
  -2   4   7  149.29    8.80
  -2   4   7  141.79    9.60
  -2   4   7  149.09   10.30
   2  -4  -7  135.49    8.10
  -2   5   7  127.09    7.80
  -2   5   7  147.29    9.40
  -1  -5   7   15.20    3.30
  -1  -5   7    4.40    2.10
   1   5  -7    3.90    1.80
  -1  -4   7  185.98   11.80
  -1  -4   7  210.58   13.20
  -1  -4   7  230.68   13.00
   1   4  -7  224.48   11.20
  -1  -3   7   91.49    8.60
  -1  -3   7   86.69    7.40
  -1  -3   7  100.39    8.40
   1   3  -7   95.29    6.70
   1   3  -7   88.99    6.10
  -1  -2   7   69.99    6.80
  -1  -2   7   72.59    9.00
  -1  -2   7   78.39    7.10
   1   2  -7   87.39   10.90
   1   2  -7   74.39    6.10
   1   2  -7   81.19    6.30
  -1  -1   7  461.95   22.60
  -1  -1   7  378.56   19.30
  -1  -1   7  375.66   19.50
   1   1  -7  373.86   19.00
   1   1  -7  370.36   18.40
  -1   0   7  804.42   37.50
  -1   0   7  789.62   34.80
  -1   0   7  837.22   35.40
   1   0  -7  833.42   34.70
   1   0  -7  734.83   42.10
   1   0  -7  836.22   35.40
  -1   1   7    2.10    2.00
  -1   1   7   -0.80    3.50
  -1   1   7    0.30    2.30
   1  -1  -7    0.30    3.60
   1  -1  -7    1.40    2.10
   1  -1  -7    1.90    2.70
  -1   2   7 1416.96   57.89
  -1   2   7 1407.36   60.39
   1  -2  -7 1471.85   59.49
  -1   3   7    4.10    2.10
  -1   3   7    4.00    2.20
  -1   3   7    2.90    3.10
   1  -3  -7    9.50    3.10
  -1   4   7 1388.46   56.89
  -1   4   7 1281.07   55.79
  -1   4   7 1320.97   54.49
  -1   4   7 1283.77   51.59
  -1   4   7 1329.17   54.09
   1  -4  -7 1390.36   54.19
  -1   5   7  220.58   14.40
  -1   5   7  210.38   11.30
  -1   5   7  220.88   12.90
   1  -5  -7  165.88   11.90
  -1   6   7  250.17   13.80
  -1   6   7  285.97   14.50
   0  -5   7  101.39    7.30
   0  -5   7   99.69    7.20
   0   5  -7   94.29    5.40
   0  -4   7   78.69    7.60
   0  -4   7   78.09    7.50
   0   4  -7   85.79    5.80
   0  -3   7  156.48   11.10
   0  -3   7  180.68   12.40
   0  -3   7  143.69    9.70
   0   3  -7  145.29    8.90
   0   3  -7  134.59   15.70
   0  -2   7  950.50   40.70
   0  -2   7  930.01   41.30
   0  -2   7  986.10   43.00
   0   2  -7  945.41   48.70
   0   2  -7  957.20   39.90
   0   2  -7  948.31   39.50
   0  -1   7  224.38   13.40
   0  -1   7  228.58   12.90
   0  -1   7  212.58   14.30
   0   1  -7  225.48   12.50
   0   1  -7  208.48   18.00
   0   1  -7  241.78   12.80
   0   0   7  356.66   18.00
   0   0   7  363.96   20.00
   0   0   7  338.87   17.50
   0   0  -7  365.66   18.00
   0   0  -7  325.67   17.00
   0   1   7  317.87   18.40
   0   1   7  362.66   17.40
   0   1   7  320.67   16.90
   0  -1  -7  339.77   22.50
   0  -1  -7  351.66   17.60
   0  -1  -7  326.17   16.70
   0   2   7  229.28   12.70
   0   2   7  235.28   14.50
   0  -2  -7  229.98   13.00
   0  -2  -7  190.08   16.80
   0   3   7 1356.36   57.99
   0   3   7 1508.95   60.49
   0   3   7 1460.85   58.19
   0   3   7 1499.85   59.79
   0  -3  -7 1490.45   59.29
   0  -3  -7 1343.07   64.99
   0   4   7   10.00    2.90
   0   4   7    7.70    2.50
   0   4   7    6.70    3.50
   0  -4  -7    7.00    2.70
   0   5   7  131.59    9.20
   0   5   7  134.69    9.10
   0   5   7  145.49   11.40
   0   5   7  125.39    6.10
   0  -5  -7  140.59    8.60
   0   6   7  174.08   12.40
   0   6   7  189.78   11.90
   0   6   7  188.18   11.00
   0   7   7   65.19    5.70
   0   7   7   82.39    6.50
   1  -5   7  568.04   25.20
   1  -5   7  584.44   25.00
  -1   5  -7  518.95   22.20
  -1   5  -7  586.04   25.10
   1  -4   7   80.99    7.40
   1  -4   7   84.99    7.10
  -1   4  -7   85.89    5.70
   1  -3   7  119.79    9.10
   1  -3   7  136.59   10.70
  -1   3  -7  125.19    8.10
  -1   3  -7  111.79   13.90
   1  -2   7 1118.69   47.40
   1  -2   7 1072.19   46.00
   1  -2   7 1035.80   45.00
  -1   2  -7 1093.79   44.30
  -1   2  -7 1035.30   52.89
   1  -1   7    0.70    2.40
   1  -1   7    2.30    3.10
   1  -1   7    0.10    1.80
  -1   1  -7   -1.60    4.10
  -1   1  -7    1.80    2.20
  -1   1  -7    3.10    2.30
   1   0   7 1325.57   54.79
   1   0   7 1316.17   55.39
   1   0   7 1365.96   56.79
  -1   0  -7 1398.06   54.89
  -1   0  -7 1284.37   54.19
  -1   0  -7 1325.97   61.29
   1   1   7    9.90    2.80
   1   1   7    8.30    2.70
  -1  -1  -7    6.00    2.50
  -1  -1  -7    7.20    2.90
   1   2   7    4.00    2.40
   1   2   7    4.20    3.40
   1   2   7    8.80    2.50
  -1  -2  -7    8.10    2.60
  -1  -2  -7    6.00    2.50
   1   3   7  896.71   38.40
   1   3   7  842.72   38.20
   1   3   7  899.31   37.10
  -1  -3  -7  861.51   37.70
   1   4   7  699.93   31.20
   1   4   7  707.93   29.60
   1   4   7  667.43   30.10
  -1  -4  -7  677.73   30.60
   1   5   7   36.00    3.90
   1   5   7   31.10    4.80
   1   5   7   49.50    5.70
  -1  -5  -7   38.50    5.10
   1   6   7  473.75   23.50
   1   6   7  496.15   22.50
   1   6   7  478.25   23.00
  -1  -6  -7  475.05   21.60
   1   7   7  343.27   16.60
   1   7   7  342.57   16.80
   2  -5   7    0.00    1.60
   2  -5   7    0.40    1.50
  -2   5  -7    2.90    1.80
   2  -4   7  348.27   17.90
   2  -4   7  372.76   19.00
  -2   4  -7  354.76   20.70
  -2   4  -7  374.36   15.90
   2  -3   7  147.59   10.20
   2  -3   7  156.08   11.60
  -2   3  -7  146.29    8.80
  -2   3  -7  128.69   15.10
  -2   3  -7  147.39   12.80
   2  -2   7  568.64   27.70
   2  -2   7  589.44   27.10
  -2   2  -7  566.64   29.30
  -2   2  -7  516.55   32.10
  -2   2  -7  555.34   24.90
   2  -1   7  982.30   42.30
   2  -1   7  972.10   41.50
   2  -1   7  986.10   43.10
  -2   1  -7  988.10   40.70
  -2   1  -7  982.40   44.90
  -2   1  -7  967.20   40.30
  -2   1  -7  942.91   47.80
   2   0   7  549.15   26.40
   2   0   7  584.34   33.70
   2   0   7  582.34   27.10
  -2   0  -7  597.14   32.10
  -2   0  -7  594.34   26.20
  -2   0  -7  592.44   26.20
   2   1   7  616.94   28.00
   2   1   7  592.24   27.30
   2   1   7  605.24   28.70
  -2  -1  -7  634.04   27.30
  -2  -1  -7  606.94   31.70
  -2  -1  -7  625.34   27.70
   2   2   7   93.09    7.60
   2   2   7   88.79    7.50
   2   2   7   92.39    8.50
  -2  -2  -7   97.99    7.80
  -2  -2  -7  100.09    8.30
  -2  -2  -7  102.59   10.40
   2   3   7   72.39    7.00
   2   3   7   70.39    5.90
   2   3   7   75.49    7.20
   2   3   7   71.29    6.00
  -2  -3  -7   68.49    6.80
   2   4   7  155.08   10.80
   2   4   7  153.08    9.50
   2   4   7  148.89    9.40
  -2  -4  -7  144.59    9.90
   2   5   7  241.08   12.30
   2   5   7  226.18   13.10
   2   5   7  243.68   13.90
  -2  -5  -7  244.98   13.50
   2   6   7   73.99    6.90
   2   6   7   71.49    5.00
   2   6   7   81.59    6.90
  -2  -6  -7   75.79    6.20
   2   7   7   46.20    4.80
   2   7   7   50.59    5.80
   2   7   7   44.90    5.40
  -2  -7  -7   47.80    4.50
   2   8   7    4.20    1.90
   2   8   7   -0.70    2.50
   3  -5   7  242.18   11.30
  -3   5  -7  247.08   11.50
  -3   5  -7  244.58   13.90
   3  -4   7  675.73   28.60
  -3   4  -7  630.34   25.30
  -3   4  -7  674.23   29.00
  -3   4  -7  616.34   27.20
  -3   4  -7  681.43   33.10
   3  -3   7   51.49    6.40
   3  -3   7   44.90    5.30
  -3   3  -7   40.20    4.60
  -3   3  -7   49.90    4.40
  -3   3  -7   59.49   10.90
  -3   3  -7   47.10    7.90
   3  -2   7   -2.20    2.70
  -3   2  -7    1.90    5.20
  -3   2  -7    8.10    5.50
   3  -1   7   55.29    5.30
   3  -1   7   45.30    6.80
   3  -1   7   51.49    6.30
  -3   1  -7   53.29    4.60
  -3   1  -7   59.69    8.20
  -3   1  -7   46.40    8.90
  -3   1  -7   53.09    5.40
   3   0   7  202.48   13.40
   3   0   7  207.98   12.10
   3   0   7  220.28   13.10
  -3   0  -7  217.98   11.90
  -3   0  -7  222.88   14.70
  -3   0  -7  212.58   16.20
   3   1   7   30.50    4.50
   3   1   7   25.70    4.60
   3   1   7   23.60    7.10
   3   1   7   31.30    4.80
  -3  -1  -7   35.00    7.10
  -3  -1  -7   30.40    4.40
  -3  -1  -7   29.60    4.30
   3   2   7 2070.19   82.29
   3   2   7 2119.49   82.09
   3   2   7 2123.99   82.99
  -3  -2  -7 2027.70   82.09
  -3  -2  -7 2017.50   81.69
   3   3   7  781.62   34.30
   3   3   7  795.32   33.90
   3   3   7  761.82   33.50
   3   3   7  834.72   34.90
  -3  -3  -7  763.82   33.70
  -3  -3  -7  793.82   34.40
   3   4   7  232.98   16.50
   3   4   7  223.48   12.00
   3   4   7  246.48   13.10
   3   4   7  241.38   13.70
  -3  -4  -7  263.37   14.10
   3   5   7   61.49    6.00
   3   5   7   74.29    7.40
   3   5   7   76.19    6.20
  -3  -5  -7   80.59    7.20
   3   6   7  574.34   26.30
   3   6   7  586.64   32.10
   3   6   7  575.34   24.90
   3   6   7  566.04   26.90
  -3  -6  -7  608.74   26.50
   3   7   7    6.30    2.90
   3   7   7   10.30    5.40
   3   7   7    9.10    3.50
   3   7   7    9.20    1.60
  -3  -7  -7   10.00    2.50
   3   8   7   12.50    2.80
   3   8   7   11.70    2.80
  -3  -8  -7   11.10    2.00
   4  -4   7  110.69    7.00
   4  -4   7  107.19    7.60
  -4   4  -7  104.59    7.00
  -4   4  -7  106.79   12.10
  -4   4  -7  113.39    8.30
   4  -3   7 1004.40   42.30
   4  -3   7 1017.60   41.30
  -4   3  -7  927.31   40.20
  -4   3  -7  965.40   38.40
  -4   3  -7  980.90   44.80
   4  -2   7  163.78   11.50
   4  -2   7  162.38   10.70
  -4   2  -7  186.18   13.90
  -4   2  -7  169.28   19.40
  -4   2  -7  169.38    9.30
  -4   2  -7  164.98   10.10
   4  -1   7   96.59    8.90
   4  -1   7   92.09    8.30
  -4   1  -7   98.79    9.40
  -4   1  -7   90.89    7.10
  -4   1  -7  102.19    7.20
  -4   1  -7   95.09   13.00
   4   0   7 1281.87   51.39
   4   0   7 1321.57   52.29
   4   0   7 1199.48   50.59
  -4   0  -7 1159.48   55.79
  -4   0  -7 1235.08   49.90
  -4   0  -7 1156.28   49.00
  -4   0  -7 1294.07   53.89
  -4   0  -7 1160.18   49.90
   4   1   7  372.96   19.30
   4   1   7  362.06   18.20
   4   1   7  365.46   18.60
  -4  -1  -7  364.36   17.80
  -4  -1  -7  361.16   22.00
  -4  -1  -7  355.36   19.70
  -4  -1  -7  383.16   18.00
   4   2   7 1808.02   71.19
   4   2   7 1821.82   70.79
   4   2   7 1751.72   71.49
  -4  -2  -7 1744.63   70.29
  -4  -2  -7 1724.03   70.59
   4   3   7  654.13   29.40
   4   3   7  667.53   29.00
   4   3   7  678.93   29.40
  -4  -3  -7  628.64   28.70
  -4  -3  -7  671.43   29.60
   4   4   7   68.29    5.80
   4   4   7   71.99    6.40
   4   4   7   63.39    5.90
   4   4   7   64.79    8.30
  -4  -4  -7   71.69    5.70
  -4  -4  -7   72.79    6.40
   4   5   7  364.36   18.40
   4   5   7  410.36   19.60
   4   5   7  356.36   25.70
   4   5   7  418.96   18.80
  -4  -5  -7  403.06   19.70
   4   6   7  796.82   34.50
   4   6   7  792.52   33.00
   4   6   7  757.62   33.80
  -4  -6  -7  807.42   34.40
   4   7   7  340.47   16.90
   4   7   7  321.07   16.80
   4   7   7  325.57   15.00
  -4  -7  -7  349.47   16.80
   4   8   7  109.39    7.40
   4   8   7   96.49    6.90
  -4  -8  -7   98.69    6.40
   5  -3   7  177.48   10.20
   5  -3   7  187.08   13.60
  -5   3  -7  182.38    9.80
  -5   3  -7  182.28   14.40
   5  -2   7 1072.49   44.70
   5  -2   7 1029.20   43.40
  -5   2  -7 1025.80   43.00
  -5   2  -7 1056.39   46.30
  -5   2  -7 1011.40   41.00
   5  -1   7  298.07   16.10
  -5   1  -7  309.57   15.90
  -5   1  -7  316.07   17.70
  -5   1  -7  313.17   14.80
  -5   1  -7  305.27   18.40
   5   0   7    1.00    1.90
  -5   0  -7    5.10    2.50
  -5   0  -7    0.10    1.80
  -5   0  -7    2.80    2.90
  -5   0  -7    4.40    5.90
   5   1   7  443.56   21.30
   5   1   7  470.05   22.00
  -5  -1  -7  439.26   22.50
  -5  -1  -7  458.75   20.80
  -5  -1  -7  429.16   20.10
   5   2   7  375.16   19.10
   5   2   7  368.46   18.10
   5   2   7  365.86   18.50
  -5  -2  -7  382.16   18.10
  -5  -2  -7  355.86   17.80
   5   3   7 1546.75   62.19
   5   3   7 1536.35   62.49
   5   3   7 1544.55   62.49
  -5  -3  -7 1557.24   62.09
  -5  -3  -7 1523.25   62.29
   5   4   7   65.49    6.10
   5   4   7   55.09    5.90
  -5  -4  -7   58.79    6.20
  -5  -4  -7   50.09    5.60
   5   5   7  460.95   21.60
   5   5   7  505.25   28.20
   5   5   7  448.36   20.70
   5   5   7  428.76   20.90
   5   5   7  485.35   21.70
  -5  -5  -7  461.55   21.60
  -5  -5  -7  499.55   22.70
   5   6   7  331.27   16.80
   5   6   7  346.37   17.30
   5   6   7  367.86   17.10
   5   6   7  353.76   23.30
  -5  -6  -7  357.76   17.80
   5   7   7   64.29    5.20
   5   7   7   52.39    5.80
   5   7   7   56.59    4.90
  -5  -7  -7   60.59    6.00
   5   8   7    2.10    1.80
   5   8   7    1.40    1.80
   5   8   7    0.60    1.00
  -5  -8  -7    3.20    1.60
   6  -3   7  735.83   29.70
  -6   3  -7  707.23   31.40
   6  -2   7   19.10    3.10
   6  -2   7    5.80    4.40
  -6   2  -7   21.80    6.10
  -6   2  -7   22.50    3.70
   6  -1   7   36.00    4.80
  -6   1  -7   29.10    4.70
  -6   1  -7   34.70    3.30
  -6   1  -7   38.00    5.90
  -6   1  -7   41.40    5.50
   6   0   7 1763.52   70.09
  -6   0  -7 1816.12   71.69
  -6   0  -7 1755.12   68.49
  -6   0  -7 1687.13   71.09
  -6   0  -7 1684.13   69.69
   6   1   7  310.97   16.60
   6   1   7  299.57   15.60
  -6  -1  -7  314.17   15.20
   6   2   7  384.16   19.30
   6   2   7  371.06   18.60
  -6  -2  -7  378.36   17.90
  -6  -2  -7  394.76   18.50
   6   3   7  573.54   26.50
   6   3   7  576.54   25.90
   6   3   7  570.34   26.40
  -6  -3  -7  573.54   25.80
  -6  -3  -7  592.24   26.00
   6   4   7  556.04   25.40
   6   4   7  546.45   24.90
  -6  -4  -7  576.64   25.50
  -6  -4  -7  532.45   24.90
   6   5   7   46.50    5.50
   6   5   7   45.80    4.90
   6   5   7   38.40    7.40
  -6  -5  -7   47.10    5.10
  -6  -5  -7   39.70    4.90
   6   6   7  324.07   16.00
   6   6   7  320.47   15.80
  -6  -6  -7  317.77   16.00
  -6  -6  -7  326.47   16.60
   6   7   7    7.80    2.60
   6   7   7   17.00    3.30
  -6  -7  -7   11.40    3.20
   6   8   7  110.89    6.20
   6   8   7  101.19    6.80
  -6  -8  -7  119.99    7.30
  -7   2  -7   -3.40    3.60
   7  -1   7    0.60    1.80
  -7   1  -7   -0.60    2.10
  -7   1  -7    4.10    4.90
  -7   1  -7    0.10    1.00
   7   0   7  727.13   30.20
  -7   0  -7  633.14   29.70
  -7   0  -7  706.23   30.10
   7   1   7  100.79    7.90
  -7  -1  -7   97.79    6.80
   7   2   7  166.58   10.70
   7   2   7  200.08   11.70
  -7  -2  -7  192.58   10.70
   7   3   7  295.47   15.40
   7   3   7  266.07   14.60
  -7  -3  -7  296.37   14.00
  -7  -3  -7  273.87   14.50
   7   4   7   67.09    6.00
   7   4   7   68.79    5.90
  -7  -4  -7   67.59    6.30
  -7  -4  -7   70.29    6.20
   7   5   7  356.36   16.80
   7   5   7  319.57   16.70
  -7  -5  -7  344.77   16.90
  -7  -5  -7  352.66   17.20
   7   6   7  448.96   21.20
   7   6   7  514.35   22.30
  -7  -6  -7  509.75   22.40
  -7  -6  -7  500.15   22.70
   7   7   7   86.29    6.00
   7   7   7   79.19    6.10
  -7  -7  -7   86.99    6.70
   7   8   7  149.79    7.80
   7   8   7  135.19    7.80
  -7  -8  -7  166.68    8.90
  -8   0  -7  611.74   26.10
  -8   0  -7  612.14   23.90
   8   1   7   14.60    2.90
  -8  -1  -7   13.30    3.20
  -8  -1  -7   14.60    2.90
   8   2   7   53.09    5.20
  -8  -2  -7   54.39    4.80
   8   3   7  116.29    7.70
   8   3   7  120.79    8.20
  -8  -3  -7  133.39    7.80
   8   4   7    1.70    2.00
   8   4   7   -0.50    2.10
  -8  -4  -7   -0.60    1.40
  -8  -4  -7    1.10    1.50
   8   5   7    8.00    2.70
   8   5   7    4.00    2.00
  -8  -5  -7    2.30    1.70
  -8  -5  -7    1.80    2.20
   8   6   7   91.39    6.50
   8   6   7   81.29    5.10
  -8  -6  -7   93.39    6.00
  -8  -6  -7   71.89    6.40
   8   7   7    0.60    1.40
  -8  -7  -7    0.40    1.80
  -8  -7  -7    1.10    1.90
   9   2   7   38.50    3.70
   9   2   7   26.90    3.40
  -9  -2  -7   34.00    3.50
  -9  -2  -7   32.00    2.60
   9   3   7  188.28    9.70
  -9  -3  -7  169.78    8.90
   9   4   7  218.08   11.00
   9   4   7  249.58   13.30
  -9  -4  -7  193.58   10.50
   9   5   7   46.10    5.10
   9   5   7   39.10    3.60
  -9  -5  -7   46.40    4.20
  -9  -6  -7    3.40    2.00
  -9  -6  -7    5.90    1.90
  -3  -2   8   30.80    4.50
  -3  -2   8   36.60    3.70
   3   2  -8   28.80    3.10
   3   2  -8   42.70    4.30
  -3  -1   8  348.67   17.10
   3   1  -8  413.66   17.40
   3   1  -8  394.96   17.00
  -3   0   8  100.99    6.40
   3   0  -8  111.69    6.70
  -3   1   8   78.49    5.60
  -3   1   8   84.59    5.50
   3  -1  -8  105.89    6.10
  -2  -3   8   89.79    5.80
  -2  -3   8   85.09    6.50
   2   3  -8   90.29    5.90
   2   3  -8   86.39    5.40
  -2  -2   8  125.29    8.10
  -2  -2   8  112.79    7.10
   2   2  -8  130.59    7.50
   2   2  -8  129.69    7.20
  -2  -1   8    5.00    3.70
  -2  -1   8    4.70    2.20
  -2  -1   8   10.70    2.70
  -2  -1   8    6.60    3.90
   2   1  -8    6.60    2.30
   2   1  -8    5.80    1.80
  -2   0   8  217.08   11.80
  -2   0   8  210.48   12.10
  -2   0   8  225.88   13.80
   2   0  -8  218.28   12.00
   2   0  -8  212.58   11.20
  -2   1   8  107.89    9.40
  -2   1   8  115.09    7.50
  -2   1   8  113.09    8.80
   2  -1  -8  115.59    7.70
  -2   2   8   81.09    5.50
  -2   2   8   83.79    7.10
   2  -2  -8   86.09    6.20
  -2   3   8  185.88   11.20
  -2   3   8  215.38   12.10
   2  -3  -8  212.88   10.50
  -1  -4   8  147.99    8.60
  -1  -4   8  139.59    9.10
   1   4  -8  163.58    8.00
  -1  -3   8  260.47   15.60
  -1  -3   8  205.78   11.70
   1   3  -8  205.48   11.90
  -1  -2   8 2291.77   91.99
  -1  -2   8 2404.26   94.29
  -1  -2   8 2372.06   92.39
   1   2  -8 2376.86   90.99
   1   2  -8 2302.67   91.39
  -1  -1   8   13.90    3.30
  -1  -1   8   13.30    3.10
  -1  -1   8    8.00    4.30
   1   1  -8   11.90    3.10
   1   1  -8   14.90    3.30
  -1   0   8    7.90    2.50
  -1   0   8    6.40    2.60
   1   0  -8    8.50    2.60
   1   0  -8    7.60    2.70
  -1   1   8  979.30   42.70
  -1   1   8  940.91   40.30
   1  -1  -8  984.60   40.80
   1  -1  -8  958.50   41.80
  -1   2   8   19.40    3.60
  -1   2   8   21.30    4.80
   1  -2  -8   24.00    3.80
  -1   3   8  253.37   15.40
  -1   3   8  250.67   12.30
   1  -3  -8  267.67   13.60
  -1   4   8    3.70    2.80
   1  -4  -8    1.00    1.30
  -1   5   8  462.95   21.30
   1  -5  -8  468.45   20.30
   0  -4   8   58.89    5.70
   0  -4   8   53.79    5.50
   0   4  -8   54.49    4.30
   0  -3   8  519.75   23.90
   0  -3   8  504.25   23.10
   0  -3   8  505.45   24.80
   0   3  -8  519.75   22.40
   0  -2   8  229.88   13.00
   0  -2   8  226.08   14.70
   0  -2   8  210.88   12.20
   0   2  -8  214.08   11.10
   0   2  -8  219.98   11.90
   0  -1   8  222.18   13.20
   0  -1   8  228.38   12.80
   0  -1   8  210.88   14.70
   0   1  -8  215.38   18.90
   0   1  -8  231.18   12.40
   0   1  -8  232.48   12.50
   0   0   8   21.20    5.70
   0   0   8   26.50    4.30
   0   0   8   29.80    4.50
   0   0  -8   31.50    4.30
   0   0  -8   29.10    4.40
   0   0  -8   38.20    7.60
   0   1   8 1152.68   49.00
   0   1   8 1275.27   52.59
   0   1   8 1213.28   50.39
   0  -1  -8 1175.18   49.70
   0  -1  -8 1283.37   50.89
   0   2   8   32.30    4.40
   0   2   8   43.70    6.30
   0  -2  -8   46.50    5.20
   0   3   8  409.76   19.10
   0  -3  -8  417.46   20.20
   0   4   8  316.17   14.60
   0  -4  -8  330.37   16.20
   0   5   8    2.90    4.20
   0   5   8    3.10    2.00
   0  -5  -8    0.90    1.40
   0   6   8  110.29    8.50
   0   6   8  116.29    6.10
   1  -4   8  508.35   22.60
   1  -4   8  494.95   23.00
   1  -3   8  621.94   29.50
   1  -3   8  655.63   29.00
  -1   3  -8  659.43   27.40
   1  -2   8    3.70    2.30
   1  -2   8    4.50    2.40
  -1   2  -8    0.30    2.10
   1  -1   8  363.36   18.50
   1  -1   8  332.77   17.70
   1  -1   8  363.36   19.80
  -1   1  -8  355.86   17.30
  -1   1  -8  309.77   23.00
  -1   1  -8  351.36   16.90
   1   0   8 1101.99   47.70
   1   0   8 1116.99   46.40
   1   0   8 1055.49   45.70
  -1   0  -8 1050.09   52.59
  -1   0  -8 1095.29   45.60
  -1   0  -8 1130.79   45.50
   1   1   8   42.70    6.40
   1   1   8   69.19   11.40
  -1  -1  -8   40.00    7.90
   1   2   8  177.18   12.00
   1   2   8  166.68    9.40
   1   2   8  156.48   13.90
  -1  -2  -8  163.88    9.80
  -1  -2  -8  134.29   11.50
   1   3   8  836.32   35.50
   1   3   8  835.02   36.80
  -1  -3  -8  834.42   36.20
   1   4   8    1.00    2.00
   1   4   8    5.30    2.40
  -1  -4  -8    1.00    2.20
   1   5   8  178.08    8.70
   1   5   8  163.88    9.40
   1   5   8  179.08   11.10
  -1  -5  -8  181.48   10.40
   1   6   8    3.50    2.10
   1   6   8    1.40    3.10
   1   6   8   -0.60    2.40
  -1  -6  -8    0.90    2.50
   2  -4   8    2.60    2.30
   2  -4   8    2.10    2.00
  -2   4  -8    4.80    1.60
   2  -3   8    0.40    2.50
   2  -3   8   -1.10    3.10
  -2   3  -8   -0.30    1.70
   2  -2   8  430.26   23.50
   2  -2   8  577.04   25.00
  -2   2  -8  545.15   23.10
   2  -1   8   83.59    7.80
   2  -1   8   78.89    7.90
   2  -1   8   76.69    6.90
  -2   1  -8   78.49    6.80
  -2   1  -8   70.79    5.60
  -2   1  -8   78.89   10.30
   2   0   8  158.38   14.50
   2   0   8  156.28   11.10
  -2   0  -8  137.89   13.20
  -2   0  -8  134.79   14.00
   2   1   8  634.84   29.00
   2   1   8  642.64   28.80
   2   1   8  643.34   30.20
  -2  -1  -8  649.14   28.80
  -2  -1  -8  627.44   28.20
  -2  -1  -8  616.94   34.20
   2   2   8   49.10    6.50
   2   2   8   35.50    5.00
   2   2   8   37.50    4.90
  -2  -2  -8   36.60    5.30
  -2  -2  -8   36.30    4.80
   2   3   8  360.06   19.20
   2   3   8  418.26   20.70
  -2  -3  -8  371.56   19.60
   2   4   8   25.10    4.70
   2   4   8   17.20    3.10
  -2  -4  -8   20.50    3.90
   2   5   8 1179.28   47.90
   2   5   8  982.60   45.90
   2   5   8 1189.78   46.10
  -2  -5  -8 1233.38   47.60
   2   6   8  375.36   18.60
   2   6   8  416.36   19.90
   2   6   8  392.76   16.00
   2   6   8  375.96   17.50
   2   7   8   11.80    2.60
   2   7   8   15.00    2.90
   2   7   8    8.40    2.40
  -2  -7  -8    6.00    1.80
   3  -4   8  822.42   32.60
  -3   4  -8  734.83   32.80
  -3   3  -8  132.39    8.40
   3  -2   8  314.57   16.60
   3  -2   8  291.17   16.90
  -3   2  -8  305.47   14.60
   3  -1   8   33.90    5.20
   3  -1   8   38.30    5.20
   3  -1   8   46.30    6.80
  -3   1  -8   35.70    3.90
  -3   1  -8   45.60    5.10
   3   0   8  533.05   25.00
   3   0   8  521.25   23.30
  -3   0  -8  511.55   23.30
  -3   0  -8  413.96   21.90
  -3   0  -8  494.75   28.80
   3   1   8  154.08   11.30
   3   1   8  162.58   10.10
   3   1   8  150.48   10.50
  -3  -1  -8  157.28   10.00
  -3  -1  -8  146.69    9.80
   3   2   8   13.10    3.40
   3   2   8   15.60    3.50
   3   2   8    6.50    3.50
  -3  -2  -8   12.10    3.10
  -3  -2  -8   12.00    3.20
   3   3   8  748.23   32.40
   3   3   8  747.33   33.20
   3   3   8  764.22   32.20
   3   3   8  687.33   36.40
  -3  -3  -8  767.62   33.00
  -3  -3  -8  762.42   32.40
   3   4   8  167.58   10.20
   3   4   8  170.38   11.10
  -3  -4  -8  152.88    9.60
  -3  -4  -8  160.78   10.60
   3   5   8  144.89    9.90
   3   5   8  146.79    8.80
  -3  -5  -8  133.39    9.40
   3   6   8   75.69    5.70
   3   6   8   71.59    5.30
   3   6   8   74.09    6.40
  -3  -6  -8   81.29    6.20
   3   7   8  197.88   11.70
   3   7   8  152.88    9.40
  -3  -7  -8  162.98    9.00
   4  -3   8   95.49    7.10
  -4   3  -8   66.19    5.20
  -4   3  -8   78.59    4.20
   4  -2   8  275.37   14.20
   4  -2   8  266.57   15.20
  -4   2  -8  246.98   15.50
  -4   2  -8  254.37   12.20
   4  -1   8   12.40    4.10
   4  -1   8    8.70    3.30
  -4   1  -8    8.80    2.80
   4   0   8  369.66   19.20
   4   0   8  343.07   17.50
   4   0   8  357.86   18.20
  -4   0  -8  360.96   17.10
  -4   0  -8  313.67   15.50
   4   1   8 1330.57   56.69
   4   1   8 1096.69   50.39
   4   2   8  283.47   15.50
   4   2   8  303.17   15.20
   4   2   8  295.87   16.30
  -4  -2  -8  276.37   14.70
  -4  -2  -8  290.17   15.30
   4   3   8  335.57   16.80
   4   3   8  367.36   17.60
   4   3   8  319.77   17.40
  -4  -3  -8  309.37   17.00
  -4  -3  -8  343.97   17.50
   4   4   8  119.39    8.40
   4   4   8  109.09    7.50
   4   4   8  113.59   12.30
  -4  -4  -8  130.49    9.00
  -4  -4  -8  113.09    7.90
   4   5   8  214.68   11.80
   4   5   8  221.48   12.60
   4   5   8  190.58   16.40
  -4  -5  -8  216.78   12.50
   4   6   8  869.31   37.20
   4   6   8  918.91   38.80
   4   6   8  940.11   37.60
  -4  -6  -8  948.51   38.80
   4   7   8    3.00    2.50
   4   7   8    3.60    3.50
   4   7   8    2.80    1.40
   4   7   8    4.10    1.70
  -4  -7  -8    1.70    2.10
   4   8   8  464.85   21.50
   4   8   8  529.35   22.40
  -4  -8  -8  596.14   22.30
   5  -2   8  653.03   27.50
  -5   2  -8  612.54   25.20
  -5   2  -8  594.64   26.30
  -5   2  -8  664.73   29.00
   5  -1   8   37.80    5.80
   5  -1   8   53.69    5.90
  -5   1  -8   47.30    4.40
  -5   1  -8   45.30    5.60
  -5   1  -8   53.59    4.60
   5   0   8   59.99    8.20
   5   0   8   84.29    7.40
  -5   0  -8   83.19    6.00
  -5   0  -8   73.39    5.70
   5   1   8  429.36   21.30
   5   1   8  413.46   19.80
   5   1   8  431.06   20.70
  -5  -1  -8  421.66   19.50
  -5  -1  -8  381.36   18.30
   5   2   8  371.66   19.40
   5   2   8  381.66   18.80
   5   2   8  378.26   18.30
  -5  -2  -8  374.66   17.90
  -5  -2  -8  369.46   18.00
   5   3   8    7.30    3.30
   5   3   8    1.20    1.80
   5   3   8    0.80    2.50
  -5  -3  -8    2.20    2.50
  -5  -3  -8    5.40    2.80
   5   4   8    9.30    2.60
   5   4   8   13.00    6.00
   5   4   8    8.10    2.80
  -5  -4  -8    7.80    2.50
  -5  -4  -8    9.20    3.00
   5   5   8  181.18   15.80
   5   5   8  218.98   11.60
  -5  -5  -8  192.08   11.40
  -5  -5  -8  194.58   11.50
   5   6   8   20.70    3.60
  -5  -6  -8   20.80    3.50
   5   7   8  436.96   20.20
   5   7   8  448.56   19.70
   5   8   8   19.90    2.30
  -5  -8  -8   25.80    3.30
   6  -2   8  472.25   22.90
   6  -2   8  549.95   22.70
  -6   2  -8  490.95   20.50
   6  -1   8    6.20    2.70
  -6   1  -8    2.50    1.90
  -6   1  -8    6.20    1.70
   6   0   8  582.14   25.40
   6   0   8  548.45   25.60
  -6   0  -8  563.64   23.70
  -6   0  -8  521.35   23.80
   6   1   8  191.58   12.20
   6   1   8  235.38   12.90
   6   1   8  235.88   13.10
  -6  -1  -8  206.98   11.50
  -6  -1  -8  224.58   11.60
   6   2   8    1.40    2.00
   6   2   8   -0.90    2.10
  -6  -2  -8    3.40    2.30
  -6  -2  -8    1.60    2.40
  -6  -2  -8   -0.30    1.50
   6   3   8  836.22   35.90
   6   3   8  839.62   36.10
   6   3   8  801.22   35.40
  -6  -3  -8  858.01   35.40
  -6  -3  -8  848.22   35.20
   6   4   8  228.78   12.70
   6   4   8  224.88   12.50
  -6  -4  -8  227.38   12.20
  -6  -4  -8  230.18   12.40
   6   5   8   56.29    4.70
   6   5   8   58.99    5.80
  -6  -5  -8   52.29    5.10
  -6  -5  -8   57.69    6.00
   6   6   8  207.58   11.00
  -6  -6  -8  218.88   12.00
  -6  -6  -8  197.68   11.20
   6   7   8  583.44   24.90
  -6  -7  -8  605.84   26.00
   6   8   8    6.70    1.20
  -6  -8  -8   11.70    2.60
   7   0   8  184.58   10.20
   7   0   8  179.58    9.60
  -7   0  -8  135.29    8.90
  -7   0  -8  163.48    8.00
   7   1   8  149.99    9.20
  -7  -1  -8  149.99    8.80
  -7  -1  -8  163.18    8.60
   7   2   8    6.10    3.00
   7   2   8    5.60    2.30
   7   2   8   10.10    2.80
  -7  -2  -8    6.30    2.10
  -7  -2  -8    3.40    2.30
   7   3   8  438.96   19.80
   7   3   8  430.56   20.10
  -7  -3  -8  439.56   19.40
  -7  -3  -8  392.36   18.50
   7   4   8  311.07   14.90
   7   4   8  292.77   14.80
  -7  -4  -8  284.17   14.60
  -7  -4  -8  301.47   14.50
   7   5   8  127.09    8.00
   7   5   8  117.79    8.60
  -7  -5  -8  123.79    7.80
  -7  -5  -8  136.59    8.40
   7   6   8   14.50    3.10
  -7  -6  -8   17.50    3.00
  -7  -6  -8   19.60    3.30
   7   7   8   29.20    3.10
  -7  -7  -8   28.80    3.40
   8   1   8  106.49    6.60
   8   1   8  107.09    6.50
  -8  -1  -8   83.89    5.10
   8   2   8  194.28   10.20
   8   2   8  186.88    9.90
  -8  -2  -8  193.88    9.30
  -8  -2  -8  170.98   10.70
   8   3   8    1.70    2.20
   8   3   8    1.80    2.40
  -8  -3  -8    2.50    1.60
   8   4   8  501.75   22.20
   8   4   8  555.44   22.50
  -8  -4  -8  532.25   22.00
  -8  -4  -8  448.16   21.00
   8   5   8  420.26   18.70
   8   5   8  430.36   19.30
  -8  -5  -8  438.76   18.60
  -8  -5  -8  452.45   19.20
   8   6   8    8.90    2.40
  -8  -6  -8   11.80    2.10
  -8  -6  -8    7.70    2.30
  -1  -2   9  118.49    8.10
  -1  -2   9  109.79    7.20
  -1  -2   9  129.89    7.40
  -1  -1   9  153.98    8.30
  -1  -1   9  136.09    9.70
  -1  -1   9  129.59    7.00
   1   1  -9  165.58    8.40
   1   1  -9  136.69    7.50
  -1   0   9   21.70    3.20
  -1   0   9   26.30    5.10
  -1   0   9   38.20    4.30
   1   0  -9   29.20    3.70
   1   0  -9   26.40    3.20
  -1   1   9  102.29    8.20
  -1   1   9  107.79    7.80
  -1   1   9  114.99    7.10
   1  -1  -9  109.99    6.90
  -1   2   9  452.95   21.20
  -1   2   9  456.85   19.50
   1  -2  -9  472.15   20.30
  -1   3   9    2.30    0.90
  -1   3   9   10.50    3.40
   1  -3  -9    3.60    1.50
   0  -2   9  663.83   28.30
   0  -2   9  638.34   28.30
   0  -2   9  746.23   33.60
   0  -1   9    2.10    2.00
   0  -1   9    4.90    1.90
   0   1  -9    2.30    1.90
   0   1  -9    1.40    1.50
   0   0   9   10.70    2.20
   0   0   9   16.50    3.20
   0   0   9   20.00    4.60
   0   0  -9   16.40    3.00
   0   0  -9   15.50    2.80
   0   1   9  609.04   25.80
   0   1   9  575.84   27.10
   0  -1  -9  567.64   25.20
   0  -1  -9  602.44   25.90
   0   2   9  128.29    9.00
   0   2   9  133.69    8.20
   0  -2  -9  131.49    8.30
   0   3   9   -1.90    1.40
   0  -3  -9    0.60    2.00
   0   4   9  146.09    9.30
   0   4   9  130.89    6.70
   0  -4  -9  183.68   10.90
   1  -3   9   54.29    5.30
   1  -3   9   52.79    4.50
  -1   3  -9   57.59    4.10
   1  -2   9    8.00    2.80
   1  -2   9    7.40    2.80
   1  -2   9    7.50    3.70
  -1   2  -9    7.20    2.40
   1  -1   9  326.37   17.20
   1  -1   9  321.17   15.70
   1  -1   9  324.07   15.50
  -1   1  -9  299.07   14.10
  -1   1  -9  317.07   15.10
   1   0   9   99.09    7.40
   1   0   9  109.79    7.70
   1   0   9  111.89    9.60
  -1   0  -9  111.19    7.40
  -1   0  -9  102.69    7.30
   1   1   9  181.08   11.60
   1   1   9  181.68   10.40
   1   1   9  154.98    9.30
  -1  -1  -9  183.38   10.60
  -1  -1  -9  175.88   10.00
   1   2   9    2.60    2.40
   1   2   9    8.60    3.70
  -1  -2  -9    2.80    2.60
  -1  -2  -9    3.40    2.20
   1   3   9  428.06   19.90
  -1  -3  -9  449.56   20.50
   1   4   9  958.80   40.00
  -1  -4  -9 1054.69   41.50
   1   5   9   13.20    3.20
   2  -3   9  249.18   11.90
   2  -3   9  206.98   11.80
   2  -2   9   51.29    5.60
   2  -2   9   53.99    5.60
  -2   2  -9   47.20    4.30
   2  -1   9  442.06   20.70
   2  -1   9  437.46   20.40
   2  -1   9  435.66   21.70
  -2   1  -9  447.06   20.00
   2   0   9  284.17   14.80
   2   0   9  279.07   16.10
   2   0   9  287.27   14.70
  -2   0  -9  278.97   14.30
  -2   0  -9  280.07   13.80
   2   1   9    4.80    2.40
   2   1   9    4.70    2.70
   2   1   9    4.20    2.00
  -2  -1  -9    8.10    2.90
  -2  -1  -9    4.70    2.20
   2   2   9    6.30    2.30
   2   2   9    5.70    2.80
   2   2   9    2.10    3.00
  -2  -2  -9   12.50    3.20
  -2  -2  -9    6.70    3.10
   2   3   9   13.90    4.20
   2   3   9   22.60    3.70
  -2  -3  -9   23.60    3.70
  -2  -3  -9   20.80    3.40
   2   4   9    7.40    2.40
  -2  -4  -9    3.80    2.50
   2   5   9  150.78    7.70
  -2  -5  -9  145.09    8.70
   2   6   9   77.99    7.30
  -2  -6  -9   81.39    5.20
   3  -2   9  122.49    7.80
   3  -2   9  122.49    8.50
  -3   2  -9  116.69    6.60
   3  -1   9    7.60    3.00
   3  -1   9    1.10    2.90
   3  -1   9    2.40    3.20
  -3   1  -9    3.40    1.80
   3   0   9  210.98   12.60
   3   0   9  218.18   12.30
   3   0   9  198.68   11.50
  -3   0  -9  206.98   11.20
  -3   0  -9  184.68   10.00
   3   1   9  683.53   30.00
   3   1   9  679.63   29.70
   3   1   9  682.93   31.00
  -3  -1  -9  670.03   29.10
  -3  -1  -9  668.93   29.20
   3   2   9  247.78   14.40
   3   2   9  229.48   12.90
   3   2   9  247.58   12.90
  -3  -2  -9  248.08   13.30
  -3  -2  -9  241.38   12.90
   3   3   9  223.58   13.20
   3   3   9  246.18   12.90
   3   3   9  211.98   11.00
  -3  -3  -9  241.88   12.50
  -3  -3  -9  251.57   13.20
   3   4   9  551.34   24.70
  -3  -4  -9  583.54   25.60
   3   5   9   99.79    6.70
  -3  -5  -9  110.29    7.50
   3   6   9    3.60    1.50
  -3  -6  -9    2.50    1.80
   4  -2   9   19.30    2.90
   4  -2   9   18.80    3.70
  -4   2  -9   14.40    2.00
   4  -1   9  162.38   11.60
  -4   1  -9  200.28   12.00
   4   0   9  583.44   26.20
   4   0   9  610.74   27.50
   4   0   9  596.54   26.80
  -4   0  -9  585.44   25.60
   4   1   9   57.89    5.70
   4   1   9   50.19    6.60
  -4  -1  -9   70.59    5.50
  -4  -1  -9   61.49    5.20
   4   2   9  569.94   25.90
   4   2   9  577.14   26.10
   4   2   9  570.14   26.70
  -4  -2  -9  604.04   25.90
  -4  -2  -9  592.24   25.70
   4   3   9  163.58   10.60
   4   3   9  159.68    9.90
   4   3   9  153.48    9.30
  -4  -3  -9  153.28    9.60
  -4  -3  -9  165.48    9.70
   4   4   9   62.79    5.60
  -4  -4  -9   90.79    6.60
  -4  -4  -9   72.89    6.60
   4   5   9  213.28   11.40
  -4  -5  -9  226.38   12.10
   4   6   9  315.07   14.20
  -4  -6  -9  325.67   15.40
  -4  -7  -9   29.70    3.00
   5  -1   9   58.59    7.50
   5  -1   9   65.19    5.70
  -5   1  -9   56.39    3.90
   5   0   9   10.50    3.10
   5   0   9   14.00    6.60
  -5   0  -9   17.40    2.90
   5   1   9  369.56   17.80
   5   1   9  369.36   18.00
   5   1   9  379.16   18.60
  -5  -1  -9  362.86   17.10
   5   2   9  137.59    8.70
   5   2   9  152.28   10.30
   5   2   9  148.19    9.40
  -5  -2  -9  146.19    8.50
  -5  -2  -9  136.49    8.70
   5   3   9 1747.43   71.39
   5   3   9 1838.42   71.49
  -5  -3  -9 1761.82   71.19
  -5  -3  -9 1880.81   71.59
   5   4   9    2.90    2.40
   5   4   9    3.40    2.30
  -5  -4  -9    1.90    2.30
  -5  -4  -9    0.20    1.40
   5   5   9  258.77   12.90
  -5  -5  -9  251.77   15.00
  -5  -5  -9  265.57   13.30
  -5  -6  -9  218.38   11.30
  -5  -7  -9    5.80    2.40
   6   0   9   96.19    6.70
   6   0   9  104.09    7.40
  -6   0  -9  110.59    6.00
   6   1   9   52.59    6.30
   6   1   9   66.49    6.60
   6   1   9   77.19    6.30
  -6  -1  -9   74.19    6.50
   6   2   9   60.79    5.80
   6   2   9   63.09    5.00
   6   2   9   55.19    6.10
  -6  -2  -9   54.99    5.10
  -6  -2  -9   61.59    4.90
   6   3   9    6.20    2.60
   6   3   9   10.30    4.00
   6   3   9   13.80    4.50
  -6  -3  -9    8.60    2.60
   6   4   9  467.45   20.50
   6   4   9  449.26   21.00
  -6  -4  -9  493.65   21.10
   6   5   9   45.20    5.80
  -6  -5  -9   58.39    7.40
   6   6   9   71.19    5.00
  -6  -6  -9   71.99    5.30
   7   1   9  136.69    7.60
   7   1   9  110.99    7.40
  -7  -1  -9  118.99    6.40
   7   2   9   69.09    5.50
   7   2   9   55.99    4.80
   7   2   9   61.19    5.00
  -7  -2  -9   60.89    4.50
   7   3   9  480.85   23.00
   7   3   9  526.85   22.30
   7   4   9   66.89    4.90
   7   4   9   70.39    5.50
  -7  -4  -9   70.19    5.20
  -7  -4  -9   60.89    4.50
   7   5   9   21.50    3.30
  -7  -5  -9   26.30    3.20
  -7  -5  -9   23.30    3.00
   7   6   9  344.87   15.20
  -7  -6  -9  335.37   15.20
   8   4   9   31.60    3.50
  -8  -4  -9   33.00    3.00
   1   0  10    5.20    1.70
   1   0  10    3.70    2.10
  -1   0 -10    2.80    2.70
  -1   0 -10    3.80    1.30
   1   1  10   63.19    5.70
   1   1  10   84.99    5.70
  -1  -1 -10   71.79    4.80
   1   2  10   55.89    4.30
  -1  -2 -10   53.69    4.20
   2   0  10  103.89    6.30
   2   0  10   97.09    7.10
   2   0  10  105.29    6.20
  -2   0 -10   90.79    4.80
  -2   0 -10  104.49    6.00
   2   1  10   85.49    6.60
   2   1  10   78.59    4.80
   2   1  10   82.29    6.00
  -2  -1 -10   73.59    5.20
   2   2  10  568.24   23.90
   2   2  10  542.85   24.40
  -2  -2 -10  598.04   23.90
  -2  -2 -10  518.25   25.30
  -2  -3 -10  115.09    7.10
   2   4  10   17.90    2.60
   3   0  10   17.20    3.40
   3   0  10   14.60    2.40
  -3   0 -10   14.80    2.60
   3   1  10    1.10    2.10
   3   1  10    0.60    1.40
   3   1  10   -2.60    1.40
  -3  -1 -10    0.30    1.00
  -3  -1 -10    1.00    1.40
   3   2  10    0.40    1.30
   3   2  10    0.30    1.80
   3   2  10    2.30    1.80
  -3  -2 -10    0.30    1.30
  -3  -2 -10   -0.40    1.70
   3   3  10   81.09    5.70
  -3  -3 -10   90.19    5.80
  -3  -3 -10   78.49    5.80
   3   4  10   99.19    6.10
  -3  -4 -10   98.39    6.60
   4   0  10  377.96   16.30
  -4   0 -10  361.16   16.00
   4   1  10  417.56   19.20
   4   1  10  405.66   18.40
   4   1  10  412.26   18.20
   4   2  10    4.50    2.30
   4   2  10    3.70    1.80
   4   2  10   10.20    3.20
  -4  -2 -10    4.60    1.50
  -4  -2 -10    2.90    1.40
   4   3  10    0.50    1.50
  -4  -3 -10   -0.50    1.40
  -4  -3 -10    2.40    1.50
   4   4  10  171.88    8.70
  -4  -4 -10  153.28    8.40
  -4  -4 -10  156.08    8.70
   4   5  10   67.39    4.60
   5   1  10    1.30    1.70
   5   1  10    1.90    1.40
   5   1  10    1.40    1.40
  -5  -1 -10    2.40    1.20
   5   2  10  328.27   17.60
   5   2  10  320.37   17.00
   5   2  10  356.16   15.70
  -5  -2 -10  349.37   14.20
  -5  -2 -10  380.96   15.70
   5   3  10  195.88   10.40
   5   3  10  184.08    9.50
  -5  -3 -10  229.88   10.00
  -5  -3 -10  198.88   10.60
  -5  -4 -10   92.39    5.90
  -5  -4 -10   89.29    5.70
   5   5  10    5.40    1.60
  -5  -5 -10    7.20    2.10
   6   2  10  393.86   17.20
   6   3  10    1.20    1.40
   6   3  10    0.60    1.00
  -6  -3 -10   -0.10    1.20
  -6  -3 -10    1.20    1.60
   6   4  10    4.80    1.80
  -6  -4 -10    5.50    1.90
  -6  -4 -10    5.80    1.60
   0   0   0    0.00    0.00

_computing_structure_solution     'SHELXT 2014/5 (Sheldrick, 2014)'
;
_shelx_hkl_checksum              71963
loop_
_space_group_symop_operation_xyz
'x, y, z'
'-x, -y, -z'
loop_
_atom_site_type_symbol
_atom_site_label
_atom_site_fract_x
_atom_site_fract_y
_atom_site_fract_z
_atom_site_U_iso_or_equiv
_atom_site_adp_type
_atom_site_calc_flag
_atom_site_refinement_flags_adp
_atom_site_refinement_flags_occupancy
_atom_site_refinement_flags_posn
_atom_site_occupancy
_atom_site_disorder_assembly
_atom_site_disorder_group
Cl Cl1 0.23962(4) 0.96487(4) 0.20827(4) 0.02037(13) Uani d . . . 1 . .
O O1 0.19497(12) 0.60838(12) 0.24525(10) 0.0150(2) Uani d . . . 1 . .
O O2 -0.09987(13) 0.67599(13) 0.35719(12) 0.0222(2) Uani d . . . 1 . .
C C1 0.46139(18) 0.28950(18) 0.30705(15) 0.0165(3) Uani d . . . 1 . .
H H1 0.340952 0.299098 0.365752 0.02 Uiso calc U . R 1 . .
C C2 0.5949(2) 0.12818(17) 0.28608(16) 0.0191(3) Uani d . . . 1 . .
H H2 0.566217 0.027863 0.330851 0.023 Uiso calc U . R 1 . .
C C3 0.77120(19) 0.11352(18) 0.19927(16) 0.0192(3) Uani d . . . 1 . .
H H3 0.863179 0.003192 0.183687 0.023 Uiso calc U . R 1 . .
C C4 0.81200(18) 0.26036(18) 0.13570(16) 0.0178(3) Uani d . . . 1 . .
H H4 0.932622 0.249608 0.076421 0.021 Uiso calc U . R 1 . .
C C5 0.67911(18) 0.42444(17) 0.15698(15) 0.0145(3) Uani d . . . 1 . .
C C6 0.50176(17) 0.43890(17) 0.24269(15) 0.0130(3) Uani d . . . 1 . .
C C7 0.73172(18) 0.58073(17) 0.08736(16) 0.0166(3) Uani d . . . 1 . .
H H7A 0.753766 0.596484 -0.032094 0.02 Uiso calc U . R 1 . .
H H7B 0.845356 0.560596 0.108394 0.02 Uiso calc U . R 1 . .
C C8 0.58807(18) 0.74448(17) 0.15989(16) 0.0158(3) Uani d . . . 1 . .
H H8A 0.586834 0.743009 0.272776 0.019 Uiso calc U . R 1 . .
H H8B 0.614414 0.846268 0.094771 0.019 Uiso calc U . R 1 . .
C C9 0.40679(17) 0.75421(16) 0.15912(16) 0.0148(3) Uani d . . . 1 . .
H H9 0.417154 0.737865 0.046886 0.018 Uiso calc U . R 1 . .
C C10 0.35020(17) 0.61267(17) 0.27744(15) 0.0133(3) Uani d . . . 1 . .
C C11 0.28170(17) 0.64368(17) 0.45986(15) 0.0153(3) Uani d . . . 1 . .
H H11A 0.323887 0.534855 0.527795 0.018 Uiso calc U . R 1 . .
H H11B 0.324565 0.727619 0.477258 0.018 Uiso calc U . R 1 . .
C C12 0.07723(18) 0.71428(18) 0.50162(16) 0.0173(3) Uani d . . . 1 . .
H H12A 0.022861 0.660769 0.608495 0.021 Uiso calc U . R 1 . .
H H12B 0.028349 0.840576 0.50461 0.021 Uiso calc U . R 1 . .
C C13 0.04109(18) 0.66710(16) 0.36636(16) 0.0157(3) Uani d . . . 1 . .
loop_
_atom_site_aniso_label
_atom_site_aniso_U_11
_atom_site_aniso_U_22
_atom_site_aniso_U_33
_atom_site_aniso_U_12
_atom_site_aniso_U_13
_atom_site_aniso_U_23
Cl1 0.01874(19) 0.01262(19) 0.0228(2) -0.00206(13) -0.00320(13) -0.00047(13)
O1 0.0115(5) 0.0192(5) 0.0155(5) -0.0056(4) -0.0040(4) -0.0040(4)
O2 0.0146(5) 0.0252(5) 0.0266(5) -0.0080(4) -0.0058(4) -0.0010(4)
C1 0.0173(7) 0.0192(7) 0.0141(6) -0.0080(6) -0.0034(5) -0.0031(5)
C2 0.0276(8) 0.0143(7) 0.0172(7) -0.0085(6) -0.0082(6) -0.0007(5)
C3 0.0224(7) 0.0143(7) 0.0184(7) -0.0002(6) -0.0091(6) -0.0041(5)
C4 0.0148(7) 0.0214(7) 0.0157(6) -0.0033(6) -0.0048(5) -0.0047(5)
C5 0.0158(7) 0.0175(7) 0.0114(6) -0.0052(5) -0.0053(5) -0.0031(5)
C6 0.0157(6) 0.0141(6) 0.0102(6) -0.0043(5) -0.0053(5) -0.0027(5)
C7 0.0141(7) 0.0184(7) 0.0169(6) -0.0068(6) -0.0025(5) -0.0025(5)
C8 0.0166(7) 0.0146(6) 0.0163(6) -0.0071(5) -0.0036(5) -0.0010(5)
C9 0.0151(7) 0.0126(6) 0.0142(6) -0.0032(5) -0.0028(5) -0.0026(5)
C10 0.0119(6) 0.0165(7) 0.0133(6) -0.0060(5) -0.0046(5) -0.0018(5)
C11 0.0171(7) 0.0159(7) 0.0124(6) -0.0055(5) -0.0036(5) -0.0029(5)
C12 0.0168(7) 0.0168(7) 0.0150(6) -0.0050(5) -0.0011(5) -0.0035(5)
C13 0.0151(7) 0.0115(6) 0.0177(6) -0.0042(5) -0.0037(5) 0.0010(5)
loop_
_atom_type_symbol
_atom_type_description
_atom_type_scat_dispersion_real
_atom_type_scat_dispersion_imag
_atom_type_scat_source
C C 0.0181 0.0091 'International Tables Vol C Tables 4.2.6.8 and 6.1.1.4'
H H 0.0000 0.0000 'International Tables Vol C Tables 4.2.6.8 and 6.1.1.4'
Cl Cl 0.3639 0.7018 'International Tables Vol C Tables 4.2.6.8 and 6.1.1.4'
O O 0.0492 0.0322 'International Tables Vol C Tables 4.2.6.8 and 6.1.1.4'
loop_
_geom_angle_atom_site_label_1
_geom_angle_atom_site_label_2
_geom_angle_atom_site_label_3
_geom_angle_site_symmetry_1
_geom_angle_site_symmetry_3
_geom_angle
_geom_angle_publ_flag
C13 O1 C10 . . 112.26(10) ?
C2 C1 C6 . . 120.82(13) ?
C2 C1 H1 . . 119.6 ?
C6 C1 H1 . . 119.6 ?
C1 C2 C3 . . 119.78(13) ?
C1 C2 H2 . . 120.1 ?
C3 C2 H2 . . 120.1 ?
C4 C3 C2 . . 119.69(13) ?
C4 C3 H3 . . 120.2 ?
C2 C3 H3 . . 120.2 ?
C3 C4 C5 . . 121.31(13) ?
C3 C4 H4 . . 119.3 ?
C5 C4 H4 . . 119.3 ?
C6 C5 C4 . . 118.91(12) ?
C6 C5 C7 . . 121.97(12) ?
C4 C5 C7 . . 119.12(12) ?
C5 C6 C1 . . 119.48(12) ?
C5 C6 C10 . . 122.24(11) ?
C1 C6 C10 . . 118.20(11) ?
C5 C7 C8 . . 112.65(11) ?
C5 C7 H7A . . 109.1 ?
C8 C7 H7A . . 109.1 ?
C5 C7 H7B . . 109.1 ?
C8 C7 H7B . . 109.1 ?
H7A C7 H7B . . 107.8 ?
C9 C8 C7 . . 108.61(11) ?
C9 C8 H8A . . 110.0 ?
C7 C8 H8A . . 110.0 ?
C9 C8 H8B . . 110.0 ?
C7 C8 H8B . . 110.0 ?
H8A C8 H8B . . 108.3 ?
C8 C9 C10 . . 111.23(11) ?
C8 C9 Cl1 . . 109.78(9) ?
C10 C9 Cl1 . . 110.87(9) ?
C8 C9 H9 . . 108.3 ?
C10 C9 H9 . . 108.3 ?
Cl1 C9 H9 . . 108.3 ?
O1 C10 C6 . . 107.39(10) ?
O1 C10 C9 . . 107.66(10) ?
C6 C10 C9 . . 109.37(10) ?
O1 C10 C11 . . 104.24(10) ?
C6 C10 C11 . . 112.65(10) ?
C9 C10 C11 . . 115.04(11) ?
C12 C11 C10 . . 104.93(10) ?
C12 C11 H11A . . 110.8 ?
C10 C11 H11A . . 110.8 ?
C12 C11 H11B . . 110.8 ?
C10 C11 H11B . . 110.8 ?
H11A C11 H11B . . 108.8 ?
C13 C12 C11 . . 104.27(10) ?
C13 C12 H12A . . 110.9 ?
C11 C12 H12A . . 110.9 ?
C13 C12 H12B . . 110.9 ?
C11 C12 H12B . . 110.9 ?
H12A C12 H12B . . 108.9 ?
O2 C13 O1 . . 120.73(12) ?
O2 C13 C12 . . 128.62(12) ?
O1 C13 C12 . . 110.65(11) ?
loop_
_geom_bond_atom_site_label_1
_geom_bond_atom_site_label_2
_geom_bond_site_symmetry_2
_geom_bond_distance
_geom_bond_publ_flag
Cl1 C9 . 1.8129(13) ?
O1 C13 . 1.3514(16) ?
O1 C10 . 1.4655(15) ?
O2 C13 . 1.2040(17) ?
C1 C2 . 1.385(2) ?
C1 C6 . 1.4027(19) ?
C1 H1 . 0.95 ?
C2 C3 . 1.391(2) ?
C2 H2 . 0.95 ?
C3 C4 . 1.384(2) ?
C3 H3 . 0.95 ?
C4 C5 . 1.3996(19) ?
C4 H4 . 0.95 ?
C5 C6 . 1.3971(19) ?
C5 C7 . 1.5134(18) ?
C6 C10 . 1.5266(18) ?
C7 C8 . 1.5242(18) ?
C7 H7A . 0.99 ?
C7 H7B . 0.99 ?
C8 C9 . 1.5165(18) ?
C8 H8A . 0.99 ?
C8 H8B . 0.99 ?
C9 C10 . 1.5279(18) ?
C9 H9 . 1.0 ?
C10 C11 . 1.5507(17) ?
C11 C12 . 1.5246(18) ?
C11 H11A . 0.99 ?
C11 H11B . 0.99 ?
C12 C13 . 1.5063(19) ?
C12 H12A . 0.99 ?
C12 H12B . 0.99 ?
loop_
_geom_torsion_atom_site_label_1
_geom_torsion_atom_site_label_2
_geom_torsion_atom_site_label_3
_geom_torsion_atom_site_label_4
_geom_torsion_site_symmetry_1
_geom_torsion_site_symmetry_2
_geom_torsion_site_symmetry_3
_geom_torsion_site_symmetry_4
_geom_torsion
_geom_torsion_publ_flag
C6 C1 C2 C3 . . . . -0.4(2) ?
C1 C2 C3 C4 . . . . 0.5(2) ?
C2 C3 C4 C5 . . . . 0.1(2) ?
C3 C4 C5 C6 . . . . -0.75(19) ?
C3 C4 C5 C7 . . . . 178.95(12) ?
C4 C5 C6 C1 . . . . 0.84(18) ?
C7 C5 C6 C1 . . . . -178.85(11) ?
C4 C5 C6 C10 . . . . 177.40(11) ?
C7 C5 C6 C10 . . . . -2.29(18) ?
C2 C1 C6 C5 . . . . -0.26(19) ?
C2 C1 C6 C10 . . . . -176.96(11) ?
C6 C5 C7 C8 . . . . 16.12(17) ?
C4 C5 C7 C8 . . . . -163.57(11) ?
C5 C7 C8 C9 . . . . -46.94(14) ?
C7 C8 C9 C10 . . . . 67.58(13) ?
C7 C8 C9 Cl1 . . . . -169.34(9) ?
C13 O1 C10 C6 . . . . 132.81(10) ?
C13 O1 C10 C9 . . . . -109.52(11) ?
C13 O1 C10 C11 . . . . 13.09(13) ?
C5 C6 C10 O1 . . . . 136.31(12) ?
C1 C6 C10 O1 . . . . -47.08(14) ?
C5 C6 C10 C9 . . . . 19.76(16) ?
C1 C6 C10 C9 . . . . -163.64(11) ?
C5 C6 C10 C11 . . . . -109.49(13) ?
C1 C6 C10 C11 . . . . 67.11(14) ?
C8 C9 C10 O1 . . . . -168.51(10) ?
Cl1 C9 C10 O1 . . . . 69.03(11) ?
C8 C9 C10 C6 . . . . -52.13(13) ?
Cl1 C9 C10 C6 . . . . -174.59(8) ?
C8 C9 C10 C11 . . . . 75.79(14) ?
Cl1 C9 C10 C11 . . . . -46.67(13) ?
O1 C10 C11 C12 . . . . -18.66(13) ?
C6 C10 C11 C12 . . . . -134.76(11) ?
C9 C10 C11 C12 . . . . 98.98(13) ?
C10 C11 C12 C13 . . . . 17.58(13) ?
C10 O1 C13 O2 . . . . 178.22(12) ?
C10 O1 C13 C12 . . . . -1.84(14) ?
C11 C12 C13 O2 . . . . 169.50(13) ?
C11 C12 C13 O1 . . . . -10.43(14) ?
