#------------------------------------------------------------------------------
#$Date: 2021-05-07 04:25:12 +0300 (Fri, 07 May 2021) $
#$Revision: 265012 $
#$URL: file:///home/coder/svn-repositories/cod/cif/1/56/23/1562390.cif $
#------------------------------------------------------------------------------
#
# This file is available in the Crystallography Open Database (COD),
# http://www.crystallography.net/
#
# All data on this site have been placed in the public domain by the
# contributors.
#
data_1562390
loop_
_publ_author_name
'Niermeier, Philipp'
'Maibom, Kristina'
'Lamm, Jan-Hendrik'
'Neumann, Beate'
'Stammler, Georg'
'Mitzel, Norbert Werner'
_publ_section_title
;
 Hydrogen-Bond-Induced Selectivity of a Head-to-Head Photo- Dimerization
 of Dialkynylanthracene -- Access to Tetra Lewis Acids
;
_journal_name_full               'Chemical Science'
_journal_paper_doi               10.1039/D1SC02065J
_journal_year                    2021
_chemical_formula_moiety         'C16 H10 F6 O6 S2'
_chemical_formula_sum            'C16 H10 F6 O6 S2'
_chemical_formula_weight         476.36
_space_group_crystal_system      triclinic
_space_group_IT_number           2
_space_group_name_Hall           '-P 1'
_space_group_name_H-M_alt        'P -1'
_atom_sites_solution_hydrogens   geom
_atom_sites_solution_primary     direct
_audit_creation_date             2016-07-19
_audit_creation_method
;
  Olex2 1.2-ac2
  (compiled 2012.03.27 svn.r2268, GUI svn.r4156)
;
_audit_update_record
;
2019-09-09 deposited with the CCDC.	2021-05-06 downloaded from the CCDC.
;
_cell_angle_alpha                87.983(3)
_cell_angle_beta                 78.962(3)
_cell_angle_gamma                69.485(4)
_cell_formula_units_Z            2
_cell_length_a                   9.5762(4)
_cell_length_b                   10.0978(5)
_cell_length_c                   10.1439(3)
_cell_measurement_reflns_used    10422
_cell_measurement_temperature    100.01(10)
_cell_measurement_theta_max      72.3640
_cell_measurement_theta_min      4.3980
_cell_volume                     901.15(7)
_computing_cell_refinement       'CrysAlisPro 1.171.38.43 (Rigaku OD, 2015)'
_computing_data_collection       'CrysAlisPro 1.171.38.43 (Rigaku OD, 2015)'
_computing_data_reduction        'CrysAlisPro 1.171.38.43 (Rigaku OD, 2015)'
_computing_molecular_graphics
;
O. V. Dolomanov, L. J. Bourhis, R. J. Gildea, J. A. K. Howard and H. Puschmann,
OLEX2: a complete structure solution, refinement and analysis program.
J. Appl. Cryst. (2009). 42, 339-341.
;
_computing_publication_material
;
O. V. Dolomanov, L. J. Bourhis, R. J. Gildea, J. A. K. Howard and H. Puschmann,
OLEX2: a complete structure solution, refinement and analysis program.
J. Appl. Cryst. (2009). 42, 339-341.
;
_computing_structure_refinement
;
SHELXL, G.M. Sheldrick, Acta Cryst.
(2008). A64, 112-122
;
_computing_structure_solution    'ShelXT (Sheldrick, 2015)'
_diffrn_ambient_environment      N~2~
_diffrn_ambient_temperature      100.01(10)
_diffrn_detector                 'CCD plate'
_diffrn_detector_area_resol_mean 5.3114
_diffrn_detector_type            Atlas
_diffrn_measured_fraction_theta_full 0.9981
_diffrn_measured_fraction_theta_max 0.9899
_diffrn_measurement_details
;
List of Runs (angles in degrees, time in seconds):

  # Type    Start    End  Width  t~exp~   \w     \q     \k     \f   Frames
#--------------------------------------------------------------------------
  1  \w    -29.00  65.00   1.00    1.00    --   42.33 -37.00   0.00   94
  2  \w      2.00  78.00   1.00    1.00    --   42.33 -99.00 -30.00   76
  3  \w     56.00  98.00   1.00    1.00    --   42.33-178.00 -30.00   42
  4  \w     39.00 119.00   1.00    2.10    --  109.86-125.00  30.00   80
  5  \w     30.00 104.00   1.00    2.10    --  109.86 -94.00  60.00   74
  6  \w     31.00 106.00   1.00    2.10    --  109.86 -94.00 150.00   75
  7  \w    117.00 160.00   1.00    2.10    --  109.86  43.00  90.09   43
  8  \w    136.00 163.00   1.00    2.10    --  109.86  77.00  60.00   27
  9  \w    125.00 176.00   1.00    2.10    --  109.86  61.00  30.00   51
 10  \w    120.00 177.00   1.00    2.10    --  109.86  71.00-117.40   57
 11  \w    141.00 168.00   1.00    2.10    --  109.86  61.00-167.11   27
 12  \w    118.00 145.00   1.00    2.10    --  109.86  61.00-150.00   27
 13  \w     86.00 117.00   1.00    2.10    --  109.86  45.00 -60.00   31
 14  \w     82.00 112.00   1.00    2.10    --  109.86  61.00 -30.00   30
 15  \w     84.00 156.00   1.00    2.10    --  109.86  53.00  -8.41   72
 16  \w     87.00 112.00   1.00    2.10    --  109.86  43.00  90.09   25
 17  \w     87.00 115.00   1.00    2.10    --  109.86  45.00  60.00   28
 18  \w     82.00 108.00   1.00    2.10    --  109.86  61.00  30.00   26
 19  \w     86.00 178.00   1.00    2.10    --  109.86  61.00   0.00   92
 20  \w     86.00 118.00   1.00    2.10    --  109.86  45.00 150.00   32
 21  \w     83.00 177.00   1.00    2.10    --  109.86  61.00 150.00   94
 22  \w     78.00 105.00   1.00    2.10    --  109.86  77.00  60.00   27
 23  \w     82.00 115.00   1.00    2.10    --  109.86  61.00  90.00   33
 24  \w     83.00 109.00   1.00    2.10    --  109.86  61.00 120.00   26
 25  \w     84.00 112.00   1.00    2.10    --  109.86  59.00 164.34   28
 26  \w     78.00 166.00   1.00    2.10    --  109.86  77.00  90.00   88
 27  \w     82.00 178.00   1.00    2.10    --  109.86  61.00 -60.00   96
 28  \w     82.00 109.00   1.00    2.10    --  109.86  61.00-180.00   27
 29  \w     82.00 108.00   1.00    2.10    --  109.86  61.00-167.11   26
 30  \w     83.00 109.00   1.00    2.10    --  109.86  61.00-120.00   26
 31  \w     83.00 116.00   1.00    2.10    --  109.86  61.00-150.00   33
 32  \w     82.00 108.00   1.00    2.10    --  109.86  61.00 -90.00   26
 33  \w     78.00 171.00   1.00    2.10    --  109.86  77.00-150.00   93
 34  \w     79.00 106.00   1.00    2.10    --  109.86  77.00 -90.00   27
 35  \w     78.00 104.00   1.00    2.10    --  109.86  77.00 -60.00   26
 36  \w     80.00 107.00   1.00    2.10    --  109.86  71.00-117.40   27
 37  \w     78.00 105.00   1.00    2.10    --  109.86  77.00   0.00   27
 38  \w     82.00 109.00   1.00    2.10    --  109.86  63.00  52.41   27
 39  \w     82.00 109.00   1.00    2.10    --  109.86  61.00  60.00   27
 40  \w     57.00 120.00   1.00    1.00    --   42.33 178.00-120.00   63
 41  \w    -53.00 -24.00   1.00    1.00    --  -42.33 -37.00  60.00   29
 42  \w    -41.00 -11.00   1.00    1.00    --  -42.33 -77.00 120.00   30
 43  \w    -72.00 -11.00   1.00    1.00    --  -42.33 -77.00  60.00   61
 44  \w    -62.00 -21.00   1.00    1.00    --  -42.33 -37.00 -30.00   41
 45  \w     36.00 139.00   1.00    2.10    --  109.86 -77.00-180.00  103
 46  \w    -62.00 -11.00   1.00    1.00    --  -42.33 -77.00 -30.00   51
 47  \w    -69.00 -18.00   1.00    1.00    --  -42.33 -57.00-120.00   51
 48  \w    -85.00 -11.00   1.00    1.00    --  -42.33 -77.00-150.00   74
 49  \w   -116.00 -89.00   1.00    1.00    --  -42.33 -77.00  60.00   27
 50  \w   -113.00 -88.00   1.00    1.00    --  -42.33 -37.00  60.00   25
 51  \w   -112.00 -81.00   1.00    1.00    --  -42.33 -77.00 120.00   31
 52  \w   -110.00 -63.00   1.00    1.00    --  -42.33 -37.00 150.00   47
 53  \w   -113.00 -68.00   1.00    1.00    --  -42.33 -37.00 -30.00   45
 54  \w   -112.00 -85.00   1.00    1.00    --  -42.33 -77.00 -30.00   27
;
_diffrn_measurement_device       'four-circle diffractometer'
_diffrn_measurement_device_type  'SuperNova, Dual, Cu at zero, Atlas'
_diffrn_measurement_method       '\w scans'
_diffrn_orient_matrix_type
'CrysAlisPro convention (1999,Acta A55,543-557)'
_diffrn_orient_matrix_UB_11      0.0321146000
_diffrn_orient_matrix_UB_12      -0.0140970000
_diffrn_orient_matrix_UB_13      -0.1545595000
_diffrn_orient_matrix_UB_21      0.1625379000
_diffrn_orient_matrix_UB_22      -0.0024171000
_diffrn_orient_matrix_UB_23      -0.0041683000
_diffrn_orient_matrix_UB_31      0.0563512000
_diffrn_orient_matrix_UB_32      -0.1623640000
_diffrn_orient_matrix_UB_33      0.0080875000
_diffrn_radiation_monochromator  mirror
_diffrn_radiation_probe          x-ray
_diffrn_radiation_type           'Cu K\a'
_diffrn_radiation_wavelength     1.54184
_diffrn_reflns_av_R_equivalents  0.0191
_diffrn_reflns_av_unetI/netI     0.0151
_diffrn_reflns_Laue_measured_fraction_full 0.997
_diffrn_reflns_Laue_measured_fraction_max 0.991
_diffrn_reflns_limit_h_max       11
_diffrn_reflns_limit_h_min       -11
_diffrn_reflns_limit_k_max       11
_diffrn_reflns_limit_k_min       -12
_diffrn_reflns_limit_l_max       12
_diffrn_reflns_limit_l_min       -12
_diffrn_reflns_number            13616
_diffrn_reflns_point_group_measured_fraction_full 0.997
_diffrn_reflns_point_group_measured_fraction_max 0.991
_diffrn_reflns_theta_full        67.684
_diffrn_reflns_theta_max         72.349
_diffrn_reflns_theta_min         4.444
_diffrn_source                   'micro-focus sealed X-ray tube'
_diffrn_source_type              'SuperNova (Cu) X-ray Source'
_exptl_absorpt_coefficient_mu    3.595
_exptl_absorpt_correction_T_max  0.877
_exptl_absorpt_correction_T_min  0.824
_exptl_absorpt_correction_type   gaussian
_exptl_absorpt_process_details
;
CrysAlisPro 1.171.38.43 (Rigaku Oxford Diffraction, 2015)
Numerical absorption correction based on gaussian integration over
			a multifaceted crystal model
Empirical absorption correction using spherical harmonics,
 implemented in SCALE3 ABSPACK scaling algorithm.
;
_exptl_crystal_colour            'clear light yellow'
_exptl_crystal_colour_lustre     clear
_exptl_crystal_colour_modifier   light
_exptl_crystal_colour_primary    yellow
_exptl_crystal_density_diffrn    1.756
_exptl_crystal_description       fragment
_exptl_crystal_F_000             480
_exptl_crystal_size_max          0.149
_exptl_crystal_size_mid          0.111
_exptl_crystal_size_min          0.099
_refine_diff_density_max         0.383
_refine_diff_density_min         -0.371
_refine_diff_density_rms         0.050
_refine_ls_extinction_method     none
_refine_ls_goodness_of_fit_ref   1.053
_refine_ls_hydrogen_treatment    constr
_refine_ls_matrix_type           full
_refine_ls_number_parameters     271
_refine_ls_number_reflns         3536
_refine_ls_number_restraints     0
_refine_ls_restrained_S_all      1.053
_refine_ls_R_factor_all          0.0330
_refine_ls_R_factor_gt           0.0312
_refine_ls_shift/su_max          0.000
_refine_ls_shift/su_mean         0.000
_refine_ls_structure_factor_coef Fsqd
_refine_ls_weighting_details
;
 w=1/[\s^2^(Fo^2^)+(0.0449P)^2^+0.5195P]
 where P=(Fo^2^+2Fc^2^)/3
;
_refine_ls_weighting_scheme      calc
_refine_ls_wR_factor_gt          0.0842
_refine_ls_wR_factor_ref         0.0860
_reflns_Friedel_coverage         0.000
_reflns_number_gt                3333
_reflns_number_total             3536
_reflns_threshold_expression     'I > 2\s(I)'
_cod_data_source_file            d1sc02065j2.cif
_cod_data_source_block           4a
_cod_original_cell_volume        901.16(7)
_cod_database_code               1562390
_chemical_oxdiff_formula         'C16 H10 F6 O6 S2'
_reflns_odcompleteness_completeness 99.81
_reflns_odcompleteness_iscentric 1
_reflns_odcompleteness_theta     66.97
_olex2_date_sample_data_collection 2016-07-19
_olex2_date_sample_submission    1468792800
_olex2_refinement_description
;
1. Fixed Uiso
 At 1.2 times of:
  All C(H) groups, All C(H,H) groups
2.a Secondary CH2 refined with riding coordinates:
 C3(H3A,H3B), C10(H10A,H10B)
2.b Aromatic/amide H refined with riding coordinates:
 C6(H6), C7(H7), C8(H8), C12(H12), C13(H13), C14(H14)
;
_olex2_submission_special_instructions 'No special instructions were received'
_oxdiff_exptl_absorpt_empirical_details
;
Empirical correction (ABSPACK) includes:
- Absorption correction using spherical harmonics
- Frame scaling
- Detector area scaling
;
_oxdiff_exptl_absorpt_empirical_full_max 1.176
_oxdiff_exptl_absorpt_empirical_full_min 0.913
_shelx_hkl_checksum              12087
_shelx_hkl_file
;
   0   0   1 27131.3 329.036  46
   0   0   1 28020.7 396.700  44
   0   0  -1 27532.4 403.902  48
   0   0  -3 294305. 2383.07  48
   0   0   3 290435. 2298.34  49
   0   0   3 298165. 2325.81  44
   0   0  -3 294099. 1516.93   2
   0   0   4 2575.19 266.903  49
   0   0  -4 2736.40 163.434   2
   0   0   4 2703.20 275.681  44
   0   0  -4 2739.23 288.609  48
   0   0   4 2535.38 210.077  46
   0   0   5 1927.43 271.416  49
   0   0  -5 1948.68 189.376  42
   0   0  -5 1848.40 280.867  48
   0   0   5 1962.52 207.428  46
   0   0   6 33196.4 1224.68  49
   0   0   6 33205.6 1218.84  53
   0   0  -6 31276.0 1169.80  52
   0   0  -7 4524.08 504.641  52
   0   0   7 4917.11 533.763  53
   0   0  -8 24957.4 911.701  21
   0   0  -8 25419.5 1297.79  52
   0   0  -8 25970.0 891.496  29
   0   0  -8 27207.1 1410.99   1
   0   0  -8 25430.3 910.694  28
   0   0   8 26027.6 936.663  15
   0   0   8 25373.7 1300.65  53
   0   0  -8 27003.0 950.211  25
   0   0   8 26377.6 896.032  37
   0   0   8 26301.1 923.375  19
   0   0   8 23851.3 857.124  27
   0   0  -9 7760.24 528.422  28
   0   0   9 7975.11 541.984  19
   0   0  -9 8179.83 551.813  25
   0   0  -9 7644.16 528.532  21
   0   0   9 7875.87 507.041  37
   0   0  -9 8479.06 531.033  29
   0   0   9 7196.70 489.310  27
   0   0   9 8110.17 547.075  15
   0   0  10 51448.6 1300.17  19
   0   0 -10 51216.7 1287.19  28
   0   0  10 50636.6 1184.73  27
   0   0 -10 51554.8 1305.13  21
   0   0  10 53612.7 1356.54  15
   0   0 -10 52767.4 1234.12  29
   0   0  11 92.4081 107.048  15
   0   0 -11 180.712 111.883  21
   0   0  11 202.484 104.795  19
   0   0  12 505.376 106.167  15
   0   0 -12 611.397 100.482  21
   0   0  12 601.570 98.3650  19
   0  -1  12 432.877 96.4451  15
   0   1 -12 575.815 95.6778  21
   0  -1  11 1545.21 194.156  19
   0   1 -11 1631.38 205.406  29
   0   1 -11 1514.10 202.210  21
   0  -1  11 1477.07 192.273  27
   0  -1  11 1479.65 206.419  15
   0   1 -10 9924.35 590.196  28
   0  -1  10 9929.03 564.218  27
   0  -1  10 9896.38 579.568  15
   0   1 -10 9882.49 567.764  21
   0   1 -10 10743.1 583.806  29
   0  -1  10 9837.23 548.541  19
   0   1  -9 91541.8 1762.74  29
   0   1  -9 90540.2 1815.28  25
   0   1  -9 88513.1 1744.09  21
   0  -1   9 90783.4 1733.78  19
   0  -1   9 94018.3 1790.38  27
   0  -1   9 91349.8 1793.01  15
   0   1  -9 90840.4 1810.84  28
   0   1  -8 3533.77 357.632  25
   0  -1   8 3744.94 334.400  37
   0   1  -8 3687.33 508.463  52
   0   1  -8 3802.10 362.761  28
   0   1  -8 3835.60 357.774  21
   0  -1   8 3526.22 341.298  19
   0  -1   8 4002.18 369.357  27
   0  -1   8 4288.00 376.541  15
   0  -1   8 3689.82 479.858  53
   0  -1   7 67327.1 1838.03  53
   0   1  -7 63435.7 1914.35  52
   0   1  -6 7253.77 466.496  42
   0  -1   6 7392.81 551.680  53
   0   1  -6 6688.23 573.449  48
   0  -1   5 275.305 115.824  53
   0   1  -5 176.605 134.434  48
   0  -1   5 136.741 61.2141   3
   0   1  -4 11569.2 567.691  48
   0  -1   4 10806.1 557.894  49
   0  -1   4 11126.4 511.058  53
   0  -1   4 11370.4 453.790   3
   0  -1   3 11626.1 496.440  49
   0   1  -3 12312.2 496.296  48
   0  -1   3 12276.8 426.504   3
   0   1  -2 21989.2 534.720  48
   0  -1   2 22801.0 469.007  53
   0  -1   2 22753.9 365.525  54
   0  -1   2 22045.1 494.335   3
   0  -1   1 467.538 47.5699  53
   0   1  -1 607.756 75.3280  48
   0  -1   1 537.723 57.0834   2
   0  -1   1 467.004 66.6386  40
   0  -1   0 28963.8 309.554   1
   0   1   2 9805.60 378.333  44
   0   1   2 9968.89 362.498  46
   0   1   2 9387.64 323.617  43
   0  -1  -2 10168.0 333.197   2
   0   1   3 172668. 1770.53  46
   0   1   3 175668. 1944.17  44
   0  -1  -3 176444. 1547.77   2
   0   1   4 366292. 2851.41  46
   0  -1  -4 362563. 2927.90  52
   0   1   4 363473. 3022.86  49
   0  -1  -4 369559. 2432.00   2
   0   1   5 6068.51 413.985  46
   0   1   5 6895.35 486.451  49
   0  -1  -5 7140.48 355.288   2
   0  -1  -5 6944.04 476.523  52
   0   1   5 6484.23 518.304  44
   0  -1  -6 239617. 3157.01  52
   0   1   6 236300. 3183.20  49
   0   1   6 234973. 2805.82  46
   0   1   7 16991.3 1035.49  53
   0  -1  -7 15703.8 902.346  52
   0   1   7 17677.8 977.918  49
   0   1   8 8756.47 532.372  37
   0   1   8 9280.43 826.957  53
   0  -1  -8 8503.06 541.907  21
   0  -1  -8 8536.26 498.047  29
   0   1   8 8144.95 534.512  15
   0  -1  -8 8892.58 531.259  28
   0  -1  -8 9062.44 558.230  25
   0  -1  -8 6469.72 646.899  52
   0   1   8 8687.21 551.510  19
   0  -1  -8 8497.38 813.288   1
   0  -1  -9 28342.4 964.297  28
   0  -1  -9 30003.3 937.423  29
   0   1   9 28734.1 981.879  37
   0   1   9 30545.4 1070.29  15
   0  -1  -9 28024.2 1017.05  21
   0   1   9 28874.4 1028.56  19
   0   1  10 1101.82 203.751  37
   0   1  10 1321.35 235.673  15
   0   1  10 1036.25 211.405  19
   0  -1 -10 882.235 165.256  29
   0  -1 -10 886.799 206.639  21
   0  -1 -11 1234.41 184.613  21
   0   1  11 1102.24 185.379  19
   0   1  11 1032.44 190.550  15
   0   1  12 7299.72 317.393  19
   0  -1 -12 7475.59 335.283  21
   0   1  12 7525.61 356.652  15
   0   2 -11 8115.90 412.875  21
   0  -2  11 7169.08 412.639  15
   0   2 -11 7959.69 459.798  28
   0  -2  11 8150.76 442.553  27
   0   2 -11 7892.18 441.921  29
   0   2 -11 7571.98 385.480  31
   0   2 -10 6525.54 467.153  29
   0   2 -10 5887.48 420.581  21
   0  -2  10 5215.21 380.109  19
   0   2 -10 6207.94 465.030  28
   0   2 -10 5798.71 449.376  25
   0  -2  10 5989.47 451.587  27
   0  -2  10 6284.12 454.493  15
   0  -2   9 9850.38 601.057  27
   0  -2   9 9981.45 585.828  15
   0   2  -9 9875.01 574.341  21
   0   2  -9 9809.19 608.488  28
   0   2  -9 9075.12 583.928  25
   0  -2   9 9452.79 548.199  19
   0  -2   8 2496.59 283.522  19
   0  -2   8 2266.32 285.020  15
   0  -2   8 2511.35 308.956  27
   0   2  -8 2322.16 296.073  25
   0   2  -8 2600.70 293.703  21
   0   2  -8 1642.70 371.411  52
   0  -2   7 16554.6 896.984  40
   0   2  -7 16862.2 706.139  25
   0   2  -7 16038.2 1004.43  52
   0  -2   7 17676.2 727.162  27
   0   2  -7 15278.1 988.712  48
   0   2  -6 2600.92 377.402  48
   0  -2   6 2969.01 335.902  53
   0  -2   5 56941.0 1290.91   3
   0   2  -5 55479.5 1478.63  48
   0  -2   4 16339.7 581.343  53
   0   2  -4 17070.6 722.053  48
   0  -2   4 17021.2 651.830   3
   0   2  -3 8393.46 437.620  48
   0  -2   3 9037.34 440.904   3
   0  -2   3 8339.74 341.783  53
   0  -2   3 8725.25 428.944  40
   0  -2   2 64130.3 1032.52  40
   0  -2   2 64260.1 722.123  53
   0  -2   2 65705.8 1074.47   3
   0   2  -2 64240.9 1027.19  48
   0  -2   1 31718.5 665.919  40
   0  -2   1 32240.1 608.496   2
   0   2  -1 32176.3 505.091  47
   0  -2   0 78758.7 716.685   1
   0   2   1 21100.8 498.391  44
   0   2   1 20711.2 480.657  43
   0   2   1 20687.1 322.785  50
   0  -2  -1 20688.3 472.392   1
   0   2   2 680488. 3496.00  44
   0   2   2 674258. 3048.09  43
   0  -2  -2 680478. 2556.64  52
   0  -2  -3 1274.24 148.956  52
   0   2   3 1244.50 183.876  46
   0   2   3 1346.94 200.168  44
   0  -2  -3 1013.37 157.220   2
   0   2   3 1208.23 160.618  43
   0   2   4 46.3009 93.0264  46
   0  -2  -4 32.9565 65.9330  52
   0  -2  -4 127.347 85.6204   2
   0   2   4 134.065 129.627  44
   0   2   5 18310.4 818.052  46
   0   2   5 19036.5 915.126  44
   0   2   5 19110.8 801.748  49
   0  -2  -5 18457.5 753.031  52
   0  -2  -5 19071.3 708.335   2
   0  -2  -6 21457.8 921.614  52
   0   2   6 22038.4 963.076  46
   0   2   6 22099.4 979.057  49
   0  -2  -6 21270.5 1078.00   1
   0   2   7 37957.3 1095.90  15
   0   2   7 38889.2 1424.59  49
   0  -2  -7 36877.6 1065.43  21
   0   2   7 36193.8 1032.17  14
   0  -2  -7 35926.4 1548.06   1
   0  -2  -7 36240.9 1333.79  52
   0  -2  -7 37126.2 996.572  28
   0   2   8 82141.7 1661.01  37
   0   2   8 80067.5 1638.82  14
   0   2   8 80297.5 1694.61  15
   0   2   8 83774.5 1741.84  19
   0   2   8 86485.3 2586.89  53
   0  -2  -8 82993.7 2525.84   1
   0  -2  -8 83118.6 1699.14  21
   0   2   9 5183.92 436.276  37
   0   2   9 5192.15 453.532  15
   0   2   9 5345.61 456.844  19
   0  -2  -9 5197.66 440.339  21
   0   2  10 8439.16 544.600  15
   0   2  10 8122.01 498.390  37
   0   2  10 8990.58 559.429  19
   0  -2 -10 8161.16 517.028  21
   0   2  11 16656.3 653.286  15
   0   2  11 17245.3 655.166  19
   0  -2 -11 16750.1 636.723  21
   0   2  12 157.722 61.8930  19
   0   2  12 263.229 79.9473  15
   0  -2 -12 179.702 59.1926  21
   0  -3  11 8431.70 447.141  27
   0   3 -11 8681.45 458.298  28
   0   3 -11 8431.17 416.191  31
   0   3 -11 8496.85 450.116  29
   0   3 -11 8818.38 378.180  21
   0  -3  11 7988.10 384.879  15
   0  -3  10 23909.9 882.749  27
   0   3 -10 23711.7 882.351  28
   0   3 -10 24711.9 893.725  29
   0   3 -10 25051.3 796.533  21
   0   3 -10 23283.4 846.452  25
   0  -3  10 22703.7 782.791  15
   0   3  -9 12680.4 686.921  28
   0   3  -9 15093.8 674.866  21
   0   3  -9 14061.9 704.274  25
   0  -3   9 15075.0 750.827  27
   0  -3   9 14250.9 668.353  15
   0   3  -8 73626.4 1578.18  25
   0   3  -8 73801.2 1509.07  21
   0   3  -8 73066.6 2341.19  52
   0  -3   8 73570.6 1515.05  15
   0  -3   8 73609.0 1637.58  27
   0   3  -7 25588.2 1304.21  48
   0   3  -7 26885.9 908.273  25
   0  -3   7 28590.9 957.148  27
   0  -3   7 26893.7 870.601  15
   0   3  -7 25409.1 851.877  21
   0   3  -7 25739.4 1304.16  52
   0   3  -7 27953.0 1216.13  42
   0  -3   6 592.021 187.599  40
   0   3  -6 907.708 252.754  48
   0  -3   5 268482. 3186.70   3
   0   3  -5 263241. 3369.55  48
   0  -3   4 95954.3 1753.78  40
   0   3  -4 92405.4 1762.36  48
   0  -3   4 95356.5 1275.97  53
   0  -3   3 26551.4 875.462   3
   0  -3   3 25653.3 833.244  40
   0   3  -3 25341.1 829.498  48
   0  -3   2 39642.8 1004.88   3
   0   3  -2 37087.6 892.836  48
   0   3  -2 38048.8 665.643  47
   0  -3   2 37768.6 939.400  40
   0  -3   2 38632.3 833.566   2
   0  -3   1 347390. 2563.95   2
   0   3  -1 345872. 2048.01  47
   0  -3   0 22767.6 686.119   2
   0  -3   0 22771.7 702.463  40
   0  -3   0 21778.7 463.964   1
   0   3   0 21841.1 414.027  41
   0   3   1 254195. 1165.82  50
   0  -3  -1 255850. 1870.17   1
   0  -3  -1 258123. 2408.67   2
   0   3   1 254642. 2072.09  43
   0  -3  -2 603985. 3441.64   1
   0   3   2 601066. 3325.43  43
   0  -3  -2 608700. 3939.29   2
   0   3   2 593970. 3626.75  44
   0  -3  -3 81164.4 1531.19   2
   0   3   3 82726.0 1620.11  46
   0  -3  -3 82787.5 1495.71   1
   0   3   3 79688.4 1543.75  44
   0   3   3 81050.3 1337.83  43
   0  -3  -3 82232.1 1077.48  52
   0   3   4 30183.2 1067.90  46
   0   3   4 27910.5 1046.25  44
   0  -3  -4 27193.5 935.658   2
   0  -3  -4 27596.5 755.449  52
   0  -3  -4 27739.5 994.846   1
   0  -3  -5 5148.26 491.130   1
   0  -3  -5 5075.37 379.673  52
   0   3   5 4712.47 462.885  46
   0   3   5 4870.82 500.220  44
   0  -3  -5 4946.63 422.466   2
   0   3   6 8826.80 621.805  49
   0   3   6 8356.38 663.613  46
   0  -3  -6 8271.74 696.782   1
   0   3   6 8004.63 707.279  44
   0  -3  -7 45748.1 1784.33   1
   0   3   7 46642.1 1247.74  15
   0   3   7 45462.4 1173.27  14
   0   3   7 49413.1 1668.30  46
   0  -3  -7 46698.3 1211.19  21
   0  -3  -8 551.621 165.221  21
   0   3   8 654.854 239.990  53
   0   3   8 382.187 162.559  15
   0   3   8 507.867 141.610  14
   0   3   9 15306.3 756.946  15
   0  -3  -9 16179.1 753.020  21
   0   3   9 16870.9 795.575  19
   0   3   9 15752.3 747.481  37
   0   3  10 6580.79 444.781  37
   0   3  10 6625.62 469.792  19
   0   3  10 6420.81 411.849  18
   0  -3 -10 7029.19 467.029  21
   0   3  10 7001.57 472.035  15
   0  -3 -11 1469.16 190.431  21
   0   3  11 1260.87 182.053  19
   0   3  11 1379.40 183.345  15
   0   4 -11 2290.49 227.353  29
   0   4 -11 2146.65 213.270  28
   0  -4  11 1943.73 214.110  45
   0  -4  10 9002.07 533.891  27
   0   4 -10 8579.28 505.442  28
   0   4 -10 9213.90 487.623  25
   0   4 -10 9065.41 532.277  29
   0   4  -9 10135.5 597.454  28
   0  -4   9 9822.03 608.385  27
   0   4  -9 10183.0 568.541  25
   0  -4   8 176.587 144.632  27
   0   4  -8 82.2735 89.1058  25
   0  -4   7 137625. 2192.74  27
   0   4  -7 132220. 3014.65  52
   0   4  -7 134478. 2903.15  42
   0   4  -7 131576. 2996.75  48
   0  -4   6 1163.99 244.826  40
   0  -4   6 1453.77 226.127  27
   0   4  -6 1251.73 282.739  48
   0   4  -5 148463. 2658.24  48
   0  -4   5 149407. 2574.48  40
   0   4  -4 19846.8 879.947  48
   0  -4   4 19936.0 884.793  40
   0   4  -3 3623.77 350.612  48
   0  -4   3 3498.98 363.667  40
   0   4  -2 919.325 174.535  48
   0  -4   2 628.031 157.830  40
   0  -4   2 833.989 165.986   2
   0   4  -2 1038.64 129.504  47
   0   4  -1 57009.8 988.665  47
   0   4  -1 55050.8 645.681  44
   0  -4   1 57697.1 1275.19   2
   0  -4   1 55871.1 1317.83  40
   0   4   0 112861. 1218.29  44
   0  -4   0 111281. 1854.75  40
   0   4   0 108892. 1005.40  41
   0  -4   0 114556. 1828.85   2
   0  -4   0 109854. 1162.62   1
   0   4   1 82527.3 1396.62  43
   0   4   1 83087.1 1271.18  44
   0  -4  -1 80965.3 1176.16   1
   0   4   2 3743.38 306.044  43
   0   4   2 3711.17 317.463  44
   0  -4  -2 3814.76 368.601   2
   0  -4  -2 4124.33 311.408   1
   0   4   3 152312. 2477.20  46
   0   4   3 151098. 2283.54  44
   0  -4  -3 148487. 2375.14   2
   0  -4  -3 151805. 2138.75   1
   0   4   3 145583. 1992.98  43
   0   4   4 7824.98 592.151  44
   0  -4  -4 8327.78 594.800   2
   0  -4  -4 7803.96 559.844   1
   0   4   4 7909.31 614.372  46
   0   4   5 83519.8 2133.56  44
   0   4   5 88920.1 2200.39  46
   0  -4  -5 85372.7 2055.52   1
   0  -4  -5 87236.6 2004.01   2
   0  -4  -6 8484.87 500.555  21
   0   4   6 8241.35 712.447  46
   0  -4  -6 8174.40 711.604   1
   0   4   7 150793. 3142.26  46
   0   4   7 154823. 2318.40  15
   0  -4  -7 151061. 2234.78  21
   0   4   7 146526. 2082.18  14
   0  -4  -7 152753. 3275.44   1
   0   4   8 2008.69 258.757  14
   0   4   8 1629.36 260.025  15
   0  -4  -8 1705.15 266.514  21
   0   4   9 4904.13 412.694  15
   0  -4  -9 4594.15 372.110   4
   0   4   9 4694.63 422.681  19
   0   4   9 5271.32 440.288  37
   0  -4  -9 4800.05 404.538  21
   0   4  10 439.109 138.363  15
   0   4  10 570.093 160.558  19
   0  -4 -10 429.874 147.482  21
   0  -4 -10 347.230 106.223   4
   0   4  10 502.343 139.885  37
   0   4  11 1129.22 148.368  15
   0   4  11 1116.17 155.791  19
   0  -4 -11 964.460 135.898  21
   0   4  11 887.338 116.508  18
   0   4  11 1017.19 141.981  37
   0   5 -11 1067.11 140.208  29
   0   5 -11 1112.63 136.725  28
   0  -5  11 1107.04 147.277  45
   0   5 -11 1015.45 132.901  31
   0   5 -10 2235.19 256.295  29
   0   5 -10 2397.82 248.978  28
   0  -5  10 1874.28 249.264  45
   0   5  -9 156.819 93.2292  25
   0   5  -9 83.8848 105.345  28
   0  -5   9 33.4578 131.317  27
   0  -5   8 3390.78 372.783  27
   0   5  -8 2738.47 295.124  25
   0  -5   7 395.655 137.950  27
   0   5  -7 218.778 136.296  42
   0   5  -7 305.538 109.839  25
   0   5  -7 568.722 202.433  48
   0   5  -7-27.5983 45.1219  52
   0  -5   7 62.8603 86.0235   6
   0  -5   6 986.456 190.168   6
   0  -5   6 1304.60 229.753  27
   0  -5   6 1033.46 261.127  40
   0   5  -6 1626.47 340.170  42
   0   5  -6 656.304 204.407  48
   0   5  -5 46015.2 1579.95  48
   0  -5   5 51261.8 1639.70  40
   0   5  -4 27469.4 1120.04  48
   0  -5   4 28147.4 1170.02  40
   0  -5   3 63093.2 1689.05  40
   0   5  -3 66446.3 1626.17  48
   0   5  -2 118604. 2036.26  48
   0  -5   2 120515. 2258.07  40
   0  -5   2 115785. 2061.46   2
   0  -5   1 16498.4 833.235  40
   0  -5   1 17683.6 831.812   2
   0   5  -1 17434.6 622.602  47
   0  -5   0 139222. 2383.98  40
   0  -5   0 135099. 2299.57   2
   0   5   1 263283. 2856.67  43
   0   5   1 267970. 2521.16  42
   0   5   1 261157. 2484.53  44
   0  -5  -1 270307. 3333.50   2
   0  -5  -2 65283.0 1724.36   2
   0  -5  -2 68899.9 1335.09   1
   0   5   2 68845.4 1463.71  43
   0   5   2 63423.2 1668.18  46
   0   5   2 69231.9 1472.26  44
   0   5   3 20125.9 812.620  43
   0   5   3 20175.9 1007.39  46
   0  -5  -3 22006.6 861.740   1
   0  -5  -3 21768.5 1034.64   2
   0   5   3 21885.8 934.946  44
   0   5   4 137219. 2787.81  46
   0  -5  -4 133324. 2650.63   2
   0   5   4 130222. 2540.91  44
   0  -5  -4 130752. 2360.37   1
   0  -5  -5 4884.84 518.997   1
   0  -5  -5 5301.96 398.606   4
   0  -5  -5 5728.03 572.610   2
   0   5   5 5943.59 626.787  46
   0   5   5 4990.96 557.558  44
   0  -5  -5 5139.38 375.733  21
   0  -5  -6 15624.7 701.329  21
   0   5   6 15657.6 711.469  15
   0   5   6 15813.2 1064.87  46
   0  -5  -6 15517.3 714.718   4
   0  -5  -6 15593.5 997.312   1
   0  -5  -7 7387.34 501.325   4
   0   5   7 7765.56 520.284  15
   0  -5  -7 7406.01 502.335  21
   0   5   8 12482.5 648.938  15
   0  -5  -8 11287.3 611.880  21
   0  -5  -8 11536.9 608.982   4
   0   5   9 504.399 157.069  19
   0   5   9 463.384 152.991  37
   0  -5  -9 625.653 144.214   4
   0  -5  -9 503.954 151.908  21
   0   5   9 580.458 145.231  15
   0  -5 -10 37232.0 874.329  21
   0   5  10 34708.2 841.448  15
   0   5  10 36746.6 927.502  37
   0  -5 -10 35751.7 756.515   4
   0   6 -10 765.348 129.168  28
   0  -6  10 392.326 121.942  45
   0   6 -10 466.565 118.681  29
   0   6  -9 21860.7 747.122  28
   0  -6   9 21331.5 824.125  45
   0  -6   8 3098.92 352.844  27
   0  -6   8 3119.23 309.525   6
   0  -6   8 3516.29 380.608  45
   0  -6   7 16865.9 759.143   6
   0  -6   7 17129.2 817.565  27
   0  -6   6 6582.61 489.012   6
   0   6  -6 7321.03 750.476  42
   0  -6   6 6664.27 504.489  27
   0   6  -6 6198.64 646.674  48
   0   6  -5 38628.7 1647.94  42
   0   6  -5 35736.6 1461.78  48
   0  -6   5 36479.0 1106.03  27
   0  -6   5 35865.5 1492.24  40
   0  -6   5 35380.5 1099.14   5
   0  -6   5 38128.4 1140.65   6
   0  -6   4 33201.4 1013.70   5
   0  -6   4 32191.3 997.556   4
   0  -6   4 30461.3 954.921  27
   0  -6   4 32601.6 1393.14  40
   0   6  -4 34388.0 1346.51  48
   0  -6   4 33405.0 1038.16  45
   0  -6   4 32337.5 1014.68   6
   0   6  -3-105.770 96.4855  48
   0  -6   3 630.928 239.114  40
   0  -6   2 2718.41 389.665  40
   0   6  -2 3691.73 407.852  48
   0   6  -1 4057.60 413.897  48
   0  -6   1 3760.56 444.761   2
   0  -6   1 3556.77 443.789  40
   0   6   0 2094.11 303.566  43
   0  -6   0 2098.04 337.954   2
   0   6   0 2311.17 304.874  42
   0   6   1 590.935 206.340  46
   0  -6  -1 317.336 189.661   2
   0  -6  -2 14247.9 905.402   2
   0   6   2 14339.5 883.631  46
   0   6   3 8094.41 708.404  46
   0  -6  -3 8398.05 720.217   2
   0   6   3 8870.31 633.282  44
   0   6   4 40593.1 1489.86  44
   0  -6  -4 39852.8 1026.61  21
   0   6   4 40159.3 1635.48  46
   0  -6  -4 37484.0 1559.29   2
   0  -6  -5 286.273 123.336   4
   0   6   5 345.034 189.670  46
   0  -6  -5 159.425 154.902   2
   0  -6  -5 339.218 110.054  21
   0   6   6 1794.36 235.816  15
   0  -6  -6 1517.01 240.521   4
   0  -6  -6 1603.09 233.096  21
   0   6   7 55.9894 76.0491  15
   0  -6  -7 124.643 91.5655   4
   0  -6  -7 291.082 121.618  21
   0   6   8 3284.28 333.819  19
   0   6   8 3166.89 293.949  15
   0  -6  -8 3383.29 315.089  21
   0  -6  -8 3358.07 313.920   4
   0  -6  -9 249.481 92.1945   4
   0  -6  -9 413.254 120.144  21
   0   6   9 387.634 130.634  37
   0   6   9 332.773 91.4245  15
   0   6   9 250.232 97.7835  19
   0   6  10 1328.03 158.699  37
   0   6  10 1237.47 153.068  18
   0   6  10 1272.37 153.417  19
   0  -6 -10 1479.51 147.761  21
   0  -7  10 89.3054 63.7615  45
   0   7 -10 18.7943 42.8723  29
   0   7  -9 778.601 124.040  28
   0  -7   9 724.402 158.089  45
   0  -7   8 25001.1 803.347   6
   0  -7   8 25987.0 911.778  45
   0   7  -8 24980.7 770.337  28
   0  -7   7 22011.0 850.272   6
   0  -7   7 23700.4 936.014  45
   0  -7   6 14532.1 724.907   6
   0  -7   6 13754.3 725.956  45
   0  -7   5 12253.5 669.259  45
   0  -7   5 11744.6 666.744   6
   0  -7   4 18441.4 800.399  45
   0  -7   4 17820.9 795.398   4
   0  -7   4 19300.4 829.141   6
   0  -7   4 16720.6 1078.07  40
   0  -7   4 19099.5 804.887   5
   0   7  -4 17865.9 1151.32  42
   0   7  -3 15618.6 1020.00  42
   0  -7   3 15664.0 715.554  45
   0  -7   3 16681.6 751.123   6
   0  -7   3 15912.7 711.638   5
   0  -7   3 14682.9 992.794  40
   0  -7   3 15065.4 714.270   4
   0  -7   2 5353.26 394.374   5
   0  -7   2 5445.12 613.779  40
   0   7  -2 4943.37 548.036  42
   0  -7   2 5731.06 436.920   4
   0   7  -2 5712.20 546.478  48
   0  -7   2 5926.97 440.712   6
   0  -7   2 5595.48 419.220  45
   0  -7   1 513.961 143.796   4
   0  -7   1-1.49014 114.088   2
   0   7  -1 288.514 122.114  42
   0   7  -1-92.6472 82.2579  43
   0  -7   1 268.059 110.896   5
   0   7  -1-24.2628 93.8814  48
   0  -7   1 330.127 126.778   6
   0  -7   0 1083.58 291.311   2
   0   7   0 1237.91 271.923  46
   0  -7   0 2121.00 269.353   4
   0  -7   0 2408.39 262.457   5
   0   7   0 1310.49 266.003  43
   0  -7  -1 11225.8 876.550   2
   0  -7  -1 12182.4 621.668   4
   0  -7  -1 12979.0 579.298   5
   0   7   1 11215.9 817.047  46
   0  -7  -2 1671.36 361.954   2
   0   7   2 1241.32 302.609  46
   0  -7  -2 1187.76 179.967   5
   0  -7  -2 1677.93 246.664   4
   0   7   3 19213.7 1165.75  46
   0  -7  -3 20558.4 1228.70   2
   0  -7  -3 19628.6 817.355   4
   0   7   4 785.969 278.818  46
   0  -7  -4 279.930 125.678   4
   0  -7  -5 9687.81 523.028  21
   0  -7  -5 9573.32 584.602   4
   0  -7  -6 183.567 100.654  21
   0  -7  -6 43.4842 107.504   4
   0  -7  -7 382.668 126.375  21
   0  -7  -7 671.514 158.392   4
   0  -7  -8 3388.24 270.052  21
   0  -7  -8 3286.72 280.147   4
   0   7   8 3380.78 290.762  19
   0   7   9 22418.9 656.286  37
   0  -7  -9 20984.1 533.707   4
   0   7   9 21308.1 586.469  19
   0   8  -9 12823.0 378.341  29
   0  -8   9 13850.8 469.785  45
   0  -8   8 14647.2 593.526  45
   0  -8   8 14364.5 541.592   6
   0  -8   7 1157.08 193.711   6
   0  -8   7 1498.11 226.894  45
   0  -8   6 2159.70 285.541   6
   0  -8   6 2421.27 295.897  45
   0  -8   5 116.698 113.261  45
   0  -8   5-75.4503 125.899   6
   0  -8   4 1324.66 254.775   4
   0  -8   4 2036.07 297.150   6
   0  -8   4 1714.92 256.265   5
   0  -8   4 1371.75 240.488  45
   0  -8   3 329.765 140.722  45
   0  -8   3 143.756 85.4865   5
   0  -8   3 140.981 118.875   4
   0  -8   3 315.319 155.000   6
   0   8  -2 11441.5 878.052  42
   0  -8   2 13223.5 681.518   6
   0  -8   2 13546.0 660.481   5
   0  -8   2 12348.2 679.328   4
   0  -8   1 687.948 186.161   4
   0  -8   1 675.903 176.644   5
   0  -8   1 485.959 152.921   6
   0  -8   0 283662. 2949.01   6
   0  -8   0 284189. 3143.46   4
   0  -8  -1 26377.0 1447.70   2
   0   8   1 26744.6 1349.73  46
   0  -8  -1 25107.7 839.941   5
   0  -8  -1 25925.2 960.190   4
   0   8   2 77806.5 2382.85  46
   0  -8  -2 80647.1 1474.49   5
   0  -8  -3 4114.55 395.054   4
   0  -8  -4 872.297 194.446   4
   0  -8  -5 2291.64 288.525   4
   0  -8  -6-46.7514 112.304   4
   0   8   7 1640.20 185.481  19
   0  -8  -7 1854.02 218.898   4
   0   8   8 1551.49 177.425  37
   0  -8  -8 1428.86 154.047   4
   0   8   8 1494.28 145.085  19
   0  -9   8 4058.45 227.585   6
   0  -9   8 3943.94 224.473  45
   0  -9   7 20691.1 657.673   6
   0  -9   7 19456.2 613.234  45
   0  -9   6 120.928 81.3174  45
   0  -9   6 166.768 112.569   6
   0  -9   5 7455.47 500.527   6
   0  -9   5 7216.65 448.502  45
   0  -9   4 27082.7 961.767   6
   0  -9   4 24757.7 839.175  45
   0  -9   3 11601.1 606.141   5
   0  -9   3 12163.9 655.536   6
   0  -9   3 11271.8 644.513   4
   0  -9   2 2240.36 316.055   4
   0  -9   2 2123.64 265.860   5
   0  -9   2 2330.56 298.823   6
   0  -9   1 275.639 134.594   4
   0  -9   1-10.1072 101.603   6
   0  -9   1 58.8260 74.5541   5
   0  -9   0 10008.5 605.059   4
   0  -9   0 9891.60 549.873   6
   0  -9   0 10146.3 543.848   5
   0  -9  -1 50096.4 1159.24   5
   0  -9  -1 49920.3 1319.48   4
   0  -9  -2 28479.5 991.549   4
   0  -9  -3 48350.6 1265.18   4
   0  -9  -4 7295.08 474.450   4
   0  -9  -5 41208.6 1044.81   4
   0  -9  -6 9098.61 438.711   4
   0   9   7 20785.5 558.975  37
   0  -9  -7 20197.4 529.613   4
   0 -10   6 3759.20 271.073   6
   0 -10   5 2395.57 252.507   6
   0 -10   4 72.2071 88.2327   6
   0 -10   3 2745.59 288.365   6
   0 -10   2 22787.1 830.438   4
   0 -10   2 21931.0 733.436   5
   0 -10   2 23893.5 809.436   6
   0 -10   1 663.848 136.502   5
   0 -10   1 839.895 165.265   6
   0 -10   1 732.486 178.403   4
   0 -10   0 49.5113 83.3296   5
   0 -10   0 212.635 125.476   4
   0 -10  -1 9086.08 522.416   4
   0 -10  -2 8479.36 496.170   4
   0 -10  -3 15.2544 98.9324   4
   0 -10  -4 41.0217 81.5681   4
   0 -10  -5-65.4117 68.7779   4
   0 -11   4 961.069 126.016   6
   0 -11   3 2645.11 209.922   6
   0 -11   2 41.7143 58.4850   6
   0 -11   1 19086.8 629.748   4
   0 -11   0 152.688 91.0489   4
   0 -11  -1 25413.9 715.324   4
   0 -11  -2 1373.21 168.235   4
   0 -11  -3 3185.60 225.492   4
   1 -11  -2 166.420 64.6479   4
   1 -11  -1 2342.59 194.312   4
   1 -10  -4 44465.4 822.794   4
   1 -10  -3 460.504 117.405   4
   1 -10  -2 18821.3 658.991   4
   1 -10  -2 16286.6 514.498   5
   1 -10  -1 7129.88 433.792   4
   1 -10  -1 6941.89 372.178   5
   1 -10   0 214.427 115.057   4
   1 -10   0 669.854 129.532   5
   1 -10   1 22393.4 779.787   4
   1 -10   1 20974.6 692.176   5
   1 -10   2 2973.75 302.920   4
   1 -10   2 2856.32 264.247   5
   1 -10   2 2745.17 248.969   6
   1 -10   3 107.963 78.2643   6
   1 -10   4 10890.9 486.904   6
   1 -10   5 14910.9 528.352   6
   1 -10   6 10892.9 399.283   6
  -1   9   6 420.499 83.1889  37
   1  -9  -6 320.134 81.8696   4
   1  -9  -5 693.639 136.812   4
   1  -9  -4 1585.81 215.199   4
   1  -9  -3 155.931 82.7718   5
   1  -9  -3 233.761 127.082   4
   1  -9  -2 6493.23 460.528   4
   1  -9  -2 5663.54 382.656   5
   1  -9  -1 1439.11 236.701   4
   1  -9  -1 1052.51 180.381   5
   1  -9   0 67209.1 1514.77   4
   1  -9   0 68868.9 1414.95   5
   1  -9   1 11023.9 565.234   6
   1  -9   1 10373.6 614.538   4
   1  -9   1 11311.2 591.879   5
   1  -9   2 3703.20 346.705   5
   1  -9   2 2796.42 304.550   6
   1  -9   2 3168.06 354.887   4
   1  -9   3 493.238 175.316   4
   1  -9   3 561.714 171.697   6
   1  -9   3 273.455 125.570   5
   1  -9   4 8.14402 106.973   6
   1  -9   4 107.129 100.780   5
   1  -9   5 56.7983 110.822   6
   1  -9   6 337.865 121.315   6
   1  -9   7 423.421 110.709   6
  -1   8   8 2031.48 152.890  37
  -1   8   8 2003.62 161.525  18
  -1   8   7 15162.4 531.544  37
   1  -8  -7 15239.3 481.876   4
   1  -8  -6 710.946 151.005   4
   1  -8  -5 29421.2 913.260   4
   1  -8  -4 7163.86 436.489   5
   1  -8  -4 7210.59 488.748   4
   1  -8  -3 3308.36 346.792   4
   1  -8  -3 3582.27 325.762   5
   1  -8  -2 122150. 2066.13   4
   1  -8  -2 121720. 1893.47   5
   1  -8  -1 48223.9 1219.20   5
   1  -8  -1 48825.3 1322.83   4
   1  -8   0 8537.89 524.074   5
   1  -8   0 9714.51 598.750   4
   1  -8   1 27825.6 947.398   5
   1  -8   1 29485.4 971.937   6
   1  -8   1 30656.4 1059.17   4
   1  -8   2 63969.1 1474.73   6
   1  -8   2 65971.1 1481.72   5
   1  -8   2 63824.3 1541.90   4
   1  -8   3 12844.3 681.423   6
   1  -8   3 12731.2 708.565   4
   1  -8   3 12623.1 668.817   5
   1  -8   4 41937.2 1242.30   6
   1  -8   4 39229.3 1174.16   5
   1  -8   5 366.246 133.620  45
   1  -8   5 679.754 194.488   6
   1  -8   6 487.301 160.451   6
   1  -8   6 695.055 163.397  45
   1  -8   7 30680.7 860.436  45
   1  -8   7 34004.9 968.027   6
   1  -8   8 7840.83 401.026   6
   1  -8   8 7639.88 383.895  45
  -1   7   9 4088.71 238.836  18
  -1   7   9 4083.10 231.223  37
  -1   7   8 1881.46 212.306  37
  -1   7   8 1357.66 154.273  19
   1  -7  -8 1458.07 154.508   4
   1  -7  -7 2726.02 263.195  21
   1  -7  -7 2421.40 243.168   4
  -1   7   7 2169.10 227.834  19
   1  -7  -6 16941.0 708.953   4
   1  -7  -6 16519.9 678.113  21
   1  -7  -6 15279.6 598.657   5
   1  -7  -5 6953.13 487.187   4
   1  -7  -5 6548.32 449.412  21
   1  -7  -5 6901.06 434.309   5
   1  -7  -4 374.709 132.107  21
   1  -7  -4 163.694 89.1778   5
   1  -7  -4 143.851 101.243   4
   1  -7  -3 1045.07 195.481   5
   1  -7  -3 864.242 242.334   2
   1  -7  -3 749.663 179.310   4
   1  -7  -2 33322.6 997.749   5
   1  -7  -2 33499.4 1613.43   2
  -1   7   2 31603.7 1503.21  46
   1  -7  -2 34425.1 1082.71   4
  -1   7   1 6382.29 661.551  46
   1  -7  -1 5510.95 436.229   4
   1  -7  -1 6287.18 435.044   5
   1  -7   0 38386.1 1063.72   5
   1  -7   0 39335.5 1140.42   4
  -1   7   0 40175.2 1535.56  43
   1  -7   1 10589.3 568.407   6
  -1   7  -1 10950.0 823.297  43
   1  -7   1 10953.4 610.029   4
   1  -7   1 11578.5 598.668   5
  -1   7  -2 6199.95 639.118  43
   1  -7   2 6314.36 458.222   6
   1  -7   2 6076.42 442.868   5
   1  -7   2 5861.49 659.737  40
  -1   7  -2 6025.23 613.650  42
   1  -7   2 6415.45 478.243   4
   1  -7   3 10529.6 605.738   6
  -1   7  -3 9529.06 821.952  42
   1  -7   3 10261.5 873.242  40
   1  -7   3 9915.14 579.011   5
   1  -7   3 9605.25 591.830   4
   1  -7   4 28515.6 1008.45   5
   1  -7   4 28475.5 1474.12  40
   1  -7   4 29829.2 1043.99   6
  -1   7  -4 28678.9 1468.98  42
   1  -7   4 28208.9 949.854  45
   1  -7   5 156.724 126.668   5
   1  -7   5-57.1702 108.558  45
   1  -7   5-0.88321 111.500   6
   1  -7   6 21196.3 876.493   6
   1  -7   6 22095.7 871.294  45
   1  -7   7 14100.2 686.767  45
   1  -7   7 14801.2 697.010   6
   1  -7   8 71878.2 1375.03   6
   1  -7   8 69732.4 1402.64  45
   1  -7   9 1950.61 220.106  45
   1  -7   9 1801.92 183.642   6
  -1   7  -9 2109.83 197.201  28
  -1   6   9 30980.9 818.601  37
   1  -6  -9 31060.4 755.993  21
  -1   6   9 29670.2 737.495  19
   1  -6  -8 12959.2 531.594   4
   1  -6  -8 12521.6 574.341  21
  -1   6   8 13025.4 584.845  19
  -1   6   8 13126.6 629.267  37
   1  -6  -7 769.760 149.052   5
  -1   6   7 523.482 146.118  19
   1  -6  -7 519.932 144.193   4
   1  -6  -7 495.870 149.114  21
   1  -6  -6 28783.7 958.358   4
   1  -6  -6 28464.0 887.589   5
   1  -6  -6 29140.2 971.834  21
   1  -6  -5 17342.0 702.807   5
   1  -6  -5 15715.4 727.513   4
  -1   6   5 15951.5 1104.10  46
   1  -6  -5 14798.9 1028.35   2
  -1   6   5 16255.5 1073.22  44
   1  -6  -5 16435.1 718.643  21
   1  -6  -4 118.062 127.593   2
   1  -6  -4 117.554 103.657  21
  -1   6   4 116.597 142.214  46
   1  -6  -4 270.689 126.057   4
   1  -6  -4-41.7965 70.1954   5
  -1   6   3 14085.6 861.557  44
   1  -6  -3 14434.5 631.540  21
   1  -6  -3 13579.5 960.901   2
  -1   6   3 14399.7 979.362  46
   1  -6  -3 13736.8 616.694   5
   1  -6  -2 3054.78 477.615   2
  -1   6   2 3358.55 415.969  43
  -1   6   1 5572.92 528.684  43
   1  -6  -1 5830.40 606.219   2
  -1   6   0 14133.9 843.938  43
  -1   6   0 14249.3 757.959  42
   1  -6   0 13342.4 896.592   2
  -1   6  -1 208980. 3133.49  42
   1  -6   1 202502. 3476.69  40
  -1   6  -1 205996. 3275.22  43
   1  -6   2 79.3409 123.532  40
  -1   6  -2-34.9702 82.1769  42
   1  -6   3 23962.8 1244.24  40
   1  -6   3 23415.4 833.145   5
  -1   6  -3 23559.7 1196.91  42
   1  -6   3 24142.0 861.063   6
   1  -6   4 7093.12 491.703   6
  -1   6  -4 6988.07 692.534  42
   1  -6   4 6354.67 661.573  40
   1  -6   4 6822.87 473.785   5
   1  -6   4 6171.87 452.555  45
  -1   6  -5 4639.89 589.402  42
   1  -6   5 4446.57 401.035   5
   1  -6   5 4402.22 380.430  27
   1  -6   5 4052.01 393.274   6
   1  -6   5 4152.88 559.207  40
   1  -6   6 6296.71 474.303  27
   1  -6   6 6642.65 501.186   6
   1  -6   7 13176.5 683.806   6
   1  -6   7 12215.8 677.690  27
   1  -6   8 2257.44 296.933  45
  -1   6  -8 2149.16 241.055  25
   1  -6   8 1887.80 272.832  27
   1  -6   8 1378.36 221.466   6
  -1   6  -9 7455.72 390.730  25
   1  -6   9 7555.10 484.243  45
   1  -6   9 6929.66 394.596   6
  -1   6 -10 15102.8 518.772  28
   1  -6  10 15952.7 587.441  45
  -1   5  10 2113.44 164.845  15
  -1   5  10 2756.73 228.762  18
  -1   5  10 2636.90 231.102  37
   1  -5 -10 2628.71 217.247  21
  -1   5  10 2487.94 215.636  19
  -1   5   9 367.286 126.452  19
  -1   5   9 243.928 114.198  37
  -1   5   9 525.989 123.642  15
   1  -5  -9 407.347 129.719  21
  -1   5   8 32246.8 940.902  15
   1  -5  -8 33471.5 1037.77  21
  -1   5   8 32314.8 1064.71  37
   1  -5  -8 32271.6 923.004   4
  -1   5   8 32863.5 1039.36  19
   1  -5  -7 87.2734 89.9747   4
  -1   5   7 181.141 114.405  15
   1  -5  -7 280.110 122.749  21
  -1   5   6 83586.9 2517.21  44
   1  -5  -6 77571.8 2302.11   1
   1  -5  -6 82749.6 1609.27   4
   1  -5  -6 80970.4 1632.58  21
  -1   5   6 80570.6 2417.51  46
   1  -5  -5 934.928 250.529   2
   1  -5  -5 737.181 230.436   1
   1  -5  -5 873.774 177.349   4
  -1   5   5 649.437 232.999  44
  -1   5   5 820.315 245.576  46
   1  -5  -5 877.845 183.814  21
  -1   5   4 22016.4 1018.66  43
   1  -5  -4 18905.9 1045.69   2
  -1   5   4 21090.0 1096.76  44
   1  -5  -4 19022.5 985.429   1
  -1   5   4 22272.2 1176.54  46
  -1   5   3 164585. 3044.53  46
   1  -5  -3 165810. 3013.21   2
  -1   5   3 167231. 2808.86  44
   1  -5  -3 164153. 2644.87   1
  -1   5   3 169622. 2738.82  43
  -1   5   2 22188.1 960.571  43
  -1   5   2 22872.7 937.878  44
   1  -5  -2 22284.7 889.307   1
   1  -5  -2 20856.8 1044.11   2
  -1   5   1 477.895 164.799  43
  -1   5   1 725.749 164.433  44
   1  -5  -1 615.558 194.438   2
   1  -5   0 33257.1 1259.76  40
   1  -5   0 33734.0 1251.27   2
  -1   5   0 35160.4 1066.95  42
  -1   5   0 33818.6 1170.07  43
  -1   5   0 36044.9 948.706  44
   1  -5   1 3286.40 406.379  40
   1  -5   1 3809.58 423.066   2
  -1   5  -1 3594.33 380.661  42
  -1   5  -1 3747.53 342.121  48
  -1   5  -2 135.176 140.669  42
  -1   5  -2 122.810 91.4446  41
   1  -5   2 293.767 165.683  40
  -1   5  -2 74.5339 66.7374  48
   1  -5   3 512.390 187.172  40
  -1   5  -3 119.305 144.363  42
  -1   5  -3 420.499 144.336  48
  -1   5  -4 831.664 192.244  48
  -1   5  -4 1080.02 271.081  42
   1  -5   4 583.248 215.227  40
  -1   5  -5 280.563 125.650  48
  -1   5  -5 807.164 206.558  52
  -1   5  -5 1179.49 288.895  42
   1  -5   5 834.456 261.030  40
   1  -5   5 1070.76 195.687  27
   1  -5   5 771.012 172.275   6
   1  -5   5 876.659 185.518   5
   1  -5   6 32802.1 1055.16  27
  -1   5  -6 34054.5 1537.45  42
  -1   5  -6 31839.7 1359.12  52
   1  -5   6 31876.7 1037.84   6
   1  -5   6 33116.5 1482.24  40
  -1   5  -7 15003.2 1060.54  42
  -1   5  -7 14643.7 1002.95  52
   1  -5   7 15946.2 764.553  27
   1  -5   7 16770.6 763.306   6
  -1   5  -8 6897.17 468.530  25
   1  -5   8 5749.32 434.980   6
   1  -5   8 6243.16 495.669  27
  -1   5  -9 31065.0 921.619  25
   1  -5   9 31795.3 1043.30  27
  -1   5 -10 5843.18 349.362  25
  -1   5 -10 5257.81 365.502  28
   1  -5  10 5569.36 397.930  27
  -1   5 -11-9.76309 61.9083  29
   1  -5  11-13.6124 59.6659  45
  -1   5 -11-41.6587 63.3621  28
   1  -4 -10 462.608 125.618  21
  -1   4  10 494.667 124.312  15
  -1   4  10 460.351 133.991  18
  -1   4  10 397.106 127.295  37
  -1   4  10 296.481 111.985  19
   1  -4  -9 36736.8 1053.84  21
  -1   4   9 36959.5 1094.30  19
  -1   4   9 36664.8 1097.65  37
  -1   4   9 34005.4 992.932  15
   1  -4  -8 14190.6 642.978   4
  -1   4   8 14993.1 708.651  15
  -1   4   8 14961.8 746.896  19
   1  -4  -8 15350.7 738.343  21
  -1   4   8 14837.2 746.309  37
   1  -4  -7-36.0295 80.4025   4
  -1   4   7-13.7375 71.4769  15
   1  -4  -7-53.0495 96.1589  21
  -1   4   6 4635.53 589.055  44
  -1   4   6 4663.59 561.238  46
   1  -4  -6 3800.99 517.028   1
   1  -4  -6 4380.54 376.629  21
   1  -4  -6 4731.33 379.597   4
  -1   4   6 4616.97 380.574  15
  -1   4   5 21442.9 1116.48  46
   1  -4  -5 19997.0 1070.18   1
   1  -4  -5 21393.2 1014.54   2
  -1   4   5 20277.7 1115.26  44
  -1   4   4 61239.3 1747.63  44
  -1   4   4 59695.1 1761.67  46
  -1   4   4 60232.7 1588.01  43
   1  -4  -4 58430.2 1645.62   1
   1  -4  -4 59968.6 1655.48   2
   1  -4  -3 143227. 2455.76   2
   1  -4  -3 139665. 2293.22   1
  -1   4   3 145695. 2335.26  43
  -1   4   3 139905. 2400.38  44
  -1   4   2 11006.7 606.616  44
   1  -4  -2 11669.9 598.511   1
   1  -4  -2 11066.1 661.550   2
  -1   4   2 11787.9 634.715  43
  -1   4   1 151206. 1756.24  42
  -1   4   1 155151. 2234.72  43
   1  -4  -1 154645. 1984.36   1
   1  -4  -1 151497. 2358.31   2
  -1   4   1 153021. 2007.90  44
   1  -4   0 191057. 2609.41   2
  -1   4   0 193314. 2220.68  42
   1  -4   0 193089. 2665.11  40
   1  -4   1 3741.22 382.188  40
   1  -4   1 4268.62 299.792   1
   1  -4   1 4114.02 386.729   2
  -1   4  -1 4085.17 296.090  41
  -1   4  -2 6561.73 347.197  52
  -1   4  -2 6832.17 412.529  48
   1  -4   2 5911.65 483.622  40
  -1   4  -3 14075.1 637.560  48
   1  -4   3 14235.2 769.031  40
   1  -4   4 4086.54 439.005  40
  -1   4  -4 4567.49 471.253  42
  -1   4  -4 4246.55 393.204  48
   1  -4   5 6873.23 600.375  40
  -1   4  -5 7091.94 573.051  52
  -1   4  -5 7083.78 561.084  48
  -1   4  -5 7235.17 625.624  42
  -1   4  -6 26114.0 1221.88  52
   1  -4   6 27711.5 909.377   6
  -1   4  -6 27072.6 1279.61  42
   1  -4   6 26808.9 1255.23  40
   1  -4   6 28590.7 946.130  27
  -1   4  -6 28948.0 1239.82  48
  -1   4  -7 55132.1 1863.21  48
   1  -4   7 58217.8 1937.85  40
  -1   4  -7 59810.8 2006.49  52
   1  -4   7 60872.4 1446.06  27
   1  -4   7 58895.6 1361.46   6
  -1   4  -7 58715.4 1328.68  21
  -1   4  -7 58415.8 1959.73  42
  -1   4  -8 2886.97 304.912  21
   1  -4   8 3315.77 362.179  27
   1  -4   8 2625.74 289.717   6
  -1   4  -9 13329.2 614.969  21
  -1   4  -9 11886.9 624.909  25
   1  -4   9 12028.2 669.917  27
  -1   4 -10 20843.2 746.404  25
   1  -4  10 21397.7 825.464  27
  -1   4 -10 20733.5 782.265  28
  -1   4 -10 21117.5 678.036  21
   1  -4  11 544.326 131.526  27
  -1   4 -11 448.235 120.837  29
  -1   4 -11 710.629 135.010  28
  -1   3  11 955.054 148.141  19
   1  -3 -11 1212.62 157.366  21
  -1   3  11 1071.26 147.671  15
  -1   3  11 709.416 101.256  18
  -1   3  10 25097.8 784.504  18
  -1   3  10 26386.0 843.628  15
   1  -3 -10 27171.2 855.099  21
  -1   3  10 27668.8 894.395  19
  -1   3  10 25959.0 852.049  37
  -1   3   9 5721.14 464.133  37
  -1   3   9 5568.99 454.961  19
   1  -3  -9 6252.72 468.802  21
  -1   3   9 6014.86 459.177  15
  -1   3   8 13128.6 718.177  19
   1  -3  -8 13735.0 708.464  21
  -1   3   8 12948.5 684.309  15
  -1   3   8 13080.5 703.066  37
   1  -3  -7 112051. 1944.11  21
  -1   3   7 108196. 1912.12  15
   1  -3  -7 111753. 2863.75   1
  -1   3   6 1073.61 248.731  46
  -1   3   6 1393.15 216.850  15
  -1   3   6 1292.49 304.855  44
  -1   3   6 1327.92 274.775  49
   1  -3  -6 1451.50 216.572  21
   1  -3  -5 14683.4 876.966   1
  -1   3   5 15199.3 918.755  44
  -1   3   5 16765.2 906.261  46
   1  -3  -5 14769.6 744.736   2
   1  -3  -4 113229. 1970.05   2
  -1   3   4 110250. 2205.10  44
  -1   3   4 111070. 2168.23  46
  -1   3   4 110075. 2025.32  43
   1  -3  -3 106411. 1852.18   2
  -1   3   3 101110. 1885.22  44
  -1   3   3 102082. 1789.69  43
   1  -3  -3 102257. 1842.92   1
  -1   3   2 18601.3 707.591  43
   1  -3  -2 18963.2 746.893   2
   1  -3  -2 18505.1 707.213   1
  -1   3   2 18432.9 557.534  50
  -1   3   2 18774.1 725.827  44
   1  -3  -1 493288. 3269.70   1
  -1   3   1 493740. 3514.98  43
   1  -3  -1 496343. 3666.76   2
   1  -3   0 32148.0 913.860   2
  -1   3   0 30931.6 772.233  42
  -1   3   0 30145.4 665.881  41
   1  -3   0 31041.7 912.996  40
   1  -3   0 29815.1 734.303   1
   1  -3   1 264453. 2130.64   1
   1  -3   1 267197. 2575.17   2
  -1   3  -1 267968. 1573.31  52
   1  -3   1 269084. 2681.25  40
  -1   3  -2 379441. 2645.72  48
   1  -3   2 382041. 3307.65  40
   1  -3   3 986180. 5662.27  40
  -1   3  -3 999999. 4840.56  48
  -1   3  -4 6090.68 439.020  48
   1  -3   4 2582.31 329.051  40
  -1   3  -5 11814.3 716.130  52
  -1   3  -5 13281.1 771.060  42
  -1   3  -5 12192.9 694.545  48
   1  -3   5 12581.6 748.024  40
  -1   3  -6 4438.77 482.550  42
  -1   3  -6 4887.85 500.304  48
  -1   3  -6 4815.57 518.362  52
   1  -3   6 4934.52 509.656  40
   1  -3   7 6032.34 446.371  27
  -1   3  -7 5930.76 589.120  42
  -1   3  -7 4917.12 583.688  52
   1  -3   7 6061.58 607.077  40
  -1   3  -7 5035.12 560.035  48
  -1   3  -7 5136.26 397.772  21
  -1   3  -8 5949.27 468.736  25
   1  -3   8 5668.36 462.714  27
  -1   3  -8 5667.35 434.018  21
  -1   3  -8 5665.70 656.412  52
  -1   3  -8 5799.46 417.591  20
  -1   3  -9 430.882 169.777  25
  -1   3  -9 584.197 150.975  21
   1  -3   9 434.934 181.700  27
  -1   3 -10 11557.7 563.854  21
  -1   3 -10 11799.5 615.760  25
   1  -3  10 10800.9 610.786  27
  -1   3 -10 11665.1 622.752  28
   1  -3  11 12966.1 576.764  27
  -1   3 -11 11972.6 532.853  29
  -1   3 -11 13277.5 569.114  28
  -1   3 -11 12439.8 482.280  21
   1  -3  12 7165.11 319.579  45
  -1   3 -12 6865.04 285.071  29
   1  -2 -11 96.8155 79.3084  21
  -1   2  11 106.084 74.5716  15
  -1   2  11 130.816 92.7052  19
   1  -2 -10 2894.06 302.990  21
  -1   2  10 2738.78 296.287  37
  -1   2  10 3013.99 322.135  19
  -1   2  10 2534.31 259.849  18
  -1   2  10 2847.18 305.061  15
  -1   2   9 29669.4 1024.59  37
   1  -2  -9 27890.7 995.249  21
  -1   2   9 29568.1 1035.10  15
   1  -2  -8 567.892 177.148  21
  -1   2   8 68.8961 163.759  53
  -1   2   8 665.018 183.670  37
  -1   2   8 374.731 151.660  19
  -1   2   8 533.358 179.949  15
   1  -2  -7 71.6268 128.928   1
   1  -2  -7 195.110 104.577  29
  -1   2   7 72.1551 81.4807  15
   1  -2  -7 117.485 102.399  21
  -1   2   7 166.862 109.877  19
  -1   2   7 219.902 152.484  49
  -1   2   6 60439.2 1769.19  49
  -1   2   6 63819.1 1678.02  46
  -1   2   6 62192.8 1937.11  44
   1  -2  -6 58031.7 1860.69   1
  -1   2   5 57879.6 1694.32  44
  -1   2   5 53272.4 1431.18  46
   1  -2  -5 52648.9 1592.28   1
   1  -2  -5 53481.4 1251.77  52
   1  -2  -4 102986. 1981.91   1
   1  -2  -4 106930. 1634.91   2
  -1   2   4 101886. 1843.56  46
  -1   2   4 102648. 2005.04  44
   1  -2  -4 103672. 1486.98  52
   1  -2  -3 1040.69 161.670   2
  -1   2   3 1207.08 169.299  50
  -1   2   3 1243.02 196.548  43
   1  -2  -3 1468.54 147.473  52
   1  -2  -3 1493.59 227.799   1
   1  -2  -2 155875. 1057.10  52
  -1   2   2 157948. 1602.19  50
  -1   2   2 151800. 1898.72  44
  -1   2   2 156102. 1826.57  43
   1  -2  -2 151903. 1857.90   1
   1  -2  -2 151736. 1769.04   2
   1  -2  -1 138945. 1610.75   2
  -1   2   1 137647. 1590.78  43
  -1   2   1 139933. 1181.03  42
   1  -2  -1 137799. 1536.91   1
   1  -2  -1 142659. 1621.96  40
   1  -2   0 23333.3 648.373  40
  -1   2   0 22783.0 550.901  42
  -1   2   0 23161.7 525.922  41
   1  -2   0 23794.4 580.369   1
   1  -2   1 493.789 96.0062   1
  -1   2  -1 580.980 83.1504  48
  -1   2  -1 735.361 82.0587  52
  -1   2  -2 509920. 2643.56  48
   1  -2   2 488521. 3234.53  40
  -1   2  -3 326048. 2520.06  48
   1  -2   3 321168. 2867.83  40
   1  -2   3 329582. 2411.57  53
   1  -2   4 99626.4 1530.61  53
  -1   2  -4 96322.6 1627.24  48
  -1   2  -5 118484. 2070.70  48
  -1   2  -5 123864. 2107.12  42
   1  -2   5 123334. 1943.07  53
  -1   2  -6 8887.59 613.941  42
  -1   2  -6 7513.10 623.023  52
   1  -2   6 7886.20 554.728  53
  -1   2  -6 8204.93 622.604  48
   1  -2   6 8478.92 631.924  40
   1  -2   7 105.230 80.8179  27
  -1   2  -7 380.138 168.022  42
  -1   2  -7 144.868 124.172  52
  -1   2  -8 40466.0 1157.76  21
   1  -2   8 41473.2 1611.64  40
   1  -2   8 42606.0 1126.31  15
  -1   2  -8 40054.9 1176.77  25
  -1   2  -8 41010.5 1141.32  20
   1  -2   8 40625.3 1175.19  27
  -1   2  -8 40383.7 1717.61  52
   1  -2   9 267.507 123.574  15
   1  -2   9 278.886 158.421  27
  -1   2  -9 357.478 137.582  21
  -1   2  -9 335.042 145.406  25
   1  -2  10 15409.7 666.213  15
  -1   2 -10 15547.5 736.698  28
  -1   2 -10 15122.5 723.652  25
   1  -2  10 14961.0 723.713  27
  -1   2 -10 14451.0 675.087  21
   1  -2  11 41216.9 922.920  15
   1  -2  11 44987.8 1087.47  27
  -1   2 -11 45412.1 1025.53  21
  -1   2 -11 44167.2 1032.04  29
  -1   2 -11 44815.6 1084.65  28
  -1   2 -12 1157.21 124.664  21
  -1   2 -12 1066.06 122.641  29
  -1   1  11 13154.5 570.108  15
  -1   1  11 12335.1 543.709  19
   1  -1 -11 12074.1 517.169  21
  -1   1  10 4297.50 383.481  19
  -1   1  10 4159.38 383.888  15
  -1   1  10 3980.12 355.614  37
   1  -1 -10 4380.59 373.598  21
  -1   1   9 39390.3 1174.33  37
  -1   1   9 42626.5 1248.72  19
   1  -1  -9 41310.2 1112.36  29
  -1   1   9 38024.9 1064.22  18
  -1   1   9 41924.1 1239.88  15
   1  -1  -9 41039.2 1203.83  21
   1  -1  -8 2044.45 411.372   1
   1  -1  -8 2311.68 276.880  29
  -1   1   8 1817.13 278.663  15
   1  -1  -8 2360.32 299.131  21
  -1   1   8 2452.87 460.726  53
   1  -1  -8 2114.85 280.966  28
  -1   1   8 2038.66 294.133  19
  -1   1   8 1894.03 275.921  37
   1  -1  -7 13843.3 623.119  29
  -1   1   7 14493.8 666.255  37
  -1   1   7 14963.6 698.162  19
   1  -1  -7 13574.7 633.998  28
  -1   1   7 14400.8 945.420  49
  -1   1   7 13455.9 660.273  15
   1  -1  -7 13110.7 636.136  21
   1  -1  -7 13222.5 953.691   1
   1  -1  -7 14025.3 853.462  52
   1  -1  -6 155.647 100.008  52
   1  -1  -6 320.003 176.396   1
  -1   1   6 309.538 176.241  49
  -1   1   6 402.774 190.084  44
  -1   1   5 33844.8 1169.62  49
  -1   1   5 35000.0 1230.69  44
  -1   1   5 35680.8 1029.91  46
   1  -1  -4 79649.7 1133.72   2
  -1   1   4 80733.0 1409.18  46
  -1   1   4 76829.6 1611.19  44
  -1   1   3 110505. 1594.64  43
  -1   1   3 111947. 1689.80  44
   1  -1  -3 116071. 1305.21   2
   1  -1  -3 115595. 1727.10   1
   1  -1  -2 694763. 3618.00   1
   1  -1  -1 429392. 2396.90   1
  -1   1   1 431021. 2377.30  43
  -1   1   0 87188.0 906.548  41
  -1   1   0 90653.9 880.151  42
   1  -1   0 88557.0 952.863  40
   1  -1   0 87776.1 954.556   1
  -1   1  -2 117672. 1122.68  48
  -1   1  -2 116278. 1313.59  42
   1  -1   2 117806. 1187.45  54
   1  -1   3 56019.8 999.032  53
  -1   1  -3 55080.1 1018.71  42
   1  -1   3 56867.8 908.781  54
  -1   1  -4 10242.7 512.339  48
   1  -1   4 10772.7 440.130  54
  -1   1  -4 9793.32 480.765  42
   1  -1   4 9985.18 501.220  53
  -1   1  -5 27511.1 978.383  48
   1  -1   5 28211.4 951.005  53
   1  -1   5 29201.5 794.400  54
  -1   1  -5 28591.3 1033.12  52
   1  -1   6 1391.54 252.374  53
  -1   1  -6 1312.21 213.867  42
  -1   1  -6 996.774 242.383  52
  -1   1  -7 22.3067 140.702  52
   1  -1   7-11.0247 111.633  53
   1  -1   8 2037.44 270.028  27
  -1   1  -8 2144.95 277.939  25
  -1   1  -8 2022.58 278.048  21
   1  -1   8 2121.50 264.149  15
  -1   1  -8 1984.47 258.701  20
   1  -1   8 2033.46 356.250  53
   1  -1   8 1840.62 240.738  19
  -1   1  -8 2290.17 400.751  52
   1  -1   9 414.464 163.530  27
   1  -1   9 37.5638 110.692  15
   1  -1   9 169.697 83.8384  19
  -1   1  -9 94.0729 114.994  21
  -1   1  -9 261.192 152.032  25
  -1   1 -10 34379.9 1069.62  21
  -1   1 -10 33759.2 1031.65  29
   1  -1  10 33267.2 1066.16  27
  -1   1 -10 34006.1 1102.37  25
  -1   1 -10 34299.1 1080.59  28
   1  -1  10 35936.0 1069.09  15
  -1   1 -11 45800.9 1102.29  21
   1  -1  11 46441.1 1107.80  27
  -1   1 -11 45186.1 1090.12  28
  -1   1 -11 45197.4 1030.89  29
   1  -1  11 43374.2 1043.52  15
   1  -1  12 7372.62 323.638  27
  -1   1 -12 8256.39 359.652  21
   1  -1  12 7203.36 321.498  15
  -1   0  12 136.620 63.7041  15
  -1   0  12 73.4982 45.7818  19
  -1   0  11 713.463 151.485  19
   1   0 -11 819.650 148.475  21
  -1   0  11 755.732 165.187  15
  -1   0  10 750.716 186.244  19
   1   0 -10 592.611 163.438  21
   1   0 -10 382.112 132.354  29
  -1   0  10 680.488 181.759  15
   1   0  -9 6141.01 452.491  29
  -1   0   9 5453.94 462.794  19
   1   0  -9 5566.20 455.240  21
   1   0  -9 5588.59 462.011  28
  -1   0   9 5398.68 441.056  37
  -1   0   9 5592.84 468.090  15
   1   0  -8 96570.3 1798.43  28
  -1   0   8 98828.7 1805.09  37
   1   0  -8 96697.3 1794.02  21
  -1   0   8 96834.2 1842.09  19
  -1   0   8 100023. 1872.12  15
   1   0  -8 101086. 2749.38   1
   1   0  -8 100551. 1791.06  29
  -1   0   8 98692.0 2621.07  53
   1   0  -7 177.392 63.3827  21
   1   0  -7 120.968 95.4188  52
  -1   0   7 243.725 123.161  15
  -1   0   7 86.3867 76.7215  19
  -1   0   7-96.7063 104.010  37
   1   0  -7 273.006 118.098  29
  -1   0   7 294.030 134.983  49
   1   0  -7 234.855 109.419  25
   1   0  -7 158.023 83.0512  28
   1   0  -7 237.202 219.953   1
  -1   0   6 96490.1 2196.67  49
  -1   0   6 101624. 2215.59  44
   1   0  -6 102238. 2309.78   1
  -1   0   5 633.087 183.243  49
   1   0  -5 366.503 144.719  48
  -1   0   4 7358.27 357.185  46
  -1   0   4 6828.97 465.052  49
   1   0  -4 8395.94 509.262  48
  -1   0   4 7067.20 459.982  44
  -1   0   3 21070.8 535.227  46
   1   0  -3 21828.1 690.321  48
  -1   0   3 22097.3 687.994  44
   1   0  -3 23094.9 391.352   2
  -1   0   1 9152.24 255.510  51
   1   0  -1 9606.87 272.584  48
  -1   0   1 9445.39 310.025  43
  -1   0   0 483.595 59.4141  43
  -1   0   0 83.9270 33.3402  41
   1   0   0 573.559 36.1679  48
   1   0   0 182.046 42.4669  54
   1   0   0 173.753 36.4981  47
   1   0   0 290.598 37.7271  40
  -1   0  -1 58780.8 666.200  42
  -1   0  -1 58223.3 657.105  52
  -1   0  -3 116595. 1481.20  52
  -1   0  -3 112952. 1407.67  48
  -1   0  -3 112667. 1233.47  42
  -1   0  -4 913.065 176.698  48
   1   0   4 982.757 175.761  53
  -1   0  -4 1269.27 153.648  42
  -1   0  -4 1090.23 189.712  52
  -1   0  -5 49574.1 1317.37  52
  -1   0  -5 48233.6 1006.74  42
   1   0   6 5979.13 518.830  53
  -1   0  -6 5851.47 514.675  52
  -1   0  -7 23422.8 1143.34  52
   1   0   7 24620.3 1156.74  53
  -1   0  -8 16336.4 734.643  21
   1   0   8 17142.2 744.515  15
  -1   0  -8 18043.7 772.391  25
   1   0   8 17781.9 741.704  19
   1   0   8 16220.2 713.017  27
  -1   0  -8 16721.8 726.173  28
  -1   0  -8 15452.0 1020.17  52
   1   0   8 16484.5 1040.71  53
   1   0   9 944.513 187.841  19
   1   0   9 1241.48 227.785  27
  -1   0  -9 1070.91 209.286  25
   1   0   9 1164.69 223.240  15
  -1   0  -9 963.069 201.271  21
  -1   0  -9 1341.42 215.090  29
  -1   0  -9 1938.69 272.809  28
  -1   0 -10 340.978 137.021  21
  -1   0 -10 436.051 162.723  25
  -1   0 -10 371.353 144.811  28
   1   0  10 112.853 101.966  27
   1   0  10 264.142 132.045  19
   1   0  10 223.197 128.941  15
  -1   0 -10 31.2725 83.4351  29
   1   0  11 409.957 103.197  27
   1   0  11 443.286 112.238  19
   1   0  11 557.310 145.075  15
  -1   0 -11 286.181 92.7470  29
  -1   0 -11 288.606 109.414  28
  -1   0 -11 465.504 140.399  21
   1   0  12 6592.87 337.786  15
  -1   0 -12 6806.17 346.646  21
  -1  -1  12 9635.77 362.971  15
   1   1 -11 33646.3 823.996  21
  -1  -1  11 34463.1 930.647  15
  -1  -1  11 31804.5 844.813  19
   1   1 -10 283.361 104.207  31
  -1  -1  10 621.768 168.280  19
   1   1 -10 355.619 119.290  21
   1   1 -10 375.763 150.822  28
  -1  -1  10 477.628 168.097  15
   1   1 -10 283.737 134.236  29
   1   1  -9 23443.5 920.458  28
  -1  -1   9 21939.4 888.197  19
  -1  -1   9 22876.4 858.795  27
  -1  -1   9 22475.2 911.271  15
   1   1  -9 22755.9 868.306  21
   1   1  -9 21371.1 861.730  29
  -1  -1   8 31.7016 94.2615  27
  -1  -1   8 39.5755 96.2897  37
   1   1  -8 427.445 211.518  52
   1   1  -8 298.733 119.773  21
  -1  -1   8 296.785 126.709  19
   1   1  -8 294.153 135.545  28
  -1  -1   8 65.8281 102.532  15
   1   1  -8 392.372 143.450  29
   1   1  -8 268.871 123.615  25
   1   1  -7 15402.2 976.695   1
  -1  -1   7 15800.2 676.140  37
  -1  -1   7 16365.8 701.232  19
  -1  -1   7 14910.7 900.826  53
   1   1  -7 16007.4 694.959  25
  -1  -1   7 17068.4 716.980  15
   1   1  -7 16441.2 703.690  28
  -1  -1   6 51.6945 128.050  49
   1   1  -6 321.450 151.431  48
   1   1  -5 380.417 163.496  48
  -1  -1   5 205.450 110.209  44
  -1  -1   5 127.627 130.956  49
  -1  -1   5 561.653 129.791   3
  -1  -1   4 96120.2 1544.79  44
   1   1  -4 94771.1 1713.24  48
   1   1  -3 85448.5 1380.54  48
  -1  -1   3 80908.4 1379.19  49
  -1  -1   3 80129.7 708.310  46
  -1  -1   3 84453.7 1218.22  44
  -1  -1   2 639709. 3178.28  49
   1   1  -1 300211. 1734.49  47
   1   1  -1 299881. 1730.04  48
   1   1  -1 296534. 1470.51   1
   1   1   0 49619.7 429.344   1
   1   1   0 50219.0 496.876  46
   1   1   0 50467.8 622.144  47
  -1  -1  -1 68530.6 748.238  52
   1   1   1 66954.8 770.176  46
  -1  -1  -2 3703.77 218.438  52
   1   1   2 3940.13 231.074  46
   1   1   2 3769.62 166.653  49
   1   1   3 40938.2 738.755  49
   1   1   3 39670.1 845.761  46
   1   1   4 5278.46 331.749  49
  -1  -1  -4 5168.61 367.400  52
  -1  -1  -4 5171.83 316.465   2
   1   1   4 5109.06 344.634  46
   1   1   5 84.4074 113.454  53
  -1  -1  -5 123.267 96.5694  52
   1   1   5 117.989 91.1581  49
  -1  -1  -5 51.3353 54.6840   2
   1   1   6 118700. 2376.91  53
  -1  -1  -6 115311. 2218.31  52
  -1  -1  -7 23141.8 1115.86  52
   1   1   7 24675.0 1212.56  53
   1   1   8 10752.6 574.848  27
   1   1   8 11339.8 613.270  14
   1   1   8 11749.5 617.206  19
   1   1   8 12105.4 638.851  15
  -1  -1  -8 11205.4 846.439  52
   1   1   8 11760.3 921.225  53
   1   1   8 11442.4 580.232  37
  -1  -1  -8 11627.2 596.445  28
  -1  -1  -8 11296.1 611.411  21
  -1  -1  -8 11345.0 606.969  25
   1   1   9 31033.5 1036.60  19
  -1  -1  -9 29709.1 1026.76  25
   1   1   9 30646.8 969.795  37
  -1  -1  -9 30570.2 984.278  28
   1   1   9 30718.3 997.346  27
  -1  -1  -9 29712.4 1031.10  21
   1   1   9 34115.4 1111.48  15
  -1  -1 -10 17303.0 778.428  21
   1   1  10 17449.2 755.499  19
   1   1  10 16303.4 673.047  37
   1   1  10 18516.7 800.303  15
  -1  -1 -10 17674.3 727.675  28
   1   1  10 16474.4 694.180  27
   1   1  11 10489.8 517.271  19
   1   1  11 11336.5 570.930  15
  -1  -1 -11 11510.1 566.503  21
   1   1  12 5974.22 329.567  15
  -1  -1 -12 5943.66 324.741  21
  -1  -2  11 269.573 86.9287  19
   1   2 -11 496.195 119.844  29
   1   2 -11 486.934 107.897  31
   1   2 -11 307.471 80.4126  21
  -1  -2  11 609.927 139.376  15
  -1  -2  10 15290.9 667.554  27
   1   2 -10 15100.4 630.998  21
   1   2 -10 15632.5 709.195  29
  -1  -2  10 15652.0 706.604  15
   1   2 -10 14054.0 628.785  31
   1   2 -10 15888.7 723.468  28
  -1  -2  10 14635.4 651.568  19
   1   2  -9 54130.5 1370.37  25
   1   2  -9 53843.8 1290.53  21
  -1  -2   9 53005.4 1329.41  19
   1   2  -9 51991.5 1373.76  29
  -1  -2   9 53755.0 1358.50  27
  -1  -2   9 54660.4 1391.59  15
   1   2  -9 55185.6 1419.13  28
   1   2  -8 22650.2 893.192  28
  -1  -2   8 22520.7 870.730  19
   1   2  -8 22599.5 1295.75  52
   1   2  -8 23326.3 1278.41   1
   1   2  -8 23143.7 895.171  25
  -1  -2   8 24218.0 919.367  15
   1   2  -8 23756.6 858.519  21
  -1  -2   8 23853.9 902.832  27
  -1  -2   7 9904.67 550.393  15
  -1  -2   7 8912.99 527.460  27
   1   2  -7 9264.14 528.006  25
   1   2  -7 8765.34 777.921  48
  -1  -2   7 8693.27 514.573  19
   1   2  -7 8964.65 504.440  21
   1   2  -7 9812.43 759.356   1
   1   2  -7 9193.63 540.532  28
  -1  -2   6 10519.5 631.297  53
  -1  -2   6 10642.3 643.291   3
   1   2  -6 9874.84 743.653  48
  -1  -2   5 51308.3 1182.67  40
   1   2  -5 49288.0 1454.29  48
  -1  -2   5 48681.0 1289.68   3
  -1  -2   4 23388.9 806.800   3
  -1  -2   4 24532.9 727.526  40
   1   2  -4 22963.0 871.614  48
  -1  -2   4 22205.4 874.773  49
   1   2  -3 53854.7 1165.54  48
  -1  -2   3 53888.1 1185.42  49
  -1  -2   3 54706.7 1152.76   3
  -1  -2   3 54365.2 874.762  44
  -1  -2   3 56906.6 961.622  40
  -1  -2   2 5801.63 179.371   2
   1   2  -2 5758.66 335.876  48
  -1  -2   2 6186.77 215.474  44
  -1  -2   2 6461.49 279.382  40
  -1  -2   2 6102.75 341.805  49
  -1  -2   2 6028.97 337.962   3
   1   2  -2 6167.21 312.328  47
  -1  -2   1 234229. 1510.10  40
   1   2  -1 232017. 1007.00  46
   1   2   0 338880. 1724.75  46
  -1  -2   0 337341. 1938.89   2
  -1  -2   0 333691. 2013.60   3
   1   2   1 651324. 2886.52  46
   1   2   2 17781.8 539.157  44
  -1  -2  -2 18935.1 494.205  52
   1   2   2 17779.1 569.161  46
  -1  -2  -2 17640.0 545.251   2
   1   2   3 7345.43 418.319  44
  -1  -2  -3 7957.13 380.304  52
  -1  -2  -3 7119.76 384.532   2
   1   2   3 7289.67 409.480  46
  -1  -2  -4 545107. 3622.56   2
   1   2   4 540349. 3934.63  46
  -1  -2  -4 548452. 3663.34  52
   1   2   5 30311.7 1020.56  46
  -1  -2  -5 30491.7 1004.14  52
   1   2   5 32023.1 922.225  49
  -1  -2  -5 32630.3 953.314   2
   1   2   6 1461.86 245.393  49
   1   2   6 1967.53 339.576  53
  -1  -2  -6 1760.81 285.170  52
  -1  -2  -7 15433.5 896.175  52
   1   2   7 16299.4 700.759  15
   1   2   7 17365.8 1064.80  53
   1   2   8 11661.5 943.218  53
  -1  -2  -8 9808.51 778.456  52
   1   2   8 11708.4 645.657  15
  -1  -2  -8 10762.0 605.283  21
  -1  -2  -8 11065.8 602.060  25
  -1  -2  -8 10690.3 551.627  28
   1   2   9 2946.91 325.568  37
  -1  -2  -9 3405.33 357.824  21
   1   2   9 2761.83 338.423  15
   1   2   9 2934.73 342.356  19
  -1  -2  -9 3018.19 307.864  28
   1   2  10 1386.79 229.615  19
   1   2  10 1429.22 250.830  15
  -1  -2 -10 1390.15 233.366  21
   1   2  10 1172.79 199.501  37
  -1  -2 -11 5613.52 390.227  21
   1   2  11 5466.52 378.945  19
   1   2  11 5552.37 397.049  15
   1   2  12 4063.62 269.848  15
  -1  -2 -12 4206.62 263.322  21
   1   2  12 3654.12 230.421  19
   1   3 -11 189.247 77.8240  31
   1   3 -11 176.402 97.1198  29
  -1  -3  11 214.322 83.7802  45
  -1  -3  11 166.012 84.4945  15
  -1  -3  10 266.182 113.667  15
  -1  -3  10 286.047 120.476  27
  -1  -3  10 230.035 104.394  19
   1   3 -10 219.724 118.715  28
   1   3 -10 508.664 157.510  29
  -1  -3   9 3562.10 356.414  15
  -1  -3   9 3499.88 367.892  27
   1   3  -9 4032.58 337.364  21
   1   3  -9 3922.42 384.249  29
  -1  -3   9 3854.11 350.157  19
   1   3  -9 3499.49 346.733  25
   1   3  -9 3706.06 377.547  28
  -1  -3   8 95127.9 1862.00  27
   1   3  -8 95890.1 1834.04  28
   1   3  -8 99016.5 1696.36  21
   1   3  -8 100866. 2757.66  52
  -1  -3   8 98245.8 1767.26  19
   1   3  -8 97212.6 1793.85  25
   1   3  -8 93830.3 2728.87  48
  -1  -3   8 100373. 1826.52  15
  -1  -3   7 819.462 177.960  27
  -1  -3   7 989.888 189.647  19
   1   3  -7 584.039 207.964  48
   1   3  -7 1079.96 188.721  25
   1   3  -7 497.455 184.588   1
  -1  -3   7 1164.89 194.353  15
  -1  -3   6 100188. 2150.71   3
   1   3  -6 95976.5 2359.89  48
   1   3  -5 3344.41 405.541  48
  -1  -3   5 4035.38 409.346   3
  -1  -3   5 4533.38 381.682  40
   1   3  -4 89907.2 1834.25  48
  -1  -3   4 91325.0 1540.48  40
  -1  -3   4 92998.6 1775.55   3
   1   3  -3 19004.5 756.367  48
  -1  -3   3 19745.7 769.243   3
  -1  -3   3 18337.9 394.401  53
  -1  -3   3 20255.2 664.285  40
  -1  -3   2 23942.4 663.312  40
   1   3  -2 22914.6 645.487  47
  -1  -3   2 23081.3 549.017   2
  -1  -3   2 23010.5 765.075   3
   1   3  -2 21568.6 725.168  48
   1   3  -2 21075.0 339.948  46
  -1  -3   1 5743.42 321.289  40
   1   3  -1 6026.81 319.417  47
  -1  -3   1 6405.16 319.395   2
  -1  -3   1 5798.21 360.645   3
  -1  -3   0 507443. 3132.58   3
   1   3   0 512293. 2699.69  46
  -1  -3   0 518566. 3053.24  40
  -1  -3   0 514539. 3035.08   2
   1   3   1 33189.9 573.897  43
  -1  -3  -1 32709.6 523.891   1
   1   3   1 33098.6 787.879  46
  -1  -3  -1 34352.9 834.307   2
   1   3   1 34399.6 647.021  44
   1   3   2 159291. 1740.56  44
   1   3   2 161504. 1287.81  43
   1   3   2 156142. 1903.43  46
  -1  -3  -3 12916.0 599.276   2
  -1  -3  -3 13590.5 501.135  52
   1   3   3 12924.6 617.947  46
   1   3   3 13707.4 607.562  44
   1   3   4 5094.14 428.934  46
   1   3   4 4798.94 417.876  44
  -1  -3  -4 5674.29 375.670  52
  -1  -3  -4 6274.48 448.482   2
  -1  -3  -5 24630.9 877.785  52
   1   3   5 26381.4 829.987  49
   1   3   5 26227.1 1057.09  46
  -1  -3  -5 26060.7 971.034   2
   1   3   6 663.938 223.957  53
  -1  -3  -6 827.767 199.628  52
   1   3   6 803.501 215.315  46
  -1  -3  -6 1078.97 225.163   2
  -1  -3  -7 425.460 133.079  21
  -1  -3  -7 331.341 119.491  52
  -1  -3  -7 1053.18 292.444   1
   1   3   7 541.261 141.465  14
   1   3   7 838.917 248.582  46
   1   3   7 258.338 176.679  53
   1   3   8 14563.8 1068.26  53
  -1  -3  -8 13193.4 669.763  21
   1   3   8 12719.1 663.381  14
   1   3   8 13085.5 690.919  15
  -1  -3  -8 13605.1 1020.08   1
  -1  -3  -9 4858.08 428.909  21
   1   3   9 4639.89 428.405  15
   1   3   9 4957.62 424.423  14
   1   3   9 5514.46 440.001  37
   1   3   9 5433.93 460.612  19
   1   3  10 72.8022 105.509  19
  -1  -3 -10 99.4836 103.035  21
   1   3  10-2.82851 82.1136  37
   1   3  10 16.8906 129.473  15
  -1  -3 -11 1325.81 192.116  21
   1   3  11 1188.18 190.166  15
   1   3  11 1108.23 164.189  37
   1   3  11 1309.69 195.131  19
   1   3  12 1030.37 133.334  15
  -1  -3 -12 1019.83 124.977  21
   1   3  12 803.795 109.921  19
   1   4 -11 5580.95 335.802  29
   1   4 -11 5647.07 317.565  31
  -1  -4  11 4886.80 301.654  45
   1   4 -10-4.76211 102.314  29
  -1  -4  10 55.0576 69.0328  15
   1   4 -10 142.372 97.1949  28
   1   4  -9 10675.3 561.411  25
  -1  -4   9 10070.2 558.722  15
   1   4  -9 9477.29 587.630  29
  -1  -4   9 9871.11 608.229  27
   1   4  -9 9970.67 582.178  28
  -1  -4   8 4059.95 371.318  15
  -1  -4   8 3727.47 340.678  19
   1   4  -8 4076.58 365.932  25
  -1  -4   8 4355.57 414.629  27
   1   4  -8 3812.20 375.002  28
  -1  -4   7 72348.4 1612.60  27
   1   4  -7 69023.7 2253.82  48
   1   4  -7 72055.4 1456.19  25
  -1  -4   7 71982.7 1490.37  15
  -1  -4   6 6662.25 459.152  27
  -1  -4   6 6668.24 605.755   3
   1   4  -6 6643.27 653.609  48
  -1  -4   5 33666.0 1117.93  40
   1   4  -5 31676.5 1282.00  48
  -1  -4   5 31757.9 1260.39   3
  -1  -4   4 8053.65 514.052  40
  -1  -4   4 8476.07 610.259   3
   1   4  -4 9266.16 630.360  48
  -1  -4   3 22723.8 928.215   3
   1   4  -3 23039.6 913.478  48
  -1  -4   3 24332.9 835.941  40
   1   4  -2 4127.08 364.105  48
  -1  -4   2 3390.49 355.597   3
  -1  -4   2 3648.11 281.700   2
   1   4  -2 3772.08 213.461  46
  -1  -4   2 3609.04 319.764  40
   1   4  -2 3652.77 286.993  47
  -1  -4   1 442996. 3366.57  40
  -1  -4   1 453170. 3262.73   2
   1   4  -1 449706. 3111.38  47
   1   4   0 7998.30 232.961  53
  -1  -4   0 8473.98 469.638   2
   1   4   0 9101.68 436.151  46
  -1  -4   0 8301.56 485.147   3
   1   4   1 896052. 4783.65  46
  -1  -4  -1 901060. 2890.31   1
  -1  -4  -2 16204.0 527.094   1
   1   4   2 15417.3 590.051  44
   1   4   2 15261.3 487.262  43
  -1  -4  -2 15563.3 710.448   2
   1   4   2 15774.4 699.084  46
   1   4   3 29116.3 1043.55  46
   1   4   3 30461.6 721.219  43
  -1  -4  -3 31863.4 891.543   1
   1   4   3 29019.4 945.316  44
  -1  -4  -3 29978.9 1042.57   2
  -1  -4  -4 1304.32 222.587   1
   1   4   4 1449.02 262.850  46
  -1  -4  -4 1637.34 261.571   2
  -1  -4  -5 1398.16 257.418   2
   1   4   5 1774.64 330.349  46
  -1  -4  -5 1679.95 291.495   1
  -1  -4  -6 22930.8 1131.11   1
  -1  -4  -6 23743.7 1075.10   2
   1   4   6 24569.5 1244.58  53
   1   4   6 23400.2 1167.88  46
   1   4   7 30264.6 985.417  14
  -1  -4  -7 31641.8 1454.62   1
  -1  -4  -7 29776.5 972.054  26
   1   4   7 29984.7 1491.36  53
   1   4   7 30812.0 1410.82  46
  -1  -4  -7 30425.1 965.062  21
   1   4   8 337.859 139.789  15
   1   4   8 514.520 158.074  14
  -1  -4  -8 377.278 135.454  21
   1   4   9 35889.7 1141.04  15
   1   4   9 33465.3 1048.33  14
  -1  -4  -9 34685.7 1070.20  21
   1   4  10 224.576 117.266  37
   1   4  10 221.306 123.450  19
  -1  -4 -10 206.352 113.865  21
   1   4  10 190.205 123.318  15
   1   4  11 2014.01 199.521  37
  -1  -4 -11 2443.24 226.626  21
   1   4  11 2404.31 239.334  19
  -1  -4 -11 2158.55 194.411   4
   1   4  11 1937.96 211.549  15
  -1  -5  11 3799.86 239.973  45
   1   5 -11 3948.93 242.777  31
   1   5 -11 4131.18 255.192  29
  -1  -5  10 16723.2 659.613  45
   1   5 -10 16534.0 617.833  28
   1   5 -10 16580.7 645.541  29
   1   5  -9 1659.50 202.099  25
   1   5  -9 1639.71 242.785  28
  -1  -5   9 1750.81 222.136  15
  -1  -5   9 2256.42 302.013  27
   1   5  -9 1896.76 264.303  29
   1   5  -8 13717.2 678.674  28
  -1  -5   8 14212.9 745.115  27
  -1  -5   8 14295.4 651.402  15
   1   5  -8 14958.4 645.984  25
   1   5  -7 38834.0 1627.97  42
   1   5  -7 36208.4 1659.33  48
  -1  -5   7 37730.7 1059.86  15
  -1  -5   7 38578.1 1208.63  27
  -1  -5   6 94796.8 1812.17  27
   1   5  -6 91776.5 2493.03  48
  -1  -5   6 96448.5 1710.53   6
  -1  -5   5 6598.61 632.348   3
   1   5  -5 5833.44 587.690  48
   1   5  -4 27874.5 1178.49  48
  -1  -5   4 27939.6 1219.73   3
  -1  -5   4 29678.5 1101.13  40
  -1  -5   3 127.541 136.642   3
  -1  -5   3-24.8870 75.8857  40
   1   5  -3 115.219 122.636  48
  -1  -5   2 2327.95 324.861   3
   1   5  -2 2392.09 251.305  47
  -1  -5   2 2455.50 282.564   2
  -1  -5   2 2780.81 332.257  40
   1   5  -2 2074.98 286.815  48
   1   5  -1 35617.7 974.157  47
   1   5  -1 33713.7 896.614  46
  -1  -5   1 34132.2 1056.49   2
  -1  -5   1 34473.0 1099.03  40
   1   5   0 306759. 2944.78  46
  -1  -5   0 295632. 3214.43   2
   1   5   1 20072.4 824.531  46
   1   5   1 21628.9 701.051  43
   1   5   2 15071.4 564.821  43
   1   5   2 14518.7 761.479  46
  -1  -5  -2 14680.8 781.241   2
   1   5   3 484164. 4695.86  46
  -1  -5  -3 488493. 4745.68   2
   1   5   4 3233.85 427.931  46
  -1  -5  -4 3063.07 404.530   2
  -1  -5  -4 3041.31 338.088   1
   1   5   5 130838. 2818.81  46
  -1  -5  -5 129229. 2678.18   2
  -1  -5  -5 126120. 2431.26   1
   1   5   6 8587.13 498.441  14
   1   5   6 9488.46 801.998  53
  -1  -5  -6 8659.73 498.852  21
  -1  -5  -6 8036.85 692.744   2
  -1  -5  -6 8787.66 542.793  26
   1   5   6 8812.48 783.745  46
  -1  -5  -6 8812.73 718.903   1
   1   5   7 14059.1 1012.64  46
  -1  -5  -7 13387.8 645.054  21
   1   5   7 11979.6 963.755  53
   1   5   7 13048.0 645.809  14
  -1  -5  -7 11770.5 902.946   1
  -1  -5  -8 291.712 133.397  21
   1   5   8 211.907 114.033  15
   1   5   8 207.771 111.651  14
  -1  -5  -9 1933.00 248.829  21
  -1  -5  -9 1911.69 253.139   4
   1   5   9 1557.99 246.028  15
   1   5  10 105.549 85.7371  37
   1   5  10 174.182 113.801  19
  -1  -5 -10 58.3813 75.3635  21
  -1  -5 -10 128.145 85.8060   4
   1   5  10 143.440 91.6879  15
   1   5  11 5900.72 306.702  15
  -1  -5 -11 5924.19 263.192   4
   1   5  11 6071.85 325.945  19
  -1  -5 -11 6404.26 297.841  21
   1   5  11 5923.82 295.141  37
   1   6 -10 996.616 153.087  29
  -1  -6  10 776.166 147.217  45
   1   6 -10 964.372 130.583  28
  -1  -6   9 22301.5 831.343  45
   1   6  -9 22302.8 734.711  28
   1   6  -9 21850.8 774.843  29
  -1  -6   8 5416.71 472.839  45
   1   6  -8 6416.12 444.578  28
  -1  -6   7 1429.15 276.686  45
  -1  -6   7 969.302 218.801  27
  -1  -6   7 826.172 185.117   6
  -1  -6   6 49856.7 1305.02   6
  -1  -6   6 46936.1 1321.29  27
   1   6  -6 46439.5 1834.17  48
  -1  -6   5 2097.92 288.721  27
   1   6  -5 2556.51 415.756  48
  -1  -6   5 2338.74 288.874   6
  -1  -6   4 12064.0 630.023  45
   1   6  -4 10913.1 797.592  48
  -1  -6   4 11971.1 782.187  40
  -1  -6   4 11672.3 608.652   6
   1   6  -3 15055.8 882.530  48
  -1  -6   3 15062.7 860.084  40
  -1  -6   2 18835.3 878.420   2
  -1  -6   2 20509.4 980.875  40
   1   6  -2 20710.3 984.872  48
   1   6  -1 26167.3 925.543  47
  -1  -6   1 23792.5 1025.43   2
   1   6  -1 26767.8 915.543  46
   1   6   0 27603.7 1008.49  46
   1   6   0 28352.0 1015.71  47
  -1  -6  -1 218.074 149.758   2
   1   6   1-33.6793 105.428  46
  -1  -6  -2 15778.2 920.613   2
   1   6   2 15601.3 874.905  46
   1   6   3 48752.2 1644.22  46
  -1  -6  -3 46495.7 1636.23   2
  -1  -6  -4 166638. 3219.70   2
  -1  -6  -4 168654. 2205.64   4
   1   6   5 1999.58 392.474  46
   1   6   5 1600.93 308.366  53
  -1  -6  -5 1481.78 339.555   2
  -1  -6  -5 1571.89 236.160   4
  -1  -6  -6 93710.2 1776.77   4
  -1  -6  -6 96647.4 1653.83  21
   1   6   6 92258.4 2545.88  53
  -1  -6  -6 89878.5 2464.55   2
   1   6   7 8900.34 512.510  14
   1   6   7 9127.88 565.301  15
  -1  -6  -7 8426.96 550.114   4
  -1  -6  -7 9062.38 523.335  21
   1   6   8 13211.4 583.932  14
  -1  -6  -8 13199.7 655.451   4
   1   6   8 13028.4 651.891  15
  -1  -6  -8 12885.3 610.255  21
  -1  -6  -9 15550.2 606.880  21
  -1  -6  -9 16319.4 646.075   4
   1   6   9 16063.6 695.555  19
   1   6   9 15473.4 645.367  15
  -1  -6 -10 376.141 89.4053  21
  -1  -6 -10 464.900 106.289   4
   1   6  10 372.362 106.360  37
   1   6  10 440.817 121.941  19
   1   6  10 643.105 122.865  15
  -1  -7  10 3084.88 223.312  45
   1   7 -10 3106.03 195.506  29
   1   7 -10 3400.70 224.275  31
  -1  -7   9 54568.3 1179.31  45
   1   7  -9 53496.1 1045.16  29
   1   7  -9 54438.1 935.628  28
   1   7  -8 2960.85 265.653  28
  -1  -7   8 3356.57 351.194  45
  -1  -7   8 2637.78 258.743   6
  -1  -7   7 10786.0 587.220   6
  -1  -7   7 12536.3 694.370  45
   1   7  -7 12164.8 564.432  28
  -1  -7   6 1785.14 297.075  45
  -1  -7   6 1561.71 248.657   6
   1   7  -5 2217.83 383.143  48
  -1  -7   5 2163.15 305.125  45
  -1  -7   5 2436.65 312.610   6
  -1  -7   4 4863.60 425.046   6
  -1  -7   4 4719.80 402.972   4
  -1  -7   4 4949.16 436.244  45
  -1  -7   4 4885.50 411.793   5
   1   7  -4 4767.40 561.751  48
   1   7  -3 11478.1 833.523  48
  -1  -7   3 13505.5 648.754   4
  -1  -7   3 13388.0 634.764   5
  -1  -7   3 14342.1 697.777   6
  -1  -7   3 12446.8 863.571  40
  -1  -7   3 13222.8 672.662  45
  -1  -7   2 167622. 2229.89   4
  -1  -7   2 169090. 2309.83  45
  -1  -7   2 177069. 2344.60   6
   1   7  -2 175512. 3141.45  48
  -1  -7   2 164157. 2948.82   2
  -1  -7   1 505.764 194.124   2
   1   7  -1 72.0467 70.1728  48
  -1  -7   0 45664.9 1637.16   2
   1   7   0 50475.9 1520.80  46
   1   7   1 30940.0 1268.92  46
  -1  -7  -1 31030.6 1386.00   2
  -1  -7  -2 60405.1 1986.46   2
   1   7   2 61133.2 1906.40  46
  -1  -7  -2 62150.5 1360.82   4
   1   7   3 23033.2 1222.36  46
  -1  -7  -3 22166.9 1246.54   2
  -1  -7  -3 23245.1 854.164   4
  -1  -7  -4 1230.12 325.838   2
  -1  -7  -4 825.109 186.607   4
   1   7   4 699.738 230.670  46
  -1  -7  -5 154.694 89.6345   4
   1   7   5 442.965 190.112  46
  -1  -7  -6 604.534 169.564   4
  -1  -7  -7 1704.34 217.620  21
  -1  -7  -7 1879.70 264.385   4
   1   7   7 1467.87 214.015  15
  -1  -7  -8 16042.2 588.051  21
   1   7   8 14975.6 607.221  15
  -1  -7  -8 16020.8 663.560   4
  -1  -7  -9 6205.49 355.464   4
  -1  -7  -9 5900.70 302.356  21
   1   7   9 5572.08 314.791  15
   1   7   9 6396.84 381.471  19
   1   7   9 6126.80 383.633  37
   1   7  10 10744.9 383.761  37
   1   7  10 10768.8 375.011  19
  -1  -8   9 511.251 115.462  45
   1   8  -9 589.741 89.5451  29
  -1  -8   8 59187.5 1060.06   6
  -1  -8   8 60959.0 1246.66  45
   1   8  -8 62492.2 1057.03  29
  -1  -8   7 6424.65 469.746  45
  -1  -8   7 6072.00 417.028   6
  -1  -8   6 31110.7 1067.02  45
  -1  -8   6 30134.1 1009.93   6
  -1  -8   5 11496.8 650.395   6
  -1  -8   5 11982.2 679.895  45
  -1  -8   4 20218.0 832.885   4
  -1  -8   4 21853.5 900.225  45
  -1  -8   4 21337.8 896.063   6
   1   8  -3-162.183 164.400  48
  -1  -8   3 8.48683 119.910  45
  -1  -8   3 87.2847 103.422   6
  -1  -8   3 245.126 99.5309   5
  -1  -8   3 283.181 140.651   4
  -1  -8   2 24612.8 919.960  45
  -1  -8   2 23360.5 842.374   5
   1   8  -2 24731.8 1256.87  48
  -1  -8   2 25251.5 947.751   6
  -1  -8   2 24928.3 920.184   4
   1   8  -1 55663.8 1817.54  42
  -1  -8   1 61097.6 1303.32   5
   1   8  -1 63863.8 2001.12  48
  -1  -8   1 55661.3 1936.88   2
  -1  -8   1 61798.8 1434.41   4
  -1  -8   1 59442.5 1404.42   6
  -1  -8   1 61145.4 1406.52  45
  -1  -8   0 125999. 2003.58   6
  -1  -8   0 125016. 1971.41  45
  -1  -8   0 126068. 2050.57   4
   1   8   0 130269. 2859.66  48
  -1  -8  -1 34163.2 1015.66   6
  -1  -8  -1 34200.2 1076.70   4
   1   8   1 34271.4 1450.36  46
  -1  -8  -1 32982.5 1558.60   2
  -1  -8  -2 122610. 3053.67   2
  -1  -8  -2 120617. 2044.98   4
   1   8   3 13922.6 1017.37  46
  -1  -8  -3 12214.2 656.325   4
  -1  -8  -4 81453.4 1693.76   4
  -1  -8  -5 703.665 184.034   4
  -1  -8  -6 32571.6 1023.81   4
  -1  -8  -7 3649.94 328.198   4
   1   8   8 27889.2 754.535  19
  -1  -8  -8 28916.8 772.194   4
   1   8   9 1049.62 119.421  19
  -1  -8  -9 964.094 114.611   4
   1   8   9 858.244 122.195  37
  -1  -9   8 68.1561 66.4129  45
  -1  -9   8 104.973 55.9409   6
  -1  -9   7 1826.36 211.457   6
  -1  -9   7 1529.83 203.984  45
  -1  -9   6 169.797 117.040   6
  -1  -9   6 16.1136 113.600  45
  -1  -9   5 9073.80 558.873   6
  -1  -9   5 7551.90 500.002  45
  -1  -9   4 53136.6 1370.38   6
  -1  -9   4 50947.7 1302.58  45
  -1  -9   3-13.7146 98.0970   4
  -1  -9   3 280.564 163.136   6
  -1  -9   3 40.9452 123.557  45
  -1  -9   2 71478.6 1535.70  45
  -1  -9   2 69426.0 1425.77   5
  -1  -9   2 72756.7 1594.17   4
  -1  -9   2 72044.2 1609.64   6
  -1  -9   1 57694.3 1413.32   6
  -1  -9   1 58352.6 1440.40   4
  -1  -9   1 55849.9 1252.76   5
  -1  -9   1 59755.0 1369.65  45
  -1  -9   0 20495.5 853.692   4
  -1  -9   0 20872.3 829.133   6
  -1  -9  -1 49427.1 1335.27   4
  -1  -9  -2 1667.35 265.415   4
  -1  -9  -3 4709.39 417.247   4
  -1  -9  -4 5678.84 443.531   4
  -1  -9  -5 10248.7 562.197   4
  -1  -9  -6 234.363 113.919   4
   1   9   7 9266.72 383.008  19
  -1  -9  -7 10601.1 461.648   4
  -1  -9  -8 6444.11 281.293   4
   1   9   8 7086.48 316.907  37
  -1 -10   7 255.240 70.0597   6
  -1 -10   6 808.602 141.844   6
  -1 -10   6 751.014 127.969  45
  -1 -10   5 242.014 108.845   6
  -1 -10   5 73.0536 73.4429  45
  -1 -10   4 52.1325 115.355   6
  -1 -10   4 188.872 81.0806  45
  -1 -10   3 299.802 139.477   6
  -1 -10   3 401.762 131.274  45
  -1 -10   2 49.5430 105.357   4
  -1 -10   2-194.185 97.9560  45
  -1 -10   2 74.0536 116.866   6
  -1 -10   1 3688.76 343.186   6
  -1 -10   1 3720.35 361.874   4
  -1 -10   0 984.197 173.106   6
  -1 -10   0 1259.89 231.689   4
  -1 -10  -1 3472.07 347.354   4
  -1 -10  -2 726.822 179.149   4
  -1 -10  -3 9998.10 545.836   4
  -1 -10  -4 4022.36 331.099   4
  -1 -10  -5 32282.7 839.429   4
  -1 -10  -6 1978.30 189.338   4
  -1 -11   5 137.589 68.8111   6
  -1 -11   4 18897.3 587.760   6
  -1 -11   3 1234.12 171.832   6
  -1 -11   2 11693.4 500.438   6
  -1 -11   1 1713.38 214.005   4
  -1 -11   0 322.213 120.533   4
  -1 -11  -1 3551.44 298.577   4
  -1 -11  -2 175.882 95.1858   4
  -1 -11  -3 722.894 134.066   4
  -1 -11  -4 20337.5 568.577   4
   2 -10  -3 18073.7 450.695   4
   2 -10  -2 43309.8 734.933   5
   2 -10  -2 43682.4 829.056   4
   2 -10  -1 2075.57 191.979   5
   2 -10  -1 2214.82 213.597   4
   2 -10   0 7462.27 369.979   5
   2 -10   0 8379.90 416.983   4
   2 -10   1 55586.4 1029.12   5
   2 -10   2 11001.1 465.082   5
   2 -10   3 14274.2 460.673   6
   2 -10   4 806.432 116.980   6
   2 -10   5 1273.47 131.600   6
   2  -9  -4 4586.89 267.792   5
   2  -9  -4 3845.81 261.654   4
   2  -9  -3 5371.57 353.556   4
   2  -9  -3 5583.91 339.945   5
   2  -9  -2 1309.07 186.587   5
   2  -9  -2 1548.33 206.473   4
   2  -9  -1 12067.3 593.642   4
   2  -9  -1 12011.9 562.171   5
   2  -9   0 255.732 122.850   5
   2  -9   0 15.7493 100.848   4
   2  -9   1 2274.06 280.183   4
   2  -9   1 2528.16 282.448   5
   2  -9   2 21322.0 788.191   5
   2  -9   2 19927.3 802.405   4
   2  -9   2 19016.4 689.261   6
   2  -9   3 2118.15 264.635   5
   2  -9   3 2127.53 248.043   6
   2  -9   4 22521.8 769.020   6
   2  -9   4 23622.5 801.272   5
   2  -9   5 268.895 108.278   6
   2  -9   6 10750.4 476.264   6
   2  -9   7 113.959 69.7622   6
  -2   8   7 8843.28 313.867  18
  -2   8   6 3481.52 249.888  18
  -2   8   6 3046.17 217.200  37
   2  -8  -5 28007.6 740.234   5
   2  -8  -5 29249.9 778.713   4
   2  -8  -4 375.741 121.380   5
   2  -8  -4 769.199 152.658   4
   2  -8  -3 9844.03 542.327   4
   2  -8  -3 9326.13 513.853   5
   2  -8  -2 521.963 153.580   5
   2  -8  -2 615.468 166.919   4
   2  -8  -1 74410.7 1584.09   4
   2  -8  -1 72811.1 1519.46   5
   2  -8   0 24043.0 899.062   5
   2  -8   0 24866.6 936.393   4
   2  -8   1 1016.82 199.186   5
   2  -8   1 1163.95 240.257   4
   2  -8   2 4575.87 411.846   5
   2  -8   2 4478.21 426.980   4
   2  -8   2 4841.76 405.297   6
   2  -8   3 632.278 191.734   4
   2  -8   3 696.784 173.860   6
   2  -8   3 800.655 189.035   5
   2  -8   4 876.539 197.105   5
   2  -8   4 835.967 208.703   6
   2  -8   5 20149.2 812.062   5
   2  -8   5 22370.7 859.421   6
   2  -8   6 2992.37 316.389   6
   2  -8   7 3531.02 302.958   6
  -2   8  -8 2876.68 186.685  28
   2  -8   8 2457.75 218.318   6
  -2   7   8 36088.8 677.933  37
  -2   7   8 40634.1 780.763  18
  -2   7   7 291.658 94.0066  37
   2  -7  -7 219.168 65.4097   5
   2  -7  -6 2250.66 228.909   5
  -2   7   6 1936.73 230.064  37
   2  -7  -5 616.323 150.020   4
   2  -7  -5 421.138 117.058   5
   2  -7  -4 1467.23 217.439   5
   2  -7  -4 1595.73 234.459   4
   2  -7  -3 240.464 125.719   5
   2  -7  -3 135.937 106.439   4
   2  -7  -2 7376.99 496.065   5
   2  -7  -2 7638.88 512.719   4
   2  -7  -1 18523.4 778.272   5
   2  -7  -1 18960.8 805.235   4
  -2   7   1 19514.4 1141.30  43
  -2   7   0 113442. 2779.52  43
   2  -7   0 116404. 2005.81   4
   2  -7   0 115193. 1929.76   5
   2  -7   1 12852.0 655.000   5
   2  -7   1 14567.7 725.428   4
  -2   7  -1 12542.2 936.235  43
   2  -7   1 13011.0 625.757   6
  -2   7  -2 141594. 3197.82  43
   2  -7   2 135964. 2212.29   4
   2  -7   2 137935. 2175.74   5
   2  -7   2 142206. 3314.18  40
   2  -7   2 134044. 2075.43   6
  -2   7  -3 1814.76 360.288  42
   2  -7   3 1748.07 256.448   6
   2  -7   3 1500.56 263.617   4
  -2   7  -3 1078.19 283.922  43
   2  -7   3 1813.25 275.638   5
   2  -7   4 10391.1 620.158   5
   2  -7   4 10751.1 632.266   6
   2  -7   5 29953.9 1048.55   5
   2  -7   5 32663.7 1097.68   6
   2  -7   6 598.439 180.195   6
   2  -7   6 1104.59 201.138  45
   2  -7   7 35.8529 99.5922   6
   2  -7   7 138.965 102.641  45
   2  -7   8 177.854 93.1042   6
   2  -7   8 220.116 87.3499  45
   2  -7   9 8511.07 378.140   6
   2  -7   9 8185.11 365.817  45
  -2   7  -9 9290.39 384.020  28
  -2   6   9 5931.01 291.882  37
  -2   6   9 6051.63 307.161  18
   2  -6  -8 447.291 97.5509   5
   2  -6  -8 507.644 124.750  21
  -2   6   8 494.164 102.008  19
  -2   6   8 593.196 137.810  37
  -2   6   8 382.646 122.733  18
   2  -6  -7 11130.9 511.727   5
   2  -6  -7 11113.8 567.163  21
  -2   6   7 10624.6 495.245  19
  -2   6   7 11455.6 578.089  37
   2  -6  -6 254.754 113.885   5
   2  -6  -6 127.885 68.6959   4
   2  -6  -6-58.2151 108.327  21
   2  -6  -5 12290.0 619.192   5
   2  -6  -5 11997.4 635.475  21
   2  -6  -4 12323.6 640.241  21
   2  -6  -4 13321.6 651.312   4
   2  -6  -4 13366.1 649.177   5
  -2   6   4 11323.9 880.436  44
  -2   6   3 18112.8 1060.91  43
  -2   6   3 18274.8 1156.20  46
   2  -6  -3 17680.0 740.692   5
   2  -6  -3 17358.6 737.561  21
   2  -6  -3 18941.6 777.862   4
  -2   6   2 17809.0 1042.83  43
   2  -6  -2 16925.5 712.851   5
   2  -6  -2 16786.7 733.539   4
   2  -6  -1 150643. 2138.96   4
  -2   6   1 148895. 2988.97  43
   2  -6  -1 150514. 2111.02   5
  -2   6   0 3446.28 471.224  43
   2  -6   0 3086.30 310.524   4
   2  -6   0 2921.30 300.525   5
   2  -6   1 364.339 134.743   4
  -2   6  -1 104.228 130.957  43
  -2   6  -1 124.900 94.4685  42
   2  -6   1 533.493 208.007  40
   2  -6   1 442.309 148.663   5
   2  -6   2 5683.57 419.491   5
  -2   6  -2 4724.82 557.589  43
   2  -6   2 4533.79 562.195  40
   2  -6   2 5042.78 394.229   6
   2  -6   2 5169.92 420.141   4
  -2   6  -2 4882.81 538.609  42
   2  -6   3 43102.8 1172.14   5
   2  -6   3 42040.5 1163.97   6
   2  -6   3 43340.0 1762.44  40
  -2   6  -3 40176.2 1616.72  42
   2  -6   3 39618.5 1153.21   4
   2  -6   4 29511.6 1032.55   4
  -2   6  -4 33965.3 1552.09  42
   2  -6   4 33847.4 1072.24   6
   2  -6   4 30551.6 1022.94   5
   2  -6   4 32269.7 1545.26  40
   2  -6   5 27916.3 1008.80   5
  -2   6  -5 28651.6 1478.76  42
   2  -6   5 29451.2 1505.84  40
   2  -6   5 30383.9 1048.69   6
   2  -6   5 29233.5 963.587  45
   2  -6   6 86475.9 1712.37  45
   2  -6   6 84070.5 1765.21   6
   2  -6   7 23867.1 920.885   6
   2  -6   7 23334.3 893.417  45
   2  -6   7 24125.3 871.093  27
   2  -6   8 54588.9 1269.84  27
   2  -6   8 57166.9 1307.56   6
   2  -6   8 57677.9 1327.06  45
  -2   6  -9 4757.98 313.401  25
   2  -6   9 4975.88 361.023  45
   2  -6   9 4711.24 333.555   6
   2  -6  10 5278.87 310.297  45
  -2   6 -10 5370.80 300.017  28
  -2   6 -10 5403.55 249.880  25
   2  -5  -9 115.179 55.5586   5
  -2   5   9 18.1347 73.1055  19
   2  -5  -9 128.564 80.1276  21
  -2   5   9 66.4194 81.8158  18
  -2   5   9 48.7998 69.8965  37
   2  -5  -8 425.989 140.199  21
  -2   5   8 306.727 106.632  19
  -2   5   8 376.761 154.645  37
   2  -5  -8 226.055 97.2008   5
  -2   5   7 4244.92 396.312  37
   2  -5  -7 4777.82 411.866  21
  -2   5   7 5010.55 399.204  19
   2  -5  -6 5818.86 467.086  21
  -2   5   6 5819.89 432.209  19
  -2   5   5 19416.4 1197.38  44
   2  -5  -5 20057.1 819.258  21
   2  -5  -5 19980.5 774.600   4
   2  -5  -5 18547.9 1126.67   1
  -2   5   5 19911.6 1205.72  46
  -2   5   4 42705.8 1717.92  46
   2  -5  -4 40318.7 1558.86   1
  -2   5   4 40716.9 1552.77  43
   2  -5  -4 40360.3 1115.34  21
   2  -5  -4 40514.7 1082.65   4
  -2   5   4 41650.7 1652.96  44
  -2   5   3 35949.6 1424.75  44
   2  -5  -3 37495.5 1035.79  21
   2  -5  -3 35918.5 1376.52   1
  -2   5   3 38475.0 1474.10  43
   2  -5  -3 36367.1 1009.41   5
  -2   5   2 128.337 108.580  43
  -2   5   2 98.0556 100.263  44
   2  -5  -1 152311. 2481.33   1
  -2   5   1 155766. 2531.56  44
  -2   5   1 152939. 2806.49  43
   2  -5   0 16484.7 783.402   1
  -2   5   0 14393.1 861.042  43
  -2   5   0 15760.4 772.091  42
   2  -5   0 15243.1 910.950  40
   2  -5   1 387741. 4597.41  40
  -2   5  -1 396577. 4132.79  42
  -2   5  -2 37730.8 1376.85  42
  -2   5  -2 37106.8 1161.50  41
   2  -5   2 36131.4 1436.08  40
   2  -5   3 18637.3 1058.45  40
  -2   5  -3 19297.3 910.327  41
  -2   5  -3 19622.1 1048.06  42
   2  -5   4 1710.33 231.207   5
  -2   5  -4 1896.45 360.378  42
   2  -5   4 1266.00 212.180   4
   2  -5   4 1562.81 343.987  40
   2  -5   4 1695.71 233.058  10
   2  -5   4 1770.44 249.898   6
   2  -5   5 19285.6 812.534   6
   2  -5   5 17664.5 718.149  27
  -2   5  -5 19454.4 1163.26  42
   2  -5   5 17248.5 759.767   5
   2  -5   5 18484.8 1134.20  40
   2  -5   6-228.414 117.704  27
  -2   5  -6 359.058 160.364  42
   2  -5   6-142.255 227.801  40
   2  -5   6 53.8396 104.479   5
   2  -5   6 105.871 103.690   6
   2  -5   7 14561.2 710.079  27
   2  -5   7 13676.5 709.387   6
   2  -5   8 185.534 135.682   6
  -2   5  -8 73.6485 89.0722  21
   2  -5   8 151.944 120.275  27
   2  -5   9 29502.6 875.929   6
  -2   5  -9 30362.5 916.021  25
  -2   5  -9 30525.3 840.077  21
   2  -5   9 30025.1 977.718  27
  -2   5 -10 826.751 156.611  28
   2  -5  10 979.798 170.722  27
  -2   5 -10 1095.85 161.540  25
  -2   5 -11 13543.1 433.756  29
  -2   5 -11 13033.0 424.825  28
   2  -5  11 12326.0 438.128  45
  -2   4  10 5895.81 335.851  37
  -2   4  10 6055.05 326.736  19
  -2   4  10 5472.75 314.946  18
   2  -4 -10 5777.74 325.137  21
   2  -4  -9 705.548 169.874  21
  -2   4   9 736.337 136.459  15
  -2   4   9 748.466 169.321  18
  -2   4   9 942.460 188.869  37
  -2   4   9 612.690 152.846  19
   2  -4  -8 37274.9 1116.08  21
  -2   4   8 36906.8 999.287  15
  -2   4   8 37423.7 1144.03  37
  -2   4   8 36357.2 1086.82  19
   2  -4  -7 17560.4 798.300  21
  -2   4   7 17445.4 786.685  19
  -2   4   7 17384.4 808.674  37
  -2   4   7 17926.9 731.537  15
  -2   4   6 13794.7 685.539  19
   2  -4  -6 13400.5 993.477   1
  -2   4   6 12110.2 915.265  46
  -2   4   6 13659.0 1031.75  44
   2  -4  -6 12925.2 678.294  21
   2  -4  -5 375.932 110.112  21
  -2   4   5 785.635 246.239  44
  -2   4   5 438.997 173.549  46
   2  -4  -5 528.454 199.351   1
  -2   4   4 27794.8 1221.28  43
  -2   4   4 28221.9 1296.37  44
   2  -4  -4 28833.9 1274.79   1
  -2   4   4 29088.8 1298.43  46
   2  -4  -3 21550.7 1015.73   1
  -2   4   3 23898.4 1080.66  43
  -2   4   3 22348.3 1063.51  44
   2  -4  -3 23546.5 1078.14   2
   2  -4  -2 49797.9 1435.68   1
  -2   4   2 49619.7 1484.48  43
   2  -4  -2 47174.4 1501.37   2
  -2   4   2 47842.2 1424.19  44
  -2   4   1 35721.9 1227.84  43
   2  -4  -1 36945.1 1150.78   1
   2  -4  -1 36477.4 1280.87   2
  -2   4   0 174449. 2342.58  42
  -2   4   0 178264. 2719.98  43
   2  -4   0 184162. 2796.49  40
   2  -4   0 181682. 2419.65   1
  -2   4  -1 10270.1 614.665  42
   2  -4   1 10456.4 676.967  40
   2  -4   1 10683.0 574.113   1
  -2   4  -1 10057.7 537.928  41
  -2   4  -2 257760. 2906.59  41
   2  -4   2 250728. 3338.85  40
  -2   4  -2 259364. 3235.37  42
  -2   4  -3 17194.1 906.729  42
   2  -4   3 17419.1 914.555  40
  -2   4  -4 7724.21 519.182  52
  -2   4  -4 8707.70 685.030  42
   2  -4   4 8155.57 669.537  40
  -2   4  -5 12255.8 746.558  52
  -2   4  -5 10854.0 811.975  42
   2  -4   5 11498.1 835.188  40
   2  -4   6 36126.8 1082.22   6
   2  -4   6 35452.4 1536.05  40
   2  -4   6 33861.6 1021.37  27
  -2   4  -6 34898.2 1394.27  52
  -2   4  -6 33569.2 1484.24  42
   2  -4   7 4947.69 420.126   6
  -2   4  -7 4206.50 532.445  52
   2  -4   7 4649.18 410.179  27
   2  -4   7 4028.49 553.544  40
  -2   4  -7 5396.19 621.488  42
   2  -4   8 3887.58 397.130  27
   2  -4   8 3631.58 351.926   6
  -2   4  -8 3954.18 364.587  21
   2  -4   9 8218.48 545.420  27
  -2   4  -9 7453.88 470.727  21
  -2   4  -9 7732.36 518.128  25
   2  -4   9 7213.40 448.832   6
  -2   4 -10-22.7386 80.3787  25
  -2   4 -10 39.9134 106.146  28
   2  -4  10 14.7881 115.803  27
  -2   4 -10-10.9404 58.1472  21
   2  -4  11 365.323 112.503  27
  -2   4 -11 366.761 96.1644  25
  -2   4 -11 393.283 110.553  28
  -2   4 -11 295.960 68.6523  21
  -2   4 -11 369.855 101.267  29
   2  -3 -10 402.081 113.869  21
  -2   3  10 311.709 97.4786  15
  -2   3  10 465.151 123.123  18
  -2   3  10 420.021 125.248  37
  -2   3  10 376.052 114.218  19
  -2   3   9 390.673 136.584  15
  -2   3   9 265.233 151.630  19
  -2   3   9 322.975 150.279  37
   2  -3  -9 394.249 139.900  21
  -2   3   9 428.345 148.017  18
  -2   3   8 15201.9 752.477  37
   2  -3  -8 14524.9 718.236  21
  -2   3   8 15135.1 751.006  19
  -2   3   8 14291.5 690.522  15
   2  -3  -7 25491.1 959.782  21
  -2   3   7 26112.9 931.823  15
  -2   3   7 25751.2 975.369  19
  -2   3   7 25809.2 975.880  37
  -2   3   6 4660.05 585.943  44
   2  -3  -6 4702.91 580.104   1
  -2   3   6 4679.00 405.142  19
  -2   3   6 5027.46 548.404  46
  -2   3   6 4216.38 365.836  15
   2  -3  -6 4420.27 389.956  21
  -2   3   5 70745.4 2106.79  44
   2  -3  -5 70362.5 2068.73   1
  -2   3   5 68294.7 1922.08  46
  -2   3   4 6258.29 586.228  44
   2  -3  -4 6692.69 525.378   2
  -2   3   4 5879.67 541.246  43
   2  -3  -4 6343.11 580.049   1
  -2   3   3 49184.3 1215.22  50
  -2   3   3 47248.7 1432.56  44
  -2   3   3 50477.0 1441.74  43
   2  -3  -3 46559.6 1401.92   1
   2  -3  -3 50624.6 1385.88   2
  -2   3   2 141040. 1910.75  50
   2  -3  -2 137334. 2243.06   2
   2  -3  -2 133629. 2164.68   1
  -2   3   2 136662. 2252.08  43
  -2   3   1 11725.5 634.828  43
   2  -3  -1 10817.0 587.693   1
   2  -3  -1 11174.8 618.632   2
   2  -3  -1 11002.5 602.547  40
  -2   3   0 2521.80 306.624  43
  -2   3   0 2501.78 253.802  42
   2  -3   0 2526.50 275.708   1
   2  -3   0 2789.15 311.312  40
   2  -3   1 508267. 4105.11  40
   2  -3   1 500513. 3633.54   1
  -2   3  -1 501325. 2415.22  48
  -2   3  -1 503513. 3541.17  41
  -2   3  -2 4360.95 387.088  42
   2  -3   2 4016.94 390.787  40
  -2   3  -2 4560.48 253.917  48
  -2   3  -2 4590.54 280.788  52
   2  -3   3 29157.4 1069.15  40
  -2   3  -3 31794.5 888.985  52
  -2   3  -3 31643.8 790.254  48
  -2   3  -3 31701.5 1099.10  42
  -2   3  -4 11800.9 630.893  52
  -2   3  -4 12454.8 743.044  42
   2  -3   4 11380.5 711.056  40
  -2   3  -4 11972.5 566.502  48
  -2   3  -5 70135.7 1738.60  52
  -2   3  -5 63403.7 1501.02  48
   2  -3   5 63716.2 1807.27  40
  -2   3  -5 67513.3 1829.89  42
  -2   3  -6 22872.7 1135.72  42
  -2   3  -6 22858.4 1118.76  52
   2  -3   6 23903.2 1190.36  40
  -2   3  -6 23752.9 1036.34  48
   2  -3   7 67186.0 1429.96   6
  -2   3  -7 64757.6 1386.89  20
  -2   3  -7 65674.4 2007.24  42
  -2   3  -7 63968.7 2047.35  52
   2  -3   7 62619.7 2048.47  40
   2  -3   7 67504.4 1482.32  27
  -2   3  -8 187.509 146.750  52
   2  -3   8-7.73875 113.309  27
  -2   3  -8-61.4891 73.9043  20
   2  -3   8-35.0263 83.9213   6
   2  -3   9 138707. 2255.57  27
  -2   3  -9 125598. 2139.21  25
  -2   3  -9 134112. 1996.18  20
  -2   3  -9 129125. 2080.47  21
   2  -3  10 15164.0 714.808  27
  -2   3 -10 13986.8 666.440  25
  -2   3 -10 14619.8 691.582  28
  -2   3 -10 14944.7 653.181  21
   2  -3  11 9511.39 489.737  27
  -2   3 -11 8888.99 460.272  28
  -2   3 -11 8959.68 448.186  29
  -2   3 -11 9058.36 423.235  21
  -2   3 -11 8918.38 459.017  25
   2  -3  12 17671.1 506.318  45
  -2   3 -12 18091.0 473.759  28
   2  -2 -11 7438.37 335.511  21
  -2   2  11 7831.01 366.664  19
  -2   2  11 6988.94 329.986  15
  -2   2  10 6141.53 404.617  15
  -2   2  10 7497.75 464.895  19
   2  -2 -10 6495.98 409.812  21
  -2   2  10 6526.61 393.545  18
  -2   2   9 28165.3 986.644  37
   2  -2  -9 26651.5 932.268  21
  -2   2   9 24933.1 906.812  15
  -2   2   9 26751.7 918.725  18
  -2   2   9 25880.8 954.105  19
  -2   2   8 53460.6 1408.64  37
   2  -2  -8 51551.4 1358.89  21
  -2   2   8 52441.6 1403.31  19
  -2   2   8 52365.2 1372.05  15
  -2   2   7 34057.5 1081.63  15
  -2   2   7 34117.7 1111.92  19
   2  -2  -7 33446.8 1074.75  21
  -2   2   7 34090.9 1555.73  49
  -2   2   7 34351.4 1104.91  37
   2  -2  -7 33542.0 1598.14   1
  -2   2   7 32496.3 1584.11  44
  -2   2   6 66557.0 1450.81  19
   2  -2  -6 66124.4 1417.18  21
  -2   2   6 70238.6 2174.58  44
  -2   2   6 67311.8 1428.98  15
   2  -2  -6 68063.9 2117.65   1
  -2   2   6 66326.3 2029.48  49
  -2   2   5-10.5280 99.1703  46
  -2   2   5-38.8335 150.192  44
   2  -2  -4 26777.4 1102.98   1
  -2   2   4 27774.4 1078.67  43
  -2   2   3 131406. 2235.98  44
   2  -2  -3 132673. 2211.51   1
  -2   2   3 134044. 2195.09  43
   2  -2  -3 140280. 1975.56   2
  -2   2   3 135769. 1999.65  50
  -2   2   2 270624. 2870.68  43
   2  -2  -2 277117. 2907.73   1
  -2   2   2 276048. 1911.33  51
  -2   2   1 77909.1 1430.79  43
   2  -2  -1 79339.4 1424.74   1
   2  -2  -1 78113.4 1332.65  40
   2  -2  -1 76514.7 1394.71   2
  -2   2   0 83.2446 97.6375  43
  -2   2   0 316.585 102.988  41
   2  -2   0 417.317 121.039   1
  -2   2   0 259.710 85.0655  42
  -2   2  -1 200026. 2085.95  42
   2  -2   1 194595. 2150.18  40
  -2   2  -1 191006. 2039.20  41
   2  -2   1 197439. 2089.07   1
  -2   2  -1 190153. 1058.99  48
  -2   2  -1 191958. 1389.90  52
   2  -2   2 746640. 4239.38   1
  -2   2  -2 753704. 3540.18  52
  -2   2  -3 129923. 1751.05  52
  -2   2  -3 134745. 1498.77  48
  -2   2  -3 128355. 1976.45  42
   2  -2   3 133847. 2054.29  40
  -2   2  -4 108523. 1856.57  52
   2  -2   4 105736. 1989.32  40
  -2   2  -5 4551.75 384.950  48
  -2   2  -5 5503.26 480.568  42
  -2   2  -5 4719.72 450.198  52
   2  -2   5 4769.34 473.270  40
  -2   2  -6 5442.92 543.624  52
  -2   2  -6 6095.43 533.384  42
   2  -2   6 5580.48 558.765  40
   2  -2   7 12280.1 615.530  27
  -2   2  -7 10566.8 826.568  52
  -2   2  -7 12297.3 805.593  42
   2  -2   7 12657.4 900.361  40
  -2   2  -7 12096.7 606.169  20
   2  -2   8 56134.7 1388.33  27
   2  -2   8 58350.7 2035.28  40
  -2   2  -8 54984.2 2004.43  52
  -2   2  -8 55726.3 1383.16  21
  -2   2  -8 55203.1 1351.67  20
  -2   2  -9 34743.5 1136.39  25
  -2   2  -9 37133.3 1120.92  20
  -2   2  -9 36137.9 1139.57  21
   2  -2   9 36970.7 1161.30  27
   2  -2  10 9659.62 583.188  27
  -2   2 -10 9543.06 583.671  25
  -2   2 -10 9524.46 561.409  21
  -2   2 -10 8685.23 547.958  28
   2  -2  11 3697.74 323.678  27
  -2   2 -11 3519.49 316.066  25
  -2   2 -11 3331.81 290.361  29
  -2   2 -11 3144.73 283.165  21
  -2   2 -11 3752.17 315.579  28
   2  -2  12 22769.5 612.032  27
  -2   2 -12 22850.9 551.274  21
  -2   2 -12 23076.4 584.275  28
  -2   1  11 1029.27 156.627  19
   2  -1 -11 1185.25 150.120  21
  -2   1  11 1422.56 177.907  15
  -2   1  10 2132.20 228.945  18
   2  -1 -10 2214.42 255.996  21
  -2   1  10 1853.53 257.722  19
  -2   1  10 1938.23 256.451  15
  -2   1   9 27982.8 993.366  37
  -2   1   9 25841.4 896.588  18
   2  -1  -9 27279.7 948.159  21
  -2   1   9 28265.6 1013.62  19
  -2   1   9 27210.0 980.361  15
   2  -1  -8 46239.1 1268.26  21
  -2   1   8 48463.9 1330.58  37
  -2   1   8 46124.7 1315.62  19
  -2   1   8 48040.3 1270.46  18
  -2   1   8 47917.5 1325.80  15
  -2   1   7 7262.17 503.590  37
   2  -1  -7 7140.33 475.259  29
  -2   1   7 7287.96 736.858  44
  -2   1   7 6559.58 484.956  19
  -2   1   7 7427.38 505.715  15
   2  -1  -7 6479.27 697.715   1
   2  -1  -7 6914.47 479.731  21
  -2   1   7 7002.44 709.925  49
   2  -1  -6 75933.0 2190.50   1
   2  -1  -6 78428.7 1822.12  52
  -2   1   6 82413.4 2210.81  49
  -2   1   6 79801.5 2201.19  44
  -2   1   5 25018.6 1119.70  44
  -2   1   5 23251.6 880.732  46
   2  -1  -5 23396.9 1094.02   1
   2  -1  -4 68352.2 1669.21   1
  -2   1   4 70594.3 1690.17  44
  -2   1   3 51137.3 1285.18  44
  -2   1   3 51373.1 1256.96  43
   2  -1  -3 54229.8 1341.50   1
  -2   1   3 51059.0 1227.00  50
  -2   1   2 196032. 1590.51  51
  -2   1   2 194061. 2202.94  43
   2  -1  -2 198308. 2254.35   1
  -2   1   2 190737. 2108.32  50
   2  -1  -1 89091.2 1135.03  40
   2  -1  -1 91707.0 1390.32   1
  -2   1   1 90357.9 1363.99  43
  -2   1   0 237173. 1999.79  41
  -2   1   0 237127. 2064.02  43
   2  -1   0 239004. 1879.62  40
   2  -1   0 237023. 2084.65   1
  -2   1  -1 1131.15 156.967  41
  -2   1  -1 1365.53 165.332  42
   2  -1   1 1245.68 166.967   1
   2  -1   1 1344.54 164.782  40
  -2   1  -1 1167.60 121.611  52
  -2   1  -2 8921.82 379.637  52
  -2   1  -2 9301.36 437.660  42
  -2   1  -2 8828.33 272.220  48
   2  -1   2 8372.16 406.277  54
   2  -1   3 177088. 2030.23  53
  -2   1  -3 182397. 1682.43  48
   2  -1   3 172440. 1932.39  54
  -2   1  -3 183590. 2025.32  52
  -2   1  -3 178358. 2083.71  42
   2  -1   4 234699. 2411.19  54
  -2   1  -4 237565. 2617.11  42
   2  -1   4 228004. 2598.58  53
  -2   1  -4 230523. 2324.49  48
  -2   1  -4 228762. 2622.27  52
  -2   1  -5 2144.09 304.246  52
   2  -1   5 1765.50 230.930  54
  -2   1  -5 1062.53 199.723  42
   2  -1   5 1326.21 221.278  53
   2  -1   6 1992.32 264.899  54
  -2   1  -6 1547.38 262.351  42
   2  -1   6 1331.19 258.469  53
  -2   1  -6 1371.29 288.371  52
  -2   1  -7 8866.74 624.285  42
   2  -1   7 9632.17 720.647  53
  -2   1  -7 8294.04 710.516  52
   2  -1   8 100250. 1835.81  27
  -2   1  -8 99539.0 2656.61  52
  -2   1  -8 100553. 1837.72  21
   2  -1   8 97929.3 1675.08  15
   2  -1   8 103399. 2531.91  53
  -2   1  -8 99856.4 1839.75  20
   2  -1   9 15315.9 754.467  27
  -2   1  -9 15448.6 750.721  20
  -2   1  -9 16229.8 778.118  25
  -2   1  -9 15307.5 748.923  21
   2  -1   9 15743.2 698.584  15
  -2   1 -10 6367.14 482.000  25
   2  -1  10 5767.17 418.304  15
   2  -1  10 5536.39 452.489  27
  -2   1 -10 5713.11 451.860  21
  -2   1 -10 5919.24 445.004  28
  -2   1 -11 18586.9 709.336  21
  -2   1 -11 17993.5 723.531  25
  -2   1 -11 17577.4 630.143  29
   2  -1  11 15824.9 591.125  15
   2  -1  11 17680.1 699.944  27
  -2   1 -11 17756.3 678.476  28
   2  -1  12 325.891 92.3839  27
  -2   1 -12 254.447 81.9231  21
  -2   0  11 651.440 140.080  15
   2   0 -11 601.053 109.704  21
  -2   0  11 772.446 140.817  19
  -2   0  10 11690.5 608.607  15
  -2   0  10 10191.3 567.282  19
   2   0 -10 10165.4 522.605  21
  -2   0   9 807.962 168.372  18
  -2   0   9 410.661 171.171  37
   2   0  -9 475.011 150.005  21
  -2   0   9 470.963 173.891  19
  -2   0   9 572.314 174.783  15
   2   0  -8 2123.97 287.632  29
  -2   0   8 2487.81 312.432  37
  -2   0   8 2435.14 422.484  53
   2   0  -8 2544.57 306.349  21
  -2   0   8 2182.36 280.030  18
  -2   0   8 2228.03 311.364  19
   2   0  -8 2701.21 302.439  31
   2   0  -7 3900.36 351.481  21
   2   0  -7 3619.86 462.299  52
  -2   0   7 3691.98 514.642  49
  -2   0   7 4137.92 372.128  37
   2   0  -7 4481.58 360.332  31
  -2   0   7 4124.39 380.471  19
  -2   0   7 3821.42 362.920  15
   2   0  -7 3855.40 532.787   1
   2   0  -7 4600.35 388.297  29
   2   0  -7 3815.67 362.336  28
  -2   0   6 8978.28 725.631  49
  -2   0   6 8542.51 682.612  44
   2   0  -6 7331.08 664.048   1
  -2   0   5 304326. 3679.40  44
  -2   0   5 292189. 3784.48  49
   2   0  -5 296312. 3719.51   1
   2   0  -4 48826.5 1273.07  48
  -2   0   4 51760.2 1026.59  46
  -2   0   4 49634.1 1315.54  44
   2   0  -4 48675.2 1337.08   1
  -2   0   3 3622.01 323.690  44
   2   0  -3 2885.20 300.348   1
   2   0  -3 3595.12 300.280  48
  -2   0   3 3267.41 314.895  50
  -2   0   2 803571. 4139.04  43
   2   0  -2 793442. 4169.28   1
   2   0  -1 512679. 2231.51  48
  -2   0   1 515068. 2600.59  51
   2   0   0 497081. 2018.49  40
  -2   0  -1 252619. 1717.67  52
  -2   0  -1 253316. 1900.59  41
   2   0   1 250951. 1391.23  47
  -2   0  -2 117547. 1364.15  52
   2   0   2 118553. 1410.96  54
   2   0   2 120193. 1467.97  53
  -2   0  -3 148903. 1793.03  52
  -2   0  -3 151530. 1692.28  42
   2   0   3 147215. 1849.16  53
   2   0   4 77378.3 1499.94  53
  -2   0  -4 78094.0 1502.61  52
  -2   0  -4 76721.3 1321.56  42
   2   0   5 44726.4 1286.37  53
  -2   0  -5 43059.7 1073.21  42
  -2   0  -5 44472.7 1288.21  52
   2   0   6 36554.6 1288.85  53
  -2   0  -6 38125.9 1342.25  52
   2   0   7 558.881 198.225  53
  -2   0  -7 460.969 193.588  52
   2   0   8 125.673 103.805  14
   2   0   8 68.0843 150.507  53
  -2   0  -8 97.7642 134.867  52
  -2   0  -8 243.662 108.497  20
  -2   0  -8 181.877 125.684  21
   2   0   8 171.424 107.263  27
  -2   0  -8 420.757 143.308  25
   2   0   8 238.484 104.703  15
   2   0   9 20646.6 855.508  27
  -2   0  -9 21006.7 876.857  21
  -2   0  -9 21016.6 873.770  25
   2   0   9 21211.0 844.527  15
  -2   0  -9 21197.8 834.895  28
  -2   0  -9 21060.0 884.327  20
  -2   0 -10 29071.8 1014.51  21
  -2   0 -10 29955.8 1028.03  25
   2   0  10 30459.9 1014.74  27
  -2   0 -10 29476.9 967.841  28
  -2   0 -10 31296.7 934.553  29
   2   0  10 30852.7 985.710  15
  -2   0 -11 3826.43 340.311  21
  -2   0 -11 3922.13 320.147  28
   2   0  11 3440.50 306.722  15
   2   0  11 3560.94 317.702  27
   2   0  12 496.290 102.953  27
   2   0  12 483.765 99.3547  15
  -2   0 -12 365.974 100.014  21
   2   1 -11 789.582 121.957  21
  -2  -1  11 849.611 147.498  19
  -2  -1  11 881.924 150.742  15
  -2  -1  10 29779.5 945.256  19
   2   1 -10 29715.2 856.625  21
  -2  -1  10 31660.4 996.865  15
   2   1 -10 27971.5 809.079  31
  -2  -1   9 44091.1 1253.67  19
   2   1  -9 41193.4 1130.58  21
   2   1  -9 43999.6 1230.10  29
  -2  -1   9 44828.2 1273.70  15
   2   1  -9 43213.1 1149.18  31
  -2  -1   8 119095. 2091.19  15
   2   1  -8 115801. 1936.47  31
  -2  -1   8 123495. 2110.53  19
   2   1  -8 112410. 2798.17  52
   2   1  -8 113914. 2893.54   1
   2   1  -8 117035. 2031.56  29
  -2  -1   8 118038. 2023.81  37
   2   1  -8 115883. 1918.95  21
   2   1  -8 121034. 2069.99  28
  -2  -1   7 42045.5 1154.23  37
   2   1  -7 42492.9 1160.63  29
   2   1  -7 39512.1 1602.95   1
  -2  -1   7 40631.3 1158.86  15
   2   1  -7 41415.8 1104.60  21
  -2  -1   7 41746.6 1178.52  19
  -2  -1   7 39410.5 1045.69  18
  -2  -1   7 41335.0 1702.11  49
   2   1  -7 39291.4 1120.18  28
  -2  -1   6 260872. 3317.59   3
   2   1  -6 258745. 3714.18   1
  -2  -1   6 265091. 3563.84  44
  -2  -1   6 258753. 3860.17  49
   2   1  -6 264393. 3842.64  48
  -2  -1   5 16469.6 794.885  44
   2   1  -5 17130.2 877.786  48
   2   1  -5 16902.8 850.177   1
  -2  -1   5 16784.7 883.127  49
  -2  -1   4 43358.8 1260.39  49
   2   1  -4 43878.9 1223.63  48
   2   1  -4 42970.2 1197.37   1
  -2  -1   3 4688.12 374.084  50
  -2  -1   3 4903.11 213.918  46
   2   1  -3 4904.25 357.987  48
   2   1  -3 4815.84 358.273   1
  -2  -1   3 4875.36 336.448  44
  -2  -1   2 620491. 3664.06  50
   2   1  -2 626751. 3392.15   1
   2   1  -1 5427.42 272.951   1
  -2  -1   1 5367.83 275.874  43
   2   1  -1 5468.84 302.334  47
  -2  -1   1 5996.49 306.497  51
   2   1  -1 5762.32 271.942  48
  -2  -1  -1 1470.12 135.549  41
   2   1   1 1291.37 134.209  47
   2   1   1 1209.83 140.020  53
   2   1   1 1254.79 129.913   1
  -2  -1  -1 1514.47 99.1977  43
  -2  -1  -2 316008. 2242.49  52
   2   1   2 288359. 2244.35  53
  -2  -1  -3 6678.12 384.840  52
   2   1   3 6735.57 398.186  53
  -2  -1  -4 23434.3 813.446  52
   2   1   4 21981.9 817.934  53
  -2  -1  -5 359029. 3601.95  52
   2   1   5 347418. 3663.63  53
  -2  -1  -6 62277.8 1380.62   2
   2   1   6 64740.7 1776.54  53
  -2  -1  -6 63608.6 1704.13  52
   2   1   7 32545.1 1382.15  53
  -2  -1  -7 30562.4 1315.81  52
   2   1   8 8064.63 518.927  14
  -2  -1  -8 7428.21 490.657  25
  -2  -1  -8 6608.39 468.348  21
   2   1   8 6272.29 449.753  15
  -2  -1  -8 6871.81 685.446  52
   2   1   8 6489.35 681.047  53
   2   1   8 5925.05 440.442  27
  -2  -1  -8 6121.63 464.416  20
  -2  -1  -8 6581.08 440.564  28
   2   1   9 733.035 175.995  14
   2   1   9 548.088 163.998  27
  -2  -1  -9 639.153 162.857  21
  -2  -1  -9 686.757 159.372  28
   2   1   9 500.086 139.206  19
   2   1   9 993.323 208.182  15
   2   1  10 1716.52 259.955  15
   2   1  10 1369.82 221.899  27
  -2  -1 -10 1511.11 246.256  21
   2   1  10 1336.58 209.654  19
  -2  -1 -10 1748.61 256.428  25
  -2  -1 -10 1525.28 219.832  28
   2   1  11 237.063 97.4793  27
  -2  -1 -11 265.586 130.943  21
   2   1  11 288.029 98.3196  19
   2   1  11 224.724 104.798  15
  -2  -1 -12 21108.3 630.658  21
   2   1  12 20447.4 592.568  15
  -2  -2  11 21.9604 63.9393  19
  -2  -2  11 17.4499 72.1058  15
   2   2 -11 165.744 62.6062  31
  -2  -2  10 3722.64 344.888  15
   2   2 -10 2855.43 252.945  21
   2   2 -10 3352.74 299.509  31
  -2  -2  10 3529.26 325.784  19
   2   2 -10 3261.73 332.722  29
  -2  -2   9 4740.55 390.674  27
  -2  -2   9 4772.46 421.120  19
   2   2  -9 4639.43 367.309  21
  -2  -2   9 5446.27 450.859  15
   2   2  -9 4747.04 403.120  31
   2   2  -9 4348.89 411.332  29
   2   2  -9 4016.06 395.949  28
  -2  -2   8 19610.4 810.232  27
   2   2  -8 18022.3 736.204  21
   2   2  -8 17854.6 1147.11  52
   2   2  -8 19778.9 852.386  29
  -2  -2   8 19474.6 835.613  19
   2   2  -8 17453.6 1102.00   1
  -2  -2   8 19773.1 848.472  15
   2   2  -8 18950.7 823.486  28
   2   2  -7 153814. 3287.08  48
  -2  -2   7 149010. 2151.97  27
   2   2  -7 146379. 2023.52  21
  -2  -2   7 155963. 2259.92  19
   2   2  -7 155429. 2188.83  25
   2   2  -7 148777. 3002.88   1
   2   2  -7 153127. 2238.90  29
   2   2  -7 154108. 2219.79  28
  -2  -2   6 21468.7 997.211   3
   2   2  -6 21263.5 1112.71  48
   2   2  -6 21458.9 1028.48   1
  -2  -2   6 20377.9 1100.50  49
   2   2  -5 947.905 218.159   1
  -2  -2   5 927.501 204.156   3
   2   2  -5 1145.33 249.793  48
  -2  -2   5 1650.21 232.303  44
  -2  -2   5 661.878 214.283  49
  -2  -2   4 213392. 2298.64  44
  -2  -2   4 215223. 2871.12  49
   2   2  -4 217807. 2566.36   1
   2   2  -4 219022. 2835.95  48
   2   2  -3 295512. 2889.49  48
  -2  -2   3 303415. 2356.22  44
  -2  -2   3 300252. 2951.95  49
   2   2  -3 308141. 2615.07   1
  -2  -2   2 292053. 2474.39  49
   2   2  -2 290165. 2520.77  47
  -2  -2   2 294874. 2509.19  50
  -2  -2   2 289653. 1359.85  40
   2   2  -2 292611. 2529.79  48
  -2  -2   2 288906. 1286.24   2
   2   2  -1 25110.7 389.050  54
   2   2  -1 24407.6 650.128  48
  -2  -2   1 24585.6 616.285  50
   2   2  -1 24000.0 483.084   1
   2   2  -1 23753.4 661.179  47
  -2  -2   1 24439.7 593.355  49
   2   2   0 778.726 79.7592   1
   2   2   0 814.389 130.788  47
   2   2   1 3785.05 237.668  46
  -2  -2  -1 3617.18 182.408  41
  -2  -2  -1 3773.43 234.029  51
   2   2   1 3833.75 228.192  53
   2   2   2 130655. 1534.50  53
  -2  -2  -2 133559. 1000.99   3
   2   2   3 8782.75 466.834  53
  -2  -2  -3 9400.17 455.653  52
   2   2   3 8760.92 458.228  46
  -2  -2  -4 227731. 2535.05  52
   2   2   4 229523. 2713.31  53
   2   2   5 77.7674 133.497  53
   2   2   5 361.479 140.928  46
  -2  -2  -5 179.111 129.546  52
  -2  -2  -5 44.7559 92.6280   2
  -2  -2  -6 487019. 4132.19   2
   2   2   6 482461. 5000.21  53
   2   2   7 38475.3 1557.94  53
  -2  -2  -7 35055.2 1376.57  52
   2   2   8 2593.34 306.672  14
   2   2   8 2424.24 286.711  27
  -2  -2  -8 2643.64 419.955  52
  -2  -2  -8 2477.10 287.890  25
   2   2   8 2623.53 462.249  53
  -2  -2  -8 2569.47 298.304  21
   2   2   8 2611.55 310.742  15
   2   2   9 7470.48 526.597  14
  -2  -2  -9 7146.82 496.303  25
   2   2   9 7413.96 507.437  19
   2   2   9 7122.32 486.613  27
  -2  -2  -9 7252.22 514.608  21
   2   2   9 8129.55 548.268  15
  -2  -2  -9 8105.74 477.466  28
   2   2  10 3480.73 355.312  15
  -2  -2 -10 3145.67 346.089  21
   2   2  10 3081.41 329.565  19
   2   2  10 2974.32 304.775  27
   2   2  11 45.8602 77.3230  19
  -2  -2 -11 22.4588 86.1616  21
   2   2  11 109.935 112.998  15
   2   2  12 64.2617 50.4187  19
  -2  -2 -12 85.2035 76.0304  21
   2   2  12 151.438 71.8799  15
  -2  -3  11 131.563 71.8277  19
   2   3 -11-14.5760 66.1244  31
  -2  -3  11 137.095 81.7810  15
   2   3 -10 13800.1 643.733  29
   2   3 -10 13343.3 601.050  31
  -2  -3  10 13063.0 582.235  19
  -2  -3  10 13499.5 619.956  15
  -2  -3  10 13473.8 567.814  45
  -2  -3   9 609.591 163.708  27
  -2  -3   9 565.185 168.557  19
  -2  -3   9 561.158 181.742  15
   2   3  -9 302.789 129.117  28
   2   3  -9 495.434 171.584  29
  -2  -3   8 30144.1 1043.70  27
  -2  -3   8 30447.0 1021.27  19
   2   3  -8 26944.0 990.329  28
   2   3  -8 29668.7 1041.46  29
  -2  -3   8 30565.1 1042.75  15
   2   3  -7 13672.2 642.112  25
   2   3  -7 14046.8 1018.58  48
  -2  -3   7 14212.6 703.432  27
  -2  -3   7 14338.7 686.946  19
  -2  -3   7 14782.4 702.174  15
   2   3  -7 14160.0 678.794  28
  -2  -3   6 5957.88 559.458   3
   2   3  -6 6436.84 549.369   1
   2   3  -6 6375.00 641.030  48
  -2  -3   5 27176.0 1106.29   3
   2   3  -5 27270.3 1186.41  48
   2   3  -5 25904.4 970.664   1
   2   3  -4 25115.1 1016.74  48
   2   3  -4 27100.8 854.010   1
   2   3  -3 147415. 2217.44  48
  -2  -3   3 162749. 2294.22   3
   2   3  -3 158301. 1722.30   1
  -2  -3   3 159358. 1579.75  40
  -2  -3   3 147979. 2183.54  49
  -2  -3   3 151139. 1335.91  44
  -2  -3   2 3576.18 149.972  44
   2   3  -2 4191.49 352.481  48
  -2  -3   2 3869.98 312.288  49
  -2  -3   2 3770.71 231.928  40
  -2  -3   2 3712.49 333.953   3
   2   3  -2 3866.10 312.095  47
   2   3  -2 4039.41 215.595   1
  -2  -3   2 3880.08 208.236   2
   2   3  -1 53212.5 1080.03  47
  -2  -3   1 52032.2 1113.04   3
  -2  -3   1 54384.5 896.919   2
  -2  -3   0 5826.38 323.946   2
  -2  -3   0 5907.60 238.686  50
   2   3   0 5842.79 350.545  47
  -2  -3   0 5248.56 328.867   3
   2   3   0 5712.51 276.625  46
  -2  -3  -1 2871.39 125.149  50
  -2  -3  -1 2987.02 254.500   2
   2   3   1 3067.60 206.667  53
   2   3   1 3031.33 242.176  46
  -2  -3  -1 2984.35 230.781   3
  -2  -3  -2 80789.1 1401.16   2
  -2  -3  -2 80963.8 704.289  41
  -2  -3  -2 83581.2 1064.50   3
   2   3   2 80534.6 1243.61  53
   2   3   2 80810.1 1368.56  46
   2   3   3 10155.8 524.226  53
   2   3   3 9520.96 525.697  46
  -2  -3  -3 9377.19 522.070   2
   2   3   4 7648.36 527.056  53
   2   3   4 7477.79 515.210  46
  -2  -3  -4 7832.06 474.239  52
  -2  -3  -4 6983.37 476.699   2
  -2  -3  -5 4684.59 409.454  52
   2   3   5 5542.78 501.112  46
  -2  -3  -5 5215.23 445.422   2
   2   3   5 4982.33 487.045  53
   2   3   6 18061.8 1010.34  53
   2   3   6 17460.4 924.603  46
  -2  -3  -6 17540.3 879.446  52
  -2  -3  -6 16986.4 853.489   2
   2   3   7 129.626 79.5177  14
  -2  -3  -7 76.5272 100.338  52
   2   3   7 54.1433 67.7522  35
  -2  -3  -7 252.372 109.848  21
   2   3   7 105.219 112.253  53
  -2  -3  -7 0.65040 99.9230  25
   2   3   8 15959.6 743.769  14
   2   3   8 15061.3 665.635  27
  -2  -3  -8 14248.6 932.428  52
  -2  -3  -8 16110.9 723.419  21
   2   3   8 16130.9 767.450  15
   2   3   9 1720.36 271.173  14
  -2  -3  -9 1693.72 259.213  21
   2   3   9 1702.23 244.766  37
   2   3   9 1954.79 291.708  15
  -2  -3 -10 6869.29 472.666  21
   2   3  10 6932.99 479.794  19
   2   3  10 7134.86 503.117  15
  -2  -3 -11 22829.7 750.691  21
   2   3  11 21775.3 729.452  19
   2   3  11 23972.5 802.435  15
  -2  -3 -12 11397.6 411.150  21
   2   3  12 11399.5 429.781  15
   2   4 -11 313.822 83.0135  31
   2   4 -10 2675.84 279.289  29
  -2  -4  10 2512.05 263.725  15
  -2  -4  10 2060.29 218.129  19
   2   4 -10 1750.05 207.970  33
  -2  -4  10 2294.72 240.440  45
   2   4 -10 2719.14 278.220  31
  -2  -4   9 491.389 156.299  15
   2   4  -9 323.074 142.195  29
   2   4  -9 314.811 112.089  28
  -2  -4   9 517.816 140.769  19
  -2  -4   8 6362.53 496.587  27
  -2  -4   8 6059.64 452.824  19
   2   4  -8 6845.95 504.749  29
  -2  -4   8 6241.07 475.274  15
   2   4  -8 6744.80 489.786  28
  -2  -4   7 83596.2 1742.56  27
   2   4  -7 82449.7 1535.74  25
  -2  -4   7 86718.0 1673.35  19
   2   4  -7 82928.1 2526.19  48
  -2  -4   7 84852.6 1672.68  15
   2   4  -7 83013.2 1641.86  28
   2   4  -6 1064.97 176.879  28
  -2  -4   6 1310.35 233.288  27
   2   4  -6 496.594 200.936  48
  -2  -4   6 944.466 253.294   3
  -2  -4   6 1337.38 216.001  15
  -2  -4   6 1289.83 213.112  19
  -2  -4   5 30414.4 1266.85   3
   2   4  -5 28384.9 1265.78  48
  -2  -4   4 23039.1 1028.47   3
   2   4  -4 20758.0 987.675  48
  -2  -4   3 4274.22 423.889   3
   2   4  -3 4130.32 412.271  48
  -2  -4   3 3983.37 305.503  40
   2   4  -2 10381.2 595.726  48
   2   4  -2 9930.63 534.421  47
  -2  -4   2 9656.44 590.403   3
  -2  -4   2 10720.6 481.935  40
  -2  -4   2 10829.1 443.643   2
  -2  -4   1 78622.9 1305.01   2
   2   4  -1 75016.3 1413.45  47
  -2  -4   1 76807.1 1538.76   3
   2   4  -1 75552.7 989.748  46
  -2  -4   0 18993.4 722.473   3
   2   4   0 19027.8 596.690  46
   2   4   0 19013.0 707.206  47
  -2  -4   0 18641.5 681.370   2
   2   4   1 793039. 3337.31  53
   2   4   1 780760. 4295.62  46
  -2  -4  -2 164630. 2256.79   2
   2   4   2 162756. 1862.33  53
  -2  -4  -3 59579.7 1447.93   2
   2   4   3 62877.3 1491.03  46
   2   4   3 62937.5 1373.08  53
   2   4   4 63775.0 1642.33  46
  -2  -4  -4 60480.7 1557.80   2
  -2  -4  -5 16403.6 863.589   2
   2   4   5 16558.4 904.954  53
   2   4   5 15934.2 884.364  46
   2   4   6 102748. 2505.53  53
   2   4   6 110395. 2498.41  46
  -2  -4  -6 110024. 2364.48   2
   2   4   7 365.672 180.077  46
  -2  -4  -7 405.839 121.006  26
  -2  -4  -7 548.602 138.691  21
   2   4   7 366.591 115.655  35
   2   4   7 373.254 129.554  14
   2   4   7 470.893 217.967  53
  -2  -4  -7 304.085 154.245   1
   2   4   8 4217.86 391.788  14
  -2  -4  -8 4167.48 369.697  26
   2   4   8 4020.77 583.699  53
   2   4   8 4368.82 415.774  15
  -2  -4  -8 4210.89 374.340  21
   2   4   9 2418.74 303.869  14
  -2  -4  -9 2317.57 288.668  21
   2   4   9 2293.58 307.835  15
   2   4  10 966.009 178.235  37
   2   4  10 747.363 184.568  19
  -2  -4 -10 1116.67 192.415  21
   2   4  10 800.955 193.650  15
  -2  -4 -11 967.494 160.070   4
   2   4  11 1008.59 166.855  19
   2   4  11 959.930 137.915  37
  -2  -4 -11 1081.11 160.469  21
   2   4  11 1103.95 175.636  15
   2   5 -11 3316.38 205.725  31
   2   5 -10 440.225 107.443  33
  -2  -5  10 608.216 140.145  45
   2   5 -10 466.737 124.424  31
   2   5 -10 653.730 136.557  29
  -2  -5   9 816.449 187.153  45
   2   5  -9 723.011 158.525  28
  -2  -5   9 612.797 142.549  19
  -2  -5   9 818.362 170.934  15
   2   5  -9 342.218 131.330  29
   2   5  -8 73.4231 99.3982  28
  -2  -5   8-92.8955 101.649  19
  -2  -5   8 45.3185 94.5558  15
   2   5  -8 100.373 113.920  29
  -2  -5   7 504.231 167.032  27
  -2  -5   7 330.823 133.664  19
  -2  -5   7 217.100 94.7496  15
   2   5  -7 147.052 84.2644  28
  -2  -5   6 2368.14 414.804   3
   2   5  -6 1809.22 239.478  28
  -2  -5   6 1668.74 267.834  27
  -2  -5   6 1698.48 238.005  19
   2   5  -6 2242.77 418.444  48
  -2  -5   6 1754.57 250.336  15
  -2  -5   5 57794.9 1903.49   3
   2   5  -5 56797.0 1887.17  48
  -2  -5   4 5232.43 546.067   3
   2   5  -4 4474.70 500.888  48
  -2  -5   3 32390.5 1008.71  40
  -2  -5   3 35391.1 1313.49   3
   2   5  -3 35125.9 1110.46  47
   2   5  -3 32768.1 1240.16  48
  -2  -5   2 5412.53 411.092  40
  -2  -5   2 5329.98 492.638   3
   2   5  -2 5525.94 431.122  47
  -2  -5   2 5303.48 371.744   2
   2   5  -2 4916.68 463.595  48
  -2  -5   1 172736. 2633.20   3
  -2  -5   1 173912. 2279.98   2
   2   5  -1 170223. 2339.41  47
   2   5  -1 168237. 1780.77  46
  -2  -5   0 11134.3 640.828   3
  -2  -5   0 10011.3 579.731   2
   2   5   0 11431.8 613.497  47
   2   5   1 24889.6 871.763  46
  -2  -5  -1 23853.6 935.012   2
   2   5   2 394974. 3789.82  46
   2   5   2 393456. 3039.01  53
   2   5   3 10322.5 669.972  46
   2   5   3 9046.26 549.368  53
  -2  -5  -3 9655.23 669.545   2
   2   5   4 11880.0 779.854  46
  -2  -5  -4 11625.1 769.034   2
  -2  -5  -4 11582.7 619.856   1
   2   5   5 311764. 4087.15  53
  -2  -5  -5 313989. 3672.48   1
  -2  -5  -5 316800. 4177.81   2
   2   5   5 312560. 4253.61  46
  -2  -5  -6 155.256 150.212   2
  -2  -5  -6 46.9335 75.6132  26
   2   5   6 43.7115 113.321  53
  -2  -5  -6-133.577 130.139  45
  -2  -5  -6 327.667 164.544   1
  -2  -5  -6 18.2736 75.9553  21
   2   5   7 122346. 2022.64  14
   2   5   7 128763. 3019.62  46
  -2  -5  -7 118428. 2013.17  26
   2   5   7 122745. 3025.94  53
  -2  -5  -7 121425. 1886.18  21
  -2  -5  -7 114871. 2725.50   1
   2   5   8 10377.7 604.469  14
  -2  -5  -8 10820.9 606.786  26
  -2  -5  -8 10599.4 574.218  21
   2   5   8 11232.1 658.340  15
   2   5   9 17825.7 757.952  14
  -2  -5  -9 18243.7 726.953  21
   2   5   9 18885.2 817.557  15
   2   5  10 834.339 182.907  19
  -2  -5 -10 634.448 137.595  21
   2   5  10 664.695 153.035  37
   2   5  10 598.893 159.608  15
  -2  -5 -10 588.577 140.805   4
   2   5  11 3043.40 215.007  37
  -2  -5 -11 3490.18 233.906  21
   2   5  11 3654.09 269.596  19
  -2  -5 -11 3651.72 251.718   4
   2   5  11 3692.48 273.834  15
  -2  -6  10 2693.97 229.461  45
   2   6 -10 3242.69 252.472  31
   2   6 -10 3204.78 242.849  29
  -2  -6   9 47.3140 101.549  45
   2   6  -9 185.126 106.221  29
   2   6  -9 82.4018 75.8865  28
  -2  -6   8 25476.2 955.019  45
   2   6  -8 25476.2 831.322  28
   2   6  -8 25817.7 897.793  29
  -2  -6   7 3007.45 364.970  45
   2   6  -7 3219.29 312.847  28
  -2  -6   6 85107.2 1823.85  45
  -2  -6   6 84509.5 1645.56   6
   2   6  -6 84049.3 2536.45  48
  -2  -6   5 22271.1 1268.10   3
  -2  -6   5 22159.4 896.389  45
  -2  -6   5 22087.5 851.865   6
   2   6  -5 22515.4 1255.00  48
  -2  -6   4 4405.14 551.145   3
   2   6  -4 3221.75 455.447  48
  -2  -6   4 4206.27 382.511  45
  -2  -6   4 3465.21 331.275   6
  -2  -6   3 1564.86 326.059   3
   2   6  -3 1505.89 305.541  48
  -2  -6   3 1688.46 273.787  40
  -2  -6   2 3200.43 433.600   3
   2   6  -2 3012.46 401.033  48
  -2  -6   2 2537.32 307.477   2
   2   6  -2 2919.03 343.141  47
  -2  -6   1 328.130 163.300   3
   2   6  -1 228.883 112.416  47
  -2  -6   1 213.613 95.5771   2
   2   6   0 37728.7 1095.19  46
  -2  -6   0 35211.4 1230.20   2
   2   6   0 36274.8 1206.18  47
  -2  -6  -1 1551.71 273.598   2
   2   6   1 1061.08 216.333  46
   2   6   2 81532.5 1917.41  46
  -2  -6  -2 82457.1 2034.77   2
  -2  -6  -3 103.757 119.074   2
   2   6   3 231.015 154.264  46
   2   6   4 92053.7 2059.94  53
   2   6   4 89100.2 2308.84  46
  -2  -6  -4 86364.6 2296.80   2
   2   6   5 16864.0 979.406  53
   2   6   5 16769.9 1060.77  46
  -2  -6  -5 17082.3 748.834  26
  -2  -6  -5 17182.6 750.897  45
  -2  -6  -5 18477.7 751.948   4
  -2  -6  -5 16926.2 1056.67   2
  -2  -6  -6 15191.7 727.594  45
   2   6   6 14542.4 1037.53  46
  -2  -6  -6 14109.1 708.045  26
  -2  -6  -6 15110.2 714.022   4
  -2  -6  -6 15012.5 1023.22   2
   2   6   6 14327.5 994.646  53
  -2  -6  -7 40721.9 1203.05  26
  -2  -6  -7 40540.6 1053.09  21
   2   6   7 41682.2 1166.53  14
  -2  -6  -7 40689.9 1196.62   4
   2   6   8 35883.2 1057.98  14
   2   6   8 36450.2 1132.67  15
  -2  -6  -8 36926.6 999.678  21
  -2  -6  -8 35287.7 1086.53   4
  -2  -6  -9 425.940 116.142  21
  -2  -6  -9 481.107 143.859   4
   2   6   9 251.316 93.0635  14
   2   6   9 355.642 133.652  15
  -2  -6 -10 16288.6 525.904  21
  -2  -6 -10 16641.6 588.132   4
   2   6  10 16942.1 639.608  19
   2   6  10 15887.3 591.383  37
   2   6  10 16746.8 617.973  15
  -2  -6 -11 335.311 69.3789   4
  -2  -7  10 1030.51 123.422  45
   2   7 -10 1141.71 127.229  31
  -2  -7   9 2650.96 259.420  45
   2   7  -9 2923.11 241.686  29
  -2  -7   8-58.0500 124.258  45
   2   7  -8-44.4312 85.2680  29
  -2  -7   7 22852.8 930.974  45
  -2  -7   7 22140.9 799.881   6
  -2  -7   6 5205.93 430.950   6
  -2  -7   6 5288.07 475.412  45
  -2  -7   5 28532.3 1056.54  45
   2   7  -5 26544.4 1409.82  48
  -2  -7   5 26185.9 969.460   6
   2   7  -4 27934.5 1393.32  48
  -2  -7   4 28896.6 1033.71  45
  -2  -7   4 29450.3 1019.49   6
  -2  -7   3 18967.2 815.115  45
  -2  -7   3 17205.1 700.012   4
  -2  -7   3 17451.4 766.405   6
   2   7  -2 1868.26 347.394  48
  -2  -7   2 1975.93 270.409  45
  -2  -7   2 1779.96 240.431   6
   2   7  -1 6147.06 526.673  47
   2   7  -1 5724.03 579.527  48
  -2  -7   1 6434.64 573.928   2
   2   7   0 28975.4 1177.19  47
  -2  -7   0 26475.7 1196.60   2
   2   7   1 33669.1 1318.06  47
   2   7   1 33279.6 1257.56  46
  -2  -7  -1 32088.4 1360.29   2
  -2  -7  -2 529.720 199.526   2
   2   7   2 761.547 209.485  46
   2   7   3 22925.9 1191.16  46
  -2  -7  -3 21662.9 1216.49   2
  -2  -7  -3 21667.2 832.289  45
  -2  -7  -3 21968.3 812.913  26
  -2  -7  -3 20935.9 790.946   4
  -2  -7  -4 25462.1 914.570  26
   2   7   4 25020.4 1312.11  46
  -2  -7  -4 25272.9 1354.77   2
  -2  -7  -4 24524.9 896.126  45
  -2  -7  -4 26549.4 919.822   4
  -2  -7  -5 9950.05 603.852  26
   2   7   5 10542.8 877.797  46
  -2  -7  -5 10296.1 592.140   4
  -2  -7  -5 9726.33 859.469   2
  -2  -7  -6 27352.4 970.553   4
   2   7   7 639.188 158.329  14
  -2  -7  -7 452.277 155.102   4
   2   7   8 8667.88 462.788  14
  -2  -7  -8 9029.09 526.375   4
   2   7   8 8108.95 495.098  15
  -2  -7  -9 1307.37 192.034   4
   2   7   9 1671.23 210.860  15
   2   7  10 10309.9 385.084  15
   2   7  10 10283.9 423.280  19
   2   7  10 10026.0 398.107  37
  -2  -7 -10 10865.4 403.586   4
   2   8  -9 512.054 94.9189  31
  -2  -8   9 449.802 101.577  45
  -2  -8   8 63.8796 82.3291  45
   2   8  -8 72.7475 52.2386  29
  -2  -8   7 34.1530 93.3252   6
  -2  -8   7-1.52102 135.419  45
   2   8  -7 277.349 100.394  29
  -2  -8   6 8391.71 570.731  45
  -2  -8   6 8195.88 521.344   6
  -2  -8   5 47867.5 1363.39  45
  -2  -8   5 46980.3 1303.15   6
  -2  -8   4 14687.6 747.511   6
  -2  -8   4 16030.9 792.421  45
  -2  -8   3 948.763 219.825   6
   2   8  -3 835.833 244.825  48
  -2  -8   3 814.069 207.753  45
  -2  -8   3 843.941 194.346   4
  -2  -8   2 61823.5 1394.09   4
  -2  -8   2 65129.7 1539.78  45
  -2  -8   2 67895.4 1553.40   6
   2   8  -2 66634.3 2145.62  48
  -2  -8   1 914.449 256.205   2
  -2  -8   1 1376.77 229.886  45
   2   8  -1 1138.86 296.301  48
  -2  -8   1 1540.43 236.640   4
  -2  -8   1 1746.38 258.596   6
  -2  -8   0 46221.1 1737.23   2
  -2  -8   0 44849.7 1186.85   4
  -2  -8   0 45926.6 1254.65  45
  -2  -8   0 46508.1 1238.29   6
   2   8   0 46352.1 1762.72  48
  -2  -8  -1 784.583 176.899   4
  -2  -8  -1 835.043 170.745   6
   2   8   1 1253.87 268.566  47
  -2  -8  -1 889.682 265.890   2
   2   8   2 93896.5 2463.02  47
   2   8   2 86458.0 2335.47  46
  -2  -8  -2 92151.6 1743.38  45
  -2  -8  -2 87548.8 1696.57   4
  -2  -8  -2 90612.2 2571.86   2
  -2  -8  -3 719.726 171.776   4
   2   8   3 778.544 240.215  46
  -2  -8  -3 796.158 182.426  45
  -2  -8  -3 678.384 259.650   2
  -2  -8  -4 5359.31 441.757   4
  -2  -8  -5 3689.57 373.000   4
  -2  -8  -6 2443.75 304.118   4
  -2  -8  -7-22.0699 103.180   4
   2   8   7 40.1617 76.9613  15
  -2  -8  -8 25.3275 102.272   4
   2   8   8 158.439 86.0164  15
   2   8   9 36729.5 820.454  37
  -2  -8  -9 38257.2 792.027   4
  -2  -9   8 8529.99 388.993  45
   2   9  -8 7637.74 296.411  31
  -2  -9   7 16351.0 572.142   6
  -2  -9   7 16569.0 639.520  45
  -2  -9   6 5840.98 430.641  45
  -2  -9   6 5085.59 385.690   6
  -2  -9   5 228.444 144.823   6
  -2  -9   5 351.347 165.307  45
  -2  -9   4 2820.20 335.791  45
  -2  -9   4 3086.55 350.007   6
  -2  -9   3 78.3975 119.340   6
  -2  -9   3 132.213 134.303  45
  -2  -9   3 20.8756 81.4273   4
  -2  -9   2 74064.4 1641.01  45
  -2  -9   2 70983.5 1534.56   4
  -2  -9   1 3734.73 360.546   4
  -2  -9   1 3397.90 356.719  45
  -2  -9   1 4062.02 393.500   6
  -2  -9   0 70470.7 1537.76   4
  -2  -9   0 72583.7 1581.51   6
  -2  -9   0 71895.1 1571.12  45
  -2  -9  -1 17288.0 769.622   4
  -2  -9  -1 16254.6 735.687   6
  -2  -9  -1 16330.7 741.436  45
  -2  -9  -2 75917.3 1557.50  45
  -2  -9  -2 74410.3 1597.72   4
  -2  -9  -3 60745.0 1458.03   4
  -2  -9  -4 21968.6 859.726   4
  -2  -9  -5 3926.40 371.948   4
  -2  -9  -6 22681.4 808.242   4
  -2  -9  -7 4129.14 315.231   4
  -2  -9  -8 533.559 108.266   4
   2   9   8 546.224 98.9454  19
  -2 -10   7 18998.7 525.962  45
  -2 -10   6 9825.14 457.220  45
  -2 -10   6 9910.35 445.754   6
  -2 -10   5 4367.58 347.631  45
  -2 -10   5 4499.77 350.885   6
  -2 -10   4 2172.42 266.525  45
  -2 -10   4 2675.32 301.262   6
  -2 -10   3 37645.9 1075.18  45
  -2 -10   3 41279.7 1159.23   6
  -2 -10   2 1048.53 217.112   6
  -2 -10   2 619.356 175.938  45
  -2 -10   2 722.692 160.898   4
  -2 -10   1 10360.8 569.373  45
  -2 -10   1 10876.2 606.958   6
  -2 -10   1 11112.2 595.223   4
  -2 -10   0 3862.93 351.362  45
  -2 -10   0 3173.58 336.736   4
  -2 -10   0 3418.85 336.248   6
  -2 -10  -1 1640.59 254.304   4
  -2 -10  -2 17824.1 754.271   4
  -2 -10  -3 31862.1 982.635   4
  -2 -10  -4 1423.69 223.447   4
  -2 -10  -5 36354.7 955.474   4
  -2 -10  -6 24644.7 700.317   4
  -2 -10  -7 39276.4 746.219   4
  -2 -11   5 2746.53 195.710  45
  -2 -11   5 2542.30 210.001   6
  -2 -11   4 1077.18 165.323   6
  -2 -11   4 1173.55 147.746  45
  -2 -11   3 3655.53 269.775  45
  -2 -11   3 3896.79 309.486   6
  -2 -11   2 7229.44 427.135   6
  -2 -11   2 7309.23 390.217  45
  -2 -11   1 176.302 76.5228  45
  -2 -11   1 203.614 96.1694   4
  -2 -11   0 5381.19 370.540   4
  -2 -11  -1 1676.06 213.644   4
  -2 -11  -2 5765.15 378.238   4
  -2 -11  -3 255.841 95.5916   4
  -2 -11  -4 14116.8 517.816   4
  -2 -11  -5 5270.48 285.871   4
  -2 -12   0 89.9400 58.2080   4
  -2 -12  -1 366.346 85.6933   4
  -2 -12  -2 4563.62 247.261   4
   3 -10   0 1444.46 139.289   5
   3 -10   1 1532.72 152.827   5
   3 -10   2 178.260 70.3729   5
   3  -9  -3 5493.20 291.379   5
   3  -9  -2 4103.65 268.265   4
   3  -9  -2 4326.85 292.528   5
   3  -9  -1 10479.7 464.000   4
   3  -9  -1 11042.5 495.968   5
   3  -9   0 17563.2 648.488   5
   3  -9   0 17374.4 626.294   4
   3  -9   1 42488.5 1022.09   5
   3  -9   2 11251.9 531.471   5
   3  -9   3 151.844 69.2049   6
   3  -9   3 231.536 112.190   5
   3  -9   4 717.670 129.975   6
   3  -9   4 960.163 160.591   5
   3  -9   5 13945.5 495.931   6
   3  -9   6 13982.8 448.470   6
   3  -8  -5-16.0815 62.7571   5
   3  -8  -4 2728.01 248.480   5
   3  -8  -3 2355.50 252.039   5
   3  -8  -3 2260.43 224.104   4
   3  -8  -2 28292.7 888.410   5
   3  -8  -2 28410.4 851.649   4
   3  -8  -1 20120.0 753.809   4
   3  -8  -1 20959.8 797.907   5
   3  -8   0 8688.43 531.237   5
   3  -8   0 7643.03 493.917   4
   3  -8   1 4204.81 377.654   5
   3  -8   1 3828.97 361.323   4
   3  -8   2 61924.0 1412.36   5
   3  -8   2 52701.4 1181.77   6
   3  -8   3 32015.7 1021.25   5
   3  -8   3 27990.1 892.123   6
   3  -8   4 17279.3 732.448   5
   3  -8   4 16280.7 687.550   6
   3  -8   5 428.309 132.723   6
   3  -8   5 325.796 129.460   5
   3  -8   6 386.589 135.263   6
   3  -8   7-25.1767 78.0198   6
   3  -8   8 2500.48 191.107   6
   3  -7  -7 3832.18 201.187   5
  -3   7   7 3958.89 234.223  18
  -3   7   6 19551.1 611.396  18
   3  -7  -6 20833.8 619.281   5
  -3   7   5 1271.93 182.115  18
   3  -7  -5 1474.16 200.494   5
   3  -7  -4 25859.7 864.713   5
   3  -7  -3 207.442 111.837   5
   3  -7  -3 203.538 108.004   4
   3  -7  -2 40888.5 1168.79   5
   3  -7  -2 41114.4 1111.28   4
   3  -7  -1 12871.4 643.168   4
   3  -7  -1 13305.6 679.813   5
   3  -7   0 23589.2 911.337   5
   3  -7   0 22686.5 877.370   4
   3  -7   1 14.1907 99.5190   5
   3  -7   1 73.4094 98.4308   4
   3  -7   2 286.655 130.955   6
   3  -7   2 274.681 134.385   5
   3  -7   2 202.519 139.326   4
   3  -7   3 11042.2 639.955   5
   3  -7   3 11133.8 611.751   6
   3  -7   4 6484.82 481.060   6
   3  -7   4 7709.61 534.272   5
   3  -7   5 7985.84 532.343   5
   3  -7   5 8110.03 537.146   6
   3  -7   6 67.4774 122.373   6
   3  -7   7 31660.8 957.292   6
   3  -7   8 804.567 157.026   6
  -3   7  -8 773.912 115.734  25
   3  -7   9 5808.97 285.037   6
  -3   7  -9 6299.56 280.585  28
  -3   6   8 35.6166 53.7902  18
   3  -6  -8 191.763 59.0271   5
  -3   6   8 177.427 68.8864  37
  -3   6   7 2726.29 261.791  18
  -3   6   7 2256.37 221.599  37
   3  -6  -7 2856.66 242.066   5
  -3   6   6 13452.3 582.576  37
   3  -6  -6 13304.7 590.191   5
   3  -6  -5 1321.55 210.756   5
  -3   6   5 1527.56 212.639  37
   3  -6  -4 118.756 104.843   5
   3  -6  -3 4102.31 349.363   4
   3  -6  -3 4181.73 384.327   5
   3  -6  -2 83903.2 1682.03   5
   3  -6  -2 84609.5 1610.17   4
  -3   6   2 79573.2 2377.55  43
   3  -6  -1 39633.7 1146.17   5
  -3   6   1 38298.0 1640.18  43
   3  -6  -1 39754.9 1110.47   4
   3  -6   0 151977. 2206.27   4
  -3   6   0 158449. 3350.67  43
   3  -6   0 160259. 2292.36   5
   3  -6   1 171661. 2378.74   5
   3  -6   1 172295. 2373.30   4
  -3   6  -1 169884. 3470.45  43
   3  -6   2 70230.5 1543.42   5
   3  -6   2 69440.9 1409.83  10
   3  -6   2 68522.8 1528.48   4
   3  -6   2 73941.8 2364.23  40
  -3   6  -2 71370.7 2274.89  43
   3  -6   2 73630.5 1500.04   6
  -3   6  -3 213.607 157.561  43
   3  -6   3 7.54896 134.842  40
   3  -6   3 101.197 108.326   5
   3  -6   3 165.716 113.839   6
   3  -6   3 46.7996 102.304   4
   3  -6   4 50719.7 1346.78   5
  -3   6  -4 49158.5 1929.30  42
   3  -6   4 53048.5 1364.66   6
   3  -6   5 8770.37 576.645   5
   3  -6   5 9345.05 598.358   6
   3  -6   6 8393.05 556.419   5
   3  -6   6 8486.56 565.934   6
   3  -6   7 72.3474 114.242   6
   3  -6   7 29.1345 74.8089  45
  -3   6  -8 13960.3 550.473  21
   3  -6   8 13368.9 578.374  45
   3  -6   8 14529.0 645.515   6
   3  -6   9 552.533 121.671   6
   3  -6   9 545.206 112.385  45
  -3   6  -9 535.136 106.744  25
  -3   6 -10 18520.3 493.831  28
  -3   5   9 13748.9 461.528  18
  -3   5   9 12850.5 414.675  38
  -3   5   8 56.4595 82.5776  37
   3  -5  -8 195.550 87.5737   5
  -3   5   8 131.303 100.349  18
   3  -5  -8 44.3092 75.8330  21
  -3   5   7 27987.7 890.019  37
   3  -5  -7 29879.3 948.271  21
   3  -5  -7 28845.4 868.844   5
   3  -5  -6 341.101 128.707  21
   3  -5  -6 383.483 140.640   5
  -3   5   6 422.437 153.717  37
   3  -5  -5 60973.4 1412.58   5
   3  -5  -5 58434.2 1445.99  21
   3  -5  -4 4601.26 397.424   5
   3  -5  -4 4541.78 412.281  21
  -3   5   4 5801.22 659.232  46
  -3   5   4 4192.99 559.296  44
  -3   5   4 4742.66 582.341  43
   3  -5  -4 5142.67 599.443   1
   3  -5  -3 9801.67 568.895  21
   3  -5  -3 9911.83 566.024   5
  -3   5   3 8769.16 774.351  43
  -3   5   3 10092.7 831.380  44
   3  -5  -3 8437.63 742.843   1
   3  -5  -2 778.553 207.434   1
   3  -5  -2 791.229 157.251  11
  -3   5   2 425.019 159.275  44
   3  -5  -2 623.893 157.532   5
  -3   5   2 463.345 194.855  43
   3  -5  -1 7551.85 475.143   5
  -3   5   1 6956.36 608.293  44
  -3   5   1 6995.14 666.841  43
   3  -5  -1 6679.19 601.938   1
   3  -5   0 9650.18 698.081   1
   3  -5   0 10981.4 566.334   5
  -3   5   0 10987.7 826.414  43
  -3   5  -1 210045. 3597.24  43
   3  -5   1 207544. 3612.72  40
   3  -5   2 192.952 93.7433   5
   3  -5   2-49.6150 170.798  40
  -3   5  -2 239.630 171.510  43
  -3   5  -2 24.8819 141.024  42
   3  -5   2-37.8824 87.3100  33
   3  -5   3 58267.7 1318.65   6
  -3   5  -3 55495.6 1880.38  42
   3  -5   3 55837.4 1275.77  10
   3  -5   3 56235.7 1955.15  40
   3  -5   3 54529.8 1306.79   4
   3  -5   3 56271.5 1316.44   5
  -3   5  -3 58940.9 1722.38  41
   3  -5   4 75549.7 1564.89   6
   3  -5   4 70908.2 1519.89   5
  -3   5  -4 71250.6 2210.30  42
   3  -5   4 72804.4 1523.82  10
  -3   5  -4 70780.7 2017.61  41
   3  -5   4 69897.4 2247.21  40
   3  -5   5 44459.8 1253.85   6
   3  -5   5 40887.7 1186.60   5
  -3   5  -5 38038.6 1579.44  41
   3  -5   5 39595.1 1175.71  10
  -3   5  -5 38035.5 1679.33  42
   3  -5   5 40444.7 1753.46  40
   3  -5   6 40787.6 1228.22   6
   3  -5   6 41250.7 1212.30   5
   3  -5   7 2664.01 300.179  27
   3  -5   7 2843.45 330.786   6
   3  -5   8 2468.58 292.025  27
  -3   5  -8 2525.49 281.181  21
   3  -5   8 3037.09 326.521   6
   3  -5   9 261.395 115.623  27
   3  -5   9 124.777 99.6017   6
  -3   5  -9 187.029 92.1466  21
  -3   5  -9 122.628 86.9997  25
   3  -5  10 13437.7 516.827  27
  -3   5 -10 14459.7 518.801  25
  -3   5 -10 13859.5 446.324  21
   3  -5  10 13977.8 529.004  45
   3  -5  10 12523.9 439.585   6
  -3   4   9 3799.21 291.090  37
  -3   4   9 3818.04 264.585  19
   3  -4  -9 4403.27 312.272  21
   3  -4  -9 3872.03 261.143   5
  -3   4   9 4369.08 319.259  18
   3  -4  -8 4571.74 375.149  21
  -3   4   8 4245.50 359.050  37
  -3   4   8 3734.92 317.692  19
  -3   4   8 4508.63 385.589  18
  -3   4   7 2143.79 284.803  37
   3  -4  -7 2280.74 299.729  21
  -3   4   7 2330.06 277.304  19
  -3   4   6 19410.4 783.011  19
   3  -4  -6 19402.0 843.000  21
  -3   4   6 18748.0 817.747  37
   3  -4  -5 598.803 221.309   1
  -3   4   5 778.517 264.869  44
  -3   4   5 307.268 147.383  46
   3  -4  -5 242.425 131.570  21
   3  -4  -5 531.169 136.121  11
   3  -4  -4 7824.56 723.735   1
   3  -4  -4 7754.57 456.691  11
  -3   4   4 6232.99 647.824  43
   3  -4  -4 7508.36 499.421  21
  -3   4   4 6958.33 684.592  46
  -3   4   4 6843.52 701.484  44
   3  -4  -3 1257.88 202.302  21
  -3   4   3 999.067 269.757  43
  -3   4   3 950.700 253.507  44
   3  -4  -3 1128.69 294.185   1
  -3   4   2 6711.13 610.172  44
   3  -4  -2 6148.54 574.396   1
  -3   4   2 5794.86 575.744  43
   3  -4  -1 259.228 120.028   1
  -3   4   1 177.704 149.943  43
   3  -4   0 187677. 3040.83  40
  -3   4   0 191444. 3142.90  43
   3  -4   0 193912. 2903.54   1
   3  -4   1 15422.4 813.902   1
   3  -4   1 14635.7 866.106  40
  -3   4  -1 15024.1 883.785  43
  -3   4  -2 1668.19 277.893  41
   3  -4   2 1434.77 300.261  40
  -3   4  -2 1329.33 279.570  42
  -3   4  -3 15622.4 858.458  41
  -3   4  -3 15034.5 908.932  42
   3  -4   3 16345.5 955.751  40
   3  -4   4 8925.69 738.189  40
  -3   4  -4 10088.5 739.232  41
  -3   4  -4 10278.7 797.256  42
   3  -4   5 10975.4 593.907   5
   3  -4   5 11411.5 609.939  10
   3  -4   5 10488.7 598.527   6
  -3   4  -5 11526.6 880.256  42
   3  -4   5 10947.4 870.479  40
   3  -4   6 4828.49 430.494   6
   3  -4   6 5254.87 428.677   5
   3  -4   6 5428.76 435.883  10
   3  -4   6 5438.23 414.751  27
   3  -4   6 4709.98 600.975  40
  -3   4  -6 4734.64 596.017  42
   3  -4   7 20148.0 822.236  27
   3  -4   7 20713.6 864.229   6
  -3   4  -7 22600.1 832.002  20
   3  -4   8 17252.0 766.682   6
   3  -4   8 16786.9 766.059  27
  -3   4  -8 17855.3 716.444  20
   3  -4   9 17255.4 753.831  27
  -3   4  -9 16279.1 691.425  21
   3  -4   9 15328.3 657.435   6
   3  -4  10 12573.6 576.192  27
  -3   4 -10 12660.4 533.937  21
  -3   4 -10 11836.7 551.085  25
  -3   4 -11 5232.92 256.064  21
   3  -4  11 5729.63 328.538  27
  -3   4 -11 5619.11 303.339  25
  -3   4 -11 5915.47 321.315  28
   3  -3 -10 124.536 71.8717  21
   3  -3 -10 269.032 75.6635   5
  -3   3  10 381.279 91.3649  19
  -3   3  10 137.071 62.6359  18
  -3   3  10 245.882 76.0832  17
   3  -3  -9 27843.8 838.768  21
  -3   3   9 26918.5 847.934  37
  -3   3   9 27242.5 862.737  18
  -3   3   9 25665.5 708.953  15
  -3   3   9 25965.2 809.167  19
  -3   3   8 7632.96 520.056  18
   3  -3  -8 7801.93 515.008  21
  -3   3   8 6753.06 472.360  19
  -3   3   8 7467.20 506.545  37
  -3   3   8 6873.58 428.325  15
   3  -3  -7 32947.2 1093.75  21
  -3   3   7 34284.1 1090.44  19
  -3   3   7 34067.1 1118.63  37
   3  -3  -6-395.107 216.897   1
  -3   3   6-650.675 249.776  44
  -3   3   6 155.182 91.1077  19
  -3   3   6 64.9537 105.230  37
   3  -3  -6-58.3174 101.430  21
  -3   3   5 399.912 158.710  46
   3  -3  -5 162.896 111.546  21
   3  -3  -5-401.024 205.253   1
  -3   3   5 340.825 191.737  44
  -3   3   5-223.693 108.129  19
   3  -3  -4 17545.2 718.327  21
  -3   3   4 16837.1 999.479  43
  -3   3   4 15551.3 984.109  44
   3  -3  -4 15874.5 985.463   1
   3  -3  -3 6027.33 570.889   1
  -3   3   3 5914.23 492.981  50
  -3   3   3 6253.54 583.646  43
  -3   3   3 6642.53 602.709  44
   3  -3  -2 31782.9 1208.64   1
  -3   3   2 32432.2 1090.56  50
  -3   3   2 29837.4 1191.23  43
  -3   3   1 7236.93 567.712  43
   3  -3  -1 7671.53 565.738   1
  -3   3   0 15070.5 806.412  43
   3  -3   0 14387.1 745.455  40
   3  -3   0 12867.3 709.966   1
  -3   3  -1 17197.9 860.087  43
  -3   3  -1 14523.0 707.063  41
   3  -3   1 15088.2 756.072   1
   3  -3   1 17386.1 831.888  40
   3  -3   2 3515.82 376.768   1
  -3   3  -2 3152.43 356.346  41
  -3   3  -2 3243.22 368.467  42
   3  -3   2 3259.35 384.117  40
   3  -3   3 193503. 2977.64  40
  -3   3  -3 189408. 2817.95  41
  -3   3  -3 191391. 2214.40  52
  -3   3  -4 36541.6 1361.59  42
  -3   3  -4 35099.1 1111.86  52
   3  -3   4 33779.2 1322.68  40
  -3   3  -5 25088.7 1200.10  42
  -3   3  -5 24885.8 1059.24  52
   3  -3   5 22134.7 1140.29  40
   3  -3   6 33809.7 1004.06   5
   3  -3   6 36971.1 1072.34  10
   3  -3   6 35518.8 1017.52  27
  -3   3  -6 38064.3 1555.13  42
   3  -3   6 36621.0 1561.16  40
  -3   3  -6 35950.4 1410.72  52
   3  -3   7 32399.4 1043.53   6
  -3   3  -7 29631.1 1402.09  52
  -3   3  -7 30553.7 1000.40  20
   3  -3   7 33120.0 1041.32  27
   3  -3   7 32960.5 1561.66  40
   3  -3   8 3154.79 343.620  27
   3  -3   8 2759.58 317.584   6
  -3   3  -8 3172.12 332.837  20
   3  -3   9 3638.78 375.854  27
  -3   3  -9 3414.73 352.626  21
  -3   3  -9 3074.86 315.152  20
   3  -3   9 3273.97 319.214   6
   3  -3  10 7363.57 488.129  27
  -3   3 -10 7063.42 448.462  21
  -3   3 -10 6965.28 468.133  25
   3  -3  11 4801.68 340.323  27
  -3   3 -11 4699.50 301.376  21
  -3   3 -11 4643.42 320.889  25
  -3   3 -11 4446.57 311.863  28
  -3   2  10 15762.6 578.111  19
   3  -2 -10 15425.9 544.882  21
  -3   2  10 15356.3 538.900  18
  -3   2  10 15213.9 518.872  15
  -3   2   9 3538.95 339.840  18
   3  -2  -9 3266.73 315.199  21
  -3   2   9 3170.78 294.019  15
  -3   2   9 3663.86 344.670  37
  -3   2   9 3861.55 352.100  19
  -3   2   8 5879.99 461.383  18
  -3   2   8 5127.95 439.165  19
  -3   2   8 5740.24 465.235  37
   3  -2  -8 5126.53 425.503  21
  -3   2   8 5126.30 408.246  15
  -3   2   7 173216. 2494.87  19
   3  -2  -7 174695. 2481.15  21
  -3   2   7 170992. 2534.83  37
  -3   2   7 172121. 2383.00  15
   3  -2  -6 11204.3 909.053   1
  -3   2   6 10667.6 606.632  19
  -3   2   6 11178.6 594.085  15
  -3   2   6 11287.3 629.035  37
   3  -2  -6 12201.2 644.546  21
  -3   2   6 11203.5 912.550  44
  -3   2   5 89763.4 2428.96  44
  -3   2   5 90118.2 2109.53  46
   3  -2  -5 87837.3 1616.36  21
  -3   2   5 89305.3 1634.58  37
   3  -2  -5 88841.3 2395.79   1
  -3   2   4 9649.66 668.119  50
   3  -2  -4 9469.17 732.043   1
  -3   2   4 8372.46 689.716  44
  -3   2   4 8970.32 698.463  43
  -3   2   3 142530. 2395.91  50
   3  -2  -3 137935. 2549.45   1
  -3   2   3 140472. 2525.23  43
   3  -2  -2 15212.2 788.936   1
  -3   2   2 14712.0 767.991  43
  -3   2   2 15140.1 576.560  51
   3  -2  -1 22069.7 893.829   1
  -3   2   1 21195.0 876.380  43
   3  -2  -1 21204.1 762.803  40
   3  -2   0 28307.2 967.074   1
  -3   2   0 29152.3 992.708  43
   3  -2   0 28539.1 898.153  40
  -3   2  -1 105752. 1862.79  43
   3  -2   1 104577. 1824.99   1
  -3   2  -1 103738. 1763.44  41
   3  -2   1 106132. 1783.29  40
  -3   2  -2 39537.7 1137.89  41
   3  -2   2 39178.6 1134.72   1
  -3   2  -2 38499.6 862.393  52
   3  -2   2 37477.5 1107.40  40
  -3   2  -3 46612.3 1111.08  52
  -3   2  -3 46517.5 1325.19  42
   3  -2   3 45745.1 1316.95  40
  -3   2  -4 81479.7 1868.04  42
   3  -2   4 77374.4 1851.63  40
  -3   2  -4 79965.1 1666.64  52
  -3   2  -5 103563. 2234.71  42
  -3   2  -5 108102. 2191.44  52
   3  -2   5 106116. 2341.32  40
  -3   2  -6-135.448 108.008  52
  -3   2  -6 161.468 82.3879  42
   3  -2   6 68.8957 121.675  40
   3  -2   7 10889.2 876.607  40
   3  -2   7 11460.5 608.217  27
  -3   2  -7 10813.1 563.936  24
   3  -2   7 11329.1 594.086  10
  -3   2  -7 11220.5 861.623  52
  -3   2  -7 10957.3 605.970  20
   3  -2   8 3074.17 317.820   6
   3  -2   8 2916.50 334.692  27
  -3   2  -8 2836.45 323.899  20
   3  -2   8 3458.35 527.082  40
  -3   2  -8 2552.54 456.522  52
  -3   2  -8 2488.51 314.139  21
   3  -2   9 30067.0 1040.80  27
  -3   2  -9 28930.2 994.668  20
  -3   2  -9 28036.0 1013.03  21
   3  -2  10-11.9029 124.785  27
  -3   2 -10 136.710 94.6803  20
  -3   2 -10 287.778 123.685  21
  -3   2 -10 78.7589 115.029  25
  -3   2 -11 1352.28 187.873  21
   3  -2  11 1276.34 200.943  27
  -3   2 -11 1174.75 186.302  25
  -3   2 -11 1386.21 182.050  29
  -3   2 -11 1359.86 189.719  28
   3  -2  12 3519.69 242.109  27
  -3   2 -12 3432.34 213.139  21
  -3   2 -12 3250.93 207.106  28
  -3   1  11 580.080 91.9591  15
  -3   1  11 577.018 96.9930  19
  -3   1  10 10455.5 433.916  17
  -3   1  10 11245.9 480.654  18
   3  -1 -10 11262.0 486.373  21
  -3   1  10 12349.6 553.901  19
  -3   1  10 11288.0 510.233  15
   3  -1  -9 8818.04 512.960  21
  -3   1   9 9875.56 573.333  19
  -3   1   9 9230.15 528.459  18
  -3   1   9 9507.15 547.900  15
  -3   1   8 7068.04 518.465  37
  -3   1   8 7133.95 532.350  19
   3  -1  -8 7204.47 503.831  21
  -3   1   8 7038.49 507.992  18
  -3   1   8 6519.14 484.291  15
   3  -1  -7 10453.5 599.130  21
  -3   1   7 10142.1 886.441  44
   3  -1  -7 10782.1 924.614   1
   3  -1  -7 11611.6 578.726  31
  -3   1   7 9821.57 609.733  19
  -3   1   7 11444.2 647.635  37
  -3   1   7 10595.2 618.232  18
  -3   1   7 10288.8 894.514  49
  -3   1   7 10798.5 616.726  15
   3  -1  -6 46841.2 1203.91  21
  -3   1   6 46630.6 1209.43  15
  -3   1   6 45429.3 1766.41  44
   3  -1  -6 47601.1 1144.50  31
   3  -1  -6 48140.2 1824.52   1
  -3   1   6 46206.6 1242.43  19
  -3   1   6 47476.4 1836.66  49
  -3   1   6 46257.6 1229.65  37
   3  -1  -5 10847.2 812.428   1
  -3   1   5 11014.3 801.380  44
   3  -1  -4 574763. 5366.74   1
  -3   1   4 581182. 5184.65  50
  -3   1   3 536.304 176.311  43
  -3   1   3 854.176 212.671  50
  -3   1   2 975.272 153.227  51
   3  -1  -2 791.322 199.444   1
  -3   1   2 920.719 201.801  43
   3  -1  -1 98324.6 1734.76   1
  -3   1   1 98569.7 1699.46  43
   3  -1  -1 97733.0 1328.44  40
  -3   1   0 200072. 2293.50  43
   3  -1   0 205786. 2002.45  40
   3  -1   1 32.8941 92.2340   1
  -3   1  -1-5.53456 70.8358  41
   3  -1   1 103.219 74.9022  40
   3  -1   2 749213. 4630.70   1
  -3   1  -2 729254. 3823.72  52
  -3   1  -2 715004. 4548.74  41
   3  -1   2 735001. 4347.13  40
   3  -1   3 48647.9 1216.06  54
  -3   1  -3 47981.7 1121.95  52
   3  -1   4 14758.9 703.774  54
  -3   1  -4 15496.5 724.101  52
  -3   1  -4 16861.0 780.273  42
   3  -1   5 5093.69 444.272  54
  -3   1  -5 4920.97 470.508  52
  -3   1  -5 5541.95 476.384  42
   3  -1   6 9578.51 632.351  54
  -3   1  -6 9355.26 710.974  52
   3  -1   7 13201.2 633.462  27
  -3   1  -7 12627.2 636.781  20
  -3   1  -7 11842.3 601.986  24
  -3   1  -7 13018.0 909.683  52
   3  -1   8 21133.7 854.206  27
  -3   1  -8 18936.7 822.979  21
  -3   1  -8 19916.2 838.062  20
  -3   1  -8 18923.2 1190.64  52
   3  -1   8 20484.5 1230.41  40
   3  -1   9 46154.3 1290.30  27
  -3   1  -9 43035.8 1261.20  21
  -3   1  -9 44513.3 1275.09  20
  -3   1  -9 43045.5 1259.99  25
   3  -1  10 26188.1 951.822  27
  -3   1 -10 26136.3 955.054  25
  -3   1 -10 25968.0 935.227  20
  -3   1 -10 26503.2 946.304  21
  -3   1 -10 26522.7 912.655  28
   3  -1  11 4251.57 354.640  27
  -3   1 -11 4360.72 353.258  25
  -3   1 -11 4128.30 339.558  21
  -3   1 -11 3625.96 277.372  29
  -3   1 -11 4008.74 315.720  28
   3  -1  12 545.184 111.974  27
  -3   1 -12 608.850 108.489  21
  -3   1 -12 610.389 99.4193  28
  -3   0  11 70.4207 63.4720  19
  -3   0  11 127.255 65.1034  15
  -3   0  10 4617.09 360.230  19
   3   0 -10 3802.96 287.717  21
  -3   0  10 4206.56 342.677  15
   3   0  -9 16578.2 693.671  21
   3   0  -9 15648.9 623.805  31
  -3   0   9 17442.3 779.637  19
  -3   0   9 16164.5 682.689  18
  -3   0   9 16450.1 754.198  15
   3   0  -8 12564.2 642.159  21
  -3   0   8 12804.3 700.001  19
  -3   0   8 12337.9 680.834  37
  -3   0   8 12049.7 638.873  18
  -3   0   8 12667.1 683.790  15
   3   0  -8 12447.2 617.634  31
  -3   0   7 186572. 2497.62  18
   3   0  -7 194942. 3786.66   1
   3   0  -7 184594. 2427.42  21
  -3   0   7 182994. 2566.82  19
  -3   0   7 188438. 3616.36  44
  -3   0   7 187886. 2563.17  15
  -3   0   7 190740. 2588.73  37
  -3   0   7 191720. 3828.03  49
   3   0  -7 186685. 2422.02  31
   3   0  -7 188568. 2520.08  29
   3   0  -6 7466.51 472.583  21
  -3   0   6 7425.53 496.643  19
  -3   0   6 7469.00 683.284  44
  -3   0   6 7946.43 503.491  37
  -3   0   6 8162.92 501.451  18
   3   0  -6 7184.17 688.300   1
  -3   0   6 7737.73 728.519  49
  -3   0   6 7697.28 498.115  15
   3   0  -6 7446.71 466.860  31
   3   0  -6 8337.07 507.916  29
  -3   0   5 51196.5 1620.44  44
   3   0  -5 47668.2 1615.82   1
   3   0  -4 165616. 2444.85  48
  -3   0   4 164557. 2655.99  44
  -3   0   4 162834. 2715.52  50
   3   0  -4 158782. 2651.01   1
   3   0  -3 135118. 2223.66   1
   3   0  -3 138269. 1928.02  48
  -3   0   3 137893. 2250.46  50
   3   0  -2 924.809 187.012   1
   3   0  -2 874.192 137.714  48
  -3   0   2 709.744 169.316  43
  -3   0   2 918.931 152.724  51
   3   0  -1 48565.4 1127.03   1
  -3   0   1 47310.0 1001.87  51
  -3   0   1 49934.3 1098.34  43
  -3   0   0 1090.11 162.988  43
   3   0   0 981.491 117.387  40
   3   0   0 682.223 142.948   1
   3   0   0 961.490 67.0674  48
  -3   0  -1 30803.7 752.043  43
  -3   0  -1 30325.9 826.339  41
   3   0   1 30288.2 623.947  47
   3   0   1 29737.8 827.648   1
   3   0   1 30047.3 699.258  40
   3   0   1 29297.2 804.771  54
   3   0   2 90572.3 1476.61  54
   3   0   2 93123.9 1006.03  47
  -3   0  -2 89847.2 1359.97  52
  -3   0  -2 94379.0 1505.15  41
   3   0   3 176031. 1420.37  47
   3   0   3 172158. 2165.34  54
   3   0   4 65647.7 1519.28  53
  -3   0  -4 66508.9 1472.53  52
   3   0   4 63349.3 1413.21  54
   3   0   5 30088.1 1045.99  54
  -3   0  -5 27819.4 1079.84  52
   3   0   5 29074.7 1113.08  53
   3   0   6 93723.7 1983.77  54
   3   0   6 93977.4 2198.34  53
  -3   0  -6 90204.4 2139.19  52
   3   0   7 1205.61 204.235  27
  -3   0  -7 1413.83 211.667  20
  -3   0  -7 1238.58 293.781  52
   3   0   7 1357.49 268.076  54
   3   0   7 1475.00 312.943  53
   3   0   8 10612.8 586.780  14
   3   0   8 10260.5 589.607  27
   3   0   8 9283.63 815.822  53
  -3   0  -8 10403.4 609.591  20
  -3   0  -8 10750.2 879.894  52
   3   0   8 10966.5 571.056  15
  -3   0  -8 10310.2 597.837  21
   3   0   9 342.776 141.009  27
  -3   0  -9 589.357 186.691  20
  -3   0  -9 464.340 161.687  25
  -3   0  -9 858.868 202.948  21
   3   0   9 600.587 154.462  15
   3   0  10 1697.94 262.078  27
  -3   0 -10 1873.18 274.691  25
   3   0  10 1622.48 228.108  15
  -3   0 -10 2257.43 313.539  21
  -3   0 -10 2589.80 285.004  28
   3   0  11 10773.4 548.170  27
  -3   0 -11 10530.6 550.183  21
  -3   0 -11 10589.2 548.202  25
   3   0  11 9609.93 458.142  15
  -3   0 -11 10523.8 493.606  28
   3   0  12 9259.24 404.642  27
  -3   0 -12 9082.10 411.328  21
  -3  -1  11 371.223 96.7102  19
  -3  -1  11 492.119 106.819  15
   3   1 -10 2635.42 231.713  21
  -3  -1  10 2715.91 283.948  19
  -3  -1  10 2641.79 289.153  15
   3   1 -10 2469.76 226.574  31
  -3  -1   9 20.8555 89.8210  18
  -3  -1   9-22.8953 125.221  19
   3   1  -9 238.080 101.259  21
   3   1  -9 16.5882 104.102  31
  -3  -1   9 33.5758 113.430  15
   3   1  -8 225.534 125.546  31
  -3  -1   8 541.738 143.260  18
   3   1  -8 315.116 127.797  21
  -3  -1   8 408.429 183.110  19
   3   1  -8 257.355 152.982  29
  -3  -1   8 513.224 177.619  15
  -3  -1   7 16632.1 1128.96  49
   3   1  -7 17145.4 717.213  21
   3   1  -7 15828.8 751.639  29
  -3  -1   7 16618.0 780.470  19
  -3  -1   7 16964.7 769.982  37
  -3  -1   7 16053.9 713.749  18
   3   1  -7 14464.4 1005.17   1
   3   1  -7 17321.5 714.846  33
  -3  -1   7 16445.3 765.774  15
   3   1  -7 15791.7 718.396  31
   3   1  -6 76560.9 1529.75  29
  -3  -1   6 79226.6 2274.98  49
  -3  -1   6 76704.5 2050.75  44
  -3  -1   6 75637.5 1471.09  18
  -3  -1   6 76975.9 1568.64  19
  -3  -1   6 80456.5 1564.55  37
   3   1  -6 76023.4 2128.44   1
   3   1  -6 78425.1 1519.33  31
  -3  -1   6 76053.2 1537.73  15
   3   1  -6 76906.0 1519.49  28
   3   1  -5 3200.06 398.379   1
  -3  -1   5 3091.01 428.278  49
   3   1  -5 2686.54 372.701  48
  -3  -1   5 2806.42 361.036  44
  -3  -1   4 169429. 2500.78  44
   3   1  -4 169997. 2518.86  48
   3   1  -4 165659. 2578.55   1
   3   1  -3 7798.28 474.246  48
   3   1  -3 7307.14 491.152   1
  -3  -1   3 6336.05 479.344  50
   3   1  -2 22305.5 684.782  48
   3   1  -2 21687.0 752.528   1
  -3  -1   2 21790.4 805.246  50
   3   1  -1 27204.3 762.523   1
  -3  -1   1 27570.5 748.615  43
   3   1  -1 26974.0 631.844  48
  -3  -1   1 26253.7 761.797  51
   3   1   0 27642.4 689.137  54
   3   1   0 27371.5 711.025  47
   3   1   0 26559.2 535.009  48
  -3  -1   0 27510.3 655.415  43
   3   1   0 26996.1 445.386  40
  -3  -1   0 25999.7 739.336  51
   3   1   0 26187.3 709.236   1
   3   1   1 15538.2 552.141  54
  -3  -1  -1 15399.6 446.249  43
   3   1   1 16145.2 514.823  47
  -3  -1  -1 15993.2 553.395  41
   3   1   1 15735.1 553.588   1
  -3  -1  -2 675.947 100.752  43
  -3  -1  -2 511.396 118.687  41
   3   1   2 864.832 127.379  47
   3   1   3 7030.93 457.965  53
  -3  -1  -3 7208.13 436.818  52
   3   1   4 187202. 2582.48  53
  -3  -1  -4 187901. 2471.19  52
   3   1   5 4078.77 433.943  53
  -3  -1  -5 4860.70 457.517  52
  -3  -1  -6 70621.0 1876.18  52
   3   1   6 71124.8 1918.67  53
   3   1   7 71991.0 1888.32  54
  -3  -1  -7 67717.6 2006.68  52
   3   1   7 69675.7 2079.64  53
   3   1   8 40.9457 86.4176  14
   3   1   8 193.836 103.144  27
  -3  -1  -8 147.465 109.999  20
  -3  -1  -8 267.352 118.581  21
  -3  -1  -8 97.8259 115.164  25
   3   1   8 51.2065 176.235  53
  -3  -1  -8-97.1563 181.432  52
   3   1   8-4.50318 69.3354  15
   3   1   9 17933.1 795.460  14
  -3  -1  -9 17964.3 804.675  21
  -3  -1  -9 17882.9 784.753  25
   3   1   9 16945.6 774.544  27
  -3  -1  -9 16223.9 782.719  20
   3   1   9 16277.3 737.266  15
  -3  -1  -9 16697.3 702.989  28
   3   1  10 21830.0 859.742  27
  -3  -1 -10 22696.8 870.793  25
  -3  -1 -10 23417.1 899.640  21
   3   1  10 23198.3 861.105  15
  -3  -1 -10 22960.1 790.791  28
   3   1  11 56.9053 82.4249  27
  -3  -1 -11-17.3803 92.6249  21
   3   1  11 32.3002 67.5692  15
  -3  -1 -11-23.8764 81.8448  28
   3   1  12 822.013 123.032  27
  -3  -1 -12 918.783 139.402  21
   3   1  12 912.213 123.224  15
  -3  -2  11 2099.50 190.505  19
  -3  -2  11 2161.16 196.866  15
   3   2 -10 1924.36 217.245  31
  -3  -2  10 1995.08 242.122  19
  -3  -2  10 1637.95 230.231  15
  -3  -2   9 57911.3 1404.39  19
   3   2  -9 55307.1 1375.32  29
   3   2  -9 53828.0 1295.17  31
   3   2  -9 53200.7 1169.30  33
  -3  -2   8 3511.53 372.787  19
  -3  -2   8 3658.99 389.006  15
   3   2  -8 3965.18 364.668  33
   3   2  -8 3256.92 351.837  31
   3   2  -8 3110.31 357.644  29
   3   2  -7 72.2061 160.824  48
   3   2  -7-157.066 203.231   1
  -3  -2   7 276.681 115.409  18
  -3  -2   7 187.807 122.079  15
  -3  -2   7 247.519 144.188  19
   3   2  -7 305.162 151.624  31
   3   2  -7 232.547 115.519  29
   3   2  -7 342.883 132.559  28
  -3  -2   6 62633.4 2028.88  49
   3   2  -6 59934.4 1812.28   1
  -3  -2   6 61981.3 1852.75   3
  -3  -2   6 58720.6 1355.56  15
  -3  -2   6 61530.3 1389.20  19
   3   2  -6 58313.9 1896.46  48
   3   2  -6 59695.1 1350.24  29
   3   2  -6 58567.1 1318.20  28
   3   2  -5 6699.09 592.241  48
  -3  -2   5 6521.25 509.315  44
   3   2  -5 6297.18 539.793   1
  -3  -2   5 6579.36 605.343  49
   3   2  -4 1721.43 259.276   1
   3   2  -4 1693.47 271.051  48
  -3  -2   4 1845.74 249.305  44
  -3  -2   4 2197.22 320.680  49
  -3  -2   3 24900.1 944.061  50
  -3  -2   3 24372.7 780.880  44
  -3  -2   3 23561.4 902.397  49
   3   2  -3 26294.2 858.803   1
   3   2  -3 23380.7 863.793  48
  -3  -2   2 161909. 2149.49  50
   3   2  -2 165072. 1889.67   1
   3   2  -2 163257. 2013.76  48
   3   2  -1 56166.4 976.025   1
  -3  -2   1 55833.1 1164.09  51
   3   2  -1 56041.3 1178.22  47
   3   2  -1 55312.9 1046.61  48
  -3  -2   0 341044. 2754.52  51
   3   2   0 337889. 2280.41  54
   3   2   0 337168. 2259.79   1
   3   2   1 213701. 1840.70   1
  -3  -2  -1 215694. 1278.37  43
  -3  -2  -1 216959. 2119.14  51
  -3  -2  -2 35761.0 780.961  41
  -3  -2  -2 33137.0 361.700  43
   3   2   2 33470.3 884.171  53
  -3  -2  -2 35232.1 853.614  51
  -3  -2  -3 104359. 755.131  43
   3   2   3 103316. 1730.84  53
  -3  -2  -4 43871.7 1191.54  52
   3   2   4 44458.6 1264.18  53
   3   2   5 7764.21 598.761  53
  -3  -2  -5 8409.86 586.038  52
  -3  -2  -6 14601.0 787.227   2
   3   2   6 14682.4 893.878  53
  -3  -2  -6 14060.3 836.595  52
   3   2   7 5076.68 389.793  14
   3   2   7 5288.29 600.408  53
  -3  -2  -7 5015.77 536.502  52
   3   2   7 5762.00 414.920  35
  -3  -2  -7 5099.60 391.089  20
   3   2   8 393.301 145.480  14
   3   2   8 494.198 148.203  27
  -3  -2  -8 257.862 150.231  52
  -3  -2  -8 518.333 159.906  21
  -3  -2  -8 298.104 131.709  20
  -3  -2  -8 422.141 135.175  25
   3   2   8 416.239 173.144  53
   3   2   8 455.307 134.693  15
   3   2   9 17137.7 780.947  14
   3   2   9 15952.5 742.229  27
   3   2   9 16827.2 771.227  15
  -3  -2  -9 15785.1 713.609  25
   3   2   9 14976.6 694.332  19
  -3  -2  -9 15518.0 742.725  21
  -3  -2 -10 10308.6 588.818  21
  -3  -2 -10 10614.2 572.750  25
   3   2  10 10163.9 546.117  19
   3   2  10 9987.44 560.314  27
   3   2  10 10680.6 602.108  15
   3   2  11 4959.91 344.943  27
  -3  -2 -11 5378.75 388.901  21
   3   2  11 4605.74 311.042  19
   3   2  11 4766.10 363.942  15
  -3  -2 -12 15961.1 527.115  21
   3   2  12 14329.6 477.032  15
   3   3 -11 2913.73 186.401  31
  -3  -3  11 2748.01 195.898  19
  -3  -3  10 117.383 97.9864  19
   3   3 -10 13.4459 96.8759  31
  -3  -3  10-26.8426 104.381  15
   3   3  -9 11676.2 577.572  33
  -3  -3   9 13326.9 653.118  19
  -3  -3   9 13840.6 682.970  15
   3   3  -9 12348.8 646.928  31
   3   3  -9 12669.1 657.324  29
  -3  -3   8 18134.8 811.648  19
  -3  -3   8 19073.9 839.138  15
   3   3  -8 17563.1 802.537  31
   3   3  -8 17789.5 811.599  29
   3   3  -8 17511.8 785.458  28
  -3  -3   7 29330.9 996.204  27
  -3  -3   7 29918.4 1037.27  15
  -3  -3   7 30402.7 1033.21  19
   3   3  -7 30746.7 1537.38  48
   3   3  -7 28543.8 1010.13  29
   3   3  -7 29899.3 1001.66  28
  -3  -3   6 387.240 133.464  27
   3   3  -6 378.717 129.588  28
   3   3  -6 378.397 213.141  48
  -3  -3   6 175.174 99.2472  19
  -3  -3   6 478.886 187.284   3
  -3  -3   6 581.316 156.749  15
   3   3  -6 387.993 132.105  29
  -3  -3   5 252988. 3750.99  49
  -3  -3   5 245964. 3683.80   3
   3   3  -5 242037. 3649.37  48
   3   3  -5 255528. 3209.70   1
   3   3  -4 31821.9 1201.26  48
   3   3  -4 34049.3 1030.56   1
  -3  -3   4 30822.9 1174.23  49
  -3  -3   3 254649. 2976.87  49
  -3  -3   3 254057. 2185.79  44
   3   3  -3 259189. 3094.61  48
   3   3  -3 260311. 2459.32   1
   3   3  -2 230331. 2660.02  48
  -3  -3   2 229556. 2527.48  50
  -3  -3   2 228563. 2467.13  49
   3   3  -2 226669. 2700.40  47
  -3  -3   2 234597. 1715.75   2
   3   3  -1 24566.6 516.709  54
   3   3  -1 24401.1 832.504  47
  -3  -3   1 24562.7 726.326  50
  -3  -3   1 24565.2 683.653  49
   3   3  -1 24769.7 801.863  48
   3   3  -1 25526.8 560.729   1
   3   3   0 144091. 1233.50   1
  -3  -3   0 142470. 1320.44  49
  -3  -3  -1 484.002 124.048  51
   3   3   1 444.670 134.240  47
   3   3   2 21943.7 743.394  46
  -3  -3  -2 22867.7 601.557   3
  -3  -3  -2 22077.3 690.253  51
  -3  -3  -2 22950.6 557.000  41
   3   3   2 22897.6 735.503  53
  -3  -3  -3 181873. 1942.72  51
   3   3   3 184220. 2319.11  53
  -3  -3  -3 186760. 1721.69  41
  -3  -3  -4 2898.98 245.571  51
   3   3   4 2907.91 347.165  53
   3   3   4 2599.69 327.317  46
   3   3   5 40324.5 1367.15  53
   3   3   5 41710.3 1336.65  46
  -3  -3  -5 38357.2 1257.92   2
  -3  -3  -5 40465.9 1278.40  52
  -3  -3  -6 241.747 83.8975   2
  -3  -3  -6 637.948 196.632  52
   3   3   6 359.616 172.058  53
  -3  -3  -7 16581.1 982.936  52
  -3  -3  -7 17308.1 701.286  21
  -3  -3  -7 15306.4 672.692  26
  -3  -3  -7 17772.4 734.404  20
   3   3   7 17364.6 713.487  27
   3   3   7 16444.1 1062.52  53
   3   3   7 17280.7 722.668  35
   3   3   7 17812.9 740.948  14
   3   3   8 4906.29 421.276  14
   3   3   8 4595.34 391.848  27
   3   3   8 5032.35 639.489  53
  -3  -3  -8 4573.94 388.700  21
  -3  -3  -8 5258.79 392.838  25
  -3  -3  -8 4659.94 558.328  52
   3   3   8 4791.45 408.127  35
  -3  -3  -8 4846.76 388.625  26
   3   3   9 15698.6 763.567  14
   3   3   9 15025.5 697.986  27
  -3  -3  -9 15301.3 721.829  21
   3   3   9 16773.1 782.532  15
   3   3  10 10713.7 620.089  14
   3   3  10 11431.9 571.029  27
   3   3  10 11028.8 579.937  19
  -3  -3 -10 11210.5 596.609  21
   3   3  10 11311.8 622.823  15
  -3  -3 -11 3726.35 307.933  21
   3   3  11 3600.16 288.450  19
   3   3  11 4174.30 339.780  15
  -3  -3 -12 1753.34 170.123  21
   3   3  12 1653.23 169.022  15
   3   4 -11 675.669 95.8764  31
   3   4 -10 108.978 84.9956  29
  -3  -4  10 266.762 101.578  19
   3   4 -10 188.308 78.5721  33
   3   4 -10 322.235 105.552  31
  -3  -4  10 265.957 104.132  15
   3   4  -9 1200.23 197.889  33
  -3  -4   9 1097.69 172.775  45
   3   4  -9 1146.58 211.640  31
  -3  -4   9 1065.54 188.951  19
  -3  -4   9 1553.47 244.285  15
   3   4  -9 1480.31 236.188  29
  -3  -4   8 2962.16 325.744  45
  -3  -4   8 3690.97 371.637  19
  -3  -4   8 3310.74 359.947  15
   3   4  -8 2927.77 341.238  29
   3   4  -8 2914.31 315.416  28
   3   4  -7 44.4770 110.471  48
  -3  -4   7 144.628 97.0990  19
  -3  -4   7 90.0081 110.113  15
   3   4  -7 54.7476 117.047  29
   3   4  -7 58.7230 95.8434  28
  -3  -4   6 18536.8 796.026  27
   3   4  -6 18064.8 1139.48  48
  -3  -4   6 18721.4 1103.64   3
  -3  -4   6 18786.8 785.372  19
  -3  -4   6 19175.6 800.634  15
   3   4  -6 18881.7 777.348  29
   3   4  -6 19024.9 749.708  28
  -3  -4   5 12949.2 877.522   3
   3   4  -5 13178.5 897.645  48
  -3  -4   4 5020.81 510.384   3
   3   4  -4 5369.45 536.247  48
  -3  -4   3 162137. 2682.34   3
   3   4  -3 163565. 2658.79  48
  -3  -4   2 61097.8 1544.37   3
   3   4  -2 58573.8 1443.81  47
   3   4  -2 62619.9 1532.94  48
   3   4  -1 19.6439 85.7351  48
  -3  -4   1 44.7684 86.2302   3
   3   4  -1-56.9991 104.430  47
  -3  -4   0 151865. 1499.70  50
  -3  -4   0 149339. 2097.41   3
   3   4   0 155934. 1680.47  46
  -3  -4   0 151835. 1983.44   2
   3   4   1 12855.7 641.520  47
  -3  -4  -1 14496.6 609.232   3
   3   4   1 14061.4 578.826  46
  -3  -4  -1 13939.1 368.973  50
  -3  -4  -2 9676.00 568.072   2
   3   4   2 9835.43 488.285  53
  -3  -4  -2 9064.47 447.173   3
   3   4   2 8891.63 515.967  46
  -3  -4  -3 28997.4 1047.19   2
   3   4   3 32037.3 993.180  53
   3   4   3 29657.3 1031.28  46
   3   4   4 18548.2 859.544  53
  -3  -4  -4 18312.8 881.636   2
   3   4   4 17774.5 872.122  46
   3   4   5 24140.4 1101.91  46
   3   4   5 23252.2 1077.28  53
  -3  -4  -5 25201.7 1098.64   2
   3   4   6 35782.3 1480.19  53
   3   4   6 36503.5 1443.22  46
  -3  -4  -6 35478.8 1366.19   2
   3   4   7 79.8902 137.540  53
   3   4   7 527.092 141.403  27
  -3  -4  -7 553.883 156.611  26
  -3  -4  -7 577.471 203.397   2
   3   4   7 307.208 118.680  35
  -3  -4  -7 222.558 78.4637  21
   3   4   8 54384.1 1401.11  14
   3   4   8 53392.5 1279.35  27
  -3  -4  -8 55563.5 1355.01  26
   3   4   8 59076.6 2197.77  53
  -3  -4  -8 54630.7 1296.81  21
   3   4   8 55941.0 1370.65  35
   3   4   9 150.299 98.0423  27
  -3  -4  -9 415.476 133.145  26
   3   4   9 702.777 187.743  14
  -3  -4  -9 296.405 117.159  21
   3   4   9 875.975 213.932  15
   3   4  10 10068.5 569.713  14
  -3  -4 -10 9918.83 524.134  21
   3   4  10 10023.5 557.683  19
   3   4  10 10659.6 590.144  15
   3   4  11 94.7462 79.1835  19
  -3  -4 -11 21.8478 73.5755  21
   3   4  11 199.153 97.8101  15
   3   4  12 2120.29 174.447  15
  -3  -4 -12 1982.84 159.826   4
   3   5 -10 37.4908 71.2161  31
  -3  -5  10 49.8713 52.3952  19
   3   5 -10-28.3551 55.0372  33
   3   5 -10 138.145 79.2848  29
  -3  -5   9 14987.6 629.001  45
  -3  -5   9 15020.3 616.066  19
   3   5  -9 16256.6 698.065  31
   3   5  -9 15449.7 660.492  29
  -3  -5   8 3641.76 352.959  19
  -3  -5   8 3703.79 373.242  45
  -3  -5   8 4239.02 384.679  15
   3   5  -8 3908.14 374.519  29
   3   5  -8 3722.80 339.655  28
  -3  -5   7 61744.2 1436.56  19
  -3  -5   7 61020.8 1505.00  45
  -3  -5   7 59586.3 1447.98  15
   3   5  -7 59162.0 1425.76  29
   3   5  -7 61479.6 1363.12  28
  -3  -5   6 4943.21 601.492   3
   3   5  -6 4316.12 599.840  48
  -3  -5   6 5294.65 448.993  45
  -3  -5   6 5020.53 422.573  15
  -3  -5   6 4779.43 404.705  19
   3   5  -6 4330.20 383.058  29
   3   5  -6 4840.01 373.824  28
  -3  -5   5 16342.2 1047.17   3
  -3  -5   5 15655.3 693.392  19
  -3  -5   5 16521.2 746.770  45
  -3  -5   5 15148.3 686.469  15
   3   5  -5 13771.8 969.547  48
   3   5  -4 1595.87 310.657  48
  -3  -5   4 1193.21 264.596   3
   3   5  -3 330.751 182.248  48
  -3  -5   3-12.4311 124.191   3
   3   5  -2 63064.6 1693.63  48
  -3  -5   2 65042.2 1728.54   3
   3   5  -2 61590.3 1586.51  47
  -3  -5   1 142092. 2423.41   3
  -3  -5   1 143047. 2041.35   2
   3   5  -1 137816. 2297.18  47
   3   5  -1 136716. 2373.65  48
  -3  -5   0 354568. 3642.94   3
   3   5   0 351878. 3636.66  47
  -3  -5   0 352312. 3393.72   2
  -3  -5  -1 61514.7 1430.49   3
   3   5   1 58290.9 1308.97  46
   3   5   1 59882.9 1521.52  47
  -3  -5  -1 59233.2 1468.63   2
   3   5   2 28745.3 842.923  53
  -3  -5  -2 28673.4 915.433   3
  -3  -5  -2 27422.9 1050.29   2
   3   5   2 27464.1 993.739  46
   3   5   3 47802.7 1259.14  53
   3   5   3 49677.5 1442.17  46
  -3  -5  -3 48007.1 1470.60   2
   3   5   4 32604.1 1273.59  46
   3   5   4 34205.3 1201.79  53
  -3  -5  -4 34257.1 1320.90   2
   3   5   5 12096.0 799.973  53
   3   5   5 11175.3 802.163  46
  -3  -5  -5 11772.1 827.418   2
  -3  -5  -6 60724.5 1481.28  45
  -3  -5  -6 61829.0 1413.11  26
   3   5   6 64947.6 2046.66  46
   3   5   6 61357.2 1977.44  53
  -3  -5  -6 62770.8 1965.87   2
   3   5   7 8528.77 802.544  53
  -3  -5  -7 7910.26 528.253  26
  -3  -5  -7 8147.28 473.396  21
  -3  -5  -7 7904.50 562.663  45
   3   5   7 8431.53 520.354  35
  -3  -5  -7 6894.78 677.556   2
   3   5   8-202.949 121.375  14
  -3  -5  -8-232.334 122.655  26
   3   5   8-355.863 130.617  35
  -3  -5  -8 47.4046 81.0962  21
   3   5   9-71.4268 101.100  14
  -3  -5  -9 132.920 72.5260  26
  -3  -5  -9-23.2072 67.3729  21
   3   5   9-0.85925 115.411  15
   3   5  10 6350.69 434.909  19
  -3  -5 -10 6286.96 384.406  21
   3   5  10 6547.05 433.085  14
   3   5  10 6222.47 388.692  37
   3   5  10 6692.07 457.745  15
  -3  -5 -11 1547.11 159.117  21
   3   5  11 1597.63 185.322  19
   3   5  11 1575.17 190.725  15
  -3  -5 -11 2032.52 206.610   4
  -3  -6  10 2535.21 179.428  45
   3   6 -10 3903.38 254.884  31
  -3  -6   9 4565.24 332.867  45
  -3  -6   9 3910.10 275.554  19
   3   6  -9 3765.87 319.389  31
   3   6  -9 4155.07 314.984  29
  -3  -6   8 939.308 210.125  45
  -3  -6   8 854.497 168.542  19
   3   6  -8 735.704 155.946  29
   3   6  -8 857.562 149.584  28
  -3  -6   7 611.890 196.756  45
  -3  -6   7 666.211 163.992  19
   3   6  -7 491.872 142.110  29
   3   6  -7 518.593 132.615  28
  -3  -6   6 40852.5 1259.76  45
  -3  -6   6 40634.5 1143.84  19
   3   6  -6 40303.0 1120.18  29
   3   6  -5 1552.68 349.957  48
  -3  -6   5 2328.34 428.633   3
  -3  -6   5 2028.14 297.911  45
  -3  -6   5 2397.49 286.258  19
  -3  -6   5 1925.39 258.595   6
  -3  -6   4 37787.9 1630.86   3
  -3  -6   4 37751.2 1134.39  45
   3   6  -4 34997.5 1530.56  48
  -3  -6   4 38154.1 1092.16   6
  -3  -6   4 35662.2 1023.26  19
   3   6  -3 61048.3 1708.60  47
  -3  -6   3 60703.0 1965.55   3
   3   6  -3 61050.5 1915.24  48
  -3  -6   2 41479.7 1535.85   3
   3   6  -2 40002.8 1351.28  47
   3   6  -2 39336.8 1463.00  48
  -3  -6   1 21375.2 1053.20   3
   3   6  -1 21752.3 990.137  47
  -3  -6   1 22450.8 923.559   2
   3   6  -1 21545.8 1042.21  48
  -3  -6   0 71194.1 1820.67   3
  -3  -6   0 69224.8 1702.40   2
   3   6   0 71143.6 1431.39  46
   3   6   0 68655.1 1762.80  47
  -3  -6  -1 1226.27 258.321   2
  -3  -6  -1 1349.22 256.220   3
   3   6   1 1120.93 248.860  47
   3   6   1 1103.16 216.416  46
  -3  -6  -2 160.657 142.351   2
   3   6   2 171.179 113.579  46
   3   6   3 60834.7 1755.19  46
  -3  -6  -3 58886.0 1812.55   2
   3   6   4 63111.7 1908.01  46
   3   6   4 64647.6 1705.60  53
  -3  -6  -4 59452.7 1914.79   2
  -3  -6  -5 360093. 3371.94  26
   3   6   5 350742. 4792.35  46
  -3  -6  -5 353843. 3496.91  45
  -3  -6  -5 357902. 4848.55   2
   3   6   5 361768. 4475.64  53
  -3  -6  -6 49523.5 1870.96   2
  -3  -6  -6 47172.5 1282.25  26
   3   6   6 51671.2 1927.77  46
   3   6   6 47935.4 1788.83  53
  -3  -6  -6 46905.7 1320.64  45
  -3  -6  -7 101106. 1889.65  26
  -3  -6  -7 98646.7 1932.39  45
   3   6   7 101295. 1772.48  35
   3   6   8 22949.8 887.886  14
  -3  -6  -8 22713.0 883.273  26
   3   6   8 22896.6 809.176  35
   3   6   9 25856.4 876.971  14
  -3  -6  -9 24525.5 736.775  21
   3   6   9 26068.5 924.293  15
  -3  -6  -9 27264.7 916.291   4
  -3  -6 -10 1028.71 164.675   4
  -3  -6 -10 1041.85 138.834  21
   3   6  10 742.645 138.817  37
   3   6  10 938.403 176.772  19
   3   6  10 1444.38 206.722  15
   3   6  10 1309.18 182.514  14
   3   6  11 798.936 121.099  19
  -3  -6 -11 894.439 122.507   4
   3   6  11 871.588 123.875  15
  -3  -7   9-35.5670 64.9501  45
   3   7  -9 41.0946 76.1954  33
   3   7  -9-17.5531 75.7904  31
   3   7  -9 44.0867 56.6442  29
  -3  -7   8 10050.6 544.806  45
   3   7  -8 10400.1 483.609  29
  -3  -7   7 7552.65 534.985  45
  -3  -7   7 5973.31 398.935  19
   3   7  -7 7309.77 443.472  29
  -3  -7   6 3096.24 370.260  45
  -3  -7   6 2712.89 291.813  19
  -3  -7   6 2573.59 301.960   6
   3   7  -6 3100.00 303.121  29
  -3  -7   5 4214.51 431.144  45
  -3  -7   5 5096.94 403.741  19
  -3  -7   5 4551.78 412.160   6
   3   7  -4 209723. 3929.22  48
  -3  -7   4 211556. 2795.50  45
  -3  -7   4 210400. 2516.91  19
  -3  -7   4 214513. 2737.10   6
  -3  -7   3 24310.3 1335.36   3
  -3  -7   3 25445.4 949.205  45
  -3  -7   3 23752.3 847.641  19
   3   7  -3 24016.2 1284.00  48
  -3  -7   3 24198.7 909.219   6
   3   7  -2 76260.6 2198.08  48
  -3  -7   2 75020.0 2271.07   3
  -3  -7   2 74518.0 1547.44   6
  -3  -7   2 79507.5 1633.54  45
   3   7  -2 79027.0 2000.98  47
   3   7  -1 721.495 242.480  48
  -3  -7   1 558.557 181.849   2
  -3  -7   1 471.393 167.490   3
   3   7  -1 723.590 205.154  47
  -3  -7   0 74197.1 1961.61   2
   3   7   0 83852.2 2101.15  47
   3   7   1 36700.4 1427.42  47
   3   7   1 36515.3 1254.64  46
  -3  -7  -1 36983.0 1439.40   2
  -3  -7  -2 3000.75 448.164   2
   3   7   2 2548.84 395.812  47
   3   7   2 2925.02 395.158  46
  -3  -7  -3 5777.25 412.523  26
   3   7   3 5694.25 580.330  46
  -3  -7  -3 5413.56 435.019  45
  -3  -7  -3 5317.18 603.058   2
  -3  -7  -3 4792.11 373.716   4
  -3  -7  -4 281.588 126.274  45
  -3  -7  -4 378.554 145.585   4
  -3  -7  -4 597.683 160.929  26
   3   7   4 270.692 142.796  46
  -3  -7  -5 13808.5 701.311  26
   3   7   5 13129.6 981.798  46
  -3  -7  -5 14555.7 732.504  45
  -3  -7  -5 15955.6 1105.22   2
  -3  -7  -5 15706.3 719.241   4
  -3  -7  -6 116285. 2061.72  26
   3   7   6 119963. 1896.58  35
  -3  -7  -6 119395. 2101.24  45
  -3  -7  -6 123447. 2049.83   4
   3   7   7 487.155 143.669  14
  -3  -7  -7 532.406 157.157   4
  -3  -7  -7 427.623 163.042  26
   3   7   8 179.708 94.7771  14
  -3  -7  -8 246.076 122.186   4
   3   7   9 10724.9 497.036  14
  -3  -7  -9 12045.0 558.628   4
   3   7   9 11900.7 565.595  15
   3   7  10 2782.81 239.156  19
   3   7  10 2563.68 210.473  37
  -3  -7 -10 2995.71 235.224   4
   3   7  10 2633.94 223.323  15
  -3  -8   9 7792.74 325.302  45
   3   8  -9 7844.82 306.410  31
  -3  -8   8 11619.6 526.376  45
   3   8  -8 11574.1 478.598  31
  -3  -8   7 17231.9 737.017  45
  -3  -8   7 16065.7 597.203   6
  -3  -8   6 3251.79 361.691  45
  -3  -8   6 3414.56 334.382   6
  -3  -8   5 11046.3 671.953  45
  -3  -8   5 12994.2 679.904   6
  -3  -8   4 30467.1 942.660  19
  -3  -8   4 30547.0 1105.03  45
  -3  -8   4 31446.9 1080.15   6
   3   8  -3 59904.7 2124.14  48
  -3  -8   3 65440.6 1585.85  45
  -3  -8   3 62762.7 1536.10   6
   3   8  -2 89202.6 2545.18  48
  -3  -8   2 90383.5 1829.48  45
  -3  -8   2 88327.2 1791.03   6
  -3  -8   1 691.664 162.704   4
  -3  -8   1 476.637 149.411   6
   3   8  -1 159.306 137.327  48
  -3  -8   1 493.637 152.430  45
   3   8   0 9433.44 757.212  47
  -3  -8   0 9734.83 595.338  45
  -3  -8   0 9003.03 558.646   6
   3   8   0 8832.95 793.370  48
  -3  -8   0 7717.74 705.878   2
  -3  -8   0 8579.10 499.433   4
  -3  -8  -1 5297.56 397.891   4
   3   8   1 4965.00 568.033  47
  -3  -8  -1 5328.56 448.350  45
  -3  -8  -1 4377.69 546.410   2
  -3  -8  -1 5979.75 452.466   6
  -3  -8  -2 50850.9 1908.39   2
   3   8   2 50010.9 1708.88  46
   3   8   2 50581.9 1855.34  47
  -3  -8  -2 50397.4 1345.53  45
  -3  -8  -2 48755.8 1221.81   4
  -3  -8  -3 45008.8 1216.11  26
   3   8   3 48533.5 1789.78  46
   3   8   3 50980.4 1926.38  47
  -3  -8  -3 49159.1 1335.16  45
  -3  -8  -3 52523.5 1995.06   2
  -3  -8  -3 49648.2 1254.65   4
  -3  -8  -4 270.204 107.119  45
  -3  -8  -4 623.090 175.651   4
  -3  -8  -4 400.540 154.637  26
   3   8   4 586.620 246.138  46
  -3  -8  -5 57709.1 1441.29  45
  -3  -8  -5 55356.8 1370.27   4
  -3  -8  -6 1667.62 254.065  45
  -3  -8  -6 2763.57 321.093   4
   3   8   7 63424.1 1292.54  14
  -3  -8  -7 68258.4 1437.91   4
  -3  -8  -8 578.881 151.569   4
   3   8   8 528.260 115.834  14
   3   8   8 336.412 102.735  15
  -3  -8  -9 2709.48 234.012   4
   3   8   9 2394.18 215.992  15
  -3  -9   8 10.7608 57.4945  45
  -3  -9   7 395.325 124.495  45
   3   9  -7 440.544 90.8222  31
  -3  -9   6 4719.79 390.989  45
  -3  -9   6 4891.46 361.333   6
  -3  -9   5 19674.5 843.227  45
  -3  -9   5 18703.1 773.918   6
  -3  -9   4 46032.1 1285.21   6
  -3  -9   4 45859.6 1314.67  45
  -3  -9   3 13346.2 731.507  45
  -3  -9   3 14131.5 740.834   6
  -3  -9   2 121193. 1876.79   4
  -3  -9   2 122653. 2170.03  45
  -3  -9   2 123456. 2164.63   6
  -3  -9   1 988.256 180.203   4
  -3  -9   1 1580.97 255.564   6
  -3  -9   1 1121.67 232.703  45
  -3  -9   0 29447.1 963.850   4
  -3  -9   0 29110.7 1045.28  45
  -3  -9   0 29223.1 1030.17   6
  -3  -9  -1 1237.21 218.094   4
  -3  -9  -1 1131.14 208.925   6
  -3  -9  -1 1055.57 220.442  45
  -3  -9  -2 5886.57 468.987  45
  -3  -9  -2 5739.43 439.998   4
  -3  -9  -3 328.330 134.709   4
  -3  -9  -3 270.169 129.131  45
  -3  -9  -4 94063.3 1774.55  45
  -3  -9  -4 94109.8 1753.12   4
  -3  -9  -5 4164.49 363.286  45
  -3  -9  -5 4331.73 382.219   4
  -3  -9  -6 72009.7 1442.25   4
  -3  -9  -7 33044.0 900.309   4
   3   9   7 32041.8 815.202  15
  -3  -9  -8 47042.8 926.885   4
   3   9   8 41149.5 773.298  15
  -3 -10   7 5032.61 275.423  45
  -3 -10   6 4081.52 302.623  45
  -3 -10   6 3934.76 275.834   6
  -3 -10   5 633.767 143.236   6
  -3 -10   5 681.384 158.699  45
  -3 -10   4 8033.57 510.778  45
  -3 -10   4 8304.83 508.371   6
  -3 -10   3 1128.63 225.205   6
  -3 -10   3 1300.97 230.512  45
  -3 -10   2 11563.0 639.752  45
  -3 -10   2 11019.5 627.607   6
  -3 -10   1 26145.8 953.428  45
  -3 -10   1 24734.3 840.329   4
  -3 -10   1 26169.2 960.139   6
  -3 -10   0 21215.7 854.155   6
  -3 -10   0 23818.2 843.402   4
  -3 -10   0 22586.0 878.647  45
  -3 -10  -1 59799.3 1343.29   4
  -3 -10  -1 59722.2 1403.87  45
  -3 -10  -2 1623.33 241.755   4
  -3 -10  -2 1358.13 222.067  45
  -3 -10  -3 8275.36 492.374  45
  -3 -10  -3 9677.01 542.210   4
  -3 -10  -4 1666.96 230.707   4
  -3 -10  -5 1203.97 189.766   4
  -3 -10  -6 19816.0 654.193   4
  -3 -10  -7 3090.88 229.122   4
  -3 -11   5 3318.23 236.266  45
  -3 -11   4 944.396 154.527  45
  -3 -11   3 8922.82 475.909   6
  -3 -11   3 8749.46 452.887  45
  -3 -11   2 4064.08 325.035  45
  -3 -11   2 3839.13 329.271   6
  -3 -11   1 176.810 106.187  45
  -3 -11   1-9.22585 64.8230   4
  -3 -11   0 1591.30 207.047   4
  -3 -11   0 1424.40 200.200  45
  -3 -11  -1 8706.74 456.605  45
  -3 -11  -1 7789.63 439.526   4
  -3 -11  -2 903.455 161.921   4
  -3 -11  -3 27045.3 779.187   4
  -3 -11  -4 10059.6 448.475   4
  -3 -11  -5 42607.6 835.118   4
  -3 -11  -6 2625.43 181.578   4
  -3 -12   0 39574.1 707.139   4
  -3 -12  -1 1986.77 169.214   4
  -3 -12  -2 23090.4 551.262   4
  -3 -12  -3 117.237 60.4054   4
   4  -9  -2 12619.1 395.251   5
   4  -9  -1 1999.68 181.017   5
   4  -9   0 6586.24 341.848   5
   4  -9   1 31991.3 763.574   5
   4  -9   2 7460.20 371.498   5
   4  -9   3 49844.1 922.851   5
   4  -8  -4 10622.3 394.193   5
   4  -8  -3 451.789 112.681   5
   4  -8  -2 7647.50 422.967   5
   4  -8  -1 177.307 108.825   5
   4  -8   0 1189.64 199.276   5
   4  -8   0 899.336 148.781   4
   4  -8   1 5552.20 406.770   5
   4  -8   2 2402.80 275.255   5
   4  -8   3 28178.6 872.076   5
   4  -8   3 25041.0 715.309   6
   4  -8   4 45942.5 1078.68   5
   4  -8   4 41711.3 943.334   6
   4  -8   5 307.437 101.591   6
   4  -8   6 16752.9 546.204   6
   4  -8   7 2725.30 196.593   6
   4  -7  -6 18.9096 47.0128   5
   4  -7  -5 929.153 145.451   5
   4  -7  -4 575.899 134.385   5
   4  -7  -3 22060.9 783.253   5
   4  -7  -2 67.7123 116.276   5
   4  -7  -1 17076.3 745.529   5
   4  -7  -1 16066.1 643.810   4
   4  -7   0 4297.37 389.049   5
   4  -7   0 4107.48 349.438   4
   4  -7   1 1867.36 274.191   5
   4  -7   1 1642.22 244.179   4
   4  -7   2 121.541 112.488   5
   4  -7   2 140.904 105.866   4
   4  -7   3 15113.1 717.195   5
   4  -7   3 13846.2 642.314   6
   4  -7   4 1168.79 207.056   6
   4  -7   4 974.277 204.415   5
   4  -7   5 140.562 108.061   6
   4  -7   5 290.961 136.165   5
   4  -7   6 212.627 108.982   6
   4  -7   7 642.296 142.420   6
  -4   7  -8 1445.71 128.597  25
   4  -7   8 1141.63 152.001   6
  -4   6   7 750.285 114.528  17
   4  -6  -7 854.650 115.371   5
  -4   6   7 779.879 112.509  18
   4  -6  -6 13505.6 532.855   5
  -4   6   6 11704.7 486.685  18
   4  -6  -5 103.478 91.1478   5
  -4   6   5 150.887 91.3962  18
   4  -6  -4 40397.3 1106.27   5
  -4   6   4 35233.9 941.435  18
   4  -6  -3 307.845 152.035   5
   4  -6  -2 142.584 140.300   5
   4  -6  -1 11997.1 653.309   5
   4  -6   0 40419.1 1185.93   5
   4  -6   0 37713.4 1096.47  33
   4  -6   1 3517.62 360.961   5
   4  -6   2 22044.8 884.649   5
   4  -6   2 21173.6 783.486  10
   4  -6   2 22202.9 812.238   6
   4  -6   3 20388.9 854.912   5
   4  -6   3 19897.3 796.340  10
   4  -6   3 19488.6 789.391   6
   4  -6   4 33891.9 1103.97   5
   4  -6   4 33515.7 1074.88   6
   4  -6   5 25600.9 949.720   5
   4  -6   5 25066.5 934.240   6
   4  -6   6 3316.47 338.581   5
   4  -6   6 3806.55 371.590   6
   4  -6   7 8181.70 506.881   6
   4  -6   8 122.083 102.595   6
  -4   6  -8 213.025 83.8219  21
  -4   6  -9 4513.03 259.875  25
   4  -6   9 4183.76 271.528   6
  -4   5   8 3285.26 237.286  17
  -4   5   8 3074.25 226.763  38
   4  -5  -8 3668.66 221.514   5
  -4   5   8 3242.02 230.239  18
   4  -5  -7 996.740 158.242   5
  -4   5   7 862.652 130.598  37
  -4   5   7 863.015 161.261  18
  -4   5   6 844.238 176.566  18
   4  -5  -6 1037.64 193.808   5
  -4   5   6 602.905 143.477  37
   4  -5  -5 2487.99 302.358   5
  -4   5   5 2253.73 277.739  18
   4  -5  -4 18905.5 719.266  11
   4  -5  -4 18253.1 795.569   5
   4  -5  -3 15235.5 656.598  11
   4  -5  -3 15676.6 748.105   5
   4  -5  -2 29840.9 931.912  11
   4  -5  -2 30132.0 914.914  33
   4  -5  -2 31262.3 1044.91   5
  -4   5   2 29299.5 1412.85  44
  -4   5   2 29394.6 1487.00  43
   4  -5  -2 30580.1 1446.44   1
  -4   5   1 55610.9 2016.66  43
   4  -5  -1 54157.1 1340.29   5
  -4   5   1 51539.6 1807.33  44
   4  -5  -1 51868.4 1824.55   1
   4  -5  -1 54352.2 1270.04  33
   4  -5   0 77190.9 2169.88   1
  -4   5   0 77286.3 2371.14  43
   4  -5   0 76555.9 1580.75   5
   4  -5   0 73695.7 1508.56  33
  -4   5  -1 44558.2 1782.20  43
   4  -5   1 43791.8 1617.23   1
   4  -5   1 44566.5 1765.22  40
   4  -5   1 43758.0 1139.10   4
   4  -5   1 42674.1 1184.54   5
   4  -5   1 42465.7 1171.85  33
   4  -5   2 22332.8 808.544   6
   4  -5   2 21367.0 841.879   5
   4  -5   2 21407.7 790.299  10
   4  -5   2 20421.1 1224.96  40
  -4   5  -2 22340.8 1277.53  43
   4  -5   3 8559.27 541.054   5
   4  -5   3 8559.78 523.851  10
   4  -5   3 9236.51 548.403   6
  -4   5  -3 8731.49 818.665  43
   4  -5   3 8691.63 823.314  40
   4  -5   4 1044.93 196.595   6
   4  -5   4 1286.74 222.000  10
  -4   5  -4 1438.66 360.180  43
   4  -5   4 1415.37 341.316  40
  -4   5  -4 631.190 196.220  41
   4  -5   4 1367.27 229.441   5
   4  -5   5 6166.13 482.496   6
   4  -5   5 5736.21 456.130   5
   4  -5   5 5413.73 457.307  10
   4  -5   6 47697.6 1329.02   6
   4  -5   6 45776.4 1260.04   5
   4  -5   7 24365.9 923.612   6
   4  -5   8 36435.8 930.077  27
   4  -5   8 38094.8 962.691  45
   4  -5   9 2406.43 225.950  27
  -4   5  -9 3202.55 260.295  21
   4  -5   9 2446.60 226.117  45
   4  -5   9 3027.44 273.896   6
  -4   5 -10 4834.11 240.962  21
   4  -5  10 4492.77 249.705   6
   4  -4  -9 3684.97 200.436   5
  -4   4   9 3966.00 238.136  18
  -4   4   9 4002.06 241.359  17
   4  -4  -8 18929.1 649.706  21
   4  -4  -8 18280.8 609.801   5
  -4   4   8 19508.0 676.005  18
   4  -4  -7 1901.95 202.268  11
   4  -4  -7 2186.70 269.387  21
  -4   4   7 1961.99 242.455  37
  -4   4   7 2121.23 270.264  18
   4  -4  -6 292.928 101.195  11
  -4   4   6 300.008 133.385  37
  -4   4   6 370.237 146.233  18
   4  -4  -6 255.827 150.511  21
   4  -4  -5 21889.1 800.059  11
   4  -4  -5 20805.4 873.372  21
  -4   4   5 19957.4 790.277  37
   4  -4  -4 3263.12 314.994  11
   4  -4  -4 2839.46 338.050  21
  -4   4   4 3456.13 499.054  43
  -4   4   4 2273.83 423.610  46
  -4   4   4 3431.55 508.614  44
   4  -4  -3 14559.0 657.442  11
   4  -4  -3 14287.6 709.533  21
  -4   4   3 12845.0 965.830  44
  -4   4   3 12420.4 950.922  43
   4  -4  -3 14181.4 1006.82   1
   4  -4  -2 39844.5 1061.54  11
   4  -4  -2 39576.4 1037.63  33
  -4   4   2 39402.1 1602.99  44
  -4   4   2 37756.6 1608.19  43
   4  -4  -2 39417.9 1590.25   1
   4  -4  -2 39084.1 1102.98   5
  -4   4   1 142643. 3038.38  43
   4  -4  -1 139415. 1948.73  33
   4  -4  -1 143812. 1988.88  11
   4  -4  -1 144802. 2068.85   5
   4  -4  -1 143196. 2949.07   1
   4  -4   0 19864.4 766.657   5
  -4   4   0 18025.0 1076.62  43
   4  -4   0 19555.5 1061.72   1
   4  -4   0 18443.2 1021.05  40
   4  -4   1 173656. 3075.51   1
   4  -4   1 168472. 3148.89  40
  -4   4  -1 166910. 3230.37  43
  -4   4  -2 6032.64 628.804  43
  -4   4  -2 5411.03 525.778  41
   4  -4   2 5717.80 604.352  40
   4  -4   2 4950.36 387.504  33
  -4   4  -3 51572.4 1716.33  41
   4  -4   3 52862.5 1253.50   5
  -4   4  -3 53447.5 1861.60  43
   4  -4   3 49345.1 1798.33  40
   4  -4   3 53157.5 1243.00  10
   4  -4   4 25927.8 905.067  10
   4  -4   4 25165.7 889.773   5
  -4   4  -4 24915.1 1248.81  41
   4  -4   4 25479.7 1334.05  40
   4  -4   5 24760.1 905.276   5
   4  -4   5 26127.7 951.037   6
  -4   4  -5 25532.9 1317.80  41
   4  -4   5 24108.5 1350.77  40
   4  -4   5 26934.9 965.332  10
   4  -4   6 1747.75 277.197   6
   4  -4   6 1750.51 255.393   5
   4  -4   6 2133.45 291.225  10
  -4   4  -6 1960.06 250.057  24
  -4   4  -6 2218.22 401.913  41
   4  -4   7 8426.50 510.626  27
   4  -4   7 7834.77 549.895   6
  -4   4  -7 8819.56 532.585  20
   4  -4   8 51.5490 86.3900  27
   4  -4   8 110.440 113.659   6
  -4   4  -8-200.374 100.662  20
   4  -4   9 4162.79 346.255  27
  -4   4  -9 4277.74 348.574  21
  -4   4  -9 4543.04 320.677  20
   4  -4   9 4525.74 360.490   6
   4  -4  10 113.010 83.7406  27
   4  -4  10 53.0549 54.0158   6
  -4   4 -10 97.2350 72.9597  21
  -4   4 -10 216.964 94.7840  25
  -4   4 -11 4543.74 243.400  25
  -4   4 -11 4308.59 239.279  28
  -4   3   9 6936.10 309.088  39
  -4   3   9 7947.17 398.770  17
  -4   3   9 7154.22 329.801  38
   4  -3  -9 7594.99 373.115  21
  -4   3   9 7475.90 336.169  19
  -4   3   9 8364.76 407.728  18
   4  -3  -8 20031.9 735.928  21
  -4   3   8 19161.1 667.783  19
  -4   3   8 19158.8 715.167  37
  -4   3   8 20310.1 766.777  18
   4  -3  -8 19112.5 614.016  11
   4  -3  -7 36602.2 1098.09  21
  -4   3   7 35995.7 1081.47  37
  -4   3   7 35371.8 1118.26  18
  -4   3   7 36389.3 1013.34  19
   4  -3  -6 34693.0 1115.44  21
  -4   3   6 37425.1 1183.68  18
  -4   3   6 35150.7 1031.58  19
  -4   3   6 32954.2 1070.96  37
   4  -3  -5 2750.26 325.138  21
  -4   3   5 3015.34 494.651  44
  -4   3   5 3207.63 339.400  37
   4  -3  -4 14276.3 1019.08   1
   4  -3  -4 13176.7 668.545  21
  -4   3   4 13518.0 980.635  43
  -4   3   4 11692.9 599.890  37
  -4   3   4 12478.8 960.521  44
   4  -3  -3 1685.31 210.683  12
  -4   3   3 1595.90 300.152  50
  -4   3   3 1724.35 339.722  44
   4  -3  -3 1423.32 222.240  21
  -4   3   3 1574.02 326.071  43
   4  -3  -3 1718.38 360.670   1
   4  -3  -3 1237.47 188.796  33
  -4   3   2 1383.18 263.283  50
  -4   3   2 1325.11 298.025  43
   4  -3  -2 1130.26 278.323   1
  -4   3   1 666.960 214.501  43
   4  -3  -1 1424.60 296.089   1
  -4   3   0 19999.1 1033.56  43
   4  -3   0 20316.4 957.997  40
   4  -3   0 19758.5 1013.02   1
   4  -3   1 2367.13 351.105   1
  -4   3  -1 2221.64 360.335  43
   4  -3   1 1621.02 293.773  40
   4  -3   2 14557.5 854.406   1
  -4   3  -2 15006.3 892.496  43
  -4   3  -2 16086.4 879.000  41
   4  -3   2 14021.6 832.767  40
  -4   3  -3 4228.43 472.476  41
   4  -3   3 3702.78 465.914  40
  -4   3  -4 1.37747 141.738  41
   4  -3   4 383.997 191.018  40
   4  -3   5 163327. 2172.24   5
   4  -3   5 171724. 2313.24  10
  -4   3  -5 169865. 3317.69  41
   4  -3   5 171690. 3377.28  40
   4  -3   6 44193.1 1131.95  27
  -4   3  -6 47467.5 1836.94  41
   4  -3   6 43832.3 1157.03   5
   4  -3   6 46383.6 1261.95  10
   4  -3   6 44478.7 1813.72  40
   4  -3   7 143344. 2145.55  27
  -4   3  -7 147756. 2154.60  24
   4  -3   7 143740. 2275.38  10
   4  -3   8 176.030 114.720  27
   4  -3   8 226.434 118.893   6
  -4   3  -8 348.525 129.319  20
   4  -3   9 1274.44 226.486  27
   4  -3   9 1133.80 208.128   6
  -4   3  -9 925.446 179.268  20
  -4   3  -9 1171.55 219.658  21
   4  -3  10 206.224 109.736  27
   4  -3  10 6.07545 68.7246   6
  -4   3 -10 11.6053 93.5482  25
  -4   3 -10 164.081 105.201  21
  -4   3 -10 92.2202 76.6362  20
   4  -3  11 2299.41 221.138  27
  -4   3 -11 2369.55 215.309  25
  -4   3 -11 2407.77 206.505  21
  -4   3 -11 2239.32 206.048  28
  -4   2  10 106.495 53.7551  19
   4  -2  -9 12498.8 518.884  21
  -4   2   9 13226.4 539.588  19
  -4   2   9 12176.6 454.897  38
  -4   2   9 13050.2 561.495  18
   4  -2  -8 3873.20 349.946  21
  -4   2   8 3329.14 313.172  19
  -4   2   8 3401.47 338.388  37
  -4   2   8 4144.26 382.910  18
  -4   2   8 3543.69 296.370  15
   4  -2  -7-97.2707 130.587  21
  -4   2   7 74.3465 91.7782  19
  -4   2   7-75.5273 130.140  37
  -4   2   7-94.5473 131.234  18
   4  -2  -6 7301.54 515.521  21
  -4   2   6 7510.14 503.788  19
  -4   2   6 7288.39 517.174  37
  -4   2   6 7642.33 547.796  18
   4  -2  -5 8740.18 817.209   1
   4  -2  -5 9248.73 508.142  12
   4  -2  -5 9943.07 582.010  21
  -4   2   5 10276.9 885.975  44
  -4   2   5 9126.60 537.730  19
  -4   2   5 9059.08 551.537  37
   4  -2  -4 7027.59 436.162  12
   4  -2  -4 6860.62 675.086   1
   4  -2  -4 6885.60 466.238  21
  -4   2   4 6381.72 609.808  50
  -4   2   4 6808.53 446.478  37
   4  -2  -4 7100.31 431.165  33
  -4   2   4 5665.93 614.753  44
   4  -2  -3 46212.5 1657.11   1
  -4   2   3 46949.0 1645.80  43
  -4   2   3 46949.1 1551.84  50
  -4   2   2 1395.11 292.544  43
   4  -2  -2 1856.96 338.509   1
  -4   2   1 74087.7 1848.04  43
   4  -2  -1 70748.0 1835.81   1
  -4   2   0 20195.6 950.881  43
   4  -2   0 17914.6 894.504   1
   4  -2   0 19715.1 823.031  40
  -4   2  -1 93106.9 1992.03  43
   4  -2   1 91220.0 1997.46   1
   4  -2   1 90892.6 1818.25  40
  -4   2  -1 93145.4 1951.19  41
   4  -2   2 62793.5 1672.93   1
  -4   2  -2 64339.1 1663.78  43
   4  -2   2 61540.2 1572.22  40
  -4   2  -2 62947.9 1645.67  41
  -4   2  -3 156313. 2705.86  41
   4  -2   3 151228. 2628.32  40
  -4   2  -4 40011.3 1232.21  52
  -4   2  -4 38248.3 1412.83  41
   4  -2   4 37702.2 1393.88  40
   4  -2   5-35.4862 133.838  40
  -4   2  -5 65.0877 47.1617  52
   4  -2   6 393.665 100.963  27
  -4   2  -6 382.549 113.952  24
  -4   2  -6 590.503 190.106  52
   4  -2   6 582.317 206.055  40
   4  -2   6 734.639 159.445  10
   4  -2   7 324235. 3221.00  27
  -4   2  -7 313419. 4559.82  52
   4  -2   7 321076. 3281.89  10
  -4   2  -7 319114. 3215.20  24
  -4   2  -8 920.370 199.497  24
  -4   2  -8 904.192 199.391  20
   4  -2   9 34225.7 1094.23  27
   4  -2   9 36948.7 1057.10   6
  -4   2  -9 36332.4 1134.64  21
  -4   2  -9 36064.6 1107.41  20
   4  -2  10 16244.1 710.982  27
  -4   2 -10 16661.0 723.963  25
  -4   2 -10 16639.3 710.643  21
  -4   2 -10 17169.7 696.822  20
   4  -2  11 166.958 99.3457  27
  -4   2 -11 63.5936 73.8534  25
  -4   2 -11 103.829 84.6027  21
  -4   2 -11 54.2887 66.0887  28
   4  -1 -10 1417.25 142.987  21
  -4   1  10 1828.30 185.510  19
  -4   1  10 1508.35 141.220  17
  -4   1  10 1773.61 159.855  15
  -4   1   9 0.61263 82.8745  18
   4  -1  -9-264.205 102.157  21
  -4   1   9 132.287 113.661  19
  -4   1   9 9.89050 65.0165  17
  -4   1   9-73.6393 93.0742  15
  -4   1   8 35319.0 976.570  38
   4  -1  -8 37562.1 1067.93  21
  -4   1   8 37586.3 1119.59  19
  -4   1   8 39503.0 1148.43  18
  -4   1   8 37631.0 1061.32  15
  -4   1   7 13863.9 732.055  18
  -4   1   7 14618.1 738.602  37
   4  -1  -7 13834.1 690.475  21
  -4   1   7 14315.1 721.827  19
  -4   1   7 14446.8 695.568  15
   4  -1  -6 263786. 4494.72   1
   4  -1  -6 264945. 2814.09  31
   4  -1  -6 259336. 2946.54  21
  -4   1   6 259137. 4429.36  44
  -4   1   6 248463. 2945.39  19
  -4   1   6 263030. 3024.27  37
  -4   1   6 267055. 3084.74  18
  -4   1   6 276052. 4629.46  49
  -4   1   6 253628. 2842.12  15
   4  -1  -5 1745.40 239.962  21
   4  -1  -5 1658.88 362.146   1
  -4   1   5 1786.73 253.012  19
  -4   1   5 1540.25 349.158  44
  -4   1   5 1777.91 247.635  37
  -4   1   5 2474.21 290.787  18
   4  -1  -5 1580.04 216.690  33
   4  -1  -5 1708.44 235.001  31
  -4   1   4 8703.99 708.208  50
   4  -1  -4 9238.67 760.101   1
  -4   1   4 8752.67 729.478  44
   4  -1  -3 395.804 187.511   1
  -4   1   3-9.54415 133.938  50
  -4   1   3 342.360 170.733  43
   4  -1  -2 57113.9 1616.53   1
  -4   1   2 60775.5 1345.81  51
  -4   1   2 59868.5 1637.50  43
  -4   1   1 3234.95 371.731  43
   4  -1  -1 3464.20 391.769   1
  -4   1   0 47071.0 1286.02  43
   4  -1   0 48286.5 1097.83  40
   4  -1   0 46571.3 1359.20   1
  -4   1  -1 28381.4 1015.02  41
  -4   1  -1 28003.1 977.775  43
   4  -1   1 27513.3 1029.13   1
   4  -1   1 28745.8 899.239  40
   4  -1   2 246014. 3118.58   1
  -4   1  -2 255699. 2923.26  43
  -4   1  -2 251052. 3070.07  41
   4  -1   2 249811. 2835.66  40
  -4   1  -3 83901.4 1865.34  41
   4  -1   3 81198.4 1761.23  40
  -4   1  -4 230104. 2967.39  52
   4  -1   4 223830. 3181.48  40
  -4   1  -5 29076.4 1171.09  52
   4  -1   5 27717.7 1217.02  40
  -4   1  -6 5618.19 570.005  52
   4  -1   6 5824.11 613.060  40
  -4   1  -7 145347. 2168.40  24
  -4   1  -7 140534. 3062.39  52
   4  -1   7 148525. 2115.74  10
   4  -1   7 150590. 2184.20  27
   4  -1   7 153871. 3314.89  40
   4  -1   8 8861.41 527.009  10
  -4   1  -8 8631.01 810.181  52
  -4   1  -8 8977.55 556.237  24
  -4   1  -8 9080.28 585.133  20
   4  -1   8 9354.78 574.377  27
   4  -1   9 14534.7 727.267  27
   4  -1   9 13878.7 652.503   6
  -4   1  -9 14236.5 727.696  20
  -4   1  -9 14269.1 729.077  21
   4  -1  10 32086.8 1031.42  27
  -4   1 -10 29702.2 987.932  25
  -4   1 -10 29387.0 983.501  21
  -4   1 -10 29207.5 975.916  20
   4  -1  11 5707.89 394.052  27
  -4   1 -11 5352.27 372.437  25
  -4   1 -11 5244.71 365.285  21
  -4   1 -11 5193.84 334.264  28
   4  -1  12 281.229 84.8370  27
  -4   1 -12 315.221 79.7567  21
   4   0 -10 2988.20 197.327  21
  -4   0  10 3386.03 269.989  19
  -4   0  10 3286.18 250.855  15
   4   0  -9 18.1052 84.4605  21
  -4   0   9 153.989 117.358  19
  -4   0   9 47.5656 94.1476  18
  -4   0   9 74.2860 81.5394  17
  -4   0   9 58.0423 93.0430  15
   4   0  -8 44.4917 81.2390  21
  -4   0   8 77.2105 115.714  19
  -4   0   8 74.4082 115.308  18
   4   0  -8 27.5631 98.9511  31
  -4   0   8 110.625 108.420  15
  -4   0   7 12781.6 693.798  19
  -4   0   7 12028.1 677.707  37
  -4   0   7 11419.9 652.296  18
   4   0  -7 13127.5 616.351  33
   4   0  -7 11816.8 622.091  21
  -4   0   7 12190.5 658.006  15
   4   0  -7 11101.6 604.806  31
   4   0  -6 1707.62 236.582  21
  -4   0   6 1629.63 372.037  49
  -4   0   6 1692.30 369.758  44
  -4   0   6 1721.53 264.687  19
  -4   0   6 1863.40 266.846  37
  -4   0   6 1923.84 269.052  18
   4   0  -6 1841.19 241.637  33
  -4   0   6 2092.97 274.083  15
   4   0  -6 2174.91 283.043  31
   4   0  -6 2213.91 411.148   1
   4   0  -5 73755.4 2170.84   1
  -4   0   5 79278.3 1562.56  19
  -4   0   5 74455.1 2147.43  44
  -4   0   5 76180.6 1523.04  37
  -4   0   5 78745.9 1564.31  18
   4   0  -5 76811.6 1472.48  33
   4   0  -5 76120.2 1490.57  31
  -4   0   4 367.138 164.938  50
  -4   0   4 242.261 174.576  44
   4   0  -4 243.998 150.168   1
  -4   0   3 306513. 3804.90  50
   4   0  -3 312264. 3805.00   1
  -4   0   2 177447. 2350.21  51
  -4   0   2 183636. 2656.25  43
   4   0  -1 26058.0 973.831   1
  -4   0   1 26128.8 888.883  51
  -4   0   1 26025.9 928.747  43
  -4   0   0 36545.5 1020.12  43
   4   0   0 35142.4 767.754  40
   4   0   0 33318.7 1054.92   1
   4   0   1 8070.24 524.516   1
   4   0   1 8400.62 423.979  40
  -4   0  -1 8706.43 531.752  41
   4   0   2 85908.1 1137.79  47
   4   0   2 83498.5 1671.91  54
  -4   0  -2 83979.5 1667.06  41
  -4   0  -2 84138.9 1474.95  43
   4   0   2 88388.3 1547.20  40
   4   0   3 80460.2 1712.21  54
  -4   0  -3 81715.8 1726.92  41
  -4   0  -4 76783.4 1715.19  52
   4   0   4 79434.2 1796.29  54
   4   0   5 62297.6 1681.39  54
  -4   0  -5 61755.9 1687.02  52
   4   0   6 114876. 2412.65  54
  -4   0  -6 106381. 2439.03  52
   4   0   7 6610.53 434.135  14
   4   0   7 7385.22 486.628  27
  -4   0  -7 6219.15 455.673  24
   4   0   7 7574.15 650.679  54
  -4   0  -7 5991.95 451.959  20
  -4   0  -7 5811.66 626.913  52
   4   0   8 124981. 1939.36  14
  -4   0  -8 125299. 2098.21  21
   4   0   8 127874. 2118.32  27
  -4   0  -8 123113. 2116.27  20
  -4   0  -8 119818. 2989.95  52
  -4   0  -9 8985.43 572.851  25
  -4   0  -9 8887.63 579.891  21
  -4   0  -9 8163.32 562.968  20
   4   0   9 7838.48 536.612  27
   4   0  10 1532.76 253.172  27
  -4   0 -10 1596.55 240.928  25
  -4   0 -10 1554.12 250.757  21
  -4   0 -10 1268.72 226.811  20
  -4   0 -10 1472.40 213.479  28
   4   0  11 467.447 141.058  27
  -4   0 -11 355.658 125.726  25
  -4   0 -11 385.959 119.184  21
  -4   0 -11 262.554 83.3755  28
   4   0  12 36.1343 51.8229  27
  -4   0 -12 103.811 74.9081  21
   4   1 -10 1067.51 131.059  12
  -4  -1  10 888.269 157.059  19
  -4  -1  10 899.778 155.428  15
   4   1  -9 5590.27 345.531  21
  -4  -1   9 6328.07 454.188  19
  -4  -1   9 6260.31 440.384  15
   4   1  -9 6009.40 391.245  31
   4   1  -8 6180.46 413.841  21
  -4  -1   8 5761.40 466.080  19
  -4  -1   8 5508.43 424.493  18
  -4  -1   8 5948.64 416.288  17
  -4  -1   8 6188.84 476.244  15
   4   1  -8 6428.05 426.343  33
   4   1  -8 5925.71 440.872  31
  -4  -1   7 8952.14 589.013  19
  -4  -1   7 8973.07 564.167  18
   4   1  -7 9519.63 534.327  21
   4   1  -7 9266.09 542.336  33
  -4  -1   7 9101.02 584.583  15
   4   1  -7 8389.98 547.729  31
   4   1  -6 28909.5 904.937  21
   4   1  -6 30668.7 977.865  33
   4   1  -6 31174.2 1441.33   1
  -4  -1   6 30402.4 1023.06  37
  -4  -1   6 27709.4 1313.36  44
  -4  -1   6 30759.0 1031.35  19
  -4  -1   6 31112.8 1006.99  18
  -4  -1   6 30623.1 1498.65  49
  -4  -1   6 31204.5 1026.97  15
   4   1  -6 31257.5 1018.01  31
   4   1  -5 566.473 232.793   1
   4   1  -5 187.478 115.305  48
  -4  -1   5 262.689 149.276  44
  -4  -1   5 471.258 134.792  37
  -4  -1   5 408.264 120.156  18
  -4  -1   5 499.481 198.724  49
   4   1  -5 204.751 87.1391  31
   4   1  -5 338.584 120.540  29
   4   1  -4 22445.9 967.723  48
   4   1  -4 19747.5 989.438   1
  -4  -1   4 21610.5 1084.42  50
  -4  -1   4 21230.7 990.984  44
  -4  -1   3 12312.0 752.861  50
   4   1  -3 11319.8 686.917   1
   4   1  -3 13224.6 650.660  48
  -4  -1   2 418.335 151.614  50
   4   1  -2 344.941 137.141   1
   4   1  -2 701.768 135.156  48
  -4  -1   2 825.637 178.955  51
  -4  -1   2 563.090 157.886  43
   4   1  -1 6002.93 435.393   1
  -4  -1   1 5777.84 403.611  43
   4   1  -1 5892.41 316.114  48
  -4  -1   1 5565.67 415.770  51
   4   1   0 59544.6 1221.70  47
  -4  -1   0 60367.0 1329.07  51
   4   1   0 59937.0 776.588  40
  -4  -1   0 58893.3 1178.21  43
   4   1   0 61704.9 857.083  48
   4   1   0 59694.8 1299.99   1
   4   1   1 10267.2 539.682  54
   4   1   1 10349.9 319.515  48
   4   1   1 10820.5 490.340  47
   4   1   1 9921.96 534.026   1
  -4  -1  -1 10618.9 462.825  43
   4   1   2 239377. 2685.77   1
   4   1   2 244116. 2732.01  54
   4   1   2 243008. 2236.66  47
  -4  -1  -2 245948. 2124.88  43
  -4  -1  -2 245774. 2667.46  41
  -4  -1  -3 244858. 2779.38  41
   4   1   3 252203. 2952.78  54
  -4  -1  -3 249474. 2169.98  43
   4   1   4 141803. 2358.72  54
  -4  -1  -4 141149. 2306.29  52
   4   1   4 140203. 1776.92  47
   4   1   5 12085.9 746.194  54
  -4  -1  -5 11526.0 733.287  52
   4   1   5 12612.2 795.675  53
   4   1   6 43647.8 1593.25  53
  -4  -1  -6 38816.9 1464.83  52
   4   1   6 39839.5 1426.93  54
   4   1   7 137.559 94.0754  14
   4   1   7 8.98219 81.6278  27
   4   1   7 348.179 185.352  54
  -4  -1  -7 430.644 141.133  24
  -4  -1  -7 38.6650 148.223  52
  -4  -1  -7 163.135 85.6407  21
  -4  -1  -7 172.085 71.9907  20
   4   1   7 152.384 100.081  35
   4   1   7 327.103 173.761  53
   4   1   8 87.7203 80.6067  14
   4   1   8 16.6286 87.9275  27
  -4  -1  -8 226.525 194.120  52
  -4  -1  -8 160.495 88.0740  20
  -4  -1  -8-34.2827 94.8829  21
   4   1   8 256.407 144.093  54
   4   1   8 493.543 188.062  53
   4   1   8 38.5048 72.5393  15
   4   1   9 18941.1 806.138  14
   4   1   9 18896.4 828.031  27
  -4  -1  -9 19274.5 805.893  25
  -4  -1  -9 18089.4 835.208  20
  -4  -1  -9 19549.3 837.910  21
   4   1   9 18386.1 747.161  15
   4   1  10-23.3057 110.497  27
  -4  -1 -10 19.2699 87.1566  25
  -4  -1 -10-30.8272 95.2851  21
  -4  -1 -10 163.382 115.483  20
   4   1  10 57.4342 96.7722  15
  -4  -1 -10 71.0098 80.5735  28
   4   1  11 30383.1 906.019  27
  -4  -1 -11 28093.1 830.078  25
  -4  -1 -11 30151.9 892.772  21
   4   1  12 585.476 109.465  27
  -4  -1 -12 558.223 109.271  21
  -4  -2  10 5538.74 354.308  19
   4   2 -10 5071.36 299.351  31
  -4  -2  10 4980.02 336.642  15
  -4  -2   9 5022.83 403.797  19
   4   2  -9 4990.22 338.913  33
  -4  -2   9 5532.11 421.066  15
   4   2  -9 4979.56 378.093  31
  -4  -2   8 79866.8 1694.84  19
   4   2  -8 77985.3 1538.31  33
  -4  -2   8 77555.1 1671.87  15
   4   2  -8 76103.4 1603.74  31
  -4  -2   7 77930.6 1595.23  18
  -4  -2   7 73670.7 1651.31  19
   4   2  -7 77280.0 1600.00  33
  -4  -2   7 74885.4 1671.98  15
   4   2  -7 74648.2 1633.67  31
   4   2  -7 74378.2 1646.00  29
  -4  -2   6 75274.2 2338.98  49
   4   2  -6 75850.8 1565.82  33
   4   2  -6 70953.4 2075.05   1
  -4  -2   6 73883.9 1598.59  19
  -4  -2   6 74425.6 1533.66  18
  -4  -2   6 72870.1 1583.07  15
   4   2  -6 73840.3 1570.21  31
   4   2  -6 72035.9 1552.68  29
   4   2  -5 4160.29 474.309   1
  -4  -2   5 4458.91 460.655  44
  -4  -2   5 4154.79 511.642  49
   4   2  -5 4328.00 365.646  31
   4   2  -5 3881.68 473.812  48
   4   2  -4 127656. 2384.81  48
  -4  -2   4 129909. 2586.42  49
   4   2  -4 131664. 2389.19   1
  -4  -2   4 132991. 2300.68  44
   4   2  -3 997.871 199.758  48
   4   2  -3 478.678 148.257   1
  -4  -2   3 871.916 223.682  50
   4   2  -2 13239.7 634.777   1
  -4  -2   2 14482.8 747.032  50
   4   2  -2 14669.7 640.503  48
   4   2  -1 139421. 2117.72  47
   4   2  -1 139361. 1775.46  48
  -4  -2   1 143348. 2151.35  51
   4   2  -1 139644. 1899.14   1
   4   2   0 15582.1 596.657  54
  -4  -2   0 15115.1 679.329  51
   4   2   0 15297.7 659.012  47
   4   2   0 15854.9 617.403   1
  -4  -2   0 15019.0 539.182  43
   4   2   0 15631.6 546.005  48
   4   2   1 17686.4 677.771  54
   4   2   1 18958.4 706.688  47
   4   2   1 17382.6 652.088   1
  -4  -2  -1 18895.9 523.613  43
   4   2   2 11066.4 535.608  47
  -4  -2  -2 11316.1 580.114  51
  -4  -2  -2 12160.1 367.797  43
  -4  -2  -2 10923.7 526.086  41
   4   2   3 98787.9 1630.02  47
  -4  -2  -3 94647.1 1611.50  41
   4   2   4 655.152 175.208  53
  -4  -2  -4 795.652 178.903  41
   4   2   5 8761.39 668.417  53
  -4  -2  -5 9595.11 667.415  52
   4   2   6 19323.6 1070.44  53
  -4  -2  -6 17128.8 975.623  52
   4   2   7 4822.90 386.217  14
   4   2   7 3796.58 345.901  27
  -4  -2  -7 3914.23 463.646   2
  -4  -2  -7 3845.43 338.356  26
  -4  -2  -7 4101.51 345.403  21
   4   2   7 4573.75 382.762  35
  -4  -2  -7 4239.13 369.652  20
   4   2   7 4464.24 570.353  53
  -4  -2  -7 4175.11 370.789   7
  -4  -2  -7 3657.26 489.608  52
   4   2   8 12748.1 655.102  14
  -4  -2  -8 12205.8 609.806  26
  -4  -2  -8 12472.3 613.126  25
   4   2   8 12658.3 927.538  54
  -4  -2  -8 12612.4 958.164  52
  -4  -2  -8 12254.4 633.706  21
  -4  -2  -8 11506.4 637.680  20
   4   2   8 13050.2 674.464  27
   4   2   8 14287.0 1064.24  53
   4   2   9 979.044 206.870  14
   4   2   9 861.351 197.523  27
  -4  -2  -9 828.226 172.812  25
  -4  -2  -9 921.126 210.498  20
  -4  -2  -9 895.018 183.153  21
   4   2   9 1388.69 228.215  15
   4   2  10 363.144 146.760  27
  -4  -2 -10 195.976 111.179  21
  -4  -2 -10 134.866 97.4372  25
   4   2  10 206.651 100.943  15
   4   2  11 1056.91 172.662  27
  -4  -2 -11 970.777 170.489  21
   4   2  11 747.430 144.729  15
   4   2  12 9928.25 376.293  27
  -4  -2 -12 10510.9 412.281  21
  -4  -3  10 4500.70 310.770  19
  -4  -3  10 4762.31 326.537  15
   4   3 -10 4236.73 285.012  31
   4   3  -9 315.205 117.213  33
  -4  -3   9 178.802 114.558  19
   4   3  -9 133.756 106.960  31
  -4  -3   9 341.950 140.003  15
  -4  -3   8 14223.9 708.809  19
  -4  -3   8 15098.5 743.629  15
   4   3  -8 14440.0 713.346  31
   4   3  -8 14763.5 694.989  33
   4   3  -8 13305.1 690.082  29
  -4  -3   7 2168.17 304.100  19
   4   3  -7 2186.94 287.980  33
   4   3  -7 2374.63 317.691  31
   4   3  -7 2288.91 304.405  29
  -4  -3   7 1803.60 277.154  15
  -4  -3   6 4715.83 592.045   3
  -4  -3   6 4777.79 424.084  19
  -4  -3   6 4903.23 615.509  49
   4   3  -6 4941.48 591.257  48
  -4  -3   6 4977.44 424.099  15
   4   3  -6 5002.93 418.289  31
   4   3  -6 4922.74 413.595  29
  -4  -3   5 8179.81 717.947  49
   4   3  -5 7504.72 669.585  48
  -4  -3   5 8059.97 505.459  19
  -4  -3   5 8308.79 515.992  15
   4   3  -5 7899.08 486.417  29
   4   3  -4 44351.2 1296.00   1
   4   3  -4 45004.9 1493.66  48
  -4  -3   4 43112.6 1493.65  49
   4   3  -3 276360. 2913.29   1
   4   3  -3 272283. 3335.37  48
  -4  -3   3 275720. 2776.23  44
   4   3  -2 116226. 1693.48   1
  -4  -3   2 113768. 2030.05  50
  -4  -3   2 108347. 1862.17  49
   4   3  -2 108164. 1911.40  48
  -4  -3   1 6814.67 459.767  50
   4   3  -1 6088.92 470.898  47
   4   3  -1 6543.26 439.827  48
   4   3  -1 5786.90 350.684   1
  -4  -3   1 6474.87 399.189  49
   4   3   0 138130. 1711.32  54
   4   3   0 132600. 2077.26  47
  -4  -3   0 130627. 1503.86  49
  -4  -3   0 131617. 2078.86  51
   4   3   0 138403. 1620.19   1
  -4  -3  -1 119818. 1916.34  51
  -4  -3  -1 118955. 1057.53  49
   4   3   1 123348. 1963.68  47
  -4  -3  -2 117171. 1869.86  51
   4   3   2 110210. 1863.63  47
  -4  -3  -3 17493.4 637.774  41
   4   3   3 16811.5 773.973  53
  -4  -3  -3 16920.1 705.964  51
  -4  -3  -4 42704.7 1072.97  41
   4   3   4 42377.3 1349.08  53
  -4  -3  -4 41418.4 1108.43  51
  -4  -3  -5 128908. 2052.64  41
   4   3   5 126081. 2544.60  53
  -4  -3  -6 20935.2 1053.91   2
   4   3   6 19719.2 1112.31  53
   4   3   7 26849.8 924.882  27
  -4  -3  -7 27138.8 916.372  26
   4   3   7 28510.7 1438.30  53
  -4  -3  -7 27205.7 915.356  20
  -4  -3  -7 26684.8 947.176   7
  -4  -3  -7 25889.5 852.325  21
   4   3   7 27541.9 949.307  35
   4   3   7 27964.0 940.818  14
  -4  -3  -7 27322.1 1248.50   2
   4   3   8 17309.2 780.011  14
   4   3   8 16583.9 761.770  27
  -4  -3  -8 17433.6 746.574  26
   4   3   8 15554.0 1125.50  53
  -4  -3  -8 16303.9 741.804  20
  -4  -3  -8 15212.2 690.618  21
   4   3   8 15903.7 756.307  35
   4   3   9 31221.8 1056.59  14
   4   3   9 29951.9 1011.01  27
  -4  -3  -9 29991.7 983.258  21
  -4  -3  -9 30768.9 966.112  26
  -4  -3  -9 32425.0 956.121  25
   4   3   9 30098.8 1029.41  15
   4   3  10 25428.3 921.955  14
   4   3  10 23075.4 834.292  27
  -4  -3 -10 24299.8 851.461  21
   4   3  10 23117.6 861.224  15
   4   3  11 25012.3 737.407  27
  -4  -3 -11 25330.5 760.516  21
   4   3  11 24146.9 760.492  15
  -4  -3 -12 710.386 104.958  21
   4   3  12 613.253 97.0414  15
  -4  -4  10 6889.19 352.158  19
   4   4 -10 7098.37 360.835  31
  -4  -4   9 7068.09 446.257  19
   4   4  -9 6973.74 423.599  33
  -4  -4   9 7724.90 474.847  15
   4   4  -9 6813.63 442.356  31
  -4  -4   8 20619.3 836.747  19
   4   4  -8 20814.0 830.246  33
  -4  -4   8 21289.7 865.114  15
   4   4  -8 20688.4 852.125  31
   4   4  -8 19981.0 818.904  29
  -4  -4   7 315.573 165.142  19
   4   4  -7 188.031 125.695  31
  -4  -4   7 157.446 129.405  15
   4   4  -7 172.960 109.901  29
   4   4  -6 1320.40 316.694  48
  -4  -4   6 1414.55 354.787   3
  -4  -4   6 1206.10 226.160  19
  -4  -4   6 1538.63 250.442  15
   4   4  -6 860.190 184.143  29
   4   4  -6 1417.27 219.725  28
   4   4  -5 4675.52 570.211  48
  -4  -4   5 5453.74 621.467   3
  -4  -4   5 5332.17 424.774  19
  -4  -4   5 5494.80 423.994  15
   4   4  -5 4870.76 384.007  29
   4   4  -5 5936.83 397.829  28
   4   4  -4 9419.20 727.166  48
  -4  -4   4 9461.12 744.965   3
  -4  -4   4 8880.07 683.866  49
  -4  -4   3 53611.2 1500.11  49
  -4  -4   3 56461.3 1698.27   3
   4   4  -3 56371.1 1633.92  48
   4   4  -2 254.055 148.690  48
  -4  -4   2 50.8329 72.4856  49
   4   4  -2 156.133 140.086  47
  -4  -4   1 190345. 2161.47  49
   4   4  -1 193025. 2794.63  47
   4   4  -1 195025. 2663.42  48
  -4  -4   0 10934.0 566.362   2
   4   4   0 9785.26 618.983  47
  -4  -4   0 9840.25 478.661  50
  -4  -4  -1 22479.9 817.401   3
   4   4   1 21576.7 898.089  47
  -4  -4  -2 104947. 1633.02   3
   4   4   2 102959. 1977.83  47
  -4  -4  -2 102112. 1795.67  51
  -4  -4  -3 15400.0 686.792  51
   4   4   3 16405.3 767.708  53
  -4  -4  -4 31726.5 1226.31   2
   4   4   4 32708.1 1199.81  53
  -4  -4  -4 31282.8 961.106  51
  -4  -4  -5 436.274 202.957   2
   4   4   5 51.3648 84.7579  53
  -4  -4  -6 40478.3 1102.28  26
  -4  -4  -6 39419.6 1112.72   7
  -4  -4  -6 39898.5 1188.27  45
   4   4   6 39862.7 1599.71  53
   4   4   6 37655.7 1067.63  35
  -4  -4  -6 41969.3 1557.20   2
   4   4   7 17060.7 743.206  27
  -4  -4  -7 18334.2 776.487  26
   4   4   7 17699.3 1153.62  53
  -4  -4  -7 15912.6 690.853  20
  -4  -4  -7 17602.0 693.191  21
   4   4   7 16561.6 746.989  35
  -4  -4  -7 18276.2 1068.99   2
   4   4   8 6154.23 480.084  14
   4   4   8 5994.79 461.431  27
  -4  -4  -8 5946.39 452.890  26
  -4  -4  -8 6043.87 426.829  21
   4   4   8 6150.63 478.573  35
   4   4   9 4330.90 409.697  14
   4   4   9 4684.34 399.834  27
  -4  -4  -9 4767.02 390.348  26
  -4  -4  -9 4750.22 381.166  21
   4   4   9 4504.69 413.808  15
   4   4  10 137.681 124.413  14
   4   4  10 39.9415 85.1460  27
  -4  -4 -10 74.5154 70.1518  21
   4   4  10 23.1811 82.7847  19
   4   4  10 133.006 104.816  15
  -4  -4 -11 5060.44 313.556  21
   4   4  11 4040.73 278.631  19
   4   4  11 5062.89 350.076  15
  -4  -5  10 2695.97 195.258  19
   4   5 -10 3030.28 223.896  31
   4   5  -9 4476.64 331.738  33
  -4  -5   9 4105.90 320.119  19
   4   5  -9 4478.48 349.623  31
  -4  -5   8 1897.47 234.687  45
  -4  -5   8 1603.17 246.832  19
  -4  -5   8 1680.58 258.312  15
   4   5  -8 1459.50 235.999  33
   4   5  -8 1681.00 254.996  31
   4   5  -8 1408.42 227.166  29
  -4  -5   7 18321.2 781.169  45
  -4  -5   7 16844.5 770.392  19
  -4  -5   7 17181.4 793.785  15
   4   5  -7 16162.7 768.259  31
   4   5  -7 16597.5 750.444  29
   4   5  -6 80.3973 150.730  48
  -4  -5   6 185.530 139.855  45
  -4  -5   6 221.887 144.354  19
  -4  -5   6 447.666 166.178  15
   4   5  -6 88.3398 92.7456  29
  -4  -5   5 57821.6 2040.04   3
  -4  -5   5 55477.0 1381.96  45
   4   5  -5 55940.6 1998.13  48
  -4  -5   5 56493.9 1386.21  15
  -4  -5   5 55418.7 1366.12  19
   4   5  -5 53184.6 1254.85  29
   4   5  -4 31059.2 1402.47  48
  -4  -5   4 32492.0 1003.95  15
  -4  -5   4 33447.9 1015.14  19
  -4  -5   4 31557.7 1447.75   3
   4   5  -3 2277.31 368.232  48
  -4  -5   3 1780.45 339.395   3
   4   5  -2 4216.71 466.682  47
  -4  -5   2 3872.15 467.237   3
   4   5  -2 4226.02 468.881  48
   4   5  -1 275.623 140.810  48
  -4  -5   1 651.486 150.845   2
   4   5  -1 412.158 174.392  47
  -4  -5   1 673.984 198.448   3
  -4  -5   0 97530.3 1990.69   3
   4   5   0 94218.7 2052.61  47
  -4  -5   0 100502. 1867.51   2
  -4  -5  -1 57575.7 1449.64   3
   4   5   1 57233.7 1579.97  47
  -4  -5  -1 58662.6 1516.91   2
  -4  -5  -2 6599.71 538.531   2
  -4  -5  -2 7102.10 471.990   3
   4   5   2 7195.57 571.625  47
   4   5   3 25538.0 968.633  53
   4   5   3 24682.6 1042.55  46
  -4  -5  -3 25213.8 1103.73   2
   4   5   4 54928.9 1677.92  46
  -4  -5  -4 51874.4 1673.44   2
   4   5   5 39673.2 1486.23  53
  -4  -5  -5 36646.0 1476.26   2
   4   5   6 64871.3 1409.21  27
   4   5   6 59666.4 1291.90  13
  -4  -5  -6 64766.0 1444.05  26
   4   5   6 67621.0 2119.58  53
  -4  -5  -6 62543.4 1532.08  45
  -4  -5  -6 63256.8 1394.69   8
  -4  -5  -6 64974.6 2048.64   2
   4   5   7 23384.4 870.037  27
  -4  -5  -7 23816.8 909.842  26
   4   5   7 23677.1 1343.44  53
  -4  -5  -7 24694.6 1001.87  45
   4   5   7 23379.6 899.326  35
  -4  -5  -7 24235.1 1289.70   2
   4   5   8 37459.2 1173.95  14
   4   5   8 39384.5 1119.54  27
  -4  -5  -8 40872.6 1188.54  26
   4   5   8 40133.9 1183.74  35
   4   5   9 269.447 138.125  14
   4   5   9 141.632 85.0946  27
  -4  -5  -9 125.088 106.549  26
  -4  -5  -9 60.6687 92.2430  21
   4   5  10 232.191 110.085  14
  -4  -5 -10 345.327 100.710  21
   4   5  10 274.616 129.395  15
  -4  -5 -11 3152.70 205.685  21
   4   5  11 2653.71 224.588  19
   4   5  11 3478.10 274.457  15
  -4  -6   9 5375.00 297.993  45
  -4  -6   9 6074.24 333.141  19
   4   6  -9 5794.44 352.506  33
   4   6  -9 6233.95 373.461  31
  -4  -6   8 1889.31 233.397  45
  -4  -6   8 1386.67 208.017  19
   4   6  -8 1725.27 235.085  33
   4   6  -8 1499.11 227.278  31
   4   6  -8 1556.23 214.447  29
  -4  -6   7 15133.6 719.612  45
   4   6  -7 15674.3 732.175  31
  -4  -6   7 17021.4 747.974  19
   4   6  -7 16077.9 693.228  29
  -4  -6   6 7079.22 506.849  19
  -4  -6   6 6180.21 487.102  45
   4   6  -6 6481.63 451.438  29
  -4  -6   5 199.151 120.886  19
   4   6  -5 97.0500 135.964  48
  -4  -6   5-56.5034 196.068   3
  -4  -6   5 78.2431 94.8531  45
   4   6  -5-27.3150 59.5628  29
  -4  -6   4 29290.3 1474.01   3
  -4  -6   4 26830.4 971.891  45
  -4  -6   4 26693.7 932.362  19
  -4  -6   4 24696.0 883.091   6
   4   6  -4 26931.6 1377.30  48
   4   6  -3 46602.6 1725.84  48
  -4  -6   3 49296.7 1264.81  45
  -4  -6   3 50946.3 1244.36  19
  -4  -6   3 47841.3 1786.76   3
   4   6  -2 105280. 2468.93  48
   4   6  -2 106173. 2408.68  47
  -4  -6   2 105555. 2523.35   3
   4   6  -1 201549. 3290.86  48
   4   6  -1 199277. 3237.33  47
  -4  -6   1 202264. 3331.63   3
  -4  -6   1 202748. 2774.99   2
  -4  -6   0 20484.1 1006.85   3
   4   6   0 21555.3 1055.91  47
  -4  -6   0 22510.4 981.019   2
  -4  -6  -1 2187.72 317.232   3
   4   6   1 1781.32 319.702  47
  -4  -6  -1 1758.02 294.640   2
  -4  -6  -2 110.660 87.5924   2
   4   6   2 234.390 121.400  47
  -4  -6  -2 240.329 116.039   3
   4   6   2 226.086 121.152  46
   4   6   3 6881.10 590.083  46
  -4  -6  -3 6824.46 625.181   2
   4   6   4 35067.9 1422.08  46
  -4  -6  -4 35368.4 1477.57   2
  -4  -6  -5 197.842 124.231  26
  -4  -6  -5 335.047 189.316   2
   4   6   5 797.506 204.436  53
   4   6   5 227.064 165.456  46
  -4  -6  -5 133.523 127.253  45
  -4  -6  -5 376.051 146.785   8
   4   6   6 13613.9 649.178  27
  -4  -6  -6 13396.8 685.962  26
   4   6   6 12397.3 928.125  53
  -4  -6  -6 13317.2 734.381  45
  -4  -6  -6 14929.3 1054.18   2
   4   6   7 220285. 2565.83  27
  -4  -6  -7 221654. 2818.32  26
  -4  -6  -7 222542. 3020.82  45
   4   6   7 231010. 2803.01  35
   4   6   8 12980.4 682.833  14
  -4  -6  -8 12961.3 671.530  26
   4   6   8 12957.0 652.789  35
   4   6   9 15643.7 707.421  14
  -4  -6  -9 15759.9 675.669  26
   4   6   9 17546.8 756.891  15
   4   6  10 24153.7 762.179  14
   4   6  10 24087.4 784.248  15
  -4  -6 -10 23173.0 738.916   4
   4   6  11 780.042 112.591  19
  -4  -6 -11 844.068 122.431   4
   4   6  11 778.410 120.392  15
  -4  -7   9 3303.19 206.985  45
   4   7  -9 3472.96 240.414  31
  -4  -7   8 21338.9 705.844  45
  -4  -7   8 21329.8 657.680  19
   4   7  -8 20640.4 723.671  33
   4   7  -8 22248.6 731.020  31
   4   7  -8 21683.0 637.004  29
  -4  -7   7 916.684 199.325  45
  -4  -7   7 906.551 176.957  19
   4   7  -7 885.227 173.977  31
   4   7  -7 885.987 157.510  29
  -4  -7   6 151580. 2344.23  45
  -4  -7   6 155246. 2218.07  19
  -4  -7   5 1295.01 233.595   6
  -4  -7   5 1117.40 238.235  45
  -4  -7   5 860.022 199.295  19
  -4  -7   4 112008. 3017.31   3
   4   7  -4 106087. 2842.42  48
  -4  -7   4 108108. 2023.85  45
  -4  -7   4 106444. 1882.48  19
  -4  -7   4 105731. 1911.71   6
  -4  -7   3 1112.51 208.333   6
   4   7  -3 1001.28 268.787  48
  -4  -7   3 1242.81 314.613   3
  -4  -7   3 944.281 209.425  45
  -4  -7   3 1194.47 223.959  19
  -4  -7   2 23443.3 887.660   6
  -4  -7   2 22694.5 1266.47   3
   4   7  -2 23288.0 1180.05  47
  -4  -7   2 23480.2 818.524   9
  -4  -7   2 24146.3 923.610  45
  -4  -7   2 23244.7 866.489  19
   4   7  -2 22505.7 1232.98  48
  -4  -7   1 16779.2 1052.70   3
   4   7  -1 18126.9 1036.11  47
  -4  -7   1 18158.2 741.599  19
  -4  -7   1 18508.7 792.177  45
   4   7  -1 18312.4 1081.68  48
  -4  -7   1 16720.5 741.239   6
  -4  -7   0 78786.8 2161.46   3
   4   7   0 78215.9 2152.92  47
  -4  -7   0 81118.7 1631.21  45
  -4  -7   0 76626.0 1994.00   2
  -4  -7   0 79234.6 1586.46   6
  -4  -7  -1 11.0037 86.4578   2
   4   7   1 104.154 147.724  47
  -4  -7  -1 119.175 107.100  45
   4   7   2 26153.9 1281.75  47
   4   7   2 27915.0 1175.31  46
  -4  -7  -2 26732.8 947.719  45
  -4  -7  -2 28685.0 925.787   8
  -4  -7  -2 28065.1 1309.61   2
  -4  -7  -3 17013.2 701.863  26
   4   7   3 16504.4 1051.44  47
   4   7   3 16541.1 982.379  46
  -4  -7  -3 17315.6 784.713  45
  -4  -7  -3 17206.2 741.739   8
  -4  -7  -3 16655.0 1062.44   2
  -4  -7  -3 16262.8 660.933   4
  -4  -7  -4 187404. 2428.46  26
   4   7   4 188043. 3499.81  46
  -4  -7  -4 180143. 2463.86   8
  -4  -7  -4 184175. 2609.90  45
  -4  -7  -4 178924. 3591.52   2
  -4  -7  -4 187730. 2339.01   4
   4   7   5 4163.24 355.465  27
  -4  -7  -5 3357.91 346.201  26
   4   7   5 4459.70 571.799  46
  -4  -7  -5 3937.68 412.730  45
  -4  -7  -5 3737.66 554.637   2
  -4  -7  -5 3887.27 351.871   4
  -4  -7  -6 31035.1 1115.89  45
  -4  -7  -6 31980.4 1079.85  26
  -4  -7  -6 30610.1 1009.07   4
  -4  -7  -7 6208.92 486.257  26
   4   7   7 6233.83 454.823  35
  -4  -7  -7 5718.06 487.033  45
  -4  -7  -7 6049.13 467.304   4
   4   7   8 4479.56 388.462  14
  -4  -7  -8 4306.65 386.921  26
   4   7   8 4708.60 360.875  35
  -4  -7  -8 4515.89 383.573   4
   4   7   9 15390.1 627.482  14
  -4  -7  -9 16197.2 642.156   4
   4   7   9 15708.1 659.813  15
   4   7  10 1147.05 147.385  14
   4   7  10 1114.19 158.391  19
   4   7  10 932.163 121.366  37
  -4  -7 -10 1399.23 166.986   4
   4   7  10 1104.28 157.545  15
  -4  -8   8 87.8061 71.7354  45
   4   8  -8 86.6809 80.8943  33
   4   8  -8 151.431 75.8720  31
  -4  -8   7 6506.95 363.604  19
  -4  -8   7 6773.90 443.274  45
   4   8  -7 7112.95 406.333  31
  -4  -8   6 5595.33 450.562  45
  -4  -8   6 5316.84 379.955  19
  -4  -8   6 5253.15 374.621   6
   4   8  -6 5364.47 383.920  31
  -4  -8   5 77043.3 1712.81  45
  -4  -8   5 77002.3 1523.72  19
  -4  -8   5 75474.7 1573.33   6
  -4  -8   4 14844.4 735.199   6
  -4  -8   4 15013.3 780.817  45
  -4  -8   4 15955.9 718.948  19
  -4  -8   3 56796.2 1493.23  45
  -4  -8   3 59358.4 1392.92  19
  -4  -8   3 59808.3 1494.82   6
  -4  -8   2 78922.8 2507.52   3
  -4  -8   2 80008.0 1748.49  45
  -4  -8   2 80986.0 1732.31   6
   4   8  -2 81837.7 2478.21  48
  -4  -8   1 4935.14 438.700  45
   4   8  -1 4966.95 569.036  47
  -4  -8   1 4784.49 381.538   9
   4   8  -1 4719.46 592.982  48
  -4  -8   1 4663.62 423.418   6
   4   8   0 20609.3 1226.89  48
   4   8   0 20740.8 1170.22  47
  -4  -8   0 19309.7 846.232  45
  -4  -8   0 18005.3 1048.97   2
  -4  -8   0 19630.7 849.618   6
   4   8   1 10987.2 872.567  47
  -4  -8  -1 10166.3 566.157   8
  -4  -8  -1 9591.38 794.290   2
  -4  -8  -1 11217.3 648.255  45
  -4  -8  -1 9958.12 597.229   6
  -4  -8  -2 4426.06 353.246  26
   4   8   2 4683.28 580.184  47
  -4  -8  -2 4498.65 419.871  45
  -4  -8  -2 4743.63 591.138   2
  -4  -8  -2 4961.61 376.276   4
  -4  -8  -3 2096.28 271.500  26
   4   8   3 2077.00 405.069  47
   4   8   3 2335.97 377.684  46
  -4  -8  -3 2579.65 330.944  45
  -4  -8  -3 2781.84 474.142   2
  -4  -8  -3 2602.95 288.404   4
  -4  -8  -4 24238.1 908.497  26
   4   8   4 25445.8 1412.09  47
   4   8   4 24721.5 1318.20  46
  -4  -8  -4 25813.4 1002.33  45
  -4  -8  -4 24246.1 873.174   4
  -4  -8  -5 13580.9 700.414  26
  -4  -8  -5 13803.4 670.457   4
  -4  -8  -5 14051.9 747.143  45
  -4  -8  -6 43663.0 1242.13  26
  -4  -8  -6 43913.6 1277.15  45
  -4  -8  -6 44522.1 1191.63   4
   4   8   7 22586.0 829.156  14
   4   8   7 23116.0 775.486  35
  -4  -8  -7 23324.5 833.618   4
   4   8   8 35846.2 939.873  14
  -4  -8  -8 37489.4 979.961   4
  -4  -8  -9 22899.5 666.456   4
   4   8   9 22013.1 668.397  15
  -4  -9   7 6933.88 385.500  45
  -4  -9   6 4478.04 364.059  45
  -4  -9   5 1156.94 199.489   6
  -4  -9   5 911.379 195.140  45
  -4  -9   4 14234.9 733.654  45
  -4  -9   4 13972.8 699.606   6
  -4  -9   3 4048.78 407.444  45
  -4  -9   3 4276.12 411.660   6
  -4  -9   2 2994.89 356.954  45
  -4  -9   2 3053.39 352.714   6
  -4  -9   1 20906.3 915.845  45
  -4  -9   1 20758.1 897.466   6
  -4  -9   0 14397.3 751.478  45
  -4  -9   0 14661.3 745.291   6
  -4  -9  -1 21741.7 921.528  45
  -4  -9  -1 21913.6 792.127   4
  -4  -9  -2 28481.1 1050.89  45
  -4  -9  -2 27112.9 902.596   4
  -4  -9  -3 5242.01 462.552  45
  -4  -9  -3 5336.65 416.690   4
  -4  -9  -4 10481.7 631.216  45
  -4  -9  -4 9349.38 549.345   4
  -4  -9  -5 21273.2 806.555   4
  -4  -9  -5 20343.4 844.595  45
  -4  -9  -6 7653.77 489.393  45
   4   9   6 6997.73 408.109  35
  -4  -9  -6 6772.15 445.862   4
   4   9   7 7790.47 415.364  14
  -4  -9  -7 7260.44 427.238   4
   4   9   8 1672.17 166.672  14
  -4  -9  -8 1669.13 188.446   4
   4   9   8 1600.59 178.398  15
  -4 -10   6 2140.54 218.503  45
   4  10  -6 793.499 125.330  33
  -4 -10   5 7435.76 451.539  45
  -4 -10   4 5745.90 435.543  45
  -4 -10   4 5626.38 409.304   6
  -4 -10   3 22382.2 867.739  45
  -4 -10   3 22851.1 862.777   6
  -4 -10   2 7385.20 528.319  45
  -4 -10   2 8015.26 542.152   6
  -4 -10   1 13335.7 702.837  45
  -4 -10   1 13814.4 710.713   6
  -4 -10   0 2817.42 334.974  45
  -4 -10  -1 514.978 153.161   4
  -4 -10  -1 241.585 130.512  45
  -4 -10  -2 17806.7 791.472  45
  -4 -10  -2 18113.1 709.022   4
  -4 -10  -3 11169.4 567.189   4
  -4 -10  -3 11716.3 626.991  45
  -4 -10  -4 700.830 145.390   4
  -4 -10  -4 270.529 105.367  45
  -4 -10  -5 370.007 117.825   4
  -4 -10  -5 500.416 130.368  45
   4  10   6 45766.4 856.042  14
  -4 -10  -6 46086.9 996.044   4
  -4 -10  -7 156.878 75.5193   4
   4  10   7 85.0819 45.9142  15
  -4 -11   5 1030.86 140.145  45
  -4 -11   4 2214.01 226.818  45
  -4 -11   3 36549.9 941.477  45
  -4 -11   2 1848.17 239.977  45
  -4 -11   1 123902. 1860.40  45
  -4 -11   0 6114.33 424.987  45
  -4 -11  -1 48366.2 1156.13  45
  -4 -11  -1 47146.6 992.078   4
  -4 -11  -2 4921.68 362.659  45
  -4 -11  -2 4932.71 328.369   4
  -4 -11  -3 3691.62 297.747  45
  -4 -11  -3 3343.29 271.757   4
  -4 -11  -4 135.576 78.4765   4
  -4 -11  -4 154.061 77.8898  45
  -4 -11  -5 7855.44 357.829   4
  -4 -11  -6 1408.73 136.405   4
  -4 -12   2 745.498 117.584  45
  -4 -12   1 5878.24 310.011  45
  -4 -12   0 164.475 75.5255  45
  -4 -12  -1 10442.6 392.030  45
  -4 -12  -2 13884.3 384.977   4
   5  -8  -2 23123.3 586.268   5
   5  -8  -1 14664.4 511.063   5
   5  -8   0 9504.36 436.289   5
   5  -8   1 48345.1 988.215   5
   5  -8   2 58169.0 1087.91   5
   5  -8   3 1041.46 152.902   5
   5  -8   4 12051.2 453.170   5
  -5   7   4 4267.76 240.539  38
   5  -7  -4 4619.18 278.402   5
  -5   7   4 3889.94 237.801  39
  -5   7   3 5.61699 49.0711  38
   5  -7  -3 84.4431 77.2099   5
  -5   7   3 31.2112 58.5565  39
   5  -7  -2 16525.1 635.204   5
   5  -7  -1 10117.4 529.180   5
   5  -7   0 2586.67 287.437   5
   5  -7   1 1099.54 213.251   5
   5  -7   2 27729.9 896.666   5
   5  -7   3 1422.89 212.586   5
   5  -7   4 11094.8 543.260   5
   5  -7   4 10629.9 487.745   6
   5  -7   5 666.194 137.346   6
   5  -7   5 845.911 153.949   5
   5  -7   6 4778.75 311.902   6
   5  -7   7 3809.08 249.404   6
   5  -6  -6 159.159 62.7898   5
  -5   6   6 159.202 68.8771  39
  -5   6   6 151.970 69.9147  38
   5  -6  -5 3888.49 285.329   5
  -5   6   5 3841.66 246.706  17
   5  -6  -4 18927.5 686.022   5
   5  -6  -3 9928.47 542.109   5
   5  -6  -2 11887.0 616.363   5
   5  -6  -1 13560.0 671.436   5
   5  -6   0 3126.99 337.160   5
   5  -6   1 24572.4 916.125   5
   5  -6   2 5292.49 434.274   5
   5  -6   3 21898.1 850.307   5
   5  -6   3 20829.7 778.616   6
   5  -6   4 6548.86 469.814   5
   5  -6   4 7175.69 471.756   6
   5  -6   5 2976.33 302.738   5
   5  -6   5 3013.66 311.200   6
   5  -6   6 1542.24 219.400   6
   5  -6   7 671.668 142.721   6
  -5   6  -8 1663.87 161.178  21
   5  -6   8 1584.81 184.867   6
  -5   5   7 4981.74 280.873  38
   5  -5  -7 5216.30 270.348   5
  -5   5   7 4720.45 275.924  39
  -5   5   7 4433.13 256.138  17
   5  -5  -6 23620.6 707.450   5
  -5   5   6 21874.8 644.476  18
  -5   5   6 21520.4 673.337  17
   5  -5  -5 9357.16 509.567   5
  -5   5   5 8157.85 439.031  18
   5  -5  -4 78.4783 114.151   5
  -5   5   4 296.364 95.3409  18
   5  -5  -4 270.479 111.385  11
   5  -5  -3 7501.45 463.190  11
   5  -5  -3 7036.66 490.850   5
   5  -5  -2 3788.97 376.512   5
   5  -5  -2 3466.61 324.606  33
   5  -5  -1 6681.52 490.977   5
   5  -5  -1 7020.12 471.177  33
   5  -5   0 42533.1 1214.56   5
   5  -5   0 41185.6 1179.57  33
   5  -5   1 23750.2 911.839   5
   5  -5   1 24231.5 909.070  33
   5  -5   2 67090.0 1524.13   5
   5  -5   2 67893.5 1426.91  10
   5  -5   2 66663.0 1558.79  33
   5  -5   3 1246.85 221.482   6
   5  -5   3 928.859 180.633  10
   5  -5   3 904.730 196.551   5
   5  -5   4 31149.5 1023.82   6
   5  -5   4 30594.9 1020.76   5
   5  -5   4 29331.1 1006.76  10
   5  -5   5-116.293 131.432   6
   5  -5   5 225.719 133.661  10
   5  -5   5 101.830 109.825   5
   5  -5   6 3047.04 333.684   6
   5  -5   6 2842.54 307.214   5
  -5   5  -6 2911.81 280.708  24
   5  -5   7 17619.0 744.150   6
  -5   5  -7 18783.0 663.997  20
   5  -5   8 105.281 91.7833   6
  -5   5  -9 2614.19 210.499  21
   5  -5   9 2321.62 220.389   6
   5  -4  -8 4892.53 250.775   5
  -5   4   8 4372.32 242.594  38
  -5   4   8 4698.43 244.629  39
  -5   4   8 4937.38 269.795  17
   5  -4  -7 6632.15 305.306  11
  -5   4   7 6557.57 391.230  17
  -5   4   7 6816.07 395.679  38
   5  -4  -7 6490.59 371.937   5
  -5   4   7 6727.76 385.953  18
   5  -4  -6 9842.12 461.946  11
   5  -4  -6 9866.21 525.766   5
  -5   4   6 9501.76 516.788  18
   5  -4  -5 66242.4 1334.58  11
   5  -4  -5 67143.4 1471.72   5
  -5   4   5 64180.2 1401.28  18
   5  -4  -4 11605.8 603.197  11
   5  -4  -4 12377.2 656.513   5
  -5   4   4 10877.8 592.544  18
   5  -4  -3 97702.7 1749.29  11
   5  -4  -3 97142.2 1846.04   5
  -5   4   3 97989.1 1709.44  18
   5  -4  -3 98049.9 1671.41  33
   5  -4  -2 13020.5 652.894  11
   5  -4  -2 12115.6 651.969   5
  -5   4   2 12943.8 986.255  44
  -5   4   2 14086.7 1047.92  43
   5  -4  -2 12924.8 631.826  33
   5  -4  -1 39526.2 1132.86  11
   5  -4  -1 38683.3 1134.27   5
  -5   4   1 40251.3 1736.12  43
   5  -4  -1 40547.0 1708.64   1
   5  -4  -1 40459.0 1129.65  33
   5  -4   0 3484.76 347.664   5
   5  -4   0 3511.72 491.855   1
  -5   4   0 3576.75 522.015  43
   5  -4   0 3561.90 347.571  33
  -5   4  -1 31659.2 1521.97  43
   5  -4   1 30517.8 997.569   5
   5  -4   1 28008.9 1386.92   1
   5  -4   1 28004.4 1348.01  40
   5  -4   1 28436.8 881.219  10
   5  -4   1 28391.0 975.388  33
   5  -4   2 1370.91 231.257   5
  -5   4  -2 1229.39 310.509  43
   5  -4   2 1185.93 318.897  40
   5  -4   2 1463.95 234.861  33
   5  -4   2 1364.27 207.009  10
   5  -4   3 81524.8 1595.83   6
   5  -4   3 83550.8 1638.86  10
   5  -4   3 81257.9 1618.44   5
  -5   4  -3 79922.7 2412.43  43
   5  -4   3 79846.2 2407.72  40
   5  -4   3 78727.8 1673.11  33
   5  -4   4 31754.9 1030.89   6
   5  -4   4 30455.6 992.981   5
   5  -4   4 32090.6 1050.90  10
  -5   4  -4 31689.4 1534.77  43
   5  -4   4 30746.2 1535.97  40
  -5   4  -4 32818.3 1509.67  41
   5  -4   5 123500. 2091.25   6
   5  -4   5 120956. 1975.48   5
   5  -4   5 121232. 2106.38  10
   5  -4   6 37307.5 1169.59   6
   5  -4   6 36427.7 1063.78   5
   5  -4   6 37268.8 1183.42  10
   5  -4   7 8577.23 559.454   6
  -5   4  -7 8350.14 485.879  24
   5  -4   8 14977.2 690.722   6
  -5   4  -8 16062.9 652.072  20
   5  -4   9 4157.55 292.367  27
  -5   4  -9 4458.78 333.107  21
  -5   4  -9 4631.22 305.712  20
   5  -4   9 4501.79 339.873   6
   5  -4  10 984.325 122.780  27
  -5   4 -10 1263.75 156.981  25
  -5   4 -10 1400.36 152.509  21
   5  -4  10 1093.72 137.535   6
   5  -3  -8 5640.60 329.387   5
   5  -3  -8 5139.51 262.206  11
  -5   3   8 5312.01 308.265  39
  -5   3   8 5429.24 321.700  38
  -5   3   8 5612.36 345.945  18
  -5   3   8 5426.10 343.907  17
   5  -3  -7-9.48875 72.9400  11
  -5   3   7 54.1196 109.766  18
   5  -3  -7 61.1492 92.6930  21
   5  -3  -6 46.3177 76.5183  11
   5  -3  -6 69.3089 104.690  21
  -5   3   6-64.7211 75.9438  37
  -5   3   6 52.4450 102.540  18
   5  -3  -5 14709.6 730.786  21
   5  -3  -5 15214.4 700.256  11
  -5   3   5 14310.5 651.194  37
  -5   3   5 14487.0 716.897  18
   5  -3  -4 4604.42 369.078  12
   5  -3  -4 3400.40 365.298  21
   5  -3  -4 3988.61 344.721  33
   5  -3  -4 4484.72 391.736  11
  -5   3   4 3306.55 355.527  18
   5  -3  -3 13767.0 635.878  12
   5  -3  -3 13129.4 689.329  21
  -5   3   3 13305.1 1006.66  44
  -5   3   3 15361.4 1071.85  43
   5  -3  -3 14148.5 676.263  11
  -5   3   3 12922.4 651.636  18
   5  -3  -3 13295.6 634.303  33
   5  -3  -3 13682.7 1036.41   1
   5  -3  -2 81862.5 1554.50  33
   5  -3  -2 83718.8 1561.43  12
   5  -3  -2 83593.5 1609.33  11
  -5   3   2 83949.2 2249.39  50
   5  -3  -2 84995.6 2461.92   1
  -5   3   2 83336.9 2435.00  43
   5  -3  -1 11538.3 596.008  11
   5  -3  -1 11572.6 602.683   5
   5  -3  -1 12168.7 602.467  33
   5  -3  -1 12016.0 905.398   1
  -5   3   1 12145.5 911.780  43
   5  -3   0 3270.58 315.074  11
   5  -3   0 2316.08 397.210   1
   5  -3   0 3225.08 315.346   5
   5  -3   0 2678.04 290.637  33
  -5   3   0 2876.71 451.593  43
  -5   3  -1 21425.2 1176.21  43
   5  -3   1 20437.8 1057.08  40
   5  -3   1 21151.1 1164.29   1
   5  -3   1 21894.1 810.336  33
   5  -3   2 30439.7 1384.42   1
   5  -3   2 29425.5 900.331  10
   5  -3   2 28977.4 1297.62  40
   5  -3   2 28199.8 928.911  33
  -5   3  -2 30311.9 1384.55  43
   5  -3   3 8467.83 500.272   5
   5  -3   3 8406.39 506.487  10
  -5   3  -3 8097.45 726.134  43
  -5   3  -3 7589.34 696.463  41
   5  -3   3 7427.32 690.809  40
   5  -3   3 8026.21 511.498  33
   5  -3   4 1027.60 170.811   5
  -5   3  -4 1088.13 276.584  43
  -5   3  -4 1440.41 322.357  41
   5  -3   4 1021.65 292.390  40
   5  -3   4 1866.43 256.979  10
   5  -3   4 1027.44 202.750  33
   5  -3   5 138710. 2026.42   5
  -5   3  -5 141419. 3179.74  41
  -5   3  -5 141183. 3097.07  43
   5  -3   5 140335. 3232.42  40
   5  -3   5 142847. 2225.19  10
   5  -3   6 2166.82 294.744  10
   5  -3   7 34860.3 1009.13  27
  -5   3  -7 35308.0 1071.91  24
   5  -3   7 35953.4 1146.36  10
   5  -3   8 28317.1 911.023  27
   5  -3   8 29796.4 1012.76   6
  -5   3  -8 28998.2 899.896  24
  -5   3  -8 28662.0 966.721  20
   5  -3   9 16825.6 694.334   6
   5  -3   9 15387.7 639.432  27
  -5   3  -9 16634.3 668.108  20
  -5   3  -9 16349.3 698.756  21
   5  -3  10 82.7114 81.7384  27
   5  -3  10 122.334 61.1636   6
  -5   3 -10 258.425 100.698  25
  -5   3 -10 163.169 90.5885  21
  -5   3 -10 154.664 57.7486  20
   5  -3  11 4053.08 230.984  27
  -5   3 -11 4722.59 257.725  25
  -5   3 -11 4495.65 243.880  21
  -5   3 -11 4568.42 237.341  28
  -5   2   9 4541.98 263.863  17
   5  -2  -8 108.648 71.7890  11
   5  -2  -8 9.85552 77.5222  21
  -5   2   8 46.1351 72.1758  38
  -5   2   8 196.880 89.2236  19
  -5   2   8 103.717 84.1982  18
  -5   2   8 140.581 113.207  17
  -5   2   8 90.4088 77.4305  39
   5  -2  -7 8955.09 515.111  21
  -5   2   7 8838.83 478.019  19
  -5   2   7 9121.17 553.564  18
   5  -2  -6 460.778 124.089  12
   5  -2  -6 202.753 126.915  21
  -5   2   6 140.159 108.868  37
  -5   2   6 103.623 134.072  18
   5  -2  -5 1161.69 226.458  21
   5  -2  -5 988.784 179.191  12
  -5   2   5 1261.21 210.951  37
  -5   2   5 1127.05 234.003  18
   5  -2  -5 1048.93 189.239  33
   5  -2  -4 64142.4 1381.19  12
   5  -2  -4 60996.0 1446.14  21
  -5   2   4 62412.5 2177.37  44
  -5   2   4 60226.3 1461.94  18
   5  -2  -4 61409.4 1345.76  33
  -5   2   4 58965.7 2002.07  50
   5  -2  -4 66733.9 2255.17   1
  -5   2   3 49848.1 1786.04  50
  -5   2   3 50096.8 1846.69  43
   5  -2  -3 49785.3 1198.28  12
   5  -2  -3 49635.3 1264.00  21
  -5   2   3 49280.4 1870.17  44
  -5   2   3 51322.1 1279.31  18
   5  -2  -3 49406.0 1202.37  33
   5  -2  -3 50543.6 1900.89   1
   5  -2  -2 1012.00 172.262  12
   5  -2  -2 1214.18 199.180  11
  -5   2   2 1399.17 313.764  43
   5  -2  -2 901.398 273.774   1
   5  -2  -2 857.767 181.806  21
  -5   2   2 916.960 251.096  50
   5  -2  -2 955.493 173.696  33
  -5   2   1 74579.4 1804.37  51
  -5   2   1 80387.0 2176.95  43
   5  -2  -1 79268.1 2199.98   1
  -5   2   0 9737.07 742.933  43
   5  -2   0 9628.77 748.662   1
  -5   2  -1 9344.01 711.259  43
   5  -2   1 8400.83 606.776  40
   5  -2   1 8635.25 706.490   1
   5  -2   2 58716.9 1816.92   1
  -5   2  -2 58939.0 1762.83  43
  -5   2  -2 56255.0 1748.91  41
   5  -2   2 53224.2 1591.49  40
  -5   2  -3 22367.6 1104.39  43
  -5   2  -3 22474.0 1133.80  41
   5  -2   3 21524.1 1073.69  40
  -5   2  -4 5724.40 569.448  43
   5  -2   4 5335.37 400.698  10
  -5   2  -4 5639.65 603.368  41
   5  -2   4 5410.59 576.136  40
   5  -2   5 133119. 2054.90  10
  -5   2  -5 135505. 3015.23  41
   5  -2   5 133509. 3005.31  40
   5  -2   6 59512.4 1296.42  27
  -5   2  -6 58510.4 2078.09  41
   5  -2   6 62947.2 2173.21  40
   5  -2   6 58220.2 1417.05  10
   5  -2   7 52191.4 1275.29  27
  -5   2  -7 52722.7 1360.82  24
   5  -2   7 53348.6 1381.86  10
   5  -2   8 10567.7 600.504  27
  -5   2  -8 9654.03 570.808  24
   5  -2   8 9854.92 583.970  10
  -5   2  -8 10311.1 616.514  20
   5  -2   9 20965.4 807.154  27
   5  -2   9 20753.9 798.011   6
  -5   2  -9 21292.3 841.007  20
  -5   2  -9 19879.1 815.304  21
   5  -2  10 83.3605 84.1290  27
   5  -2  10 54.9864 76.1217   6
  -5   2 -10 83.9796 101.785  25
  -5   2 -10 55.3676 82.5439  21
  -5   2 -10 109.032 76.1036  20
   5  -2  11 161.130 85.1130  27
  -5   2 -11-3.03350 60.8303  25
  -5   2 -11 138.930 67.2577  21
  -5   2 -11 151.106 63.5400  28
   5  -1  -9 7318.95 346.911  11
  -5   1   9 6729.08 340.159  19
  -5   1   9 6800.17 350.777  17
   5  -1  -8 453.903 120.884  21
  -5   1   8 353.656 105.999  38
  -5   1   8 305.199 107.602  19
  -5   1   8 460.105 154.206  18
  -5   1   8 297.093 124.179  17
  -5   1   8 453.384 117.144  39
   5  -1  -7 8345.81 477.154  12
   5  -1  -7 8640.06 512.728  21
  -5   1   7 7798.63 501.522  19
  -5   1   7 8675.22 529.699  38
  -5   1   7 8533.39 558.320  18
   5  -1  -6 7058.97 470.148  12
   5  -1  -6 7512.42 506.970  21
  -5   1   6 7141.50 489.707  19
  -5   1   6 7621.34 523.259  37
  -5   1   6 7596.72 547.814  18
   5  -1  -6 7960.27 486.237  33
   5  -1  -5 80915.2 2503.53   1
   5  -1  -5 81135.3 1598.02  12
   5  -1  -5 82076.1 1649.87  21
  -5   1   5 82844.0 2518.43  44
  -5   1   5 81197.0 1593.29  19
  -5   1   5 82438.3 1652.68  37
  -5   1   5 80950.6 1742.86  18
   5  -1  -5 80194.0 1576.12  33
   5  -1  -4 73384.7 2292.53   1
   5  -1  -4 73802.6 1492.08  12
   5  -1  -4 72446.5 1500.81  21
  -5   1   4 72873.0 2251.28  50
  -5   1   4 72810.9 2269.77  44
  -5   1   4 72836.2 1474.18  37
  -5   1   4 73529.0 1579.80  18
   5  -1  -4 71161.4 1469.29  33
   5  -1  -3 56552.1 1913.23   1
   5  -1  -3 57167.6 1261.03  12
  -5   1   3 59503.5 1930.64  50
  -5   1   3 58506.8 1893.58  43
  -5   1   3 55888.9 1302.70  18
   5  -1  -3 58064.1 1276.72  33
  -5   1   2 1028.56 257.562  50
  -5   1   2 1406.20 291.060  43
   5  -1  -2 1354.75 295.253   1
  -5   1   1 19134.9 891.566  51
  -5   1   1 21253.4 1031.55  43
   5  -1  -1 20573.8 1057.53   1
  -5   1   0 12054.0 744.758  43
   5  -1   0 11072.8 758.684   1
   5  -1   1 25678.9 1137.16   1
  -5   1  -1 27089.5 1086.10  43
   5  -1   1 28289.6 986.039  40
  -5   1  -2 37189.2 1266.48  43
   5  -1   2 36477.0 1355.92   1
  -5   1  -2 35593.5 1326.54  41
   5  -1   2 34681.5 1171.35  40
  -5   1  -3 13644.9 782.913  43
  -5   1  -3 12484.4 815.036  41
   5  -1   3 12649.1 761.070  40
  -5   1  -4 8841.82 641.440  43
   5  -1   4 8167.75 664.577  40
  -5   1  -4 7761.95 672.980  41
  -5   1  -5 60345.3 1948.68  41
   5  -1   5 58574.7 1891.77  40
   5  -1   6 68065.5 1394.61  27
  -5   1  -6 66387.5 1420.51  26
  -5   1  -6 65933.9 1487.93  24
   5  -1   6 67282.8 1464.34  10
   5  -1   6 68287.6 2175.53  40
  -5   1  -6 68959.6 2175.91  41
   5  -1   7 11674.8 618.989  27
  -5   1  -7 10761.9 620.618  24
  -5   1  -7 11884.3 921.075  52
   5  -1   7 11426.7 623.237  10
  -5   1  -7 12593.3 979.873  41
   5  -1   7 11209.9 942.818  40
   5  -1   8 12663.8 661.418  27
  -5   1  -8 12701.8 672.861  24
   5  -1   8 13192.2 656.733  10
  -5   1  -8 11854.5 684.857  20
   5  -1   9 24470.7 910.116  27
  -5   1  -9 23383.3 906.077  21
  -5   1  -9 23113.4 916.383  20
   5  -1  10 527.872 151.949  27
   5  -1  10 642.692 127.028   6
  -5   1 -10 1082.12 198.205  21
  -5   1 -10 841.974 182.409  20
  -5   1 -10 879.049 182.692  25
   5  -1  11 900.303 163.356  27
  -5   1 -11 1184.62 169.146  25
  -5   1 -11 995.585 158.415  21
  -5   1 -11 1082.14 138.874  28
   5   0  -9 11895.4 412.728  12
  -5   0   9 12610.7 525.414  19
  -5   0   9 11859.2 461.287  17
  -5   0   9 12058.2 469.132  15
   5   0  -8 906.658 157.174  12
   5   0  -8 1107.25 175.957  21
  -5   0   8 731.422 157.655  19
  -5   0   8 909.350 156.663  38
  -5   0   8 1081.90 201.122  18
  -5   0   8 867.177 175.210  17
  -5   0   8 629.146 149.398  15
   5   0  -7 8081.29 489.471  21
  -5   0   7 8374.73 539.809  19
  -5   0   7 7789.03 472.729  39
  -5   0   7 7757.59 489.503  38
  -5   0   7 7611.05 526.381  18
   5   0  -7 8583.71 494.772  33
  -5   0   7 7853.55 505.350  15
   5   0  -6 20.9020 85.7266  21
  -5   0   6 158.029 98.8398  19
  -5   0   6 182.031 130.278  18
   5   0  -6 12.8389 82.7971  33
   5   0  -6-29.5193 128.624  31
   5   0  -5 3207.33 514.456   1
   5   0  -5 2382.98 283.349  21
  -5   0   5 2247.97 398.498  44
  -5   0   5 3314.48 342.258  19
  -5   0   5 2712.52 309.314  37
  -5   0   5 2668.58 314.751  18
   5   0  -5 2770.34 302.664  33
   5   0  -5 2870.95 315.737  31
   5   0  -4 1315.32 302.079   1
  -5   0   4 2134.22 374.241  44
  -5   0   4 2062.46 249.565  19
  -5   0   4 2517.29 281.679  37
  -5   0   4 2111.48 263.499  18
   5   0  -4 1981.22 253.267  33
   5   0  -4 1930.92 238.983  21
  -5   0   4 2271.56 403.213  50
   5   0  -4 1618.35 226.832  31
  -5   0   3 233.102 144.013  50
   5   0  -3 54.3606 161.316   1
  -5   0   2 23229.7 1128.61  50
  -5   0   2 23193.5 971.993  51
  -5   0   2 23221.4 1061.14  43
   5   0  -2 21803.8 1071.65   1
  -5   0   1 43050.8 1312.10  51
  -5   0   1 40248.5 1318.62  43
   5   0  -1 39664.7 1380.82   1
   5   0   0 40229.7 1350.54   1
  -5   0   0 40568.8 1281.00  51
  -5   0   0 39744.7 1230.14  43
   5   0   1 627.274 180.853   1
  -5   0  -1 566.828 158.934  43
   5   0   1 554.334 119.197  40
   5   0   2 48399.2 1480.12   1
  -5   0  -2 48293.5 1279.81  43
  -5   0  -2 49425.8 1478.10  41
   5   0   2 46676.6 1228.01  40
  -5   0  -3 1918.56 265.441  43
  -5   0  -3 1717.09 305.422  41
  -5   0  -4 95847.6 2213.35  41
   5   0   4 92676.3 2104.32  40
   5   0   4 96311.6 2228.57  54
   5   0   5 1105.56 269.365  54
  -5   0  -5 1048.66 270.481  41
   5   0   6 1650.48 231.455  27
  -5   0  -6 1431.92 210.732  26
  -5   0  -6 1853.34 255.432  24
   5   0   6 1333.33 200.613  10
  -5   0  -6 1497.03 322.101  41
   5   0   6 1688.24 348.792  54
   5   0   7 15646.1 716.234  27
  -5   0  -7 14343.2 672.378  26
  -5   0  -7 15357.7 736.984  24
  -5   0  -7 14408.2 1016.05  52
   5   0   7 14590.3 981.150  54
  -5   0  -7 15439.1 1044.92  41
   5   0   7 15521.1 689.856  10
   5   0   8 88983.3 1762.56  27
  -5   0  -8 89555.0 1795.20  21
  -5   0  -8 91051.4 1819.45  24
  -5   0  -8 87115.5 1817.14  20
   5   0   9 136.853 129.467  27
  -5   0  -9 163.103 122.965  21
  -5   0  -9 93.3885 100.490  20
   5   0  10 16516.2 730.600  27
  -5   0 -10 16834.8 709.715  25
  -5   0 -10 16634.1 719.121  21
  -5   0 -10 15733.8 711.854  20
  -5   0 -10 15570.6 611.274  28
   5   0  11 9678.72 492.091  27
  -5   0 -11 10046.7 468.444  25
  -5   0 -11 9796.64 479.935  21
   5   0  12 16028.1 482.322  27
  -5   0 -12 18175.0 491.337  21
  -5  -1  10 4686.53 258.730  19
   5   1  -9 6023.54 342.636  12
  -5  -1   9 6462.41 399.822  19
  -5  -1   9 5912.85 367.956  15
  -5  -1   8 462.887 154.284  19
  -5  -1   8 365.199 130.354  17
   5   1  -8 566.946 124.501  33
   5   1  -8 515.347 136.193  31
  -5  -1   8 441.726 154.137  15
  -5  -1   7 25558.5 844.830  38
  -5  -1   7 26719.7 984.111  19
  -5  -1   7 28255.1 1006.83  18
  -5  -1   7 26935.4 942.851  17
   5   1  -7 27597.8 925.901  33
  -5  -1   7 28036.1 978.947  15
   5   1  -7 28477.2 975.539  31
  -5  -1   6-67.1811 105.005  39
  -5  -1   6-4.48723 115.575  38
  -5  -1   6-12.1097 110.570  19
  -5  -1   6-29.3143 96.8965  18
   5   1  -6 56.0232 90.2675  33
   5   1  -6 158.217 123.283  31
  -5  -1   6 148.971 114.807  15
   5   1  -5 46619.9 1775.79   1
  -5  -1   5 48661.9 1876.68  49
  -5  -1   5 45700.7 1701.06  44
  -5  -1   5 43643.5 1210.96  19
  -5  -1   5 46715.4 1268.73  18
  -5  -1   5 45309.1 1183.68  38
   5   1  -5 46598.7 1236.96  33
  -5  -1   5 45733.2 1212.40  15
   5   1  -5 49374.3 1278.89  31
   5   1  -4 1376.33 301.464   1
  -5  -1   4 1585.90 315.312  44
  -5  -1   4 967.091 265.878  50
  -5  -1   4 1031.62 193.547  18
   5   1  -4 1204.70 201.312  33
   5   1  -4 983.604 186.720  31
   5   1  -3 1505.82 296.298   1
  -5  -1   3 1170.95 275.808  50
  -5  -1   2 54991.0 1672.92  50
  -5  -1   2 56745.3 1542.77  51
   5   1  -2 55534.7 1602.55   1
  -5  -1   1 4934.88 452.374  51
  -5  -1   1 5514.88 457.645  43
   5   1  -1 5074.45 466.893   1
  -5  -1   0 1995.51 305.752  51
  -5  -1   0 2440.70 283.838  43
   5   1   0 2523.89 328.778   1
  -5  -1  -1 112750. 1785.08  43
   5   1   1 115400. 1824.88  47
   5   1   1 107648. 2039.24   1
   5   1   1 110318. 1509.82  40
   5   1   2 112022. 1704.48  47
   5   1   2 105874. 2062.31  54
   5   1   2 105016. 2059.47   1
  -5  -1  -2 102172. 1634.23  43
  -5  -1  -2 113760. 2113.10  41
   5   1   2 108281. 1750.83  40
  -5  -1  -3 12103.2 711.032  41
   5   1   3 10799.1 699.499  54
   5   1   3 12260.6 544.540  47
  -5  -1  -3 11704.6 545.809  43
   5   1   4 12641.9 800.273  54
  -5  -1  -4 12529.9 757.333  41
   5   1   5 91759.0 2246.39  54
  -5  -1  -5 89164.6 2128.80  41
   5   1   6 76699.6 1489.78  27
   5   1   6 76103.7 1491.25  13
   5   1   6 78302.7 2172.85  54
  -5  -1  -6 73873.7 1508.93  24
  -5  -1  -6 77060.6 2105.79  41
   5   1   6 73863.8 1451.65  35
   5   1   7 74471.6 1428.89  14
   5   1   7 74271.9 1563.23  27
  -5  -1  -7 73453.3 1512.07  26
   5   1   7 76541.4 2233.73  54
  -5  -1  -7 73877.7 1589.91  24
  -5  -1  -7 73302.8 1589.73  20
  -5  -1  -7 76123.5 2213.80  41
  -5  -1  -7 73086.9 1515.79   7
   5   1   8 33584.5 1008.15  14
   5   1   8 35198.4 1125.48  27
  -5  -1  -8 36568.1 1056.10  26
  -5  -1  -8 36676.0 1124.60  21
  -5  -1  -8 34978.0 1146.20  20
  -5  -1  -8 33927.8 1554.29  41
   5   1   8 37232.1 1602.72  54
  -5  -1  -8 36777.3 1072.96   7
   5   1   9 12846.6 686.210  27
  -5  -1  -9 11576.7 612.285  25
  -5  -1  -9 11146.3 626.694  21
  -5  -1  -9 11075.8 650.616  20
   5   1   9 11492.4 599.122  14
   5   1  10 130.767 130.648  27
  -5  -1 -10 71.4596 88.7186  25
  -5  -1 -10 236.688 112.865  21
  -5  -1 -10 192.823 145.983  20
   5   1  11 1298.89 192.739  27
  -5  -1 -11 967.606 151.676  25
  -5  -1 -11 1027.70 167.833  21
   5   1  12 173.431 75.8998  27
  -5  -1 -12 242.058 73.8833  21
  -5  -2  10 5805.45 299.583  19
  -5  -2   9 656.130 155.429  19
   5   2  -9 755.907 122.951  33
   5   2  -9 813.072 147.458  31
  -5  -2   9 917.902 167.096  15
  -5  -2   8 1923.82 272.678  19
   5   2  -8 1826.29 230.975  33
   5   2  -8 1618.17 238.619  31
  -5  -2   8 1360.99 227.851  15
  -5  -2   7 1581.71 262.433  19
  -5  -2   7 1859.51 251.123  17
   5   2  -7 2275.05 282.119  33
  -5  -2   7 2065.18 291.778  15
   5   2  -7 2268.32 302.079  31
  -5  -2   6 17163.1 1166.78  49
  -5  -2   6 18017.7 818.328  19
  -5  -2   6 16870.7 775.983  18
  -5  -2   6 16936.2 740.184  17
   5   2  -6 17164.9 773.497  33
  -5  -2   6 16545.4 773.124  15
   5   2  -6 16962.1 788.517  31
   5   2  -5 2123.52 382.850   1
   5   2  -5 1970.04 342.409  48
  -5  -2   5 2055.69 279.779  19
  -5  -2   5 2087.98 257.594  17
  -5  -2   5 2181.49 277.718  18
  -5  -2   5 2457.81 415.014  49
   5   2  -5 2390.76 294.990  33
  -5  -2   5 2509.11 294.337  15
  -5  -2   5 2369.53 274.574  38
   5   2  -5 2464.28 296.931  31
  -5  -2   4 28318.0 1311.54  49
   5   2  -4 27173.4 1205.29   1
   5   2  -4 27593.4 1152.84  48
  -5  -2   4 26602.1 1155.20  44
  -5  -2   4 29373.1 942.386  18
   5   2  -4 27989.2 927.515  33
   5   2  -4 27749.6 912.096  31
   5   2  -3 347.421 130.977  48
  -5  -2   3 512.024 186.977  50
   5   2  -3 444.876 144.107   1
   5   2  -2 43494.3 1162.09  48
  -5  -2   2 45956.5 1503.54  50
   5   2  -2 44077.6 1334.25   1
  -5  -2   1 115892. 2209.85  51
   5   2  -1 113982. 1672.77  48
   5   2  -1 113318. 2028.39   1
   5   2   0 77536.1 1257.00  48
  -5  -2   0 74753.0 1728.68  51
   5   2   0 76082.5 1657.40  47
  -5  -2   0 78439.5 1459.17  43
  -5  -2  -1 5514.13 481.931  51
   5   2   1 5728.81 325.340  48
   5   2   1 5483.23 427.428  47
   5   2   1 5264.40 426.546   1
  -5  -2  -1 5160.09 336.790  43
   5   2   2 610.625 176.087  54
   5   2   2 853.005 168.202  47
  -5  -2  -2 668.393 179.570  51
   5   2   3 3988.73 356.745  47
   5   2   3 4161.11 433.276  54
  -5  -2  -3 4178.87 396.081  41
   5   2   4 617.083 156.025  47
   5   2   4 543.797 196.101  54
  -5  -2  -4 422.050 156.181  41
   5   2   5 874.612 238.929  54
  -5  -2  -5 761.204 208.567  41
   5   2   6 22620.9 828.529  27
   5   2   6 23088.3 830.363  13
   5   2   6 23118.0 1194.96  54
  -5  -2  -6 23297.2 838.979  24
  -5  -2  -6 23598.7 1103.54  41
   5   2   6 22550.7 818.108  35
   5   2   7 36400.9 1048.41  14
   5   2   7 37297.5 1113.17  27
  -5  -2  -7 36599.8 1079.05  26
   5   2   7 37921.1 1586.02  54
  -5  -2  -7 37898.4 1485.13  41
  -5  -2  -7 35770.7 1088.71  20
  -5  -2  -7 35882.8 1033.64  21
  -5  -2  -7 34800.2 1083.37   7
   5   2   7 36025.4 1098.18  35
  -5  -2  -7 36952.5 1125.54  24
   5   2   8 23328.1 871.267  14
   5   2   8 22431.8 905.027  27
  -5  -2  -8 23019.7 821.395  25
  -5  -2  -8 22634.9 852.981  26
   5   2   8 22396.0 1265.65  54
  -5  -2  -8 21988.0 845.728  21
  -5  -2  -8 23374.0 915.975  20
  -5  -2  -8 22116.4 869.941   7
   5   2   8 23343.9 845.357  15
   5   2   9 5378.62 426.685  14
   5   2   9 5301.53 447.100  27
  -5  -2  -9 5178.21 390.676  26
  -5  -2  -9 5906.90 418.408  25
  -5  -2  -9 5664.10 463.295  20
  -5  -2  -9 5380.05 428.726  21
   5   2   9 5259.37 400.106  15
   5   2  10 4505.02 391.439  27
  -5  -2 -10 3860.59 318.207  25
  -5  -2 -10 3465.40 327.440  21
  -5  -2 -10 4423.71 392.277  20
   5   2  10 3506.58 302.534  15
   5   2  11 2923.88 274.181  27
  -5  -2 -11 2628.33 251.221  21
   5   2  12 770.988 114.149  27
  -5  -2 -12 901.821 113.483  21
   5   3 -10 4667.72 237.465  12
  -5  -3  10 5012.83 276.904  19
  -5  -3   9 7645.44 438.168  19
   5   3  -9 7561.36 385.831  33
  -5  -3   9 8096.17 450.255  15
   5   3  -9 7580.67 421.964  31
   5   3  -8 22453.8 802.499  33
  -5  -3   8 23303.8 866.186  19
  -5  -3   8 23984.2 881.373  15
   5   3  -8 23994.5 874.032  31
   5   3  -8 21262.4 716.060  30
   5   3  -7 1245.87 227.378  33
  -5  -3   7 1013.96 213.745  19
   5   3  -7 1453.38 256.208  31
  -5  -3   7 1193.37 238.780  15
   5   3  -6 6213.50 663.654  48
  -5  -3   6 6973.18 516.364  19
   5   3  -6 8650.74 560.226  33
  -5  -3   6 7305.39 528.731  15
   5   3  -6 7971.81 547.956  31
   5   3  -5 108.588 81.1679  48
  -5  -3   5 1.66223 115.721  49
  -5  -3   5-45.0355 83.1374  19
  -5  -3   5 103.454 93.5284  17
   5   3  -5 137.565 91.3047  33
   5   3  -5 228.252 130.035  31
   5   3  -4 4325.24 485.484  48
  -5  -3   4 5898.69 433.305  19
   5   3  -4 5511.07 418.171  31
  -5  -3   4 4673.59 521.495  49
   5   3  -4 5268.12 410.964  33
  -5  -3   4 5420.88 415.933  15
  -5  -3   3 47858.0 1529.40  49
  -5  -3   3 50216.0 1660.56  50
   5   3  -3 47022.5 1445.45  48
   5   3  -3 48853.3 1393.65   1
  -5  -3   2 53578.9 1580.92  50
   5   3  -2 54038.9 1417.50  48
  -5  -3   2 55649.4 1471.55  49
   5   3  -2 56610.7 1381.90   1
   5   3  -1 128436. 2388.52  47
   5   3  -1 123202. 1937.93   1
  -5  -3   1 124261. 2236.38  50
   5   3  -1 122531. 1976.50  48
   5   3   0 72801.8 1718.28  47
   5   3   0 75071.4 1465.25   1
   5   3   0 74707.0 1468.22  54
   5   3   1 102907. 1729.50   1
  -5  -3  -1 102154. 2047.76  51
   5   3   1 104925. 2001.19  47
   5   3   1 104395. 1871.93  54
  -5  -3  -2 5150.33 464.010  51
   5   3   2 5068.17 441.050  47
   5   3   2 5458.94 459.690  54
   5   3   3 471421. 4226.68  47
  -5  -3  -3 471416. 4324.56  51
  -5  -3  -3 463034. 3832.77  41
  -5  -3  -4 186.236 115.825  51
  -5  -3  -4 498.041 146.200  41
  -5  -3  -5 6560.36 523.828  51
   5   3   5 6778.41 546.130  47
  -5  -3  -5 6841.24 518.838  41
   5   3   6 62228.9 1380.07  27
   5   3   6 62322.0 1366.12  13
   5   3   6 62794.2 2052.82  53
  -5  -3  -6 62068.8 1376.96  26
  -5  -3  -6 60092.7 1475.43  45
  -5  -3  -6 56698.8 1273.71  20
  -5  -3  -6 63029.6 1419.13   7
   5   3   6 64823.6 1404.44  35
   5   3   6 59685.8 1335.98  34
  -5  -3  -6 62912.1 1373.11  24
   5   3   7 3339.94 340.661  14
   5   3   7 2987.07 330.621  27
   5   3   7 2644.78 313.088  13
  -5  -3  -7 3144.44 471.512   2
  -5  -3  -7 2649.51 302.466  26
   5   3   7 2456.57 438.194  53
  -5  -3  -7 2663.81 282.257  21
  -5  -3  -7 2858.32 308.432  20
   5   3   7 2980.78 471.552  54
  -5  -3  -7 3204.03 346.768   7
   5   3   7 3103.45 334.580  35
   5   3   8 40239.4 1177.34  14
   5   3   8 38909.3 1182.39  27
  -5  -3  -8 38930.4 1139.79  26
  -5  -3  -8 37752.2 1132.24  20
   5   3   8 38034.9 1191.08  35
  -5  -3  -8 36595.6 1055.94  21
   5   3   9 136.250 104.625  14
   5   3   9 134.273 128.515  27
  -5  -3  -9-13.2180 94.4545  26
  -5  -3  -9 115.974 114.414  21
  -5  -3  -9-46.9202 126.783  20
   5   3   9 21.6885 100.302  15
   5   3  10 15385.5 689.332  14
   5   3  10 15532.5 689.539  27
  -5  -3 -10 15960.8 660.360  21
   5   3  10 15393.2 651.361  15
   5   3  11 1267.59 174.585  27
  -5  -3 -11 1270.05 166.639  21
   5   3  11 1115.73 153.016  15
  -5  -4   9-64.6080 84.4050  19
   5   4  -9 72.4688 74.3824  33
   5   4  -9-39.1730 85.9974  31
  -5  -4   8 5325.10 358.378   9
  -5  -4   8 6187.62 446.872  19
   5   4  -8 6529.01 446.191  33
  -5  -4   8 6648.32 463.180  15
   5   4  -8 6092.17 444.851  31
  -5  -4   7 19155.8 832.852  19
   5   4  -7 17984.9 802.090  33
  -5  -4   7 17767.5 807.085  15
   5   4  -7 18263.0 815.236  31
  -5  -4   6 35410.0 1152.89  19
   5   4  -6 34614.4 1126.94  33
  -5  -4   6 33797.2 1123.49  15
   5   4  -6 33257.2 1110.97  31
   5   4  -6 34963.0 1095.58  29
  -5  -4   5 34195.5 1615.87   3
  -5  -4   5 33581.0 1098.66  19
  -5  -4   5 35229.3 1123.57  15
   5   4  -5 34191.0 1089.38  31
   5   4  -5 36067.7 1071.48  29
   5   4  -4 16397.0 991.793  48
  -5  -4   4 16185.5 1064.32   3
  -5  -4   4 16278.6 730.993  19
  -5  -4   4 15840.9 961.550  49
  -5  -4   4 16679.4 742.441  15
   5   4  -4 16977.8 726.524  31
   5   4  -4 16221.7 682.019  29
  -5  -4   3 156512. 2734.12  49
   5   4  -3 149786. 2773.94  48
  -5  -4   2 182151. 2855.55  50
   5   4  -2 181440. 2857.08  48
  -5  -4   1 28177.3 928.879   2
   5   4  -1 26812.4 1149.40  47
  -5  -4   1 27044.6 1013.05  50
  -5  -4   1 27309.9 893.005  49
   5   4  -1 26621.5 1037.55  48
   5   4   0 21358.1 775.765  54
  -5  -4   0 21145.2 829.609  50
   5   4   0 21513.1 893.145  48
   5   4   0 22237.6 1011.02  47
   5   4   1 29685.8 996.636  54
  -5  -4  -1 27925.0 1098.00  51
   5   4   1 30683.9 1171.33  47
  -5  -4  -2 19860.4 904.195  51
  -5  -4  -2 19075.3 772.778   3
   5   4   2 19254.1 922.103  47
  -5  -4  -3 317098. 3562.33  51
   5   4   3 308841. 3736.82  47
   5   4   4 1244.12 264.431  47
  -5  -4  -4 20.2079 90.9931  51
  -5  -4  -5 146819. 2922.66   2
   5   4   5 145416. 2925.19  53
   5   4   6 1148.39 208.716  27
   5   4   6 892.001 169.725  13
  -5  -4  -6 733.511 167.828  26
  -5  -4  -6 552.572 190.670   2
   5   4   6 839.517 256.927  53
  -5  -4  -6 1033.33 211.216  45
  -5  -4  -6 782.642 147.303  20
  -5  -4  -6 690.376 149.194   8
   5   4   6 823.734 169.943  35
   5   4   6 980.791 186.375  34
  -5  -4  -6 779.579 176.857   7
   5   4   7 193595. 2574.14  27
   5   4   7 196398. 2553.87  13
  -5  -4  -7 196968. 2590.43  26
   5   4   7 203501. 3976.48  53
  -5  -4  -7 195804. 2402.79  20
  -5  -4  -7 191849. 2643.24   7
   5   4   7 193654. 2613.11  35
  -5  -4  -7 188662. 3632.91   2
   5   4   8 2171.43 291.657  14
   5   4   8 2607.42 321.307  27
  -5  -4  -8 2208.95 283.704  26
  -5  -4  -8 2227.29 272.122  20
  -5  -4  -8 2308.77 262.685  21
   5   4   8 2574.69 320.616  35
   5   4   9 90155.9 1768.41  14
   5   4   9 84297.7 1678.73  27
  -5  -4  -9 86484.6 1631.67  26
  -5  -4  -9 88321.6 1551.08  21
   5   4   9 86215.7 1709.22  15
   5   4  10 1715.79 227.220  27
   5   4  10 1464.52 228.348  14
  -5  -4 -10 1224.34 170.414  26
  -5  -4 -10 1824.09 209.050  21
   5   4  10 1689.28 235.948  15
   5   4  11 3997.84 273.153  27
  -5  -4 -11 4170.78 261.169  21
   5   4  11 4189.86 289.868  15
  -5  -5   9 34.9426 62.7087  19
   5   5  -9 17.0284 58.2855  33
   5   5  -9-2.39122 69.2336  31
   5   5  -9 18.4894 50.1913  30
  -5  -5   8 7542.31 466.613  19
   5   5  -8 7109.04 455.386  33
   5   5  -8 7275.36 462.322  31
  -5  -5   7 694.871 177.000  19
   5   5  -7 712.412 194.100  33
   5   5  -7 716.631 187.199  31
  -5  -5   6 6674.80 513.668  19
  -5  -5   6 6336.06 456.897   9
   5   5  -6 6726.89 503.561  33
   5   5  -6 6382.36 483.900  31
   5   5  -6 6272.42 452.689  29
  -5  -5   5 6645.03 739.439   3
   5   5  -5 6591.05 708.469  48
  -5  -5   5 6580.66 468.185   9
  -5  -5   5 6559.34 492.961  19
   5   5  -5 7318.34 511.432  31
   5   5  -5 7100.26 470.331  29
   5   5  -4 1996.98 366.397  48
  -5  -5   4 2015.87 404.861   3
  -5  -5   4 1953.81 262.456  45
  -5  -5   4 2225.57 287.105  19
  -5  -5   4 2191.87 275.283   9
   5   5  -4 2242.61 284.208  31
   5   5  -3 16229.7 985.874  48
  -5  -5   3 18876.2 1125.70   3
  -5  -5   3 18467.4 747.843   9
  -5  -5   3 18149.4 758.282  19
   5   5  -2 179074. 3266.95  47
   5   5  -2 183950. 3130.06  48
  -5  -5   1 24348.5 1141.00   3
   5   5  -1 24913.5 1166.91  47
   5   5  -1 25683.9 1116.61  48
  -5  -5   0 34956.1 1174.51   2
  -5  -5   0 36041.8 1297.45   3
   5   5   0 35413.9 1362.12  47
   5   5   0 35043.0 1266.07  48
  -5  -5  -1 16275.9 843.536   2
  -5  -5  -1 15886.6 811.917   3
   5   5   1 15775.7 897.702  47
  -5  -5  -2 652.050 208.049   2
  -5  -5  -2 185.693 106.932   3
  -5  -5  -3 78511.2 2049.62   2
   5   5   3 85930.7 2126.70  47
  -5  -5  -4 26988.3 1259.42   2
   5   5   4 27008.3 1232.71  47
  -5  -5  -5 17919.5 1074.73   2
   5   5   5 19462.7 761.232  13
  -5  -5  -5 19165.3 765.805  26
  -5  -5  -5 18934.6 764.121   8
  -5  -5  -5 18898.6 775.459   7
   5   5   5 18644.4 1055.29  53
  -5  -5  -5 18391.6 813.867  45
   5   5   6 4343.21 386.046  27
   5   5   6 4229.70 370.254  13
  -5  -5  -6 4554.26 399.245  26
   5   5   6 4514.43 562.349  53
  -5  -5  -6 4880.63 445.323  45
  -5  -5  -6 3985.04 358.202   8
  -5  -5  -6 4848.72 418.461   7
  -5  -5  -6 4384.59 554.862   2
   5   5   7 3584.36 353.933  13
   5   5   7 3957.87 382.800  27
  -5  -5  -7 3967.80 384.179  26
   5   5   7 4179.21 567.578  53
  -5  -5  -7 3801.59 411.965  45
   5   5   7 4104.84 393.996  35
  -5  -5  -7 3954.66 543.213   2
   5   5   8 63281.2 1511.37  14
   5   5   8 61509.5 1443.34  27
  -5  -5  -8 60700.8 1455.51  26
   5   5   8 62647.0 1510.95  35
   5   5   9 56208.5 1392.65  14
   5   5   9 54855.5 1282.65  27
  -5  -5  -9 56738.5 1316.13  26
   5   5   9 55496.0 1348.77  35
   5   5  10 12012.1 585.164  14
   5   5  10 12076.4 518.390  27
  -5  -5 -10 12391.2 522.258  26
   5   5  10 12711.7 589.622  15
   5   5  11 16720.6 549.491  15
  -5  -6   9 7092.04 333.055  19
   5   6  -9 6820.19 334.758  33
   5   6  -9 7480.32 353.625  31
   5   6  -9 6331.38 306.888  30
  -5  -6   8 10672.5 512.401  19
   5   6  -8 10576.8 517.014  33
   5   6  -8 10573.1 517.022  31
  -5  -6   7 25062.5 808.171  45
  -5  -6   7 26935.9 916.302  19
   5   6  -7 26861.1 930.259  33
   5   6  -7 25422.4 888.364  31
  -5  -6   6 23673.1 877.102  45
  -5  -6   6 24456.1 934.125  19
   5   6  -6 22382.9 875.231  31
   5   6  -6 23649.1 820.540  29
  -5  -6   5 9427.58 574.069  45
  -5  -6   5 9077.23 535.096   9
  -5  -6   5 9031.97 578.869  19
   5   6  -5 9094.17 558.207  31
   5   6  -4 822.783 242.864  48
  -5  -6   4 903.368 296.937   3
  -5  -6   4 908.768 207.865  45
  -5  -6   4 1208.25 208.384   9
  -5  -6   4 885.863 203.787  19
   5   6  -4 789.138 176.243  31
   5   6  -3 30956.0 1448.15  48
  -5  -6   3 31412.9 1520.15   3
  -5  -6   3 31823.4 1040.04  45
  -5  -6   3 31396.9 988.381   9
  -5  -6   3 33109.6 1059.08  19
  -5  -6   3 31163.6 995.798   6
   5   6  -3 31134.0 939.383  31
  -5  -6   2 5593.28 636.821   3
   5   6  -2 4635.78 548.156  47
  -5  -6   2 5384.29 431.562  45
  -5  -6   2 5599.53 417.075   9
  -5  -6   2 5619.34 425.054  19
  -5  -6   2 5064.14 405.990   6
   5   6  -2 5145.25 575.647  48
  -5  -6   1 14993.3 959.973   3
   5   6  -1 14674.5 916.277  48
   5   6  -1 15076.2 960.690  47
  -5  -6   0 41250.5 1492.27   3
   5   6   0 39313.1 1523.54  47
   5   6   0 40817.5 1497.36  48
  -5  -6   0 40742.7 1361.44   2
  -5  -6  -1 7203.03 596.327   3
   5   6   1 7379.56 665.728  47
  -5  -6  -1 7142.82 605.664   2
   5   6   2 17833.5 1028.08  47
  -5  -6  -2 16702.7 962.515   2
   5   6   3 3283.09 464.093  47
  -5  -6  -3 2979.04 445.822   2
  -5  -6  -4 706.464 158.737  26
  -5  -6  -4 707.988 237.103   2
   5   6   4 885.675 256.664  47
  -5  -6  -4 430.108 128.732   8
  -5  -6  -4 916.361 182.100   7
  -5  -6  -4 674.193 177.100  45
   5   6   5 118127. 1869.54  13
  -5  -6  -5 121290. 1992.16  26
   5   6   5 118886. 2873.87  47
  -5  -6  -5 120965. 2007.94   8
  -5  -6  -5 118859. 1972.46   7
   5   6   5 116689. 1861.55  34
  -5  -6  -5 121577. 2167.83  45
   5   6   5 124874. 2718.89  53
  -5  -6  -5 125836. 2984.15   2
   5   6   6 95769.5 1793.13  27
   5   6   6 94212.5 1699.52  13
  -5  -6  -6 96202.2 1828.89  26
  -5  -6  -6 94779.7 1976.53  45
  -5  -6  -6 96307.1 1819.38   8
   5   6   6 90962.6 2513.29  53
   5   6   7 121881. 2005.07  27
  -5  -6  -7 122757. 2094.79  26
  -5  -6  -7 125006. 2301.09  45
   5   6   7 121101. 2108.80  35
   5   6   8 34795.3 1110.84  14
   5   6   8 34661.2 1019.54  27
  -5  -6  -8 33676.2 1077.04  26
   5   6   8 34420.2 1084.96  35
   5   6   9 439.151 144.875  14
   5   6   9 397.635 115.437  27
  -5  -6  -9 500.460 151.658  26
   5   6   9 390.586 130.019  35
   5   6  10 4271.45 327.198  14
   5   6  10 4128.50 319.384  15
  -5  -6 -11 2379.66 185.009   4
   5   6  11 2385.53 191.075  15
  -5  -7   8 2102.10 206.800  19
   5   7  -8 2218.99 215.906  31
  -5  -7   7 18457.0 684.942  45
  -5  -7   7 18564.2 702.572  19
   5   7  -7 17608.9 710.019  33
   5   7  -7 18290.8 685.804  31
  -5  -7   6 5983.82 452.018  45
  -5  -7   6 6292.81 455.302  19
   5   7  -6 5534.07 418.020  31
  -5  -7   5 34584.9 1114.53  45
  -5  -7   5 34118.9 1096.35  19
   5   7  -5 32723.8 1012.60  31
  -5  -7   4 164477. 2471.63  45
  -5  -7   4 164234. 2208.05   9
  -5  -7   4 161601. 2399.21  19
  -5  -7   4 155283. 2283.66   6
   5   7  -4 161448. 2186.77  31
   5   7  -3 51907.4 1965.46  48
  -5  -7   3 51286.9 2034.38   3
  -5  -7   3 50153.1 1375.67  45
  -5  -7   3 50745.6 1254.67   9
  -5  -7   3 52908.9 1360.90  19
  -5  -7   3 52479.8 1359.97   6
  -5  -7   2 167182. 3537.32   3
   5   7  -2 159381. 3292.31  47
  -5  -7   2 164451. 2428.05  45
  -5  -7   2 159879. 2234.65   9
  -5  -7   2 162162. 2356.71  19
   5   7  -2 167455. 3435.24  48
  -5  -7   2 158934. 2364.93   6
   5   7  -1 127977. 2928.57  48
  -5  -7   1 132005. 3019.51   3
  -5  -7   1 128755. 2060.36  19
   5   7  -1 129785. 2940.01  47
  -5  -7   1 126457. 2114.92  45
  -5  -7   1 128897. 2009.50   9
  -5  -7   1 119452. 2055.96   6
  -5  -7   0 14452.2 677.237   9
  -5  -7   0 13367.2 915.118   3
   5   7   0 14365.9 973.032  47
  -5  -7   0 14160.3 703.955  45
   5   7   0 15210.0 998.734  48
  -5  -7   0 14571.3 642.368   8
  -5  -7   0 14225.2 873.036   2
  -5  -7  -1 23886.3 1154.75   3
   5   7   1 23234.6 1245.50  47
  -5  -7  -1 24055.8 848.102   8
  -5  -7  -1 23516.2 907.686  45
  -5  -7  -1 23960.3 1183.10   2
  -5  -7  -1 23918.7 870.068   9
  -5  -7  -2 797.081 214.369   2
   5   7   2 1770.57 363.320  47
  -5  -7  -2 1816.69 265.069  45
  -5  -7  -2 1648.68 245.056   9
  -5  -7  -2 1710.66 237.736   8
  -5  -7  -3-65.8333 90.1893  26
  -5  -7  -3-3.32796 95.5039   2
  -5  -7  -3 34.0603 86.1638  45
  -5  -7  -3 123.743 94.3942   8
  -5  -7  -4 644.428 143.694   4
   5   7   4 855.929 166.527  13
  -5  -7  -4 777.962 185.225  26
  -5  -7  -4 1042.75 305.054   2
  -5  -7  -4 592.706 165.761  45
   5   7   4 387.824 191.218  47
  -5  -7  -4 701.057 179.239   8
  -5  -7  -4 834.588 181.927   7
  -5  -7  -5 137122. 2166.92  26
   5   7   5 141812. 3279.00  47
  -5  -7  -5 138207. 2372.08  45
  -5  -7  -5 134667. 2199.53   8
  -5  -7  -5 141201. 2019.94   4
   5   7   6 120447. 1962.00  27
  -5  -7  -6 122609. 2093.70  26
  -5  -7  -6 117121. 2210.09  45
  -5  -7  -6 120450. 1928.91   4
   5   7   7 2481.11 272.856  27
  -5  -7  -7 1792.42 271.710  26
  -5  -7  -7 2415.74 333.919  45
   5   7   7 1792.53 270.297  35
  -5  -7  -7 2274.38 285.246   4
   5   7   8 14137.3 676.815  14
   5   7   8 12451.1 548.973  27
  -5  -7  -8 14880.3 696.734  26
   5   7   8 13574.0 636.703  35
  -5  -7  -8 13843.4 641.056   4
   5   7   9 9290.68 496.963  14
  -5  -7  -9 9134.20 486.125  26
  -5  -7  -9 9581.44 486.139   4
   5   7   9 9370.85 512.130  15
   5   7  10 2792.46 231.036  14
  -5  -7 -10 3325.68 241.159   4
   5   7  10 2957.65 247.010  15
   5   8  -8 796.765 124.742  33
   5   8  -8 1461.06 139.926  31
  -5  -8   7 2973.15 255.814  45
  -5  -8   7 2792.13 240.090  19
   5   8  -7 2690.40 232.597  31
  -5  -8   6 2715.80 289.408  45
  -5  -8   6 2732.40 276.784  19
   5   8  -6 2630.45 255.571  31
  -5  -8   5 24747.2 934.558  45
  -5  -8   5 25129.3 892.888  19
   5   8  -5 25491.1 802.338  31
  -5  -8   4 32694.9 1112.10  45
  -5  -8   4 32999.3 1061.39  19
  -5  -8   3 60115.1 1325.62   9
  -5  -8   3 59351.0 1519.66  45
  -5  -8   3 57075.4 1418.97  19
  -5  -8   3 57356.2 1456.55   6
   5   8  -2 74329.0 2283.72  47
  -5  -8   2 80704.7 1586.31   9
  -5  -8   2 76989.2 1721.54  45
  -5  -8   2 76574.1 1637.03  19
  -5  -8   2 77942.2 1725.01   6
   5   8  -1 11420.5 929.321  48
  -5  -8   1 10718.2 907.610   3
   5   8  -1 11131.6 892.748  47
  -5  -8   1 10584.4 587.812   9
  -5  -8   1 10211.7 633.708  45
  -5  -8   1 9693.95 611.922   6
  -5  -8   0 124208. 2937.39   3
   5   8   0 132765. 3086.78  47
  -5  -8   0 126785. 2042.81   9
  -5  -8   0 126466. 2197.14  45
  -5  -8   0 129896. 1949.64   8
   5   8   1 10458.8 878.074  47
  -5  -8  -1 10394.2 596.340   9
  -5  -8  -1 10502.8 586.903   8
  -5  -8  -1 11116.6 852.367   2
  -5  -8  -1 11234.6 661.144  45
   5   8   2 67708.1 2247.48  47
  -5  -8  -2 64573.3 1583.27  45
  -5  -8  -2 62296.6 1457.34   8
  -5  -8  -2 65679.1 2162.74   2
  -5  -8  -3 2759.60 298.814  26
  -5  -8  -3 2735.36 471.366   2
   5   8   3 2909.21 465.701  47
  -5  -8  -3 2656.23 335.492  45
  -5  -8  -3 2916.22 332.354   8
  -5  -8  -4 41826.0 1162.42  26
  -5  -8  -4 41167.5 1297.20  45
  -5  -8  -4 43074.2 1107.53   4
   5   8   5 6209.29 441.797  27
  -5  -8  -5 5863.72 461.303  26
  -5  -8  -5 6129.19 512.251  45
  -5  -8  -5 6478.91 438.657   4
  -5  -8  -6 644.195 166.789   4
   5   8   6 859.359 161.958  27
  -5  -8  -6 619.737 183.814  26
  -5  -8  -6 618.968 197.886  45
  -5  -8  -7 4013.16 371.645  26
  -5  -8  -7 3792.50 373.256  45
   5   8   7 3293.06 313.809  35
  -5  -8  -7 3351.77 309.534   4
   5   8   8 337.580 120.209  14
  -5  -8  -8 314.201 113.764   4
   5   8   8 141.527 83.9697  35
   5   8   9 81.1495 68.8776  14
  -5  -8  -9 117.475 65.4826   4
   5   8   9 176.452 91.3561  15
  -5  -9   7 7963.68 354.451  45
   5   9  -7 4889.03 281.428  33
  -5  -9   6 97.2657 92.9056  45
   5   9  -6 142.484 90.8209  33
  -5  -9   5 182.347 126.560  45
  -5  -9   4-4.11074 116.692  45
  -5  -9   3 13632.6 724.202  45
  -5  -9   2 5705.52 481.174  45
  -5  -9   1 76.9401 128.159  45
  -5  -9   0 2440.90 326.006  45
  -5  -9  -1 721.456 198.721  45
  -5  -9  -2 78425.5 1768.69  45
  -5  -9  -3 17381.0 715.691  26
  -5  -9  -3 17629.8 844.985  45
  -5  -9  -3 16229.9 665.438   4
  -5  -9  -4 66029.3 1432.34  26
  -5  -9  -4 67345.9 1625.90  45
  -5  -9  -4 68217.0 1381.03   4
  -5  -9  -5 23477.9 857.164  26
  -5  -9  -5 25059.7 970.713  45
  -5  -9  -5 22672.7 794.050   4
  -5  -9  -6 224.487 102.032   4
  -5  -9  -6 215.530 139.390  45
   5   9   6 213.484 101.306  35
   5   9   7 51009.8 1099.37  14
   5   9   7 49632.2 1015.73  35
  -5  -9  -7 51015.0 1066.02   4
   5   9   8 2651.88 222.114  14
  -5  -9  -8 2788.88 225.631   4
  -5 -10   6 6.13375 54.4279  45
   5  10  -6 35.6365 42.9277  33
  -5 -10   5 304.688 115.681  45
   5  10  -5 145.875 61.9264  33
  -5 -10   4 6180.75 427.642  45
  -5 -10   3 330.233 139.780  45
  -5 -10   2 40780.6 1195.51  45
  -5 -10   1 1873.40 284.569  45
  -5 -10   0 67085.0 1565.57  45
  -5 -10  -1 616.352 197.421  45
  -5 -10  -2 1339.79 246.325  45
  -5 -10  -3 3508.77 368.405  45
  -5 -10  -3 3227.15 280.544   4
  -5 -10  -4 1491.34 243.666  45
  -5 -10  -4 1315.97 184.635   4
  -5 -10  -5 2013.08 249.171  45
  -5 -10  -5 2074.60 225.701   4
  -5 -10  -6 4987.37 347.965  45
   5  10   6 5455.22 311.080  35
  -5 -10  -6 5353.71 325.466   4
   5  10   7 5079.26 270.357  14
  -5 -11   4 138.670 83.7943  45
  -5 -11   3 5578.00 367.042  45
  -5 -11   2 2764.38 285.324  45
  -5 -11   1 8646.45 498.377  45
  -5 -11   0 3798.95 340.275  45
  -5 -11  -1 23399.1 825.865  45
  -5 -11  -2 12031.9 583.362  45
  -5 -11  -3 15117.2 625.617  45
  -5 -11  -4 19788.8 665.960  45
  -5 -11  -4 18571.7 539.133   4
   5  11   5 6695.52 291.419  14
  -5 -11  -5 6532.85 336.320  45
  -5 -11  -5 6162.76 289.936   4
  -5 -12   2 336.549 94.7246  45
  -5 -12   1 33636.2 757.811  45
  -5 -12   0 8139.67 383.706  45
  -5 -12  -1 858.130 129.151  45
  -5 -12  -2 841.288 124.314  45
   6  -7  -2 16130.9 497.967   5
  -6   7   2 14908.2 456.151  22
  -6   7   1 141.536 64.4792  22
   6  -7  -1 90.4944 74.4413   5
   6  -7   0 30041.5 766.981   5
   6  -7   1 1859.06 206.206   5
   6  -7   2 2810.58 247.603   5
   6  -7   3 5285.56 320.412   5
   6  -7   4 2592.27 212.307   5
   6  -6  -4 739.571 120.631   5
  -6   6   4 668.912 105.143  38
  -6   6   4 563.089 103.069  39
   6  -6  -3 334.898 96.4200   5
  -6   6   3 535.021 108.958  39
  -6   6   3 523.221 96.3892  38
   6  -6  -2 56.6129 70.7819   5
  -6   6   2 130.854 81.6550  39
   6  -6  -1 4462.30 348.317   5
   6  -6   0 4565.49 364.884   5
   6  -6   1 3110.22 306.999   5
   6  -6   2 6713.77 437.650   5
   6  -6   3 16174.3 662.805   5
   6  -6   4 496.288 121.412   6
   6  -6   4 723.357 149.614   5
   6  -6   5 9550.11 452.544   5
  -6   6  -5 9762.67 418.468  24
   6  -6   5 9154.29 449.217   6
   6  -6   6 3699.66 278.062   6
   6  -6   7 443.697 99.6236   6
   6  -5  -5 2694.72 230.538   5
  -6   5   5 2489.52 227.312  39
  -6   5   5 2190.59 212.653  38
  -6   5   5 2146.22 188.803  17
   6  -5  -4 24766.5 767.602   5
  -6   5   4 23963.1 673.696  17
  -6   5   4 24386.5 751.627  38
   6  -5  -3 616.733 155.620   5
  -6   5   3 587.241 144.716  38
   6  -5  -2 2907.76 308.043   5
   6  -5  -2 2754.03 273.541  33
  -6   5   2 2783.87 277.934  38
   6  -5  -1 25496.0 872.542  33
   6  -5  -1 27864.1 938.713   5
  -6   5   1 26763.9 852.845  39
   6  -5   0 2951.52 314.998  33
   6  -5   0 2546.78 296.861   5
   6  -5   1 637.005 163.995   5
   6  -5   1 947.710 200.477  33
   6  -5   2 13830.4 671.740   5
   6  -5   2 12580.3 590.795  10
   6  -5   3 71.7590 82.6592   6
   6  -5   3 108.222 96.2485  10
   6  -5   3 23.9028 98.3146   5
   6  -5   4 500.472 145.254  10
   6  -5   4 485.774 135.824   5
   6  -5   5 2207.96 261.366   6
   6  -5   5 2095.41 248.287   5
  -6   5  -5 2300.25 240.971  26
   6  -5   5 1643.21 238.857  10
  -6   5  -6 7504.60 409.746  24
   6  -5   6 7123.56 447.280   6
  -6   5  -7 6532.89 347.839  20
   6  -5   7 6282.25 398.369   6
  -6   5  -8 13009.8 477.523  21
   6  -5   8 13414.4 511.378   6
  -6   4   6 3365.16 247.363  22
   6  -4  -6 3551.67 267.402   5
  -6   4   6 3438.36 272.971  39
  -6   4   6 3816.00 286.515  38
  -6   4   6 3140.24 255.977  17
   6  -4  -5 4687.54 321.615  11
   6  -4  -5 4011.30 327.598   5
  -6   4   5 4476.75 355.590  38
  -6   4   5 4010.30 299.322  18
  -6   4   5 4517.06 345.196  17
   6  -4  -4 672.482 152.130  11
  -6   4   4 620.205 133.338  18
  -6   4   4 998.996 184.209  17
   6  -4  -4 794.596 186.356   5
   6  -4  -3 2121.70 264.187  11
   6  -4  -3 2326.12 294.395   5
  -6   4   3 2232.26 268.408  17
   6  -4  -3 2221.82 258.671  33
   6  -4  -2 10268.6 582.171  11
   6  -4  -2 10110.4 586.343   5
  -6   4   2 10050.2 546.323  17
   6  -4  -2 10455.6 571.774  33
   6  -4  -1 31817.1 1039.58   5
  -6   4   1 32156.4 998.719  38
   6  -4  -1 32673.4 1037.88  33
   6  -4   0 33804.9 1066.56   5
  -6   4   0 34006.0 1011.22  39
   6  -4   0 33509.0 1068.72  33
   6  -4   1 71003.8 1411.19  10
   6  -4   1 72077.3 1546.85   5
   6  -4   1 75982.8 1636.43  33
   6  -4   2 5030.40 407.258   5
   6  -4   2 5578.39 422.920  10
   6  -4   2 5390.14 451.691  33
   6  -4   3 34598.2 1032.80   6
   6  -4   3 35053.7 1055.73   5
   6  -4   3 34336.9 1124.54  33
   6  -4   3 35964.0 1080.80  10
   6  -4   4 1398.96 229.299   6
   6  -4   4 1242.90 221.025  10
   6  -4   4 1354.72 214.352   5
   6  -4   5 6587.10 484.002   6
   6  -4   5 6280.12 429.545   5
  -6   4  -5 6134.70 449.469  26
   6  -4   5 6627.35 488.877  10
   6  -4   6 954.842 213.365   6
  -6   4  -6 884.059 179.358  24
   6  -4   6 903.934 203.433  10
   6  -4   7 8745.19 521.930   6
  -6   4  -7 9124.33 476.854  24
   6  -4   8 10976.5 536.287   6
  -6   4  -8 10531.3 478.456  20
  -6   4  -9 6760.05 306.348  20
  -6   4  -9 7009.98 361.333  21
   6  -4   9 6401.98 354.891   6
  -6   3   7 7371.93 369.162  39
   6  -3  -7 7550.52 329.022  11
   6  -3  -7 7268.19 368.492   5
  -6   3   7 6786.73 362.424  38
  -6   3   7 7558.99 389.663  17
   6  -3  -6 25761.1 750.986  11
   6  -3  -6 25145.4 791.466   5
  -6   3   6 26845.7 841.873  39
  -6   3   6 25687.1 832.276  38
  -6   3   6 24042.4 774.940  18
  -6   3   6 24830.7 820.891  17
   6  -3  -5 16497.8 681.311  11
   6  -3  -5 16328.0 703.311   5
  -6   3   5 16656.8 739.048  38
  -6   3   5 15897.2 683.096  18
  -6   3   5 14557.8 689.856  17
   6  -3  -4 15778.9 710.552  11
   6  -3  -4 16281.4 737.842   5
  -6   3   4 15835.5 704.026  18
  -6   3   4 16212.7 761.188  17
   6  -3  -4 16241.3 674.295  33
   6  -3  -3 34296.7 1075.60  11
   6  -3  -3 33502.8 1073.30   5
  -6   3   3 32846.7 999.616  18
  -6   3   3 34833.8 1106.65  17
   6  -3  -3 34253.6 1032.76  33
   6  -3  -2 671.617 174.039  11
   6  -3  -2 481.158 155.066   5
  -6   3   2 392.096 140.682  17
   6  -3  -2 647.034 169.431  33
   6  -3  -1 538.144 147.825  11
  -6   3   1 347.833 137.499  50
   6  -3  -1 415.204 141.944   5
  -6   3   1 442.564 187.588  43
  -6   3   1 513.537 153.007  17
   6  -3  -1 332.993 139.080  33
   6  -3   0 11168.1 605.221   5
   6  -3   0 12179.0 653.764  11
   6  -3   0 12231.6 966.940   1
  -6   3   0 11533.9 934.967  43
  -6   3   0 11951.3 604.038  38
   6  -3   0 12880.4 660.279  33
   6  -3   1 49206.9 1191.40  10
   6  -3   1 48079.7 1225.79   5
   6  -3   1 50067.1 1937.81   1
   6  -3   1 51812.7 1333.04  33
  -6   3  -1 51651.7 1947.13  43
   6  -3   2 113.885 99.6748  10
   6  -3   2 264.165 94.2089   5
  -6   3  -2-35.0701 129.784  43
   6  -3   2 249.226 134.457  33
   6  -3   3 6664.19 450.524   5
   6  -3   3 6331.67 465.645  10
  -6   3  -3 6663.30 695.112  43
   6  -3   3 6361.58 673.490  40
   6  -3   3 7253.07 519.135  33
   6  -3   4 4949.68 428.698  10
  -6   3  -4 5084.75 403.632  23
  -6   3  -4 5835.71 655.012  43
  -6   3  -4 4669.13 598.773  41
   6  -3   4 4654.47 429.722  33
  -6   3  -5 205.559 111.581  26
   6  -3   5 208.040 119.038  10
  -6   3  -6 3359.76 331.099  26
   6  -3   6 3406.02 371.875  10
   6  -3   7 44769.6 1257.50   6
  -6   3  -7 44403.0 1172.39  24
   6  -3   7 42295.7 1222.36  10
   6  -3   8 157.926 126.522   6
  -6   3  -8 58.3957 68.9946  24
  -6   3  -8-69.7631 94.8693  20
   6  -3   9 470.035 105.217  27
   6  -3   9 572.627 134.419   6
  -6   3  -9 690.086 151.750  21
  -6   3  -9 698.387 140.388  20
   6  -3  10 1166.37 124.187  27
  -6   3 -10 1723.90 176.349  25
  -6   3 -10 1761.43 181.242  21
  -6   3 -10 1768.44 158.515  20
   6  -3  10 1642.75 166.020   6
   6  -2  -8 10817.1 360.541  11
   6  -2  -8 9329.82 373.794   5
  -6   2   8 9850.83 359.351  38
  -6   2   8 10593.4 416.468  17
   6  -2  -7 32719.1 830.577  11
  -6   2   7 31713.9 838.253  39
  -6   2   7 31456.9 849.962  38
  -6   2   7 31629.2 901.491  17
   6  -2  -6 2350.26 234.123  12
   6  -2  -6 2908.08 291.924  11
  -6   2   6 2809.18 310.698  38
  -6   2   6 2708.87 298.964  18
  -6   2   6 2093.06 278.522  17
   6  -2  -5 1990.76 245.337  12
   6  -2  -5 2210.71 279.826  11
  -6   2   5 1779.76 264.424  18
  -6   2   5 1904.44 291.459  17
   6  -2  -5 1725.95 233.043  33
   6  -2  -4 9892.90 566.212  12
   6  -2  -4 8674.18 558.544  11
  -6   2   4 9091.64 568.925  18
   6  -2  -4 9674.46 550.754  33
   6  -2  -3 36.3595 90.8283  12
   6  -2  -3 28.6586 99.0746  11
  -6   2   3-37.8309 86.1175  18
  -6   2   3 2.68140 108.658  17
   6  -2  -3 108.118 101.811  33
   6  -2  -2 82372.8 1625.25  12
   6  -2  -2 83489.3 1670.18  11
  -6   2   2 79850.6 2384.06  50
  -6   2   2 84333.9 2494.03  43
  -6   2   2 79231.9 1547.53  18
   6  -2  -2 85897.2 2572.37   1
  -6   2   2 79596.4 1674.06  17
   6  -2  -2 83176.5 1647.09  33
   6  -2  -1 32722.8 1026.75  12
   6  -2  -1 33329.1 1041.99  11
   6  -2  -1 31701.8 993.044   5
  -6   2   1 32208.7 1505.32  43
   6  -2  -1 31661.5 1536.52   1
  -6   2   1 32096.4 1023.37  17
   6  -2  -1 32343.3 1015.91  33
   6  -2   0 5642.93 429.861  11
   6  -2   0 5394.40 381.816  10
  -6   2   0 5299.19 561.887  51
   6  -2   0 5923.37 426.804   5
   6  -2   0 4929.47 601.142   1
  -6   2   0 5461.81 613.690  43
  -6   2   0 4853.35 390.583  38
  -6   2   0 5395.45 402.672  17
   6  -2   0 5479.61 428.024  33
   6  -2   1 31316.1 995.158  11
   6  -2   1 33331.6 962.421  10
   6  -2   1 29132.0 914.163   5
   6  -2   1 34130.5 1564.52   1
  -6   2  -1 32878.8 1456.37  43
  -6   2  -1 31078.0 956.701  39
   6  -2   1 31818.1 1003.95  33
   6  -2   2 5129.75 607.632   1
   6  -2   2 5002.55 394.651  10
  -6   2  -2 4578.61 548.368  43
   6  -2   2 4380.64 379.220  33
  -6   2  -2 3686.40 345.464  16
   6  -2   3 34730.4 1048.69  10
  -6   2  -3 35434.3 1493.28  43
   6  -2   3 33076.7 1415.02  40
   6  -2   3 33444.0 1067.70  33
  -6   2  -3 33090.6 986.641  16
  -6   2  -4 1800.34 241.368  23
   6  -2   4 2131.91 281.978  10
  -6   2  -4 2561.60 405.787  43
  -6   2  -4 1597.97 350.451  41
   6  -2   4 1624.55 345.230  40
   6  -2   4 1878.58 269.320  33
  -6   2  -5 155218. 2309.63  26
   6  -2   5 157789. 2372.73  10
  -6   2  -5 155404. 2176.51  23
  -6   2  -5 163613. 3237.69  43
  -6   2  -5 160773. 3471.44  41
   6  -2   5 152238. 3357.68  40
  -6   2  -6 23651.4 885.407  26
   6  -2   6 23083.0 927.791  10
   6  -2   7 303.904 108.629  27
  -6   2  -7 269.762 130.111  24
   6  -2   7 151.865 120.208  10
   6  -2   8 21207.1 771.948  27
  -6   2  -8 21062.0 814.141  24
   6  -2   8 21642.1 837.744  10
  -6   2  -8 20650.6 842.220  20
   6  -2   9 679.148 143.032  27
   6  -2   9 650.940 168.262   6
  -6   2  -9 530.922 145.539  21
  -6   2  -9 812.978 161.918  20
   6  -2  10 16399.6 554.846   6
   6  -2  10 16131.1 559.301  27
  -6   2 -10 17104.6 607.408  25
  -6   2 -10 16733.2 605.225  21
  -6   2 -10 17669.8 601.029  20
  -6   2 -11 702.948 102.634  25
  -6   2 -11 747.896 102.497  21
  -6   1   8 9110.18 351.801  39
  -6   1   8 9244.04 380.871  38
  -6   1   8 10079.2 447.790  17
   6  -1  -7 8919.97 434.612  12
   6  -1  -7 8861.02 480.027  11
  -6   1   7 8220.47 448.744  39
  -6   1   7 8172.42 456.551  38
  -6   1   7 8742.75 511.348  17
   6  -1  -6 14074.0 631.822  12
  -6   1   6 11777.8 548.254  22
   6  -1  -6 12877.7 609.112  21
  -6   1   6 14198.6 675.187  39
  -6   1   6 13889.2 675.820  38
  -6   1   6 14832.5 716.134  18
  -6   1   6 14395.5 719.892  17
   6  -1  -6 14073.4 610.297  33
   6  -1  -5 9620.08 562.132  12
   6  -1  -5 9674.39 566.062  21
  -6   1   5 10699.0 637.354  38
  -6   1   5 10737.2 635.151  18
  -6   1   5 10080.9 632.226  17
   6  -1  -5 10343.6 576.796  33
   6  -1  -4 11769.7 631.747  12
   6  -1  -4 11515.6 618.683  21
  -6   1   4 11943.7 660.215  18
   6  -1  -4 12734.3 652.392  33
   6  -1  -3 14111.8 686.832  12
  -6   1   3 13706.8 1006.31  50
  -6   1   3 12614.3 663.049  18
  -6   1   3 12661.1 690.639  17
   6  -1  -3 13774.1 674.907  33
   6  -1  -3 14644.9 1065.13   1
   6  -1  -2 1307.30 213.699  12
   6  -1  -2 1168.99 207.708  11
  -6   1   2 696.839 221.916  50
   6  -1  -2 918.442 279.643   1
  -6   1   2 1036.10 266.213  43
  -6   1   2 957.293 177.246  18
  -6   1   2 1322.19 231.663  17
   6  -1  -2 1075.21 201.723  33
   6  -1  -1 109338. 1813.57  12
   6  -1  -1 102183. 1753.62  11
  -6   1   1 109035. 2409.55  51
  -6   1   1 107054. 2559.47  43
  -6   1   1 106858. 1827.54  38
   6  -1  -1 107094. 2690.10   1
  -6   1   1 105251. 1825.30  17
   6  -1  -1 105104. 1785.31  33
   6  -1   0 46335.9 1161.46  12
   6  -1   0 43360.8 1128.80  11
   6  -1   0 45236.2 1722.61   1
  -6   1   0 46269.9 1633.94  43
   6  -1   0 43855.6 1134.83  33
  -6   1   0 45307.4 1586.56  51
   6  -1   1 11623.0 864.912   1
  -6   1  -1 14621.4 894.722  43
   6  -1   2 1414.24 321.712   1
  -6   1  -2 1104.37 242.671  43
   6  -1   3 73520.4 1463.71  10
  -6   1  -3 73732.0 1974.39  43
  -6   1  -3 73981.1 2171.29  41
   6  -1   3 72631.3 1953.39  40
   6  -1   3 72311.7 1469.23  33
  -6   1  -4 519.431 153.131  23
   6  -1   4 292.012 127.891  10
  -6   1  -4 547.363 175.861  43
  -6   1  -4 251.330 184.817  41
   6  -1   4-39.6171 145.710  40
  -6   1  -4 392.935 108.126  16
   6  -1   4 469.157 141.698  33
  -6   1  -5 10763.5 603.741  26
   6  -1   5 11207.5 616.353  10
  -6   1  -5 10657.0 879.121  41
   6  -1   5 10134.7 835.648  40
   6  -1   5 10155.6 567.391  33
  -6   1  -5 10600.2 579.952  23
   6  -1   6 1247.79 195.660  27
  -6   1  -6 951.077 216.653  26
  -6   1  -6 1074.38 221.891  24
   6  -1   6 1021.68 210.375  10
  -6   1  -6 1080.57 310.932  41
   6  -1   6 546.863 214.556  40
   6  -1   7 4102.20 366.370  27
  -6   1  -7 3170.69 327.906  26
  -6   1  -7 2986.37 347.603  24
   6  -1   7 3382.00 353.361  10
   6  -1   8 3296.29 328.851  27
  -6   1  -8 3434.96 359.485  24
   6  -1   8 3709.18 353.864  10
  -6   1  -8 3648.76 379.847  20
   6  -1   9 6953.47 455.613  27
  -6   1  -9 7266.34 487.213  21
  -6   1  -9 6759.42 469.670  20
   6  -1  10 359.270 125.227  27
   6  -1  10 170.856 88.8367   6
  -6   1 -10 215.640 87.2448  25
  -6   1 -10 484.853 138.088  21
  -6   1 -10 255.351 115.301  20
   6  -1  11 89.9547 70.0219  27
  -6   1 -11 103.336 61.7533  25
  -6   1 -11 100.268 73.9869  21
   6   0  -9 256.100 68.8062  11
   6   0  -8 8677.06 389.211  12
  -6   0   8 8480.73 410.823  19
  -6   0   8 7960.99 362.398  38
  -6   0   8 8643.54 436.719  17
   6   0  -7 826.179 165.407  12
  -6   0   7 661.511 145.338  39
  -6   0   7 777.135 158.812  38
  -6   0   7 871.392 166.105  19
  -6   0   7 997.599 203.369  17
   6   0  -7 776.773 145.180  33
   6   0  -6 43343.1 1171.17  12
  -6   0   6 42502.9 1174.55  38
   6   0  -6 42110.5 1066.41  21
  -6   0   6 40761.3 1130.82  39
  -6   0   6 40894.3 1114.02  19
  -6   0   6 41010.1 1216.48  18
  -6   0   6 44104.3 1258.14  17
   6   0  -6 41698.6 1125.25  33
  -6   0   5 30634.1 956.204  22
   6   0  -5 32309.3 1050.95  12
   6   0  -5 31749.1 972.277  21
  -6   0   5 32460.6 1002.80  19
  -6   0   5 32119.7 1075.36  38
  -6   0   5 32422.8 1111.10  18
  -6   0   5 33554.2 1139.40  17
   6   0  -5 32915.0 1049.46  33
  -6   0   4 32031.7 1538.38  44
   6   0  -4 33793.0 1067.26  12
  -6   0   4 32793.1 1594.04  50
   6   0  -4 33073.2 1006.02  21
  -6   0   4 34281.8 1114.20  38
  -6   0   4 33645.2 1098.60  18
  -6   0   4 33698.5 1133.72  17
   6   0  -4 33839.4 1070.70  33
   6   0  -4 32734.0 1579.93   1
  -6   0   3 11274.6 904.698  50
   6   0  -3 11215.8 600.782  12
   6   0  -3 10175.5 558.878  21
  -6   0   3 11651.2 636.584  38
  -6   0   3 11477.9 625.661  18
  -6   0   3 11529.6 644.095  17
   6   0  -3 10554.0 585.369  33
   6   0  -3 10884.6 884.760   1
   6   0  -3 11782.9 575.440  30
   6   0  -2 20535.0 789.976  12
  -6   0   2 21178.3 1194.62  50
  -6   0   2 21196.9 1045.48  51
  -6   0   2 20588.4 1109.99  43
  -6   0   2 20444.8 809.952  38
  -6   0   2 20957.7 795.220  18
  -6   0   2 21074.1 840.147  17
   6   0  -2 19712.6 1142.39   1
   6   0  -2 21758.7 815.109  33
   6   0  -2 21225.0 766.102  30
  -6   0   1 10795.6 762.994  51
  -6   0   1 11567.0 790.055  43
   6   0  -1 10096.3 792.549   1
  -6   0   0 84681.1 2122.86  51
  -6   0   0 84041.9 2032.96  43
   6   0   0 86146.3 2244.87   1
   6   0   1 130198. 2743.89   1
  -6   0  -1 136618. 2485.41  43
   6   0   2 18677.8 1042.76   1
  -6   0  -2 19867.0 930.001  43
  -6   0  -3 60490.1 1607.27  43
  -6   0  -3 60721.8 1892.48  41
   6   0   3 58750.4 1638.02  40
  -6   0  -4 119519. 1929.74  26
   6   0   4 120548. 1865.93  10
   6   0   4 121841. 2580.19  40
   6   0   5 39371.8 1025.97  27
   6   0   5 38999.7 1040.61  13
  -6   0  -5 39345.3 1138.23  26
  -6   0  -5 38483.2 1100.64  23
   6   0   5 38005.0 1087.12  10
  -6   0  -5 40971.1 1653.86  41
   6   0   5 39371.8 1577.43  40
  -6   0  -5 38277.4 1089.10   7
   6   0   6 151709. 2126.79  27
  -6   0  -6 151113. 2264.49  26
  -6   0  -6 147078. 2281.63  24
  -6   0  -6 146385. 2158.28  23
   6   0   6 150867. 2217.96  10
  -6   0  -6 156321. 3333.30  41
   6   0   6 152410. 3311.74  40
  -6   0  -6 152566. 2179.39   7
   6   0   7 34898.1 1069.75  27
  -6   0  -7 36683.3 1101.24  26
   6   0   7 37271.4 1108.03  10
  -6   0  -7 33917.8 1130.91  24
   6   0   8 4327.21 391.765  27
  -6   0  -8 4375.04 363.919  26
  -6   0  -8 4089.53 404.881  24
   6   0   8 3702.01 342.466  10
  -6   0  -8 4089.58 407.570  20
   6   0   9 13313.9 662.882  27
  -6   0  -9 13795.3 670.513  21
  -6   0  -9 13091.5 673.541  20
   6   0  10 379.947 126.331  27
   6   0  10 283.337 97.9270   6
  -6   0 -10 392.400 121.559  25
  -6   0 -10 297.264 115.638  21
  -6   0 -10 369.387 132.587  20
   6   0  11 36.1349 75.4856  27
  -6   0 -11-9.72164 59.1261  25
  -6   0 -11 107.764 74.7237  21
   6   1  -9 57.6859 35.8585  12
  -6  -1   9 153.623 63.1307   9
  -6  -1   9 49.4921 58.1252  19
   6   1  -8 9707.39 459.140  12
  -6  -1   8 9758.18 481.483  19
  -6  -1   8 9082.36 444.226  17
   6   1  -8 9538.50 417.747  33
   6   1  -7 195.155 102.956  12
  -6  -1   7 250.692 103.333  38
  -6  -1   7 134.289 102.749  17
   6   1  -7 152.254 88.7964  33
  -6  -1   7 26.6377 84.6328  15
  -6  -1   6 1660.97 255.631  19
  -6  -1   6 1564.82 226.250  39
  -6  -1   6 1883.41 255.724  38
  -6  -1   6 1562.63 255.243  17
   6   1  -6 1610.50 249.047  33
  -6  -1   6 1505.16 233.427  15
  -6  -1   5 242.197 140.625  39
  -6  -1   5 262.786 112.384  38
  -6  -1   5 88.3525 93.0129  19
  -6  -1   5 270.210 135.294  18
  -6  -1   5 393.501 153.805  17
   6   1  -5 66.6093 97.0415  33
   6   1  -5 288.728 117.972  31
  -6  -1   5 312.447 117.996  15
  -6  -1   4 4028.90 554.932  50
  -6  -1   4 4598.18 372.705  22
  -6  -1   4 4438.21 562.839  44
  -6  -1   4 4512.19 381.647  19
  -6  -1   4 4931.98 413.670  39
  -6  -1   4 5045.33 433.384  18
  -6  -1   4 5170.39 439.909  17
   6   1  -4 4853.08 410.168  33
   6   1  -4 5451.17 439.043  31
  -6  -1   4 5237.74 428.706  38
   6   1  -4 4854.79 388.427  30
   6   1  -4 4685.86 580.489   1
  -6  -1   3 33981.2 1541.03  50
  -6  -1   3 35935.1 1077.98  39
  -6  -1   3 37679.7 1104.18  38
  -6  -1   3 37521.8 1110.88  18
   6   1  -3 38734.5 1024.02  36
  -6  -1   3 36270.9 1113.44  17
   6   1  -3 36023.2 1076.99  33
   6   1  -3 36269.3 1072.33  31
   6   1  -3 33554.3 1480.96   1
   6   1  -3 36713.9 1037.92  30
  -6  -1   2 5443.92 592.055  50
  -6  -1   2 4863.11 392.191  39
  -6  -1   2 4952.60 392.102  38
  -6  -1   2 6410.75 453.173  17
   6   1  -2 4228.15 505.589   1
   6   1  -2 5177.85 392.829  33
  -6  -1   1 134382. 2638.15  51
  -6  -1   1 132063. 2482.99  43
   6   1  -1 135332. 2719.20   1
  -6  -1   0 250094. 3223.28  43
   6   1   0 240181. 3514.92   1
  -6  -1   0 241319. 3531.62  51
   6   1   1 55515.2 1680.81   1
  -6  -1  -1 58697.8 1484.45  43
  -6  -1  -1 53802.2 1674.57  51
  -6  -1  -2 17750.2 786.202  43
   6   1   2 17568.0 959.195   1
  -6  -1  -3 9694.60 714.787  41
   6   1   3 10348.1 652.222  40
   6   1   4 31672.6 1390.27  54
  -6  -1  -4 33695.1 1373.88  41
   6   1   4 31280.6 1256.73  40
   6   1   5 7426.78 461.648  27
   6   1   5 7278.50 465.505  13
  -6  -1  -5 7107.17 482.885  26
   6   1   5 7776.13 728.400  54
  -6  -1  -5 7463.93 491.038  23
   6   1   5 7496.45 467.000  10
  -6  -1  -5 7095.21 666.621  41
  -6  -1  -5 7411.32 489.352   7
   6   1   6 137842. 2063.10  27
   6   1   6 137217. 2105.28  13
  -6  -1  -6 137457. 2144.08  26
  -6  -1  -6 138379. 2175.57  24
   6   1   6 142286. 3148.21  54
  -6  -1  -6 138780. 3016.50  41
   6   1   6 137650. 2034.73  35
  -6  -1  -6 137597. 2125.80   7
   6   1   6 138134. 2037.17  10
   6   1   7 17057.9 771.048  27
  -6  -1  -7 17298.4 771.974  26
   6   1   7 17651.2 1139.18  54
  -6  -1  -7 16364.3 776.787  24
   6   1   7 18116.7 744.718  10
  -6  -1  -7 17293.7 1108.32  41
  -6  -1  -7 16946.9 751.283   7
   6   1   8 75387.6 1643.76  27
  -6  -1  -8 74516.4 1536.60  26
  -6  -1  -8 74036.3 1571.36  21
  -6  -1  -8 74489.1 1667.20  20
  -6  -1  -8 75771.1 1528.71   7
  -6  -1  -8 71526.2 1630.89  24
   6   1   9 1260.44 239.533  27
  -6  -1  -9 1724.61 250.939  21
  -6  -1  -9 1455.91 221.786  25
  -6  -1  -9 1770.94 267.943  20
   6   1  10 12431.6 619.141  27
  -6  -1 -10 12966.3 553.222  25
  -6  -1 -10 13158.2 599.258  21
  -6  -1 -10 12202.8 609.232  20
   6   1  11 885.002 155.116  27
  -6  -1 -11 848.041 121.461  25
  -6  -1 -11 863.178 140.513  21
   6   2  -9 28707.7 634.799  12
  -6  -2   9 29009.3 690.759  19
  -6  -2   8 8142.13 462.727  19
  -6  -2   8 7435.50 374.221  17
   6   2  -8 8137.72 421.104  33
  -6  -2   7 11868.5 626.061  19
  -6  -2   7 10005.5 529.190  17
   6   2  -7 11673.7 592.516  33
  -6  -2   7 11463.3 595.784  15
   6   2  -7 12652.2 640.888  31
  -6  -2   6-13.4606 93.3248  38
  -6  -2   6 138.249 131.149  19
  -6  -2   6-58.3802 99.9479  17
   6   2  -6 43.6872 100.980  33
   6   2  -6 148.700 105.414  31
   6   2  -6 57.7084 87.4482  30
  -6  -2   6 116.037 104.559  15
  -6  -2   5 820.453 169.620  39
  -6  -2   5 1000.46 194.033  38
  -6  -2   5 1286.12 225.248  19
  -6  -2   5 1158.51 230.440  17
   6   2  -5 1107.48 216.004  33
   6   2  -5 924.039 211.979  31
   6   2  -5 1029.82 188.501  30
  -6  -2   5 1108.52 204.722  15
  -6  -2   4 7353.50 718.959  49
  -6  -2   4 6657.99 477.805  19
  -6  -2   4 6869.21 469.547  39
   6   2  -4 6957.60 454.747  36
  -6  -2   4 6817.56 489.158  17
  -6  -2   4 7001.07 479.601  38
   6   2  -4 7269.02 504.386  33
  -6  -2   4 6540.61 462.047  15
   6   2  -4 6157.63 463.541  31
   6   2  -4 7058.24 669.871   1
   6   2  -4 6197.78 451.686  30
  -6  -2   3 1294.13 322.951  50
  -6  -2   3 1078.10 184.999  22
   6   2  -3 655.829 178.936   1
  -6  -2   3 1170.00 199.587  39
  -6  -2   3 730.214 158.031  19
  -6  -2   3 729.970 171.950  38
   6   2  -3 737.250 158.533  36
  -6  -2   3 1015.78 190.831  17
   6   2  -3 547.758 155.557  33
   6   2  -3 610.828 163.806  31
   6   2  -3 1253.84 203.267  30
  -6  -2   3 464.118 123.238  15
  -6  -2   2 2086.59 363.357  50
   6   2  -2 2380.62 358.275   1
  -6  -2   1 4350.45 486.160  51
   6   2  -1 4938.05 488.686   1
   6   2   0 30498.1 1180.17   1
  -6  -2   0 33128.7 1086.47  43
  -6  -2   0 31403.0 1270.54  51
   6   2   1 120.322 75.1792   1
   6   2   1 200.461 110.995  47
  -6  -2  -1 131.041 85.9273  43
   6   2   2 32056.9 1242.65  54
  -6  -2  -2 32296.1 1283.67  51
   6   2   2 34257.0 1134.42  47
   6   2   3 6342.71 586.112  54
  -6  -2  -3 6355.65 579.080  51
   6   2   3 6471.30 484.932  47
  -6  -2  -4 3339.20 416.630  41
   6   2   4 3633.22 482.282  54
  -6  -2  -4 3519.19 445.252  51
   6   2   5 151870. 2087.63  27
   6   2   5 153824. 2129.85  13
  -6  -2  -5 151739. 2189.22  26
   6   2   5 150403. 3110.35  54
  -6  -2  -5 153690. 2147.15  24
  -6  -2  -5 152967. 2175.05  23
  -6  -2  -5 142469. 2823.36  51
  -6  -2  -5 154445. 2891.93  41
   6   2   5 153298. 2164.38  34
  -6  -2  -5 150942. 2203.68   7
   6   2   6 17546.2 754.186  27
   6   2   6 17049.1 749.151  13
  -6  -2  -6 16246.0 743.921  26
  -6  -2  -6 15329.8 937.779  51
   6   2   6 17162.9 1101.63  54
  -6  -2  -6 17289.1 766.519  24
  -6  -2  -6 16409.6 987.661  41
  -6  -2  -6 16209.2 753.893   7
   6   2   6 16027.5 707.980  35
   6   2   7 1279.06 198.340  14
   6   2   7 738.800 197.491  27
  -6  -2  -7 1271.17 229.280  26
   6   2   7 1587.74 340.936  54
  -6  -2  -7 1005.33 208.870  24
  -6  -2  -7 924.520 173.552  21
  -6  -2  -7 1300.69 219.126  20
  -6  -2  -7 1558.94 315.881  41
   6   2   7 1482.34 244.701  35
  -6  -2  -7 1330.49 225.012   7
   6   2   8 11.6004 90.9751  14
   6   2   8 8.67778 100.719  27
  -6  -2  -8 144.379 107.276  26
  -6  -2  -8-57.9834 104.734  21
  -6  -2  -8 298.526 139.271  20
  -6  -2  -8 115.947 109.318   7
   6   2   9 7789.80 477.665  14
   6   2   9 7524.05 522.828  27
  -6  -2  -9 7897.89 473.993  26
  -6  -2  -9 7332.59 443.241  25
  -6  -2  -9 7306.26 484.252  21
  -6  -2  -9 7505.00 518.410  20
   6   2  10 1427.76 225.920  27
  -6  -2 -10 1592.37 193.273  25
  -6  -2 -10 1272.22 195.257  21
  -6  -2 -10 1327.78 215.454  20
   6   2  11 8502.54 433.998  27
  -6  -2 -11 7954.20 381.958  21
   6   3  -9 9948.45 395.495  12
  -6  -3   9 9947.21 417.512  19
   6   3  -9 9598.38 341.218  33
  -6  -3   8 3127.89 274.721   9
  -6  -3   8 3129.05 298.147  19
   6   3  -8 3655.92 295.990  33
   6   3  -8 3604.68 315.012  31
  -6  -3   7 13128.7 663.684  19
   6   3  -7 13998.0 662.140  33
  -6  -3   7 11626.5 618.519  15
   6   3  -7 14343.8 684.225  31
   6   3  -7 13107.2 587.721  30
  -6  -3   6 22648.8 907.955  19
  -6  -3   6 22464.8 819.192  17
   6   3  -6 23184.1 915.559  33
  -6  -3   6 23215.7 916.048  15
   6   3  -6 23337.2 922.057  31
   6   3  -6 24037.0 881.691  30
  -6  -3   5 3557.84 374.492  19
  -6  -3   5 2895.97 294.902  38
  -6  -3   5 2904.51 317.277  17
   6   3  -5 3158.09 348.518  33
  -6  -3   5 3257.91 350.026  15
   6   3  -5 2971.73 342.970  31
   6   3  -5 3194.70 348.197  30
  -6  -3   4 63474.2 2035.05  49
  -6  -3   4 63811.4 1483.53  19
  -6  -3   4 62514.8 1354.43  39
  -6  -3   4 63268.8 1435.27  17
  -6  -3   4 61803.8 1370.33  38
   6   3  -4 65843.5 1506.07  33
  -6  -3   4 63563.3 1460.92  15
   6   3  -4 63832.6 1481.49  31
  -6  -3   3 21271.7 1096.38  49
  -6  -3   3 20453.0 803.852  19
  -6  -3   3 20311.9 766.959  39
  -6  -3   3 20109.1 776.732  38
  -6  -3   3 19162.7 771.116  17
   6   3  -3 19672.2 798.786  33
  -6  -3   3 19647.7 1139.38  50
   6   3  -3 19772.3 786.140  31
  -6  -3   2 22839.6 1153.25  50
  -6  -3   2 22841.3 1055.04  49
   6   3  -2 23630.4 1023.78   1
  -6  -3   1 28609.0 1219.45  50
   6   3  -1 30336.4 1113.22   1
  -6  -3   0 16107.7 921.876  51
   6   3   0 17884.8 933.297  47
   6   3   0 16702.7 813.205   1
   6   3   1 12712.8 741.771  54
   6   3   1 12430.4 702.643   1
  -6  -3  -1 10880.4 754.459  51
   6   3   1 13133.9 781.606  47
   6   3   2 5235.57 510.210  54
  -6  -3  -2 5750.12 550.982  51
   6   3   2 5267.31 485.257  47
   6   3   3 35084.6 1361.24  54
  -6  -3  -3 34646.7 1321.97  51
   6   3   3 35670.0 1245.58  47
   6   3   4 10910.9 808.781  54
  -6  -3  -4 10825.6 748.709  51
   6   3   4 11970.9 728.498  47
   6   3   5 207.136 109.967  27
   6   3   5 411.904 119.218  13
  -6  -3  -5 187.643 97.5989  26
   6   3   5 314.606 180.668  54
  -6  -3  -5 277.184 105.907  24
  -6  -3  -5 407.878 171.511  51
  -6  -3  -5 797.816 191.456  45
  -6  -3  -5 358.171 137.667  41
   6   3   5 91.4586 79.8778  35
   6   3   5 220.903 110.755  34
  -6  -3  -5 256.198 107.872   7
   6   3   6 82040.9 1654.28  27
   6   3   6 76571.0 1599.38  13
  -6  -3  -6 78679.0 1624.20  26
   6   3   6 82711.5 2406.06  54
  -6  -3  -6 79728.2 1609.68  24
  -6  -3  -6 75340.1 1519.74  20
  -6  -3  -6 79629.7 1669.75   7
   6   3   6 78178.6 1591.15  35
   6   3   6 81157.2 1655.13  34
   6   3   7 467.033 143.681  14
   6   3   7 521.726 178.771  27
   6   3   7 323.452 136.716  13
  -6  -3  -7 391.545 152.291  26
   6   3   7 201.586 126.904  54
  -6  -3  -7 327.188 149.898   2
  -6  -3  -7 589.233 138.680  21
  -6  -3  -7 329.744 126.939  20
   6   3   7 561.217 167.270  35
  -6  -3  -7 350.517 129.272   7
   6   3   8 103068. 1831.36  14
   6   3   8 99781.3 1902.96  27
  -6  -3  -8 100867. 1852.63  26
  -6  -3  -8 97472.2 1683.34  21
  -6  -3  -8 99966.1 1829.35  20
  -6  -3  -8 100915. 1909.67   7
   6   3   8 102040. 1937.45  35
   6   3   9 30799.8 975.571  14
   6   3   9 30735.1 1027.57  27
  -6  -3  -9 32248.9 978.657  26
  -6  -3  -9 30866.3 922.813  21
  -6  -3  -9 31453.9 1002.91  20
   6   3   9 29624.5 901.305  15
   6   3  10 24525.9 791.905  14
   6   3  10 26257.5 875.462  27
  -6  -3 -10 24007.7 712.705  26
  -6  -3 -10 26033.8 769.958  21
   6   3  11 7161.12 385.260  27
  -6  -3 -11 6832.31 325.136  21
  -6  -4   9 16827.9 522.641  19
   6   4  -9 16176.5 453.859  33
  -6  -4   8 229.012 86.6210   9
  -6  -4   8 350.152 126.850  19
   6   4  -8 375.222 122.728  33
   6   4  -8 192.335 95.6910  31
   6   4  -8 134.166 68.9891  30
  -6  -4   7 2955.11 303.107   9
  -6  -4   7 2800.80 321.618  19
   6   4  -7 3092.77 319.848  33
   6   4  -7 2926.11 322.583  31
   6   4  -7 3164.15 307.847  30
  -6  -4   6 983.886 220.503  19
   6   4  -6 1323.56 239.720  33
   6   4  -6 977.248 217.117  31
  -6  -4   5 1163.96 233.172  19
  -6  -4   5 1462.76 216.717  17
   6   4  -5 1446.96 247.496  33
   6   4  -5 1781.26 266.454  31
  -6  -4   4 4478.49 539.697  49
  -6  -4   4 4474.97 407.708  19
  -6  -4   4 4706.58 388.805  17
   6   4  -4 4475.07 406.561  33
   6   4  -4 4200.92 389.094  31
  -6  -4   3 31900.2 1318.43  49
   6   4  -3 32535.1 1318.92  48
  -6  -4   3 32692.0 1040.81  19
  -6  -4   3 32774.9 956.350  39
  -6  -4   3 32824.1 992.091  17
   6   4  -3 33463.2 1050.64  33
   6   4  -3 31815.7 996.624  31
  -6  -4   2 84301.4 2151.84  50
   6   4  -2 86216.2 2024.97  48
  -6  -4   1 129756. 2518.24  50
   6   4  -1 129021. 2347.00  48
   6   4  -1 130295. 2768.71  47
  -6  -4   0 55511.8 1552.62  50
   6   4   0 54416.3 1723.77  47
   6   4   0 51013.8 1419.79  48
   6   4   1 246136. 3184.50  54
  -6  -4  -1 248861. 3662.18  51
   6   4   1 244148. 3542.27  47
   6   4   1 250109. 3055.84  48
   6   4   2 5610.73 530.463  54
  -6  -4  -2 6196.43 572.328  51
   6   4   2 5922.79 553.828  47
  -6  -4  -3 36166.9 1355.96  51
   6   4   3 36075.0 1387.15  54
   6   4   3 36871.4 1369.81  47
   6   4   4 6978.50 662.038  54
   6   4   4 8043.03 651.403  47
  -6  -4  -4 7032.61 599.522  51
   6   4   5 219.933 112.247  27
   6   4   5 712.755 158.707  13
  -6  -4  -5 569.493 142.489  26
   6   4   5 49.9915 144.375  54
  -6  -4  -5 370.451 119.088  24
   6   4   5 427.358 164.851  47
  -6  -4  -5 354.708 149.527  45
   6   4   5 255.591 101.903  34
  -6  -4  -5 163.574 98.1105   7
   6   4   5 211.482 97.0950  32
   6   4   6 15855.4 745.527  27
   6   4   6 17102.5 765.346  13
  -6  -4  -6 17169.6 1119.66   2
  -6  -4  -6 15971.4 741.912  26
   6   4   6 15386.0 1065.71  54
  -6  -4  -6 16803.9 820.335  45
  -6  -4  -6 16084.1 704.530   8
  -6  -4  -6 15332.8 740.740   7
   6   4   6 16443.7 749.041  35
   6   4   6 15161.4 719.788  34
   6   4   7 376.889 153.395  27
   6   4   7 211.622 114.044  13
  -6  -4  -7 231.617 131.819  26
  -6  -4  -7 432.013 132.146  20
   6   4   7 322.799 149.573  35
  -6  -4  -7 386.800 130.783   7
   6   4   8 3547.09 356.870  14
   6   4   8 2968.87 341.004  27
  -6  -4  -8 3124.92 343.999  26
  -6  -4  -8 3235.32 321.865  20
  -6  -4  -8 3036.31 356.784   7
   6   4   8 3161.26 353.472  35
   6   4   9 65653.8 1436.95  14
   6   4   9 66765.6 1486.98  27
  -6  -4  -9 66680.4 1413.66  26
   6   4   9 64326.9 1381.83  15
   6   4  10 15813.9 644.669  14
   6   4  10 15716.2 645.809  27
  -6  -4 -10 15519.6 581.177  26
  -6  -4 -10 15501.3 538.969  21
   6   4  10 14826.5 585.794  15
   6   4  11 8819.42 394.126  27
   6   4  11 7855.24 325.656  15
  -6  -5   9 3147.16 213.497  19
   6   5  -9 3155.38 196.549  33
  -6  -5   8 4006.69 317.521  19
   6   5  -8 3913.40 301.412  33
   6   5  -8 3868.84 300.604  31
   6   5  -8 3843.69 280.677  30
  -6  -5   7 3896.99 316.574   9
  -6  -5   7 4137.83 370.742  19
   6   5  -7 4038.47 359.865  33
   6   5  -7 4061.27 359.910  31
  -6  -5   6 10392.1 576.295   9
  -6  -5   6 10791.5 626.537  19
   6   5  -6 11090.0 627.934  33
   6   5  -6 10302.0 600.199  31
  -6  -5   5 3348.22 348.260   9
  -6  -5   5 3355.24 360.559  19
   6   5  -5 3470.63 374.597  33
   6   5  -5 3423.06 357.581  31
  -6  -5   4 5869.04 704.353   3
   6   5  -4 6195.44 661.037  48
  -6  -5   4 6453.17 484.975   9
  -6  -5   4 6820.40 507.626  19
   6   5  -4 6847.61 497.813  33
   6   5  -4 6747.05 484.191  31
  -6  -5   3 14375.2 1042.10   3
  -6  -5   3 13965.8 703.546   9
  -6  -5   3 14114.4 705.628  19
   6   5  -3 14381.0 702.511  33
   6   5  -3 14270.8 672.461  31
   6   5  -3 13573.4 918.074  48
   6   5  -2 78725.6 2094.11  48
  -6  -5   2 81153.1 2352.91   3
  -6  -5   2 81794.1 1640.53   9
  -6  -5   2 78076.7 1586.31  19
   6   5  -2 75934.7 1529.67  33
   6   5  -2 77264.1 1467.66  31
  -6  -5   1 39026.5 1567.75   3
   6   5  -1 42364.9 1651.40  47
  -6  -5   1 42807.0 1154.97   9
   6   5  -1 40173.9 1443.40  48
  -6  -5   1 40332.0 1110.58  19
  -6  -5   1 43612.6 1405.27  50
  -6  -5   0 819.303 210.824   2
   6   5   0 792.379 221.102  48
   6   5   0 526.583 205.163  47
  -6  -5   0 280.693 150.356   3
  -6  -5  -1 79401.7 1998.60   2
  -6  -5  -1 77084.6 1946.10   3
   6   5   1 78894.0 2146.56  47
   6   5   1 77864.8 1918.63  48
   6   5   2 2209.70 342.287  54
  -6  -5  -2 1962.42 342.149   2
   6   5   2 1651.44 326.408  47
  -6  -5  -3 7842.75 696.865   2
   6   5   3 7237.58 650.939  47
  -6  -5  -4 38968.3 1597.94   2
  -6  -5  -4 40596.5 1099.67  26
   6   5   4 39792.2 1550.12  47
  -6  -5  -4 38692.8 1093.32   9
  -6  -5  -4 39392.9 1182.99  45
  -6  -5  -4 39047.9 1114.22   7
   6   5   4 38918.3 1117.78  34
   6   5   4 37586.8 1068.64  32
  -6  -5  -5 20779.9 1216.85   2
   6   5   5 25038.0 909.247  13
  -6  -5  -5 24378.1 894.916  26
   6   5   5 24458.6 1252.71  47
  -6  -5  -5 24674.1 975.866  45
  -6  -5  -5 24407.3 892.943   8
  -6  -5  -5 24490.4 909.827   7
   6   5   5 24740.0 907.466  34
   6   5   5 24161.8 865.716  32
  -6  -5  -6 50405.6 1947.82   2
   6   5   6 47019.3 1297.25  27
   6   5   6 49024.2 1304.13  13
  -6  -5  -6 50518.8 1325.62  26
   6   5   6 48956.3 1811.04  47
  -6  -5  -6 48176.8 1404.96  45
  -6  -5  -6 50097.3 1285.17   8
  -6  -5  -6 51716.2 1373.88   7
   6   5   6 49812.2 1332.54  35
   6   5   6 50435.7 1294.35  34
   6   5   7 208541. 2745.32  27
   6   5   7 205682. 2672.41  13
  -6  -5  -7 205470. 2720.47  26
  -6  -5  -7 203872. 2951.58  45
  -6  -5  -7 209626. 2821.27   7
   6   5   7 211774. 2810.64  35
   6   5   8 43753.4 1230.76  14
   6   5   8 45000.6 1252.21  27
  -6  -5  -8 43314.2 1223.43  26
   6   5   8 41935.3 1236.88  35
   6   5   9 3635.56 350.299  14
   6   5   9 3777.01 351.063  27
  -6  -5  -9 4066.74 354.025  26
   6   5  10 1356.37 187.748  27
   6   5  10 964.054 174.544  14
  -6  -5 -10 1223.75 168.552  26
   6   5  10 1023.78 169.143  15
   6   5  11 2582.83 180.082  27
   6   5  11 2672.26 192.722  15
  -6  -5 -11 2510.66 194.435   4
  -6  -6   8 1372.36 174.543  19
   6   6  -8 907.191 119.355  36
   6   6  -8 1370.13 175.760  33
   6   6  -8 1125.41 156.902  31
   6   6  -8 1174.06 154.483  30
  -6  -6   7 19697.5 742.917  19
   6   6  -7 20605.7 752.238  33
   6   6  -7 19181.4 709.345  31
  -6  -6   6 21.6674 65.6151   9
  -6  -6   6 63.5792 123.569  19
   6   6  -6 189.495 128.802  33
   6   6  -6 211.294 120.087  31
  -6  -6   5 14968.5 698.267   9
  -6  -6   5 15649.8 757.952  19
   6   6  -5 14124.3 715.721  33
   6   6  -5 14341.7 691.650  31
  -6  -6   4 1652.95 262.968   9
  -6  -6   4 1952.25 281.993  19
   6   6  -4 1636.66 257.379  33
   6   6  -4 1496.02 231.498  31
   6   6  -3 11799.3 912.528  48
  -6  -6   3 11876.5 983.309   3
  -6  -6   3 12239.5 642.786  45
  -6  -6   3 11818.8 648.755   9
  -6  -6   3 11271.2 644.537  19
   6   6  -3 11386.6 625.082  33
   6   6  -3 12139.7 605.499  31
   6   6  -2 40156.7 1609.38  48
  -6  -6   2 42382.3 1770.80   3
  -6  -6   2 41008.7 1169.31  45
  -6  -6   2 42003.0 1203.59   9
  -6  -6   2 42171.2 1207.36  19
   6   6  -2 38741.2 1097.93  33
  -6  -6   1 83048.6 2358.97   3
   6   6  -1 79617.2 2345.28  47
  -6  -6   1 80097.8 1628.93  45
  -6  -6   1 82858.2 1661.35   9
  -6  -6   1 80823.1 1641.11  19
   6   6  -1 78900.5 2189.46  48
  -6  -6   0 120034. 2721.25   3
   6   6   0 118861. 2607.89  48
   6   6   0 116032. 2787.57  47
  -6  -6   0 117889. 1957.08  45
  -6  -6   0 125963. 2013.18   9
  -6  -6   0 116235. 1932.75  19
   6   6   0 117260. 1859.24  30
  -6  -6  -1 20200.6 1045.30   3
   6   6   1 20091.1 1151.94  47
  -6  -6  -1 20877.2 826.947  45
  -6  -6  -1 19209.9 782.514   9
   6   6   1 18040.2 1013.95  48
  -6  -6  -1 19462.0 1036.47   2
   6   6   2 4192.88 474.348  54
   6   6   2 4192.34 530.111  47
  -6  -6  -2 4526.57 392.799  45
  -6  -6  -2 4508.55 384.877   9
  -6  -6  -2 4365.83 525.715   2
  -6  -6  -3 30669.6 935.704  26
   6   6   3 30485.0 1429.63  47
  -6  -6  -3 31106.7 1013.84   9
  -6  -6  -3 31114.0 1054.85  45
  -6  -6  -3 32452.4 1022.86   8
  -6  -6  -3 30420.4 944.516   7
   6   6   3 30018.8 962.806  32
  -6  -6  -3 33005.5 1469.40   2
  -6  -6  -4 16281.8 714.569  26
   6   6   4 17115.2 1084.63  47
  -6  -6  -4 16064.4 783.913  45
  -6  -6  -4 16325.8 743.521   8
  -6  -6  -4 16922.5 740.255   7
   6   6   4 15566.7 689.748  32
  -6  -6  -4 17160.3 1110.14   2
   6   6   5 109136. 1892.20  13
  -6  -6  -5 112609. 1947.43  26
   6   6   5 113997. 2846.56  47
  -6  -6  -5 109733. 2114.95  45
  -6  -6  -5 110280. 1955.09   8
  -6  -6  -5 109093. 1941.51   7
   6   6   5 113784. 1945.66  34
  -6  -6  -5 117716. 2964.93   2
   6   6   6 872.272 202.559  27
   6   6   6 857.887 192.334  13
  -6  -6  -6 1312.37 238.497  26
  -6  -6  -6 1202.87 257.995  45
  -6  -6  -6 1007.07 205.464   8
   6   6   6 886.979 181.766  34
  -6  -6  -6 1475.89 253.971   7
   6   6   7 1570.00 239.109  13
   6   6   7 1352.56 245.535  27
  -6  -6  -7 1051.30 218.226  26
  -6  -6  -7 1000.70 239.772  45
   6   6   7 1529.92 264.137  35
   6   6   8 27805.1 975.124  14
   6   6   8 28405.9 948.224  27
  -6  -6  -8 29329.4 986.942  26
   6   6   8 28136.1 984.840  35
   6   6   9 3850.22 347.014  14
   6   6   9 3938.18 323.281  27
  -6  -6  -9 3774.10 325.517  26
   6   6   9 3683.41 332.874  35
   6   6  10 34311.0 857.914  14
   6   6  10 33693.4 739.946  27
  -6  -6 -10 34703.4 794.927  26
   6   6  10 35119.7 853.575  15
  -6  -7   8 1192.22 141.260  19
   6   7  -8 1295.28 125.435  36
   6   7  -8 1335.72 154.085  33
   6   7  -8 1617.81 152.440  31
   6   7  -8 1330.82 151.965  30
  -6  -7   7 8572.19 448.572  19
   6   7  -7 8628.70 458.252  33
   6   7  -7 8409.17 418.549  31
  -6  -7   6 1408.13 225.666  19
   6   7  -6 1101.52 200.645  33
   6   7  -6 1676.62 219.581  31
  -6  -7   5 14810.2 671.355  45
  -6  -7   5 15355.8 656.221   9
  -6  -7   5 15653.8 740.479  19
   6   7  -5 14228.1 693.025  33
   6   7  -5 14946.7 654.509  31
  -6  -7   4 2592.94 319.898  45
  -6  -7   4 3224.63 328.701   9
  -6  -7   4 2784.81 329.702  19
   6   7  -4 3244.72 344.333  33
   6   7  -4 2942.53 298.062  31
  -6  -7   3 23058.7 908.388  45
  -6  -7   3 23026.4 881.941   9
  -6  -7   3 24381.1 955.107  19
   6   7  -3 23132.8 877.441  33
  -6  -7   2 37190.3 1716.61   3
   6   7  -2 36372.3 1618.03  48
  -6  -7   2 38015.9 1171.93  45
  -6  -7   2 35520.3 1108.93   9
  -6  -7   2 36228.4 1154.71  19
   6   7  -2 35093.6 1038.79  33
  -6  -7   1 83590.5 2460.83   3
   6   7  -1 82734.2 2468.70  47
  -6  -7   1 86051.2 1758.88  45
  -6  -7   1 79033.7 1656.46   9
   6   7  -1 77513.3 2324.33  48
  -6  -7   1 81070.9 1706.22  19
   6   7   0 8216.87 748.361  48
  -6  -7   0 6820.39 681.583   3
   6   7   0 8097.39 775.990  47
  -6  -7   0 9375.08 596.078  45
  -6  -7   0 8089.46 539.319   9
  -6  -7   0 8144.54 501.688   8
   6   7   1 88709.0 2526.32  47
   6   7   1 89385.6 2418.10  48
  -6  -7  -1 91810.6 1775.45   9
  -6  -7  -1 92241.7 1831.65  45
  -6  -7  -1 90529.0 1701.89   8
  -6  -7  -1 92470.4 2369.80   2
  -6  -7  -2 1799.15 353.415   2
   6   7   2 2181.15 411.965  47
  -6  -7  -2 2241.44 294.565   9
  -6  -7  -2 2565.02 327.294  45
  -6  -7  -2 1941.42 262.843   8
  -6  -7  -3 62249.2 1352.05  26
   6   7   3 66172.2 2205.43  47
  -6  -7  -3 59533.2 1521.41  45
  -6  -7  -3 61850.5 1464.47   8
  -6  -7  -3 64329.3 1363.08   7
   6   7   3 60784.8 1365.64  32
  -6  -7  -3 60123.2 2076.53   2
   6   7   4 698.496 175.188  13
  -6  -7  -4 337.913 121.956  26
  -6  -7  -4 277.489 180.368   2
   6   7   4 452.711 189.077  47
  -6  -7  -4 395.704 158.972  45
  -6  -7  -4 361.441 150.399   8
  -6  -7  -4 422.451 142.321   7
   6   7   5 1577.11 234.582  13
  -6  -7  -5 1601.66 246.823  26
  -6  -7  -5 1687.35 295.022  45
  -6  -7  -5 1567.28 255.541   8
  -6  -7  -5 1489.21 242.531   7
   6   7   5 1768.16 245.790  34
   6   7   6 1016.94 201.237  27
  -6  -7  -6 1178.37 195.544   4
   6   7   6 806.391 169.025  13
  -6  -7  -6 736.906 177.165  26
  -6  -7  -6 631.492 197.777  45
   6   7   7 2239.69 279.270  27
  -6  -7  -7 2732.40 318.638  26
  -6  -7  -7 2525.28 338.204  45
   6   7   7 1819.26 272.240  35
  -6  -7  -7 2181.68 251.361   4
   6   7   8 1194.68 212.392  14
   6   7   8 828.600 156.983  27
  -6  -7  -8 784.187 156.881   4
  -6  -7  -8 839.650 173.303  26
   6   7   8 917.308 179.126  35
   6   7   9 4486.85 338.723  14
   6   7   9 3876.35 272.102  27
  -6  -7  -9 4646.68 334.900  26
  -6  -7  -9 4588.42 308.732   4
   6   7  10 15.4575 50.6100  14
  -6  -7 -10-13.8864 47.4901   4
   6   7  10 128.217 58.4415  19
   6   7  10 110.292 69.8230  15
  -6  -8   7 6844.29 343.163  19
   6   8  -7 6716.91 300.070  31
   6   8  -7 7202.75 373.890  30
  -6  -8   6 45288.4 977.452  45
  -6  -8   6 47106.1 1065.02  19
   6   8  -6 46896.6 926.876  31
  -6  -8   5 3937.82 342.554  45
  -6  -8   5 3789.54 349.946  19
  -6  -8   4 31202.2 1021.95  45
  -6  -8   4 32385.7 933.582   9
  -6  -8   4 31543.6 1028.70  19
  -6  -8   3 59.3317 111.377  45
  -6  -8   3 213.636 132.732   9
  -6  -8   3 15.3665 124.332  19
   6   8  -3 89.7562 90.9773  33
  -6  -8   2 6396.29 501.976  45
  -6  -8   2 6654.54 470.700   9
  -6  -8   2 6975.43 514.320  19
  -6  -8   1 25375.2 933.458   9
  -6  -8   1 26845.9 1023.54  45
  -6  -8   0 13049.2 678.620   9
  -6  -8   0 12107.4 692.634  45
  -6  -8   0 13424.7 643.163   8
   6   8   1 271.807 205.841  48
   6   8   1 11.2952 182.135  47
  -6  -8  -1-117.763 160.766  45
  -6  -8  -1 104.228 98.3698   9
  -6  -8  -1 231.807 120.148   8
  -6  -8  -2 10383.2 653.398  45
  -6  -8  -2 10194.6 603.279   8
  -6  -8  -3 42987.4 1119.62  26
  -6  -8  -3 40389.6 1286.02  45
  -6  -8  -3 42499.6 1237.64   8
   6   8   4 81173.9 1539.22  13
  -6  -8  -4 79793.6 1581.72  26
  -6  -8  -4 80915.2 1830.20  45
  -6  -8  -4 80598.5 1712.25   8
   6   8   5 13227.0 662.335  27
  -6  -8  -5 13874.9 685.029  26
  -6  -8  -5 14256.3 774.895  45
   6   8   6 25958.8 880.606  27
  -6  -8  -6 25574.4 913.739  26
  -6  -8  -6 24056.1 984.001  45
  -6  -8  -6 24313.5 790.405   4
   6   8   7 1367.74 190.771  27
  -6  -8  -7 1366.64 217.754  26
  -6  -8  -7 1759.56 262.825  45
   6   8   7 1854.26 249.956  35
  -6  -8  -7 1636.90 206.307   4
   6   8   8 29251.2 860.512  14
  -6  -8  -8 29902.2 866.183  26
   6   8   8 28209.3 822.821  35
  -6  -8  -8 31034.8 783.663   4
   6   8   9 5434.03 320.743  14
  -6  -8  -9 5199.43 283.929   4
   6   8   9 5428.32 329.515  15
  -6  -9   6 1039.24 138.780  45
   6   9  -6 1042.43 153.743  30
  -6  -9   5 251.162 103.912  45
   6   9  -5 313.111 105.859  33
  -6  -9   4 10474.2 562.697  45
   6   9  -4 7696.76 432.348  33
  -6  -9   3 37876.1 965.809   9
  -6  -9   3 38014.8 1135.09  45
  -6  -9   2 11130.5 567.498   9
  -6  -9   2 10187.2 617.998  45
  -6  -9   1 27616.4 928.906   9
  -6  -9   1 27557.3 1032.26  45
  -6  -9   0 80875.9 1766.42  45
  -6  -9   0 83129.9 1533.09   8
  -6  -9  -1 22471.9 945.651  45
  -6  -9  -1 23290.4 854.614   8
  -6  -9  -2 65422.8 1618.28  45
  -6  -9  -2 67606.3 1494.07   8
  -6  -9  -3 5239.73 379.469  26
  -6  -9  -3 5430.68 474.062  45
  -6  -9  -4 10447.9 546.804  26
  -6  -9  -4 9939.83 635.088  45
   6   9   4 10238.5 529.827  34
   6   9   5 186.650 115.146  27
  -6  -9  -5-13.0598 80.0006  26
  -6  -9  -5 366.641 168.102  45
   6   9   6 4242.67 306.989  27
  -6  -9  -6 4349.74 353.568  26
  -6  -9  -6 4013.11 376.064  45
   6   9   6 4574.30 363.889  35
  -6  -9  -6 4353.72 306.318   4
   6   9   7 7522.44 415.026  35
  -6  -9  -7 7662.02 379.268   4
   6   9   8 105.190 69.5792  14
  -6  -9  -8 149.058 59.5724   4
   6   9   8 128.168 55.8102  35
  -6 -10   5 2202.70 203.485  45
   6  10  -5 2058.28 179.349  30
  -6 -10   4 2752.32 265.225  45
   6  10  -4 2718.18 225.600  30
  -6 -10   3 142.892 105.333  45
  -6 -10   2-17.3966 122.175  45
  -6 -10   1 4479.90 397.173  45
  -6 -10   0 1629.50 266.913  45
  -6 -10  -1 423.706 175.303  45
  -6 -10  -2 1492.21 259.677  45
  -6 -10  -3 13753.7 692.826  45
   6  10   4 287.041 99.6810  27
  -6 -10  -4 515.854 157.524  45
  -6 -10  -5 17474.0 719.012  45
  -6 -10  -6 10680.5 515.625  45
   6  10   6 10801.5 461.880  35
   6  10   7 12602.5 435.571  14
   6  10   7 11480.5 378.911  35
  -6 -11   4 22835.9 588.863  45
   6  11  -4 20204.0 478.118  36
  -6 -11   3 11159.8 478.293  45
   6  11  -3 10444.3 378.783  36
  -6 -11   2 37283.5 936.110  45
  -6 -11   1 11635.1 558.830  45
  -6 -11   0 25802.7 844.550  45
  -6 -11  -1 385.921 137.871  45
  -6 -11  -2 10896.4 551.550  45
  -6 -11  -3 310.867 115.324  45
  -6 -11  -4 218.249 92.8021  45
  -6 -11  -5 6739.28 356.483  45
   6  11   5 6204.10 297.767  35
  -6 -12   1 52622.7 911.302  45
  -6 -12   0 1492.97 174.556  45
  -6 -12  -1 57587.3 994.703  45
  -6 -12  -2 4172.52 263.722  45
  -6 -12  -3 8778.75 348.904  45
   7  -6  -2 18072.6 487.691   5
  -7   6   2 16682.5 470.001  22
  -7   6   1 55.3805 49.0558  22
   7  -6  -1 250.870 85.2654   5
   7  -6   0 5125.87 302.856   5
  -7   6   0 4600.58 260.302  22
  -7   6  -1 75.3562 51.3636  23
   7  -6   1 206.378 85.0296   5
   7  -6   2-1.68475 52.7347   5
   7  -6   3 1522.96 162.274   5
  -7   6  -3 1085.07 151.793  26
   7  -6   4 5479.75 268.494   5
  -7   6  -4 4808.58 258.342  26
   7  -5  -4 5803.45 275.968   5
  -7   5   4 5665.50 287.519  22
  -7   5   4 5181.98 255.747  39
  -7   5   4 5127.41 242.502  38
  -7   5   4 5395.64 257.445  16
  -7   5   3 86.4344 75.8648  22
   7  -5  -3 127.769 75.6188   5
  -7   5   3 2.74280 51.5363  39
  -7   5   3 265.672 80.6315  38
  -7   5   3 17.9933 56.8196  16
   7  -5  -2 160.204 85.1669   5
  -7   5   2 80.3840 56.6138  39
  -7   5   2-87.2544 61.2812  38
  -7   5   2-11.7045 65.2787  16
   7  -5  -1 4355.26 325.078   5
   7  -5  -1 4036.99 303.646  33
  -7   5   1 4212.34 293.296  16
  -7   5   0 51.9125 70.9509  22
   7  -5   0-15.8530 83.4222  33
   7  -5   1 5283.77 367.724   5
  -7   5  -1 4296.19 315.482  22
  -7   5  -2 138.130 77.7402  23
   7  -5   2 292.048 110.802   5
   7  -5   3 2314.33 237.707   5
   7  -5   3 2299.50 235.509  10
   7  -5   4 837.478 139.351   6
  -7   5  -4 680.410 144.714  26
   7  -5   4 757.816 147.038  10
   7  -5   4 934.867 146.035   5
   7  -5   5 41.3984 65.9208   6
  -7   5  -5 148.362 69.7558  26
  -7   5  -5 140.570 78.6570  24
   7  -5   6 1041.99 145.360   6
  -7   5  -6 894.449 124.601  24
  -7   5  -6 1166.70 141.891  20
   7  -5   7 3002.24 221.705   6
   7  -4  -5 6644.66 314.581   5
  -7   4   5 5560.06 292.322  22
  -7   4   5 5826.49 312.617  39
  -7   4   5 5923.08 309.578  38
  -7   4   5 5393.49 266.558  17
   7  -4  -4 3113.72 257.643   5
  -7   4   4 3270.83 275.274  22
  -7   4   4 3056.59 266.269  39
  -7   4   4 3369.35 269.121  38
  -7   4   4 2978.92 233.656  17
   7  -4  -3 559.323 132.336   5
  -7   4   3 693.615 156.735  39
  -7   4   3 465.668 121.435  38
  -7   4   3 557.878 116.436  17
   7  -4  -3 529.134 121.250  33
   7  -4  -2 1706.36 224.081   5
  -7   4   2 1924.57 241.597  39
  -7   4   2 1804.16 223.480  38
   7  -4  -2 1505.80 208.843  33
   7  -4  -1 92.4166 83.6832   5
  -7   4   1 86.4119 91.6936  39
  -7   4   1 207.821 93.3365  38
   7  -4  -1 18.9255 91.3044  33
   7  -4   0 6998.55 454.290   5
   7  -4   0 7252.46 492.076  33
  -7   4   0 7614.58 470.646  16
  -7   4  -1 980.028 191.709  22
   7  -4   1 1057.61 183.071   5
   7  -4   1 1362.10 232.890  33
   7  -4   2 20303.7 755.067   5
   7  -4   2 20320.2 753.670  10
  -7   4  -2 19522.3 718.346  22
   7  -4   2 22390.6 873.007  33
  -7   4  -3 342.868 136.242  23
   7  -4   3 334.231 124.251  10
   7  -4   3 122.584 83.6344   5
   7  -4   4 9986.68 522.475   6
   7  -4   4 10989.0 588.066  10
   7  -4   5 3773.65 331.983   6
  -7   4  -5 3429.23 312.564  26
   7  -4   5 3684.82 346.351  10
   7  -4   6 14553.4 617.760   6
  -7   4  -6 13135.6 521.055  26
   7  -4   6 14961.3 644.019  10
  -7   4  -6 14188.1 593.251  24
   7  -4   7 1284.15 186.653   6
  -7   4  -7 1885.08 196.963  24
  -7   4  -7 1598.24 191.400  20
  -7   4  -8 10658.7 437.518  21
  -7   4  -8 11079.1 398.897  20
   7  -4   8 10936.6 448.873   6
   7  -3  -6 5823.99 294.469   5
  -7   3   6 5475.44 301.663  39
  -7   3   6 5942.51 314.823  38
  -7   3   6 6190.76 316.205  17
   7  -3  -5 13563.6 524.006  11
  -7   3   5 13059.4 525.455  22
   7  -3  -5 13701.8 534.623   5
  -7   3   5 13853.9 571.170  39
  -7   3   5 13409.7 558.247  38
  -7   3   5 13291.8 540.376  17
   7  -3  -4 76.5843 102.407  11
   7  -3  -4 194.019 103.972   5
  -7   3   4 24.4836 93.1816  39
  -7   3   4-80.9060 126.265  38
  -7   3   4 78.1777 102.096  17
   7  -3  -4 87.5558 66.9666  33
   7  -3  -3 82258.6 1572.15  11
   7  -3  -3 81317.2 1520.87   5
  -7   3   3 78639.9 1588.60  39
  -7   3   3 79318.5 1566.93  38
  -7   3   3 81554.9 1535.46  17
   7  -3  -3 79250.4 1473.12  33
   7  -3  -2 2603.51 309.829  11
   7  -3  -2 2792.22 308.642   5
  -7   3   2 2460.43 300.242  39
  -7   3   2 2554.66 304.667  38
  -7   3   2 2619.76 290.541  17
   7  -3  -2 2936.99 315.292  33
   7  -3  -1 77686.5 1628.28  11
   7  -3  -1 79371.6 1560.73   5
  -7   3   1 77955.9 1619.07  39
  -7   3   1 78400.3 1566.53  38
   7  -3  -1 81511.6 1647.12  33
  -7   3   0 69428.5 1417.85  38
   7  -3   0 72541.8 1484.19   5
  -7   3   0 71566.9 1495.70  39
   7  -3   0 69696.5 1559.54  33
   7  -3   1 940.508 182.998   5
   7  -3   1 1085.74 225.548  33
  -7   3  -1 916.049 195.957  16
   7  -3   2 14611.5 650.273   5
   7  -3   2 14050.7 666.774  10
  -7   3  -2 14006.7 663.328  22
   7  -3   2 13937.8 711.661  33
  -7   3  -2 13559.5 638.537  16
   7  -3   3 183408. 2296.89   6
  -7   3  -3 187450. 2498.63  23
   7  -3   3 186990. 2499.36  10
   7  -3   3 182682. 2566.59  33
   7  -3   4 2994.21 334.658  10
  -7   3  -4 3106.55 312.661  23
  -7   3  -5 68.8388 89.1675  26
   7  -3   5 147.689 118.964  10
   7  -3   6 7581.72 505.738   6
  -7   3  -6 6946.83 443.361  26
  -7   3  -6 7201.72 485.250  24
   7  -3   6 7356.45 501.074  10
   7  -3   7 35875.6 1014.15   6
  -7   3  -7 34396.3 958.059  24
   7  -3   7 34326.7 1005.60  10
   7  -3   8 2106.21 238.081   6
  -7   3  -8 2231.89 217.647  24
  -7   3  -8 1960.63 219.636  20
  -7   3  -9 25564.6 668.698  21
  -7   3  -9 25368.0 623.950  20
   7  -3   9 26049.7 679.074   6
   7  -2  -7 1577.64 138.697  11
   7  -2  -7 1388.40 137.588   5
  -7   2   7 1106.36 123.017  39
  -7   2   7 1537.49 147.249  38
  -7   2   7 1656.70 161.341  17
   7  -2  -6 3120.57 252.454  11
  -7   2   6 3118.82 265.463  39
  -7   2   6 2835.31 220.187  22
   7  -2  -6 2975.40 253.072   5
  -7   2   6 2970.95 266.080  38
  -7   2   6 2976.75 267.878  17
   7  -2  -5 16400.8 654.375  11
  -7   2   5 15512.8 628.359  22
   7  -2  -5 15899.8 631.142   5
  -7   2   5 16813.5 695.878  39
  -7   2   5 17667.9 715.842  38
  -7   2   5 15713.9 678.316  17
   7  -2  -5 16495.6 602.175  33
   7  -2  -4 4297.15 374.751  11
   7  -2  -4 3453.94 321.404   5
  -7   2   4 3951.87 381.675  39
  -7   2   4 4008.19 382.404  38
  -7   2   4 4076.61 387.465  17
   7  -2  -4 4194.46 348.937  33
   7  -2  -3 632.639 170.137  11
   7  -2  -3 665.454 177.615   5
  -7   2   3 713.495 206.236  39
  -7   2   3 610.255 185.358  38
  -7   2   3 489.198 171.705  17
   7  -2  -3 636.266 176.694  33
   7  -2  -2 29732.4 1021.11  11
   7  -2  -2 30369.9 974.275   5
  -7   2   2 30565.8 1069.24  39
  -7   2   2 30913.9 1062.48  38
  -7   2   2 30445.6 1024.23  17
   7  -2  -2 32104.2 1047.56  33
   7  -2  -1 2012.69 282.428  11
   7  -2  -1 2298.10 274.848   5
  -7   2   1 2217.68 307.764  39
  -7   2   1 1875.40 273.716  38
  -7   2   1 2159.81 288.281  17
   7  -2  -1 2587.73 318.999  33
   7  -2   0 116298. 2013.11  11
   7  -2   0 123259. 1863.59  10
   7  -2   0 117302. 1871.86   5
  -7   2   0 119563. 2019.33  39
  -7   2   0 120263. 1967.53  38
  -7   2   0 118490. 1920.83  17
   7  -2   0 122053. 2072.63  33
   7  -2   1 74000.9 1500.72  10
  -7   2  -1 74865.7 1620.61  22
  -7   2  -1 76044.5 2350.14  43
  -7   2  -1 78019.3 1563.60  39
   7  -2   1 75207.2 1630.31  33
  -7   2  -1 76025.8 1645.07  16
   7  -2   2 49445.5 1269.22  10
  -7   2  -2 48587.1 1264.37  22
  -7   2  -2 49788.4 1879.27  43
   7  -2   2 47073.1 1299.81  33
  -7   2  -2 47953.1 1270.45  16
  -7   2  -3 70710.0 1578.33  23
   7  -2   3 73553.6 1582.25  10
  -7   2  -3 70260.1 1446.45  22
   7  -2   3 71301.1 1602.83  33
  -7   2  -3 73558.6 1530.81  16
  -7   2  -4 337.343 125.410  23
   7  -2   4 372.139 157.938  10
   7  -2   4 529.446 170.463  33
  -7   2  -5 5517.62 451.554  26
  -7   2  -5 6338.11 444.868  23
   7  -2   5 5979.53 476.179  10
  -7   2  -6 6244.36 460.390  26
  -7   2  -6 6420.90 490.590  24
   7  -2   6 7122.79 513.971  10
  -7   2  -7 4871.67 368.148  26
  -7   2  -7 4880.03 405.917  24
   7  -2   7 5183.13 426.705  10
   7  -2   8 4283.04 370.860   6
  -7   2  -8 4537.35 352.131  24
   7  -2   8 4247.01 347.859  10
  -7   2  -8 5137.00 396.882  20
   7  -2   9 5581.27 363.652   6
  -7   2  -9 5491.20 356.402  21
  -7   2  -9 5489.33 356.448  20
  -7   2 -10 14632.1 449.564  25
  -7   2 -10 15241.6 476.203  21
  -7   2 -10 14783.4 453.584  20
   7  -1  -7 138.942 69.1425  11
   7  -1  -7 117.467 69.3089   5
  -7   1   7 80.2391 55.5051  39
  -7   1   7 82.8354 61.7010  38
  -7   1   7 126.929 78.0459  17
   7  -1  -6 9139.64 441.508  12
   7  -1  -6 9384.71 483.696  11
  -7   1   6 8264.83 391.301  22
  -7   1   6 8616.57 465.529  39
  -7   1   6 9547.05 497.391  38
  -7   1   6 9504.07 520.162  17
   7  -1  -6 9176.67 429.172  33
   7  -1  -5 18344.0 721.105  12
   7  -1  -5 18330.1 747.485  11
  -7   1   5 17388.4 689.527  22
  -7   1   5 19371.5 785.442  39
  -7   1   5 19357.2 790.223  38
  -7   1   5 17390.2 765.077  17
   7  -1  -5 17580.2 691.943  33
   7  -1  -4 314.597 135.645  12
   7  -1  -4 622.755 177.282  11
  -7   1   4 794.610 188.036  22
  -7   1   4 325.612 159.358  39
  -7   1   4 566.816 199.981  38
  -7   1   4 331.230 159.146  17
   7  -1  -4 279.273 120.524  33
   7  -1  -3 11308.5 629.634  12
   7  -1  -3 10750.9 618.440  11
  -7   1   3 12339.7 690.446  39
  -7   1   3 11565.2 670.050  38
  -7   1   3 11046.7 658.940  17
   7  -1  -3 11558.3 636.522  33
   7  -1  -2 17770.1 790.780  12
   7  -1  -2 18314.1 800.310  11
   7  -1  -2 17672.6 738.476   5
  -7   1   2 18620.1 845.339  39
  -7   1   2 17972.4 821.156  38
  -7   1   2 17661.7 819.152  17
   7  -1  -2 19382.7 827.627  33
   7  -1  -1 117.843 101.277  12
   7  -1  -1 28.1072 87.6796  11
  -7   1   1 168.549 123.288  50
   7  -1  -1 745.617 282.591   1
   7  -1  -1 731.019 163.200  10
   7  -1  -1 165.239 70.8558   5
  -7   1   1-187.361 143.521  43
  -7   1   1 243.347 150.722  39
  -7   1   1 28.9203 95.5531  38
  -7   1   1 50.2518 91.1881  17
   7  -1  -1-46.4203 95.4659  33
   7  -1   0 2073.42 275.863  11
   7  -1   0 2156.92 425.579   1
  -7   1   0 746.288 230.324  51
   7  -1   0 2053.15 251.337  10
  -7   1   0 1740.08 349.991  43
  -7   1   0 2010.78 278.181  39
  -7   1   0 1656.66 243.376  38
  -7   1   0 1919.20 268.886  17
   7  -1   0 2087.97 277.653  33
   7  -1   1 10185.4 586.971  11
  -7   1  -1 9541.40 814.894  51
  -7   1  -1 10584.8 606.519  22
   7  -1   1 9929.73 553.687  10
   7  -1   1 10080.9 882.090   1
  -7   1  -1 10670.1 839.754  43
  -7   1  -1 9779.30 569.340  39
  -7   1  -1 9967.20 554.920  38
  -7   1  -1 10125.0 562.438  17
   7  -1   1 9912.68 582.284  33
  -7   1  -2 287.817 110.453  22
   7  -1   2 354.184 128.298  10
  -7   1  -2 788.935 220.558  43
  -7   1  -2 439.998 126.762  39
   7  -1   2 480.024 158.081  33
  -7   1  -2 551.211 161.762  16
  -7   1  -3 23999.2 915.473  23
  -7   1  -3 23688.3 856.765  22
   7  -1   3 24871.1 912.830  10
  -7   1  -3 24277.5 1211.45  43
   7  -1   3 24839.4 922.609  33
  -7   1  -3 24647.4 913.571  16
  -7   1  -4 58336.0 1434.88  23
   7  -1   4 60007.7 1444.37  10
   7  -1   4 57292.0 1390.56  33
  -7   1  -4 60854.6 1404.27  16
  -7   1  -5 20673.6 871.580  26
  -7   1  -5 20738.2 838.387  23
   7  -1   5 20741.4 870.783  10
  -7   1  -5 21153.4 812.859   7
  -7   1  -6 16065.7 756.423  26
  -7   1  -6 15667.6 769.402  24
  -7   1  -6 16976.9 729.084  23
   7  -1   6 16118.3 768.810  10
   7  -1   7 1841.37 221.904  27
  -7   1  -7 1593.52 235.767  26
  -7   1  -7 1746.46 276.340  24
   7  -1   7 1427.71 234.479  10
   7  -1   8 40041.2 1007.47  27
  -7   1  -8 43372.0 1020.91  26
  -7   1  -8 44110.3 1178.08  24
   7  -1   8 41663.7 1111.76  10
  -7   1  -8 42534.3 1186.52  20
   7  -1   9 10739.4 487.818  27
   7  -1   9 11246.8 546.995   6
  -7   1  -9 12017.4 562.539  21
  -7   1  -9 11156.3 554.000  20
   7  -1  10 5947.54 319.110   6
   7  -1  10 6522.10 329.001  27
  -7   1 -10 6711.68 336.437  25
  -7   1 -10 6454.95 350.428  21
  -7   1 -10 6915.92 368.596  20
   7   0  -8 88.1783 51.5269   5
  -7   0   8 75.2276 43.2349   9
   7   0  -7 571.617 112.297  12
   7   0  -7 784.482 147.911  11
  -7   0   7 488.675 100.362  39
  -7   0   7 697.420 123.447  38
  -7   0   7 808.911 157.924  17
   7   0  -7 663.225 110.620  33
   7   0  -6 1300.29 197.927  12
   7   0  -6 1289.18 209.128  11
  -7   0   6 1299.10 200.592  39
  -7   0   6 1289.84 207.144  38
  -7   0   6 1563.27 235.237  17
   7   0  -6 1431.12 200.845  33
   7   0  -5 23.8345 89.1876  12
  -7   0   5 125.458 99.6986  22
  -7   0   5 88.1404 112.806  39
  -7   0   5 151.130 133.352  38
  -7   0   5 228.841 149.323  17
   7   0  -5 282.160 139.088  33
   7   0  -4 4993.95 429.498  12
  -7   0   4 5440.75 427.513  22
  -7   0   4 5233.97 449.543  39
  -7   0   4 5088.09 450.228  38
  -7   0   4 4853.98 444.114  17
   7   0  -4 4446.95 402.825  33
   7   0  -3 348.317 125.224  12
   7   0  -3 376.676 148.364  11
  -7   0   3 390.760 156.141  22
  -7   0   3 260.728 137.046  39
  -7   0   3 489.287 170.756  38
  -7   0   3 384.818 170.515  17
   7   0  -3 338.453 135.971  33
   7   0  -2 69483.3 1552.25  12
   7   0  -2 68553.4 1529.08  11
  -7   0   2 70973.4 2351.75  50
   7   0  -2 73574.1 2368.58   1
  -7   0   2 65822.3 1551.89  39
  -7   0   2 70185.7 1596.43  38
  -7   0   2 68656.2 1595.81  17
   7   0  -2 71213.7 1565.82  33
   7   0  -1 2368.26 290.388  12
  -7   0   1 2472.07 408.162  51
   7   0  -1 2678.85 309.251  11
  -7   0   1 2663.35 309.247  22
  -7   0   1 2662.39 417.867  43
   7   0  -1 2902.43 485.367   1
  -7   0   1 2514.43 310.994  39
  -7   0   1 2711.91 319.977  38
  -7   0   1 2186.69 294.951  17
   7   0  -1 2199.29 286.585  33
   7   0   0 30767.9 1001.36  12
   7   0   0 28776.1 957.254  11
  -7   0   0 30355.6 1414.28  51
  -7   0   0 29710.0 1003.56  22
   7   0   0 30612.7 1490.02   1
  -7   0   0 29916.0 1329.95  43
  -7   0   0 30857.1 1021.39  39
  -7   0   0 30098.1 996.351  38
  -7   0   0 30050.8 1006.02  17
   7   0   0 28615.8 975.536  33
   7   0   1 44277.9 1165.70  11
  -7   0  -1 42499.3 1696.74  51
  -7   0  -1 43554.0 1201.03  22
   7   0   1 44621.5 1773.28   1
  -7   0  -1 44010.8 1556.99  43
  -7   0  -1 44403.3 1193.84  39
  -7   0  -1 43042.5 1145.92  38
  -7   0  -1 44477.3 1186.75  17
   7   0   1 45288.9 1201.28  33
  -7   0  -1 42685.8 1213.11  16
  -7   0  -2 4195.52 536.390  51
  -7   0  -2 3907.32 355.791  22
   7   0   2 3713.31 348.052  10
  -7   0  -2 3553.06 440.861  43
  -7   0  -2 3530.10 330.350  39
   7   0   2 4082.20 361.102  33
  -7   0  -2 3854.52 367.487  16
  -7   0  -3 2581.07 305.189  23
  -7   0  -3 3241.50 322.566  22
   7   0   3 2777.88 311.535  10
   7   0   3 2904.76 308.391  33
  -7   0  -3 3021.11 327.643  16
  -7   0  -4 3422.06 362.086  26
  -7   0  -4 3395.50 353.688  23
   7   0   4 3489.37 355.109  10
   7   0   4 2880.88 303.967  33
  -7   0  -4 3039.39 325.276  16
  -7   0  -5 57206.9 1454.82  26
  -7   0  -5 57457.0 1425.91  23
   7   0   5 58054.4 1419.16  10
  -7   0  -5 61345.5 2140.81  41
   7   0   5 56415.3 1948.61  40
  -7   0  -5 55649.2 1387.86   7
   7   0   6 12008.1 597.942  27
  -7   0  -6 12886.4 684.946  26
  -7   0  -6 12217.9 684.898  24
  -7   0  -6 13977.1 689.991  23
   7   0   6 13276.1 688.323  10
  -7   0  -6 12786.6 639.622   7
   7   0   7 25611.8 881.445  27
  -7   0  -7 27036.7 955.728  26
  -7   0  -7 25976.3 984.866  24
   7   0   7 26630.0 949.852  10
   7   0   8 3330.63 324.876  27
  -7   0  -8 3126.71 311.424  26
  -7   0  -8 2830.73 327.530  24
   7   0   8 2987.01 300.678  10
  -7   0  -8 3217.62 351.680  20
   7   0   9 18593.2 706.129  27
  -7   0  -9 19419.6 729.167  21
  -7   0  -9 18676.3 762.675  20
   7   0  10 3167.74 264.074  27
   7   0  10 2408.09 216.994   6
  -7   0 -10 2916.44 230.048  25
  -7   0 -10 2914.23 250.036  21
  -7   0 -10 2888.79 259.650  20
   7   0  11 25208.3 570.058  27
  -7   0 -11 27757.6 577.012  21
   7   1  -8 9298.32 344.009  12
   7   1  -8 9633.85 384.011  11
  -7  -1   8 9056.33 390.566   9
   7   1  -7 98.9009 82.4397  12
  -7  -1   7-27.4667 78.0513  19
  -7  -1   7 63.0034 71.2877  17
   7   1  -7 116.599 72.9457  33
   7   1  -6 13649.3 640.023  12
  -7  -1   6 13400.9 580.912  19
  -7  -1   6 13278.4 588.776  39
  -7  -1   6 13196.9 603.109  38
  -7  -1   6 13438.1 644.375  17
   7   1  -6 14129.1 634.646  33
   7   1  -5 21964.5 865.865  12
  -7  -1   5 21675.6 753.696  22
  -7  -1   5 20925.6 775.167  19
  -7  -1   5 21463.2 825.788  39
  -7  -1   5 22183.6 856.117  38
  -7  -1   5 23093.2 907.816  17
   7   1  -5 22403.7 866.651  33
   7   1  -4 32.7573 109.441  12
  -7  -1   4 151.004 101.268  22
  -7  -1   4-26.8157 102.483  39
  -7  -1   4 39.4205 136.189  38
  -7  -1   4 80.4646 139.774  17
   7   1  -4 146.960 112.800  33
   7   1  -4 163.493 115.699  30
   7   1  -3 25059.3 944.032  12
  -7  -1   3 23430.5 1355.30  50
  -7  -1   3 25687.7 920.835  22
  -7  -1   3 25544.2 965.426  39
  -7  -1   3 27103.0 999.505  38
   7   1  -3 27674.4 899.891  36
  -7  -1   3 26035.9 995.590  17
   7   1  -3 25726.3 958.611  33
   7   1  -3 25986.0 905.641  30
   7   1  -2 4229.84 381.964  12
  -7  -1   2 4615.58 584.870  50
  -7  -1   2 4569.23 400.593  22
  -7  -1   2 5020.18 432.136  39
   7   1  -2 4957.16 605.823   1
  -7  -1   2 4523.06 403.606  38
   7   1  -2 4394.30 372.347  36
  -7  -1   2 4328.35 406.103  17
   7   1  -2 4575.38 402.699  33
   7   1  -2 4737.84 397.798  30
   7   1  -1 7338.89 489.055  12
  -7  -1   1 6764.18 703.590  50
   7   1  -1 7501.20 486.478  11
  -7  -1   1 6905.39 671.083  51
  -7  -1   1 7699.17 513.730  22
   7   1  -1 6953.71 692.342   1
  -7  -1   1 7606.49 512.312  39
  -7  -1   1 7074.89 487.908  38
   7   1  -1 6911.28 463.572  36
  -7  -1   1 7661.30 518.926  17
   7   1  -1 7438.30 495.705  33
   7   1   0 6598.42 454.100  12
   7   1   0 6478.86 439.565  11
  -7  -1   0 6830.09 467.810  22
   7   1   0 6546.93 659.389   1
  -7  -1   0 5924.79 555.019  43
  -7  -1   0 6858.12 473.855  39
  -7  -1   0 7074.51 481.657  38
  -7  -1   0 7344.97 497.749  17
   7   1   0 6641.05 459.035  33
  -7  -1   0 6982.01 675.630  51
   7   1   1 14255.3 658.667  12
   7   1   1 13928.4 631.196  11
  -7  -1  -1 14568.5 679.425  22
  -7  -1  -1 13216.1 923.341  51
   7   1   1 12952.2 912.785   1
  -7  -1  -1 14371.1 676.460  39
  -7  -1  -1 14537.5 671.016  38
   7   1   1 14723.6 666.572  33
  -7  -1  -1 13234.6 659.592  16
   7   1   1 14932.5 643.309  32
  -7  -1  -2 184885. 2420.65  23
  -7  -1  -2 181646. 2364.20  22
  -7  -1  -2 179085. 2336.63  39
   7   1   2 172922. 2180.35  34
   7   1   2 173383. 2261.02  33
  -7  -1  -2 178281. 3430.13  51
  -7  -1  -2 179640. 2414.80  16
   7   1   2 176829. 2258.80  32
   7   1   3 14455.3 624.085  13
  -7  -1  -3 13857.7 678.159  26
  -7  -1  -3 13621.9 953.267  51
  -7  -1  -3 13834.7 684.690  23
  -7  -1  -3 12909.5 631.564  22
   7   1   3 13764.5 658.507  10
   7   1   3 13948.2 649.903  34
   7   1   3 13425.4 619.985  33
  -7  -1  -3 13801.1 679.772  16
   7   1   4 150438. 2067.40  13
  -7  -1  -4 147213. 2258.85  26
  -7  -1  -4 154548. 2293.63  23
   7   1   4 148916. 2194.88  10
   7   1   5 52.6925 72.9260  27
   7   1   5 23.7601 79.2712  13
  -7  -1  -5-19.8406 82.6906  26
  -7  -1  -5-45.7264 103.755  23
   7   1   5 265.982 127.848  10
  -7  -1  -5-102.055 126.823  41
   7   1   5-229.889 158.867  40
  -7  -1  -5-11.9332 90.4802   7
   7   1   6 14318.6 674.712  27
  -7  -1  -6 14538.6 732.235  26
  -7  -1  -6 14472.5 731.226  24
  -7  -1  -6 14760.1 721.251  23
   7   1   6 14579.8 701.750  10
  -7  -1  -6 14980.4 1048.55  41
  -7  -1  -6 15938.9 747.542   7
   7   1   7 30329.2 1002.85  27
  -7  -1  -7 31659.2 1061.87  26
  -7  -1  -7 31297.0 1085.35  24
   7   1   7 30996.3 995.955  10
  -7  -1  -7 32548.0 1035.64   7
   7   1   8 193.445 119.546  27
  -7  -1  -8 144.286 105.811  26
  -7  -1  -8 183.811 119.991  24
  -7  -1  -8 375.825 135.958  21
  -7  -1  -8 420.592 153.115  20
  -7  -1  -8 222.822 100.607   7
   7   1   9 103.039 91.1763  27
  -7  -1  -9 107.681 61.2176  26
  -7  -1  -9 301.366 105.098  25
  -7  -1  -9 138.950 99.3632  21
  -7  -1  -9 158.626 96.8112  20
   7   1  10 4343.66 328.992  27
   7   1  10 3428.61 260.789   6
  -7  -1 -10 4512.39 279.164  25
  -7  -1 -10 4083.78 297.498  21
  -7  -1 -10 4384.45 332.371  20
   7   1  11 3186.14 228.068  27
  -7  -1 -11 3244.25 206.375  21
   7   2  -8 2217.21 190.169  12
  -7  -2   8 2029.69 195.641   9
  -7  -2   8 2322.54 192.732  19
   7   2  -8 2236.81 176.363  33
   7   2  -7 6791.50 411.542  12
  -7  -2   7 5943.39 376.211  19
  -7  -2   7 6420.58 379.242  17
   7   2  -7 6224.81 381.499  33
   7   2  -6 36.5091 104.036  12
  -7  -2   6-76.9673 84.0831  39
  -7  -2   6-23.4842 92.4029  19
  -7  -2   6-41.3208 83.0579  38
  -7  -2   6 50.9136 89.4125  17
   7   2  -6 127.644 104.326  33
   7   2  -6 238.272 102.660  30
  -7  -2   5 16802.7 735.515  19
  -7  -2   5 15906.3 693.107  39
  -7  -2   5 16635.4 731.718  38
  -7  -2   5 17293.0 775.120  17
   7   2  -5 17689.6 784.416  33
   7   2  -5 17909.5 725.147  30
  -7  -2   4 5284.61 400.645  22
  -7  -2   4 5321.10 420.234  19
  -7  -2   4 5393.72 436.303  39
  -7  -2   4 5457.22 443.584  38
   7   2  -4 5728.29 416.367  36
  -7  -2   4 5718.11 465.288  17
   7   2  -4 5112.65 449.137  33
   7   2  -4 5401.50 426.051  30
   7   2  -3 34874.8 1101.06  12
  -7  -2   3 37179.2 1687.26  50
  -7  -2   3 36565.9 1569.39  49
  -7  -2   3 36045.1 1072.90  22
  -7  -2   3 36279.9 1537.55  44
  -7  -2   3 37170.5 1139.32  39
  -7  -2   3 36747.4 1142.34  38
   7   2  -3 38196.4 1599.36   1
   7   2  -3 38936.3 1105.46  36
  -7  -2   3 36964.0 1166.28  17
   7   2  -3 34744.8 1116.73  33
   7   2  -3 36392.5 1105.25  30
   7   2  -2 3379.26 344.143  12
  -7  -2   2 3322.43 499.898  50
  -7  -2   2 3476.16 343.005  22
   7   2  -2 3258.90 462.683   1
  -7  -2   2 3156.23 333.300  39
  -7  -2   2 3615.48 360.087  38
   7   2  -2 3261.69 324.731  36
  -7  -2   2 3132.82 349.266  17
   7   2  -2 3385.17 347.785  33
   7   2  -2 3103.24 331.244  30
   7   2  -1 55519.0 1314.46  12
   7   2  -1 54646.1 1245.30  11
  -7  -2   1 53876.0 1904.54  50
  -7  -2   1 54384.9 1872.38  51
  -7  -2   1 57338.7 1352.04  22
   7   2  -1 54654.7 1810.53   1
  -7  -2   1 57196.9 1362.97  39
  -7  -2   1 56203.6 1350.97  38
   7   2  -1 56117.1 1321.19  36
  -7  -2   1 56902.7 1389.39  17
   7   2  -1 54982.2 1325.06  33
   7   2  -1 54210.6 1223.82  32
   7   2  -1 57010.0 1354.51  30
   7   2   0 50063.2 1215.12  12
  -7  -2   0 54455.6 1304.66  22
   7   2   0 51469.9 1723.45   1
  -7  -2   0 49579.2 1226.86   9
  -7  -2   0 51476.8 1273.63  39
  -7  -2   0 53287.0 1288.50  38
   7   2   0 51824.3 1267.63  36
  -7  -2   0 51687.5 1291.32  17
  -7  -2   0 51397.1 1814.44  51
   7   2   0 49754.9 1218.15  33
  -7  -2   0 52539.1 1290.87  16
   7   2   0 51412.3 1199.84  32
   7   2   0 53228.6 1287.64  30
   7   2   1 799.799 222.324   1
  -7  -2  -1 695.534 153.852  26
  -7  -2  -1 809.627 240.591  51
  -7  -2  -1 845.040 170.309  23
  -7  -2  -1 1011.32 190.328  22
  -7  -2  -1 1079.01 188.166  39
   7   2   1 613.695 155.135  36
  -7  -2  -1 610.781 152.427  16
   7   2   1 852.223 172.486  32
  -7  -2  -2 3783.08 343.236  26
  -7  -2  -2 3535.23 330.372  23
  -7  -2  -2 3418.98 323.372  22
   7   2   2 3361.60 311.649  34
  -7  -2  -2 3289.85 477.858  51
  -7  -2  -2 3539.18 342.633  16
   7   2   2 3115.94 311.849  32
   7   2   3 6540.18 433.647  13
  -7  -2  -3 6042.28 441.387  26
  -7  -2  -3 6042.82 446.253  23
  -7  -2  -3 5909.80 629.357  51
   7   2   3 6251.88 441.951  34
  -7  -2  -3 5927.94 443.201  16
   7   2   3 6410.03 451.590  32
   7   2   4 84751.0 1550.89  27
   7   2   4 83728.1 1583.61  13
  -7  -2  -4 85159.8 1696.04  26
   7   2   4 76821.5 2318.36  54
  -7  -2  -4 80027.8 1652.15  23
  -7  -2  -4 89725.4 2445.44  51
   7   2   4 84667.7 1612.74  10
   7   2   4 82036.0 1632.51  34
   7   2   5 107288. 1808.63  27
   7   2   5 106710. 1859.55  13
  -7  -2  -5 102824. 1902.09  26
   7   2   5 108259. 2827.08  54
  -7  -2  -5 102061. 1843.07  24
  -7  -2  -5 106559. 1926.49  23
  -7  -2  -5 101378. 2604.45  51
   7   2   5 101448. 1784.76  10
   7   2   5 107628. 1741.73  35
  -7  -2  -5 102386. 1918.39   7
   7   2   6 50450.6 1308.14  27
   7   2   6 50576.9 1333.03  13
  -7  -2  -6 51273.4 1369.22  26
   7   2   6 50771.8 1985.08  54
  -7  -2  -6 49455.6 1320.21  24
  -7  -2  -6 47237.1 1784.57  51
   7   2   6 48703.4 1228.64  10
  -7  -2  -6 49922.9 1820.89  41
   7   2   6 46661.0 1813.87  40
   7   2   6 49464.2 1245.92  35
  -7  -2  -6 49129.9 1343.31   7
   7   2   7 151962. 2281.87  27
  -7  -2  -7 148527. 2296.20  26
  -7  -2  -7 151100. 2354.91  24
  -7  -2  -7 150026. 2113.64  21
  -7  -2  -7 144451. 2256.61  20
  -7  -2  -7 154784. 2342.78   7
   7   2   8 4961.23 424.474  27
  -7  -2  -8 4594.16 397.863  26
  -7  -2  -8 4984.84 385.261  21
  -7  -2  -8 4461.41 400.279  20
  -7  -2  -8 4949.07 408.281   7
   7   2   9 10570.4 575.704  27
  -7  -2  -9 10182.3 516.142  26
  -7  -2  -9 10799.4 527.822  21
  -7  -2  -9 10833.2 576.067  20
   7   2  10 31376.1 888.237  27
  -7  -2 -10 30083.1 769.682  21
  -7  -2 -10 29912.5 842.846  20
   7   2  11 267.510 94.0264  27
  -7  -2 -11 271.300 64.2897  21
   7   3  -8 2612.85 215.006  12
  -7  -3   8 2240.94 197.069   9
  -7  -3   8 2422.05 208.669  19
   7   3  -8 2529.80 199.868  33
   7   3  -7 1763.90 227.983  12
  -7  -3   7 1841.70 234.557   9
  -7  -3   7 1659.24 215.344  19
   7   3  -7 1875.09 223.813  33
   7   3  -7 1738.11 183.260  30
  -7  -3   6 403.346 140.006  19
  -7  -3   6 875.217 169.655  17
   7   3  -6 862.673 196.341  33
   7   3  -6 898.612 167.293  30
  -7  -3   5 12757.2 665.993  19
  -7  -3   5 12282.5 587.168  39
   7   3  -5 12689.1 606.893  36
  -7  -3   5 13309.4 666.055  17
   7   3  -5 12334.5 670.293  33
   7   3  -5 13276.2 689.929  31
   7   3  -5 12898.7 649.442  30
  -7  -3   4 3503.22 350.672  19
  -7  -3   4 3788.58 352.103  39
  -7  -3   4 3760.54 363.265  38
   7   3  -4 4133.93 369.801  36
  -7  -3   4 3777.42 375.536  17
   7   3  -4 3916.25 393.111  33
   7   3  -4 3770.73 377.362  31
   7   3  -4 3752.59 371.403  30
  -7  -3   3 19688.6 1206.05  50
  -7  -3   3 18338.0 1068.51  49
  -7  -3   3 19561.9 768.447  22
  -7  -3   3 19156.5 793.204  19
  -7  -3   3 18834.0 790.381  39
  -7  -3   3 19401.5 815.748  38
   7   3  -3 19236.4 800.996  36
  -7  -3   3 19722.5 836.498  17
   7   3  -3 19544.0 833.052  33
   7   3  -3 19183.8 816.122  31
   7   3  -3 19420.7 830.158  30
  -7  -3   2 104488. 2671.92  50
  -7  -3   2 103413. 1785.44  22
  -7  -3   2 101334. 1752.30  19
  -7  -3   2 107896. 1879.04  39
  -7  -3   2 111444. 1913.51  38
   7   3  -2 102781. 1839.57  36
  -7  -3   2 104726. 1898.90  17
   7   3  -2 105110. 1875.30  33
  -7  -3   2 101001. 1756.21  16
   7   3  -2 109842. 1928.87  30
   7   3  -1 8195.73 498.838  12
  -7  -3   1 7660.45 706.603  50
  -7  -3   1 8245.64 506.294  22
  -7  -3   1 8497.01 534.392   9
  -7  -3   1 8515.01 531.831  39
  -7  -3   1 8424.52 521.738  38
   7   3  -1 8430.89 527.046  36
  -7  -3   1 8335.27 531.188  17
   7   3  -1 7960.59 499.218  33
  -7  -3   1 8073.95 505.608  16
   7   3  -1 8409.21 529.499  30
   7   3   0 36769.5 1012.55  12
  -7  -3   0 38950.8 1588.03  51
  -7  -3   0 37482.4 1021.71  23
  -7  -3   0 40222.6 1114.31  22
   7   3   0 38221.0 1386.17   1
  -7  -3   0 40689.3 1130.37   9
  -7  -3   0 40667.2 1124.62  39
   7   3   0 40634.1 1128.49  36
   7   3   0 37750.8 1047.61  33
  -7  -3   0 38283.7 1082.64  16
   7   3   0 41029.0 1139.93  30
  -7  -3  -1 39117.2 1577.00  51
  -7  -3  -1 39287.3 1062.99  23
  -7  -3  -1 41892.9 1128.37  22
   7   3   1 37806.6 1080.76  36
  -7  -3  -1 39946.2 1101.59  16
   7   3   1 38337.6 1072.74  32
   7   3   1 38600.5 1092.51  30
  -7  -3  -2 28508.8 909.752  26
  -7  -3  -2 29805.2 941.041  23
  -7  -3  -2 29752.1 1370.96  51
   7   3   2 29617.5 1222.15  47
   7   3   2 28406.7 932.026  36
   7   3   2 29064.7 928.996  34
  -7  -3  -2 29471.9 959.553  16
   7   3   2 29452.9 948.084  32
  -7  -3  -3 32920.2 1011.63  26
   7   3   3 29934.8 1386.71  54
  -7  -3  -3 33427.6 1022.18  23
  -7  -3  -3 29207.4 1356.16  51
   7   3   3 31819.4 993.429  34
   7   3   3 34631.1 1050.93  32
   7   3   4 8653.14 522.682  27
   7   3   4 8670.57 523.730  13
  -7  -3  -4 8734.38 542.796  26
   7   3   4 7812.59 742.138  54
  -7  -3  -4 8355.78 495.179  24
  -7  -3  -4 8391.15 529.082  23
   7   3   4 8571.97 489.117  35
   7   3   4 8790.72 544.117  34
  -7  -3  -4 8190.75 535.914   7
  -7  -3  -4 9454.89 777.458  51
   7   3   4 8536.35 536.478  32
   7   3   5 378.770 137.465  27
   7   3   5 420.513 150.204  13
  -7  -3  -5 366.549 135.392  26
  -7  -3  -5 196.807 102.330  24
  -7  -3  -5 587.032 213.889  51
   7   3   5 695.296 157.311  10
   7   3   5 93.3571 146.375  54
   7   3   5 291.984 131.634  35
   7   3   5 485.567 164.578  34
  -7  -3  -5 354.271 144.711   7
   7   3   6 1550.61 260.757  13
   7   3   6 1649.28 247.146  27
  -7  -3  -6 1367.44 233.782  26
   7   3   6 1574.25 359.959  54
  -7  -3  -6 1702.94 258.264  24
  -7  -3  -6 1508.20 256.732   7
   7   3   6 1592.70 247.302  35
   7   3   7 208.761 107.528  14
   7   3   7 4.30680 110.363  27
   7   3   7 57.8946 115.976  13
  -7  -3  -7 60.6253 101.749  26
  -7  -3  -7 122.814 114.656  24
  -7  -3  -7 149.372 113.930  20
   7   3   7 99.5152 86.3587  35
  -7  -3  -7 159.001 124.230   7
   7   3   8 76.7538 105.275  14
   7   3   8-62.6985 129.427  27
  -7  -3  -8 95.8427 89.9586  26
  -7  -3  -8 121.219 120.270  20
  -7  -3  -8 152.804 124.286   7
   7   3   9 1574.82 203.452  14
   7   3   9 2211.81 278.390  27
  -7  -3  -9 1640.89 218.183  26
  -7  -3  -9 2029.68 222.144  21
  -7  -3  -9 1764.60 232.250  20
   7   3  10 1038.58 182.005  27
  -7  -3 -10 846.600 131.167  26
  -7  -3 -10 883.187 128.835  21
   7   3  11 29702.3 704.874  27
   7   4  -8 14674.6 496.219  12
  -7  -4   8 13432.2 427.525   9
  -7  -4   8 15009.7 507.348  19
   7   4  -8 14783.2 480.673  33
  -7  -4   7 4803.55 345.714   9
  -7  -4   7 5716.14 384.666  19
   7   4  -7 5772.35 379.642  33
   7   4  -7 5167.36 330.816  30
  -7  -4   6 1571.06 237.545   9
  -7  -4   6 1521.78 231.423  19
   7   4  -6 1662.60 209.990  36
   7   4  -6 1394.96 219.244  33
   7   4  -6 1256.48 206.523  31
   7   4  -6 1487.83 216.645  30
  -7  -4   5 4609.79 426.955   9
  -7  -4   5 4854.35 422.818  19
   7   4  -5 4757.90 390.174  36
   7   4  -5 4640.70 419.129  33
   7   4  -5 4517.22 401.660  31
   7   4  -5 4949.30 419.435  30
  -7  -4   4 9452.77 602.550   9
  -7  -4   4 9035.85 579.170  19
   7   4  -4 8917.46 558.177  36
   7   4  -4 9197.68 588.183  33
   7   4  -4 9166.87 579.378  31
   7   4  -4 9366.14 593.432  30
  -7  -4   3 2176.08 299.709   9
  -7  -4   3 2332.27 297.860  19
   7   4  -3 2314.95 304.559  36
   7   4  -3 2483.21 307.353  33
   7   4  -3 2106.72 275.527  31
   7   4  -3 2451.63 320.913  30
  -7  -4   2-113.283 109.786  50
  -7  -4   2 89.6483 101.057   9
  -7  -4   2 207.999 119.860  19
   7   4  -2-53.2068 94.9015  36
   7   4  -2-65.6917 108.475  33
   7   4  -2 26.7800 95.2771  31
   7   4  -2 58.5481 94.2543  30
  -7  -4   1 12464.0 865.007  50
  -7  -4   1 13306.5 677.741   9
  -7  -4   1 12952.0 637.452  19
   7   4  -1 13033.3 661.340  36
  -7  -4   1 13455.3 625.760  16
   7   4  -1 13327.3 645.922  33
   7   4  -1 12333.6 649.565  30
  -7  -4   0 10207.5 749.148  50
  -7  -4   0 10976.6 604.562   9
  -7  -4   0 9837.54 539.971  19
   7   4   0 10189.3 576.977  36
  -7  -4   0 10467.4 559.293  16
   7   4   0 10687.3 551.191  33
   7   4   0 11417.8 609.711  30
  -7  -4  -1 3428.06 315.181  23
  -7  -4  -1 3539.31 494.796  51
   7   4   1 3946.47 502.164  47
  -7  -4  -1 3726.77 348.852   9
   7   4   1 3581.68 342.812  36
  -7  -4  -1 3931.88 349.230  16
   7   4   1 3817.41 353.727  30
  -7  -4  -2 776.964 148.730  26
   7   4   2 1306.85 279.230  54
  -7  -4  -2 1346.01 203.735  23
   7   4   2 1058.66 280.674  47
  -7  -4  -2 958.849 181.782   9
   7   4   2 1421.96 222.084  36
  -7  -4  -2 965.463 264.993  51
   7   4   2 1228.98 209.737  32
  -7  -4  -3 669.444 157.739  26
   7   4   3 495.601 195.844  54
  -7  -4  -3 509.304 147.741  23
   7   4   3 476.160 154.945  47
  -7  -4  -3 565.512 130.787   9
   7   4   3 383.437 115.303  36
   7   4   3 630.246 166.439  34
  -7  -4  -3 543.354 160.570   7
  -7  -4  -3 628.518 197.424  51
   7   4   3 829.930 180.977  32
   7   4   4 44371.5 1218.38  13
  -7  -4  -4 43174.3 1186.03  26
   7   4   4 46722.7 1793.27  54
  -7  -4  -4 43166.9 1086.32  24
  -7  -4  -4 44459.6 1653.89  51
   7   4   4 47667.8 1638.42  47
  -7  -4  -4 41239.2 1197.26  45
  -7  -4  -4 44161.0 1240.60   7
   7   4   4 44005.7 1228.25  34
   7   4   4 43089.2 1204.87  32
   7   4   5 1074.95 206.324  27
   7   4   5 809.343 185.339  13
  -7  -4  -5 1094.56 200.595  26
   7   4   5 1329.61 321.861  54
  -7  -4  -5 1004.51 186.320  24
  -7  -4  -5 752.144 235.671  51
  -7  -4  -5 890.525 212.635  45
   7   4   5 952.659 192.543  35
   7   4   5 1361.44 227.452  34
  -7  -4  -5 755.361 174.846   7
   7   4   6 62854.7 1508.57  27
   7   4   6 61075.6 1481.36  13
  -7  -4  -6 61715.7 1487.65  26
  -7  -4  -6 64226.4 1434.91   8
  -7  -4  -6 59865.0 1508.11   7
   7   4   6 64389.2 1493.75  35
   7   4   6 60357.8 1490.09  34
   7   4   7 12838.9 635.032  14
   7   4   7 13003.4 691.018  27
   7   4   7 12257.1 674.985  13
  -7  -4  -7 12534.2 678.304  26
  -7  -4  -7 12261.2 604.770  20
  -7  -4  -7 12049.7 682.756   7
   7   4   7 13243.3 689.838  35
   7   4   8 65505.6 1400.74  14
   7   4   8 65844.9 1516.28  27
  -7  -4  -8 64518.8 1469.84  26
  -7  -4  -8 68335.5 1374.80  20
  -7  -4  -8 66318.9 1530.87   7
   7   4   8 67114.3 1542.97  35
   7   4   9 411.119 127.532  14
   7   4   9 232.107 121.816  27
  -7  -4  -9 465.969 141.383  26
  -7  -4  -9 406.771 117.330  20
   7   4  10 1089.22 157.911  14
   7   4  10 936.169 162.318  27
  -7  -4 -10 1337.97 165.756  26
   7   4  11 1142.87 134.965  27
   7   5  -8 2642.99 203.635  12
  -7  -5   8 2453.23 201.142  19
   7   5  -8 2861.16 209.690  33
  -7  -5   7 2276.64 223.473   9
  -7  -5   7 2546.67 261.862  19
   7   5  -7 2056.44 230.488  33
   7   5  -7 2052.92 231.740  31
   7   5  -7 2328.60 229.783  30
  -7  -5   6 440.702 127.991   9
  -7  -5   6 465.271 149.264  19
   7   5  -6 475.891 131.654  36
   7   5  -6 510.721 150.639  33
   7   5  -6 477.178 142.967  31
   7   5  -6 635.209 163.242  30
  -7  -5   5 1701.74 258.276   9
  -7  -5   5 1528.73 253.326  19
   7   5  -5 1744.99 249.214  36
   7   5  -5 1638.26 250.495  33
   7   5  -5 1540.94 236.898  31
   7   5  -5 1586.39 260.349  30
  -7  -5   4 6184.65 496.497   9
  -7  -5   4 6347.74 495.090  19
   7   5  -4 6492.23 494.468  33
   7   5  -4 6348.67 473.066  31
   7   5  -4 6621.05 506.774  30
  -7  -5   3 47180.9 1330.97   9
  -7  -5   3 45965.5 1297.62  19
   7   5  -3 49493.1 1317.13  33
   7   5  -3 45399.6 1213.48  31
   7   5  -3 46755.1 1328.94  30
  -7  -5   2 7370.57 771.667   3
  -7  -5   2 8569.23 564.506   9
  -7  -5   2 7604.22 523.332  19
   7   5  -2 8128.64 521.627  33
   7   5  -2 8264.31 505.268  31
   7   5  -2 7924.84 545.060  30
  -7  -5   1 127983. 3037.92   3
  -7  -5   1 130023. 2169.32   9
  -7  -5   1 131341. 2090.77  19
   7   5  -1 130293. 1985.34  33
   7   5  -1 127929. 2122.41  30
  -7  -5   0 51551.5 1829.05   3
   7   5   0 52161.7 1912.32  47
  -7  -5   0 52194.5 1342.53   9
  -7  -5   0 51210.3 1279.17  19
   7   5   0 54441.3 1345.87  36
   7   5   0 50484.1 1293.24  30
  -7  -5  -1 27340.6 1253.41   2
  -7  -5  -1 25140.5 822.943  23
  -7  -5  -1 24460.6 1188.50   3
   7   5   1 23400.2 1247.64  47
  -7  -5  -1 24750.8 913.066   9
   7   5   1 26716.5 930.120  36
   7   5   1 22396.5 837.607  30
  -7  -5  -2 42639.7 1091.92  26
   7   5   2 41909.1 1530.75  54
   7   5   2 44737.9 1696.90  47
  -7  -5  -2 42077.5 1162.67  45
  -7  -5  -2 41296.1 1173.31   9
   7   5   2 43692.5 1172.06  36
  -7  -5  -2 42780.4 1151.88   7
   7   5   2 41860.9 1182.01  32
   7   5   2 42045.9 1117.24  30
  -7  -5  -3 178800. 2316.40  26
   7   5   3 172666. 3300.60  54
   7   5   3 172659. 3309.80  47
  -7  -5  -3 170723. 2439.53  45
  -7  -5  -3 174872. 2386.58   9
   7   5   3 171506. 2268.86  36
  -7  -5  -3 170733. 2368.30   7
   7   5   3 174261. 2426.35  32
  -7  -5  -4 7777.61 767.163   2
  -7  -5  -4 8083.25 516.784  26
   7   5   4 7705.02 738.830  54
   7   5   4 7330.39 693.106  47
  -7  -5  -4 7672.64 502.287   9
  -7  -5  -4 7301.07 523.055  45
  -7  -5  -4 6970.82 496.663   7
   7   5   4 7679.96 526.325  34
   7   5   4 7491.25 514.363  32
   7   5   5 3218.06 348.642  27
   7   5   5 2849.58 328.390  13
  -7  -5  -5 3389.26 353.527  26
   7   5   5 2829.35 466.286  54
  -7  -5  -5 3146.94 505.007   2
   7   5   5 3368.99 477.297  47
  -7  -5  -5 3092.89 359.195  45
  -7  -5  -5 2713.43 313.528   8
  -7  -5  -5 2712.13 326.563   7
   7   5   5 2906.51 340.204  34
   7   5   5 3159.70 337.455  32
   7   5   6 779.791 200.190  27
   7   5   6 656.671 184.432  13
  -7  -5  -6 818.807 188.541  26
  -7  -5  -6 640.222 188.977  45
  -7  -5  -6 497.722 160.288   8
   7   5   6 368.804 138.851  34
  -7  -5  -6 602.064 173.330   7
   7   5   7 47503.6 1308.95  27
   7   5   7 45595.2 1288.59  13
  -7  -5  -7 46410.2 1287.56  26
  -7  -5  -7 49570.5 1216.90   8
  -7  -5  -7 46989.6 1333.52   7
   7   5   7 46500.7 1298.47  35
   7   5   8 1819.55 254.614  14
   7   5   8 1888.36 278.263  27
  -7  -5  -8 2089.89 280.974  26
   7   5   8 2494.48 310.951  35
   7   5   9 57648.3 1230.11  14
   7   5   9 60236.1 1298.27  27
  -7  -5  -9 60424.1 1268.23  26
   7   5   9 58165.7 1191.46  15
   7   5  10 5794.31 339.095  14
   7   5  10 5606.17 341.685  27
  -7  -5 -10 5381.06 311.207  26
   7   5  10 5178.35 293.379  15
  -7  -6   7 1136.20 136.963   9
  -7  -6   7 1159.46 173.152  19
   7   6  -7 1044.26 136.345  36
   7   6  -7 1285.38 177.954  33
   7   6  -7 968.475 148.557  31
   7   6  -7 1066.91 159.869  30
  -7  -6   6 339.994 105.259   9
  -7  -6   6 251.002 122.478  19
   7   6  -6 346.335 118.458  36
   7   6  -6 443.008 133.280  33
   7   6  -6 351.595 125.262  31
   7   6  -6 314.373 119.483  30
  -7  -6   5 8990.96 532.355   9
  -7  -6   5 9350.85 574.121  19
   7   6  -5 9309.73 547.050  33
   7   6  -5 9020.33 517.459  31
   7   6  -5 9809.19 583.316  30
  -7  -6   4 959.603 201.791   9
  -7  -6   4 558.947 182.258  19
   7   6  -4 740.571 176.364  33
   7   6  -4 684.009 156.138  31
   7   6  -4 742.877 198.537  30
  -7  -6   3 6153.68 486.587   9
  -7  -6   3 6146.65 482.655  19
   7   6  -3 6045.65 464.256  33
   7   6  -3 6139.56 430.974  31
   7   6  -3 5680.75 470.930  30
  -7  -6   2 204.277 139.968   9
  -7  -6   2 190.805 130.167  19
   7   6  -2 278.355 118.981  33
   7   6  -2 141.916 119.903  30
  -7  -6   1 2347.63 436.773   3
  -7  -6   1 2074.91 288.286   9
  -7  -6   1 2292.87 296.623  19
   7   6  -1 2187.61 291.251  30
  -7  -6   0 116494. 2809.74   3
   7   6   0 120562. 2982.57  47
  -7  -6   0 122256. 1991.80  45
  -7  -6   0 121132. 2083.66   9
  -7  -6   0 119888. 2037.63  19
   7   6   0 119474. 2030.68  36
   7   6   0 122266. 2008.56  30
  -7  -6  -1 77.0913 163.436   2
   7   6   1 186.991 202.529  47
  -7  -6  -1 223.269 133.729  45
  -7  -6  -1-23.1788 119.037   9
   7   6   1-56.9862 99.8957  36
   7   6   1 202.200 108.607  30
  -7  -6  -2 56633.6 1942.95   2
   7   6   2 54464.5 1967.27  47
  -7  -6  -2 52331.6 1363.40  45
  -7  -6  -2 52875.6 1373.22   9
   7   6   2 54815.6 1305.65  36
  -7  -6  -2 54734.2 1284.69   7
  -7  -6  -3 79843.1 2385.56   2
  -7  -6  -3 78934.8 1537.69  26
   7   6   3 78918.7 2224.61  54
   7   6   3 77008.8 2336.18  47
  -7  -6  -3 79392.3 1664.58   9
  -7  -6  -3 77286.6 1688.42  45
  -7  -6  -3 78346.3 1588.37   7
   7   6   3 73268.5 1595.51  32
  -7  -6  -4 13554.5 1023.03   2
  -7  -6  -4 13216.8 659.414  26
   7   6   4 12342.7 935.687  54
   7   6   4 13887.1 1010.07  47
  -7  -6  -4 13385.2 728.709  45
  -7  -6  -4 12709.0 676.157   8
  -7  -6  -4 12552.2 658.696   7
   7   6   4 13740.4 713.821  34
   7   6   4 11901.5 647.357  32
   7   6   5 99623.9 1883.27  13
  -7  -6  -5 104114. 1893.91  26
  -7  -6  -5 103759. 2058.22  45
  -7  -6  -5 102516. 1917.57   8
  -7  -6  -5 103467. 1922.81   7
   7   6   5 102802. 1926.20  34
   7   6   5 104177. 1855.76  32
   7   6   6 29255.8 1039.75  27
   7   6   6 28893.6 1009.31  13
  -7  -6  -6 30046.6 1031.03  26
  -7  -6  -6 29408.7 1111.05  45
  -7  -6  -6 30684.1 1024.16   8
  -7  -6  -6 30678.8 1062.48   7
   7   6   6 32047.2 1086.27  35
   7   6   6 30326.6 1017.55  34
   7   6   7 2717.80 327.603  27
   7   6   7 2720.99 312.920  13
  -7  -6  -7 2671.90 318.061  26
  -7  -6  -7 2386.82 277.376   8
  -7  -6  -7 2620.25 329.053   7
   7   6   7 2626.28 322.713  35
   7   6   8 963.514 197.488  14
   7   6   8 1360.00 226.017  27
  -7  -6  -8 842.588 148.065   4
  -7  -6  -8 994.975 193.786  26
   7   6   8 1269.25 237.094  35
   7   6   9 7472.63 433.642  14
   7   6   9 8165.75 443.582  27
  -7  -6  -9 7608.76 436.873  26
   7   6  10 6310.20 330.395  14
   7   6  10 6040.88 306.242  27
  -7  -6 -10 6204.85 313.188  26
   7   6  10 5531.72 291.670  15
  -7  -7   7 159.412 80.8622  19
   7   7  -7 37.7503 48.7455  36
   7   7  -7 82.4893 69.6882  33
   7   7  -7 182.062 76.4185  30
  -7  -7   6 8628.34 397.224   9
  -7  -7   6 9742.84 490.117  19
   7   7  -6 8974.95 462.724  36
   7   7  -6 9448.56 469.392  33
   7   7  -6 9015.28 424.707  31
   7   7  -6 8229.55 457.928  30
  -7  -7   5 7767.68 451.960   9
  -7  -7   5 7638.28 494.160  19
   7   7  -5 6855.51 454.377  33
   7   7  -5 7405.58 420.517  31
   7   7  -5 7868.91 498.450  30
  -7  -7   4 7577.40 490.986   9
  -7  -7   4 7188.31 509.908  19
   7   7  -4 8017.82 505.014  33
   7   7  -4 7650.27 443.889  31
   7   7  -4 7664.96 517.879  30
  -7  -7   3 10110.8 595.948   9
  -7  -7   3 9938.72 605.067  19
   7   7  -3 8767.09 530.569  33
   7   7  -3 9207.22 577.859  30
  -7  -7   2 27690.3 963.430  45
  -7  -7   2 28542.6 1015.90   9
  -7  -7   2 26901.8 1000.42  19
   7   7  -2 26340.0 889.059  33
   7   7  -2 27354.6 987.058  30
  -7  -7   1 53464.2 1364.05  45
  -7  -7   1 54890.1 1416.81   9
  -7  -7   1 53333.9 1403.59  19
   7   7  -1 53584.4 1344.52  30
   7   7   0 2720.02 424.929  48
   7   7   0 2088.30 415.008  47
  -7  -7   0 2473.11 310.309  45
  -7  -7   0 1912.52 284.029   9
   7   7   0 2271.98 273.373  30
   7   7   1 1076.96 253.933  48
   7   7   1 1307.65 324.082  47
  -7  -7  -1 821.829 183.913  45
  -7  -7  -1 974.856 207.145   9
  -7  -7  -1 1012.57 193.138   8
   7   7   1 1122.84 204.898  36
   7   7   2 3931.72 509.083  48
   7   7   2 3272.43 508.973  47
  -7  -7  -2 3590.01 370.524   9
  -7  -7  -2 3246.34 359.767  45
  -7  -7  -2 3160.99 343.946   8
   7   7   2 3377.93 322.177  36
  -7  -7  -2 3951.07 538.368   2
  -7  -7  -3 68.4172 104.266  26
  -7  -7  -3-154.329 117.647  45
  -7  -7  -3 88.0761 101.911   9
  -7  -7  -3 21.6396 98.2063   8
  -7  -7  -3 122.745 102.015   7
   7   7   3-206.598 114.612  32
   7   7   4 14805.6 716.894  13
  -7  -7  -4 15579.1 706.009  26
  -7  -7  -4 16124.3 812.965  45
  -7  -7  -4 14841.5 743.462   8
  -7  -7  -4 14087.6 678.359   7
   7   7   4 15340.2 748.219  34
   7   7   4 15531.9 709.210  32
   7   7   5 69810.1 1519.88  13
  -7  -7  -5 69891.9 1523.65  26
  -7  -7  -5 66622.0 1658.36  45
  -7  -7  -5 69718.8 1581.36   8
  -7  -7  -5 71688.4 1553.48   7
   7   7   5 72362.9 1573.20  34
   7   7   6 31349.9 1039.65  27
   7   7   6 30652.2 981.381  13
  -7  -7  -6 30723.7 1012.69  26
  -7  -7  -6 29165.7 1096.14  45
  -7  -7  -6 30429.6 1016.16   8
  -7  -7  -6 31124.3 1034.85   7
   7   7   6 31213.2 970.435  34
   7   7   7 8533.63 488.364  13
   7   7   7 9477.92 543.332  27
  -7  -7  -7 8779.40 535.443  26
  -7  -7  -7 8226.30 574.018  45
   7   7   7 8298.43 530.624  35
   7   7   8 11269.3 560.241  14
   7   7   8 10884.9 527.272  27
  -7  -7  -8 10551.9 538.753  26
   7   7   8 10747.2 554.810  35
   7   7   9 24141.4 708.019  14
   7   7   9 24203.7 659.613  27
  -7  -7  -9 25305.8 719.890  26
   7   7   9 24540.9 715.032  15
   7   7  10 233.652 72.6475  14
   7   7  10 195.926 58.0726  15
  -7  -8   6 1452.26 178.030  19
   7   8  -6 1139.90 162.364  36
   7   8  -6 1122.45 149.892  33
   7   8  -6 1303.24 173.690  30
  -7  -8   5 11294.4 463.956   9
  -7  -8   5 12142.9 562.826  19
   7   8  -5 10976.1 498.261  33
   7   8  -5 11442.2 545.539  30
  -7  -8   4 14862.9 621.884  45
  -7  -8   4 14654.0 619.906   9
  -7  -8   4 14524.6 675.441  19
   7   8  -4 13853.7 592.872  33
   7   8  -4 15067.6 670.261  30
  -7  -8   3 3779.68 350.406  45
  -7  -8   3 3565.73 338.909   9
  -7  -8   3 4036.34 387.806  19
   7   8  -3 3740.76 329.236  33
   7   8  -3 3742.71 356.099  30
  -7  -8   2 60408.5 1426.20  45
  -7  -8   2 61283.6 1435.94   9
  -7  -8   2 62083.0 1488.97  19
   7   8  -2 59499.7 1388.14  30
  -7  -8   1 33522.5 1103.31  45
  -7  -8   1 35930.9 1124.62   9
   7   8  -1 34664.0 1024.62  30
  -7  -8   0 36122.8 1150.41   9
  -7  -8   0 38339.5 1194.57  45
  -7  -8   0 37591.5 1074.83   8
   7   8   0 35370.8 1071.17  36
  -7  -8  -1 25458.9 973.229   9
  -7  -8  -1 24482.5 973.606  45
  -7  -8  -1 24835.4 913.592   8
   7   8   1 25560.4 878.045  36
  -7  -8  -2 3231.11 356.462   9
  -7  -8  -2 3154.32 369.975  45
  -7  -8  -2 3941.22 378.002   8
   7   8   2 3583.86 346.401  32
  -7  -8  -3 8371.31 486.625  26
  -7  -8  -3 7211.48 547.255  45
  -7  -8  -3 8005.42 540.996   8
   7   8   3 7756.32 490.712  32
   7   8   4 7540.02 489.911  13
  -7  -8  -4 8159.08 495.008  26
  -7  -8  -4 7644.15 568.231  45
  -7  -8  -4 7884.81 537.012   8
   7   8   4 7649.81 513.570  34
   7   8   5 1358.69 221.493  27
   7   8   5 1066.47 190.106  13
  -7  -8  -5 1519.38 232.829  26
  -7  -8  -5 1153.09 245.389  45
  -7  -8  -5 1374.31 237.831   8
   7   8   5 1206.98 208.805  34
   7   8   6 2551.96 285.547  27
   7   8   6 3089.84 284.436  13
  -7  -8  -6 3331.02 322.307  26
  -7  -8  -6 3312.77 362.724  45
   7   8   6 3249.05 339.141  35
   7   8   6 3149.28 283.727  34
   7   8   7 133.523 72.6127  27
  -7  -8  -7 139.607 107.899  26
   7   8   7-4.66137 74.1048  35
   7   8   8 6478.56 385.395  14
   7   8   8 6674.79 350.075  27
  -7  -8  -8 6433.84 378.046  26
   7   8   8 6864.69 394.526  35
   7   8   9 1103.78 137.462  14
   7   8   9 1440.51 158.971  15
   7   9  -6 9817.73 364.425  36
   7   9  -6 9825.51 356.896  30
  -7  -9   5 1280.10 145.405  45
   7   9  -5 996.519 134.136  33
   7   9  -5 1423.19 175.613  30
  -7  -9   4 2138.59 197.890   9
  -7  -9   4 2083.24 220.997  45
   7   9  -4 1827.22 190.497  33
   7   9  -4 1937.36 222.189  30
  -7  -9   3 3171.56 280.752   9
  -7  -9   3 3013.43 297.631  45
   7   9  -3 2940.18 276.116  30
  -7  -9   2 1024.17 194.779  45
  -7  -9   2 1177.20 187.962   9
   7   9  -2 1024.28 173.759  30
  -7  -9   1 55.0766 104.901  45
  -7  -9   1 64.4334 87.9208   9
  -7  -9   0 2233.65 284.332   9
  -7  -9   0 2138.19 287.273  45
  -7  -9   0 2137.28 252.341   8
   7   9   0 1920.05 239.009  36
  -7  -9  -1 16706.3 791.604  45
  -7  -9  -1 16598.2 712.583   8
  -7  -9  -2 49466.7 1364.99  45
  -7  -9  -2 50828.6 1283.31   8
   7   9   2 49983.1 1188.11  32
   7   9   3 6402.36 421.862  13
  -7  -9  -3 5920.12 483.704  45
  -7  -9  -3 6253.66 464.945   8
   7   9   4 28461.8 835.508  13
  -7  -9  -4 28526.1 855.306  26
  -7  -9  -4 28373.0 1029.71  45
   7   9   4 28862.6 893.616  34
   7   9   5 2330.70 266.288  27
  -7  -9  -5 2935.28 284.243  26
  -7  -9  -5 2456.37 310.272  45
   7   9   5 2870.11 262.220  34
   7   9   6 100.416 67.2899  27
  -7  -9  -6 165.288 97.2791  26
  -7  -9  -6 147.368 102.557  45
   7   9   6 53.9108 86.7918  35
   7   9   7 183.104 71.3944  27
  -7  -9  -7 269.907 89.8526  26
   7   9   7 256.428 97.2394  35
   7   9   8 1953.65 181.990  14
   7   9   8 1958.74 173.238  35
  -7 -10   4-10.2356 71.3967  45
   7  10  -4-9.48337 77.2825  36
   7  10  -4 110.816 54.0540  30
  -7 -10   3 9720.75 467.643  45
   7  10  -3 10372.7 466.470  36
   7  10  -3 9723.90 389.960  30
  -7 -10   2 485.050 141.846  45
   7  10  -2 495.368 122.095  36
  -7 -10   1 8422.27 505.226  45
   7  10  -1 8105.63 416.177  36
  -7 -10   0 5919.21 442.789  45
  -7 -10  -1 15420.7 717.568  45
   7  10   1 15561.2 596.560  32
   7  10   2 15774.6 573.206  13
  -7 -10  -2 16847.4 753.710  45
  -7 -10  -3 107.688 114.785  45
   7  10   3 28.4308 69.4467  34
   7  10   4 15113.1 587.418  27
  -7 -10  -4 17160.2 726.095  45
   7  10   4 17085.8 575.846  34
   7  10   5 566.939 107.076  27
  -7 -10  -5 583.813 151.254  45
  -7 -10  -6 285.483 109.713  45
   7  10   6 71.6712 57.8364  35
   7  10   7 31455.8 657.041  14
   7  10   7 29912.9 610.295  35
  -7 -11   3 2.42038 67.3734  45
  -7 -11   2 18879.7 595.320  45
  -7 -11   1 9339.44 459.045  45
   7  11  -1 8412.54 356.045  32
  -7 -11   0 16281.3 627.078  45
  -7 -11  -1 6827.48 421.016  45
  -7 -11  -2 22494.8 746.910  45
   7  11   2 22090.6 625.540  34
  -7 -11  -3 10418.7 497.359  45
  -7 -11  -4 13634.5 538.397  45
  -7 -11  -5 447.796 102.930  45
   7  11   5 564.813 93.4210  35
  -7 -12  -1 8352.95 350.593  45
  -8   5   1 50.2834 51.4153  23
  -8   5   1 93.0468 53.3316  22
   8  -5  -1 122.383 48.8512   5
  -8   5   0 291.542 82.7686  23
  -8   5   0 206.660 63.6061  22
   8  -5   0 221.054 67.8279   5
   8  -5   1 5040.78 251.633   5
  -8   5  -1 4956.56 278.406  23
  -8   5  -2 1186.18 166.997  26
  -8   5  -2 1529.51 146.193  23
  -8   5  -3 5329.68 315.085  26
  -8   5  -4 11691.5 412.509  26
  -8   5  -4 13393.3 454.400  24
  -8   5  -5 21230.5 491.508  24
  -8   4   3 324.485 81.6464  22
   8  -4  -3 282.413 70.9099   5
  -8   4   3 467.202 89.8615  39
  -8   4   3 430.383 87.6102  16
   8  -4  -2 11086.2 414.572   5
  -8   4   2 10900.8 467.228  22
  -8   4   2 9899.15 397.565  39
   8  -4  -2 10671.2 422.063  33
  -8   4   2 10548.0 426.321  16
   8  -4  -1 14618.4 507.078   5
  -8   4   1 14523.0 560.824  22
  -8   4   1 13545.8 474.899  39
   8  -4  -1 13672.6 538.484  33
  -8   4   1 14137.1 514.906  16
   8  -4   0 6829.76 360.377   5
  -8   4   0 6362.20 384.332  22
   8  -4   0 6851.92 407.135  33
  -8   4   0 6666.22 359.432  16
   8  -4   1 23129.7 656.360   5
  -8   4  -1 22666.6 750.795  23
  -8   4  -1 22741.4 696.625  22
   8  -4   1 23170.1 769.361  33
   8  -4   2 4828.11 308.019  10
  -8   4  -2 4794.71 340.847  23
  -8   4  -3 2728.59 277.719  26
   8  -4   3 2360.82 235.343  10
  -8   4  -3 2655.34 239.076  23
  -8   4  -4 605.114 140.028  26
   8  -4   4 634.712 137.557  10
  -8   4  -5 4350.31 297.563  26
   8  -4   5 3813.15 296.446  10
  -8   4  -5 4447.84 313.334  24
   8  -4   5 4023.25 266.893   6
  -8   4  -6 3687.78 250.785  24
   8  -4   6 3722.30 247.554   6
  -8   4  -7 6880.92 282.634  20
   8  -4   7 6184.72 286.732   6
   8  -3  -4 1416.23 145.655   5
  -8   3   4 1373.74 163.931  22
  -8   3   4 1633.92 175.465  39
  -8   3   4 1805.03 182.004  38
   8  -3  -4 1455.09 135.048  33
  -8   3   4 1627.90 180.808  16
  -8   3   3 224.983 104.699  22
   8  -3  -3 301.604 90.1335   5
  -8   3   3 341.522 120.878  39
  -8   3   3 381.997 109.066  38
   8  -3  -3 257.626 90.6476  33
   8  -3  -2 5052.07 325.066   5
  -8   3   2 5394.69 387.237  22
  -8   3   2 5333.24 366.496  39
  -8   3   2 4748.80 334.013  38
   8  -3  -2 5377.84 368.393  33
  -8   3   2 5194.19 373.620  16
   8  -3  -1 42135.5 969.210   5
  -8   3   1 42997.2 1113.06  22
  -8   3   1 41868.2 1029.75  39
  -8   3   1 39698.1 969.112  38
   8  -3  -1 42759.2 1083.64  33
  -8   3   1 42719.1 1090.77  16
   8  -3   0 5986.32 375.933   5
  -8   3   0 5793.82 426.391  22
  -8   3   0 5550.29 377.989  39
   8  -3   0 6434.16 452.535  33
  -8   3   0 6323.28 427.832  16
  -8   3  -1 165335. 2169.31  22
   8  -3   1 173580. 2341.74  33
  -8   3  -1 168918. 2140.58  16
   8  -3   1 160328. 1952.83  10
  -8   3  -2 448.389 141.152  23
  -8   3  -2 799.306 161.645  22
   8  -3   2 823.851 169.569  10
   8  -3   2 916.353 198.670  33
  -8   3  -2 718.295 145.137  16
   8  -3   3 12051.9 584.498  10
  -8   3  -3 11326.5 573.734  23
   8  -3   3 11694.5 607.561  33
   8  -3   4 4449.98 331.676   6
  -8   3  -4 4495.32 380.355  26
   8  -3   4 4682.36 373.599  10
  -8   3  -4 4461.92 338.204  23
   8  -3   5-52.5202 82.6909   6
  -8   3  -5 248.782 114.339  26
   8  -3   5 169.912 114.657  10
   8  -3   6 3923.06 308.069   6
  -8   3  -6 4438.11 314.071  26
  -8   3  -6 4864.90 350.768  24
   8  -3   6 4725.53 356.383  10
   8  -3   7 6219.70 361.233   6
  -8   3  -7 6358.63 349.850  24
   8  -3   7 6004.60 363.450  10
  -8   3  -7 6165.55 358.446  20
   8  -3   8 327.508 90.8469   6
  -8   3  -8 381.507 91.2885  21
  -8   3  -8 421.888 87.4780  20
   8  -2  -5 3765.69 251.794  11
  -8   2   5 3151.73 203.249  23
  -8   2   5 3330.64 226.344  22
   8  -2  -5 3417.92 221.170   5
  -8   2   5 3416.69 212.442   9
  -8   2   5 3621.00 261.022  39
  -8   2   5 3427.01 253.724  38
  -8   2   5 4112.44 271.060  17
   8  -2  -5 3140.40 198.061  33
   8  -2  -4 1681.29 206.516  11
  -8   2   4 1275.79 182.530  22
   8  -2  -4 1394.65 167.730   5
  -8   2   4 1382.30 194.227  39
  -8   2   4 1628.14 207.216  38
  -8   2   4 1505.24 193.958  17
   8  -2  -4 1490.07 180.831  33
   8  -2  -3 10887.0 544.085  11
  -8   2   3 10986.3 565.608  22
   8  -2  -3 10542.4 483.695   5
  -8   2   3 11109.0 566.495  39
  -8   2   3 10163.9 533.393  38
  -8   2   3 10780.5 534.785  17
   8  -2  -3 10771.7 528.981  33
   8  -2  -2 8548.13 514.840  11
  -8   2   2 9257.06 556.940  22
   8  -2  -2 8130.00 445.832   5
  -8   2   2 8086.13 509.058  39
  -8   2   2 8145.49 498.816  38
  -8   2   2 7953.50 473.696  17
   8  -2  -2 8735.62 513.082  33
   8  -2  -1 22987.3 754.627   5
  -8   2   1 24953.2 926.679  22
  -8   2   1 25125.8 892.464  39
  -8   2   1 24228.3 850.589  38
  -8   2   1 23433.3 810.425  17
   8  -2  -1 26261.5 914.783  33
   8  -2   0 2380.06 259.952  10
  -8   2   0 2278.96 296.667  22
  -8   2   0 1913.00 262.090  39
  -8   2   0 2000.60 251.004  38
   8  -2   0 2599.81 311.509  33
  -8   2   0 2163.91 288.907  16
  -8   2  -1 92.6444 108.915  22
   8  -2   1 104.690 87.9974  10
  -8   2  -1 181.342 104.177  39
   8  -2   1 337.149 162.198  33
  -8   2  -1 48.3242 102.630  16
  -8   2  -2 26173.9 963.666  23
   8  -2   2 26726.7 909.999  10
  -8   2  -2 25787.8 899.934  22
   8  -2   2 24671.9 927.328  33
  -8   2  -2 25147.0 901.551  16
  -8   2  -3 1607.68 254.216  23
  -8   2  -3 1297.37 203.634  22
   8  -2   3 1455.77 239.341  10
  -8   2  -3 1473.27 215.498  16
   8  -2   3 1248.96 229.551  33
  -8   2  -4 150.969 138.301  26
  -8   2  -4 232.655 118.560  23
   8  -2   4-45.0177 116.298  10
   8  -2   4 171.116 120.729  33
  -8   2  -5 48219.3 1255.76  26
  -8   2  -5 48505.6 1152.87  23
   8  -2   5 49011.1 1260.05  10
  -8   2  -6 758.261 159.261  26
  -8   2  -6 596.244 161.695  24
   8  -2   6 994.118 193.417  10
   8  -2   7 39310.4 1012.13   6
  -8   2  -7 37409.7 893.235  26
  -8   2  -7 38509.4 995.204  24
   8  -2   7 38789.0 1012.63  10
   8  -2   8 21704.0 681.670   6
  -8   2  -8 22681.5 664.556  24
  -8   2  -8 22240.9 683.348  20
   8  -2   9 37175.0 737.659   6
  -8   2  -9 37470.8 683.935  25
  -8   2  -9 39081.8 736.450  21
   8  -1  -6 30.1683 53.0855  11
   8  -1  -6 98.8516 52.1661   5
  -8   1   6 67.5813 54.4290   9
  -8   1   6 44.0095 46.9756  39
  -8   1   6 149.689 71.9191  17
  -8   1   6-78.5036 59.3942  16
   8  -1  -5 283.743 102.860  11
  -8   1   5 174.154 74.4535  22
   8  -1  -5 203.682 68.6195   5
  -8   1   5 165.850 94.7672  39
  -8   1   5 319.702 110.043  38
  -8   1   5 434.726 134.787  17
   8  -1  -5 207.181 82.3677  33
   8  -1  -4 2568.23 274.776  11
  -8   1   4 2085.40 244.701  22
   8  -1  -4 2066.85 222.070   5
  -8   1   4 2150.65 265.106  39
  -8   1   4 2400.41 279.497  38
  -8   1   4 2602.72 284.849  17
   8  -1  -4 2573.36 261.852  33
   8  -1  -3 10258.7 565.497  11
  -8   1   3 9465.28 550.642  22
   8  -1  -3 9428.22 484.798   5
  -8   1   3 9860.77 575.838  39
  -8   1   3 10417.7 586.529  38
  -8   1   3 9757.14 563.318  17
   8  -1  -3 10258.7 555.944  33
   8  -1  -2 62269.3 1430.02  11
  -8   1   2 65819.2 1516.90  22
   8  -1  -2 63041.0 1261.94   5
  -8   1   2 64172.6 1493.15  39
  -8   1   2 62593.9 1459.39  38
  -8   1   2 63274.4 1456.27  17
   8  -1  -2 66183.4 1469.44  33
   8  -1  -1 6334.07 474.199  11
  -8   1   1 6384.77 495.886  22
   8  -1  -1 6518.93 421.534  10
  -8   1   1 5561.36 458.155  39
  -8   1   1 6070.93 460.560  38
  -8   1   1 6907.25 488.868  17
   8  -1  -1 6701.79 491.820  33
   8  -1   0 42759.7 1222.16  11
  -8   1   0 43153.5 1258.93  22
   8  -1   0 44492.0 1147.35  10
  -8   1   0 42318.6 1221.23  39
  -8   1   0 44573.6 1208.58  38
   8  -1   0 42823.6 1227.88  33
  -8   1   0 41897.0 1257.70  16
  -8   1  -1 428.809 151.027  22
   8  -1   1 642.878 171.397  10
  -8   1  -1 424.634 145.719  39
   8  -1   1 247.115 137.846  33
  -8   1  -1 409.290 157.211  16
  -8   1  -2 14359.0 734.298  23
  -8   1  -2 13937.7 697.069  22
   8  -1   2 15306.2 715.575  10
   8  -1   2 14312.0 713.402  33
  -8   1  -2 14002.6 718.949  16
  -8   1  -3 5789.01 468.898  23
  -8   1  -3 6534.60 456.216  22
   8  -1   3 6193.95 473.938  10
   8  -1   3 6140.49 468.606  33
  -8   1  -3 6031.44 463.784  16
  -8   1  -4 9199.34 596.500  26
  -8   1  -4 9317.23 583.868  23
   8  -1   4 10023.1 602.431  10
   8  -1   4 10261.0 596.770  33
  -8   1  -5-58.2713 101.042  26
  -8   1  -5 47.4627 90.4903  23
   8  -1   5 64.1928 102.154  10
  -8   1  -5 114.280 84.2293   7
  -8   1  -6 104.479 107.882  26
  -8   1  -6 169.878 146.020  24
  -8   1  -6 78.8149 85.1280  23
   8  -1   6 3.18229 92.9913  10
  -8   1  -7 23971.5 805.484  26
  -8   1  -7 23169.9 845.635  24
   8  -1   7 24899.0 861.467  10
  -8   1  -8 9842.47 432.590  26
  -8   1  -8 10534.1 517.268  24
   8  -1   8 9980.73 491.595  10
  -8   1  -8 10286.6 519.646  20
   8  -1   9 3104.04 253.628   6
  -8   1  -9 3234.37 228.854  25
  -8   1  -9 3560.94 254.792  21
  -8   1  -9 3199.89 254.987  20
   8   0  -6 1722.57 191.650  11
   8   0  -6 1061.50 129.413   5
  -8   0   6 1523.91 166.894  39
  -8   0   6 1611.93 192.563  17
   8   0  -6 1885.62 175.227  33
  -8   0   6 1634.95 171.524  16
   8   0  -5 158.482 85.7738  12
   8   0  -5 330.437 112.396  11
  -8   0   5 211.748 80.7692  22
   8   0  -5 222.380 76.2599   5
  -8   0   5 247.523 108.092  39
  -8   0   5 222.792 119.433  38
  -8   0   5 320.170 131.030  17
   8   0  -5 214.929 100.887  33
   8   0  -4 1594.99 232.114  12
   8   0  -4 1648.02 237.979  11
  -8   0   4 1673.63 229.172  22
   8   0  -4 1040.86 171.600   5
  -8   0   4 1536.86 240.559  39
  -8   0   4 1219.63 210.898  38
  -8   0   4 1756.08 259.015  17
   8   0  -4 1521.44 226.913  33
   8   0  -3 483.484 171.834  12
   8   0  -3 789.963 191.255  11
  -8   0   3 618.534 180.838  22
   8   0  -3 141.560 96.5933   5
  -8   0   3 568.620 172.031  39
  -8   0   3 391.265 153.754  38
  -8   0   3 532.537 155.455  17
   8   0  -3 651.062 175.214  33
   8   0  -2 3730.24 375.867  12
   8   0  -2 3399.38 350.370  11
  -8   0   2 3792.26 381.683  22
   8   0  -2 4049.06 335.510  10
  -8   0   2 3905.10 394.418  39
  -8   0   2 3684.43 386.247  38
  -8   0   2 3629.92 376.474  17
   8   0  -2 3784.83 378.065  33
   8   0  -1 7625.37 533.365  12
   8   0  -1 7615.98 523.704  11
  -8   0   1 8348.75 565.934  22
   8   0  -1 8031.38 491.999  10
  -8   0   1 7782.00 547.366  39
  -8   0   1 8461.01 563.781  38
  -8   0   1 8635.79 568.068  17
   8   0  -1 8037.65 543.145  33
   8   0   0 13683.1 686.079  11
  -8   0   0 13138.2 706.682  22
   8   0   0 14046.6 668.924  10
  -8   0   0 12913.3 688.490  39
  -8   0   0 13692.1 694.054  38
   8   0   0 13134.0 688.170  33
  -8   0   0 12922.7 717.331  16
  -8   0  -1 8182.12 553.634  22
   8   0   1 8050.94 519.630  10
  -8   0  -1 8267.66 543.342  39
   8   0   1 7823.12 524.626  33
  -8   0  -1 7763.42 546.722  16
  -8   0  -2 1187.26 228.888  23
  -8   0  -2 1083.27 216.233  22
   8   0   2 1382.73 232.034  10
  -8   0  -2 1569.88 251.336  16
   8   0   2 1420.51 236.480  33
  -8   0  -3 43047.3 1270.89  26
  -8   0  -3 40927.2 1229.14  23
  -8   0  -3 41004.2 1167.06  22
   8   0   3 42780.4 1223.29  10
   8   0   3 42063.6 1181.52  33
  -8   0  -3 41634.1 1237.20  16
  -8   0  -4 3943.74 396.573  26
  -8   0  -4 3666.19 376.089  23
   8   0   4 3516.63 365.952  10
   8   0   4 3621.82 351.682  33
  -8   0  -5 6155.75 492.410  26
  -8   0  -5 6648.54 490.520  23
   8   0   5 6393.84 482.764  10
  -8   0  -5 6410.26 466.340   7
  -8   0  -6 5809.78 462.368  26
  -8   0  -6 6280.00 488.731  24
  -8   0  -6 6321.02 461.514  23
   8   0   6 6542.30 479.279  10
  -8   0  -6 6486.50 445.386   7
  -8   0  -7 21265.6 812.172  26
  -8   0  -7 20505.1 826.450  24
   8   0   7 21733.6 819.969  10
   8   0   8 3227.32 271.836  27
  -8   0  -8 2889.05 266.249  26
  -8   0  -8 3047.95 305.593  24
   8   0   8 2970.09 277.285  10
  -8   0  -8 2926.42 274.805  21
  -8   0  -8 3315.34 321.795  20
   8   0   9 12154.9 462.040  27
  -8   0  -9 13308.1 467.868  25
  -8   0  -9 13674.2 518.906  21
  -8   0  -9 14814.0 583.415  20
  -8   0 -10 2573.09 182.095  21
  -8   0 -10 2656.54 203.804  20
   8   1  -7 2931.64 191.961  12
   8   1  -7 2982.78 204.102  11
  -8  -1   7 2726.19 208.025   9
   8   1  -6 17182.2 596.970  12
   8   1  -6 17007.8 599.077  11
  -8  -1   6 17233.1 621.556  17
   8   1  -6 17709.6 591.033  33
  -8  -1   6 15289.6 502.505  16
   8   1  -5 1366.91 213.004  12
   8   1  -5 1428.44 217.529  11
  -8  -1   5 1174.44 159.056  22
  -8  -1   5 1295.29 200.141  39
  -8  -1   5 1554.14 220.194  38
  -8  -1   5 1683.01 238.086  17
   8   1  -5 1431.30 215.577  33
   8   1  -4 59275.5 1379.92  12
   8   1  -4 56511.6 1321.57  11
  -8  -1   4 57412.9 1356.80  39
  -8  -1   4 59740.1 1403.34  38
  -8  -1   4 62245.8 1466.77  17
   8   1  -4 58996.3 1371.31  33
   8   1  -3-53.6461 120.979  12
   8   1  -3-24.1508 118.701  11
  -8  -1   3 83.4567 93.9137  22
  -8  -1   3 111.297 127.736  39
  -8  -1   3 305.712 158.774  38
  -8  -1   3-11.4593 128.103  17
   8   1  -3 93.5823 124.477  33
   8   1  -2 31190.4 1055.99  12
   8   1  -2 31406.9 1024.34  11
  -8  -1   2 32309.6 1071.67  22
  -8  -1   2 33199.9 1120.56  39
  -8  -1   2 32204.5 1098.75  38
  -8  -1   2 31419.6 1101.09  17
   8   1  -2 30383.9 1044.91  33
   8   1  -1 23961.6 925.230  12
   8   1  -1 23539.3 889.941  11
  -8  -1   1 25543.1 970.338  22
  -8  -1   1 23917.5 891.382   9
  -8  -1   1 23659.6 942.908  39
  -8  -1   1 23768.3 938.434  38
  -8  -1   1 24303.9 958.697  17
   8   1  -1 22972.1 900.683  33
   8   1   0 116034. 2011.28  12
   8   1   0 115792. 1927.82  11
  -8  -1   0 119071. 2079.84  22
  -8  -1   0 117959. 2075.19  39
  -8  -1   0 115904. 2022.97  38
   8   1   0 116595. 1998.36  33
  -8  -1   0 118129. 2106.57  16
   8   1   1 33723.5 1030.74  11
   8   1   1 34183.9 1604.72   1
  -8  -1  -1 32863.2 1575.66  51
  -8  -1  -1 35061.9 1120.85  23
  -8  -1  -1 33370.7 1098.46  22
  -8  -1  -1 34187.5 1095.53  39
   8   1   1 35361.3 1093.76  33
  -8  -1  -1 33724.7 1130.99  16
  -8  -1  -2 4923.94 426.856  26
  -8  -1  -2 4391.59 582.493  51
  -8  -1  -2 5193.25 443.598  23
  -8  -1  -2 4822.32 420.271  22
   8   1   2 4606.25 407.206  10
   8   1   2 4876.87 402.122  33
  -8  -1  -2 4865.49 433.401  16
  -8  -1  -3 1973.98 279.000  26
  -8  -1  -3 2247.19 420.269  51
  -8  -1  -3 1860.97 276.968  23
  -8  -1  -3 2000.23 274.815  22
   8   1   3 1597.46 248.416  10
   8   1   3 1703.43 249.263  33
  -8  -1  -3 1624.96 270.008  16
   8   1   4 16989.0 699.267  13
  -8  -1  -4 17170.0 808.247  26
  -8  -1  -4 15772.8 774.177  23
   8   1   4 16488.0 766.688  10
   8   1   5 1269.86 213.148  13
  -8  -1  -5 1024.27 215.796  26
  -8  -1  -5 1199.08 228.531  24
  -8  -1  -5 1249.57 233.888  23
   8   1   5 1010.68 215.846  10
  -8  -1  -5 1297.73 236.685   7
   8   1   6 27263.5 869.735  27
  -8  -1  -6 28330.3 1023.19  26
  -8  -1  -6 26813.8 993.545  24
   8   1   6 25176.0 934.093  10
  -8  -1  -6 28093.1 976.178   7
   8   1   7 12913.3 603.903  27
  -8  -1  -7 12886.2 656.141  26
  -8  -1  -7 13136.0 686.904  24
   8   1   7 13703.0 648.421  10
  -8  -1  -7 13316.2 634.038   7
   8   1   8 9499.15 498.158  27
  -8  -1  -8 9619.94 513.790  26
  -8  -1  -8 10513.5 574.494  24
   8   1   8 10253.1 503.459  10
  -8  -1  -8 10253.8 507.366  21
  -8  -1  -8 9967.65 552.201  20
  -8  -1  -8 10284.9 489.211   7
   8   1   9 21940.6 695.094  27
  -8  -1  -9 22634.3 653.121  26
  -8  -1  -9 23227.1 681.111  21
  -8  -1  -9 23609.7 760.084  20
   8   1  10 2848.50 216.578  27
  -8  -1 -10 3031.05 201.744  21
  -8  -1 -10 3395.76 244.541  20
   8   2  -7 2956.84 218.287  12
   8   2  -7 2580.42 197.998  11
  -8  -2   7 2664.07 220.840   9
   8   2  -7 2797.17 201.756  33
   8   2  -6 13472.8 561.020  12
   8   2  -6 13294.4 540.368  11
  -8  -2   6 14028.4 596.743   9
   8   2  -6 13641.1 555.151  33
   8   2  -5 140.162 118.988  12
   8   2  -5 72.3590 92.9406  11
  -8  -2   5 91.8025 72.2957  39
  -8  -2   5 250.530 121.324  17
  -8  -2   5 85.8830 78.9029  16
   8   2  -5 105.740 100.148  33
   8   2  -4 1320.65 237.060  12
   8   2  -4 1471.46 232.575  11
  -8  -2   4 1283.49 192.111  22
  -8  -2   4 1339.02 230.870  39
  -8  -2   4 1110.45 213.699  38
  -8  -2   4 1637.48 258.509  17
  -8  -2   4 1421.80 224.863  16
   8   2  -4 1329.93 235.447  33
   8   2  -3 26651.5 971.649  12
   8   2  -3 27243.3 933.863  11
  -8  -2   3 27948.2 944.036  22
  -8  -2   3 27463.7 986.042  39
  -8  -2   3 30411.7 1045.62  38
   8   2  -3 27910.6 914.725  36
  -8  -2   3 29107.4 1047.47  17
   8   2  -3 26659.2 977.691  33
   8   2  -2 9191.16 578.646  12
   8   2  -2 8478.58 529.292  11
  -8  -2   2 9363.69 530.925  23
  -8  -2   2 9046.48 569.146  22
  -8  -2   2 8490.93 571.012  39
  -8  -2   2 9479.28 601.680  38
   8   2  -2 8467.41 533.195  36
  -8  -2   2 9378.61 610.299  17
   8   2  -2 9231.87 580.808  33
  -8  -2   2 8766.26 566.626  16
   8   2  -1 117342. 2014.15  12
   8   2  -1 119818. 1907.01  11
  -8  -2   1 118477. 1944.43  23
  -8  -2   1 122555. 2080.50  22
  -8  -2   1 122403. 2068.26   9
  -8  -2   1 123192. 2126.46  39
  -8  -2   1 119460. 2081.45  38
   8   2  -1 119962. 2029.99  36
  -8  -2   1 120658. 2126.39  17
   8   2  -1 120210. 2033.55  33
  -8  -2   1 116692. 2056.21  16
   8   2   0 89962.5 1731.85  12
  -8  -2   0 96249.0 1692.94  26
   8   2   0 92692.8 1642.48  11
  -8  -2   0 96594.3 2683.81  51
  -8  -2   0 94361.8 2654.00  50
  -8  -2   0 94736.4 1766.46  23
  -8  -2   0 95470.4 1842.26  22
   8   2   0 89008.6 2469.17   1
  -8  -2   0 93856.9 1749.87   9
  -8  -2   0 93103.4 1828.09  39
   8   2   0 96491.8 1791.07  33
  -8  -2   0 94349.0 1846.84  16
   8   2   0 93932.6 1683.23  32
   8   2   1 43362.2 1181.98  12
  -8  -2  -1 44139.7 1191.30  26
  -8  -2  -1 45783.1 1841.90  51
  -8  -2  -1 41777.5 1191.40  23
  -8  -2  -1 42498.3 1225.23  22
   8   2   1 42186.1 1168.07  33
  -8  -2  -1 45879.6 1288.18  16
   8   2   1 45500.4 1195.55  32
   8   2   2 156046. 2104.92  13
  -8  -2  -2 156073. 2276.48  26
  -8  -2  -2 151177. 3350.35  51
  -8  -2  -2 152216. 2332.15  23
  -8  -2  -2 153551. 2307.95  22
   8   2   2 153046. 2194.18  34
   8   2   2 154632. 2174.90  33
  -8  -2  -2 158065. 2389.48  16
   8   2   2 148803. 2215.55  32
   8   2   3 6119.68 434.779  13
  -8  -2  -3 5860.54 463.449  26
  -8  -2  -3 6136.54 691.900  51
  -8  -2  -3 5546.41 446.517  23
   8   2   3 5529.72 431.667  34
  -8  -2  -3 5319.53 452.847  16
   8   2   4 20297.5 796.000  13
  -8  -2  -4 20476.1 869.624  26
  -8  -2  -4 19929.7 807.824  24
  -8  -2  -4 19534.2 854.113  23
  -8  -2  -4 18902.9 1212.18  51
   8   2   4 21130.3 858.651  10
   8   2   5 10066.9 551.150  27
   8   2   5 10210.7 579.354  13
  -8  -2  -5 10782.0 639.188  26
  -8  -2  -5 10469.4 605.755  24
  -8  -2  -5 10220.6 620.604  23
   8   2   5 10402.2 597.901  10
  -8  -2  -5 10908.8 643.950   7
   8   2   6 19959.0 793.916  27
   8   2   6 21981.2 861.512  13
  -8  -2  -6 20875.1 885.936  26
  -8  -2  -6 21214.2 872.896  24
   8   2   6 19014.9 788.452  10
  -8  -2  -6 19882.3 852.584   7
   8   2   7 190.786 101.075  27
  -8  -2  -7 241.031 119.420  26
  -8  -2  -7 168.058 107.140  24
   8   2   7 253.952 101.106  10
  -8  -2  -7 322.089 97.9989  21
  -8  -2  -7 216.494 117.019  20
  -8  -2  -7 262.167 126.742   7
   8   2   8 847.321 175.406  27
  -8  -2  -8 983.254 191.247  26
  -8  -2  -8 1040.82 162.551  21
  -8  -2  -8 999.741 181.989  20
  -8  -2  -8 1020.00 179.843   7
   8   2   9 166.821 96.3047  27
  -8  -2  -9 284.035 103.039  26
  -8  -2  -9 164.019 85.5840  21
  -8  -2  -9 236.982 106.413  20
   8   2  10 5106.98 316.333  27
  -8  -2 -10 5134.26 247.524  21
  -8  -2 -10 6015.75 324.820  20
   8   3  -7 7844.66 360.632  12
   8   3  -7 7446.84 326.638  11
  -8  -3   7 8049.36 374.867   9
  -8  -3   7 7006.25 304.184  19
   8   3  -7 7786.20 349.747  33
   8   3  -6 218.150 111.170  12
   8   3  -6 236.097 91.2488  11
  -8  -3   6 122.029 99.2442   9
  -8  -3   6 244.375 98.9067  19
   8   3  -6 235.766 105.910  33
   8   3  -5 17615.7 724.978  12
  -8  -3   5 17860.5 770.860   9
  -8  -3   5 17576.5 673.838  19
   8   3  -5 18223.9 743.767  33
   8   3  -5 18758.0 703.669  30
   8   3  -4 18747.6 788.787  12
  -8  -3   4 18238.1 818.781   9
  -8  -3   4 19145.1 740.156  19
   8   3  -4 19967.2 753.820  36
   8   3  -4 19164.2 805.709  33
  -8  -3   4 18383.0 699.753  16
   8   3  -4 19847.4 797.078  30
   8   3  -3 2085.26 284.657  12
  -8  -3   3 2249.56 278.563  22
  -8  -3   3 1843.65 293.002   9
  -8  -3   3 2158.39 260.892  19
  -8  -3   3 2106.12 276.293  39
   8   3  -3 2130.77 272.211  36
  -8  -3   3 2134.41 295.981  17
   8   3  -3 1821.62 271.875  33
  -8  -3   3 2076.27 265.204  16
   8   3  -3 2053.76 288.508  30
   8   3  -2 2408.37 296.954  12
   8   3  -2 3208.72 313.444  11
  -8  -3   2 2834.71 317.558  22
  -8  -3   2 2753.72 340.380   9
  -8  -3   2 2584.85 319.230  39
   8   3  -2 2623.49 311.186  36
   8   3  -2 2411.51 308.662  33
  -8  -3   2 2323.67 285.844  16
   8   3  -2 2779.55 290.882  32
   8   3  -2 3075.05 352.698  30
   8   3  -1 3135.01 333.566  12
  -8  -3   1 3042.09 311.048  23
  -8  -3   1 3761.22 531.659  50
  -8  -3   1 2845.27 330.990  22
  -8  -3   1 3337.85 357.287   9
   8   3  -1 3461.67 363.220  36
   8   3  -1 3051.22 333.008  33
  -8  -3   1 3108.42 330.759  16
   8   3  -1 3981.47 351.197  32
   8   3  -1 3548.41 373.735  30
   8   3   0 2319.64 283.374  12
  -8  -3   0 1991.33 260.331  23
  -8  -3   0 2377.83 403.948  50
  -8  -3   0 2149.45 291.864  22
  -8  -3   0 2441.90 301.001   9
   8   3   0 2092.89 291.942  36
   8   3   0 2062.75 273.507  33
  -8  -3   0 2488.10 303.680  16
   8   3   0 2396.39 285.506  32
   8   3   1 1783.43 238.656  12
  -8  -3  -1 2371.71 279.766  26
  -8  -3  -1 1781.55 248.806  23
  -8  -3  -1 1938.17 388.557  51
  -8  -3  -1 2133.53 286.333  22
  -8  -3  -1 2147.30 270.443   9
   8   3   1 1988.63 274.295  36
   8   3   1 1857.53 250.099  34
  -8  -3  -1 2439.53 305.691  16
   8   3   1 1404.25 213.207  33
   8   3   1 2210.40 280.741  32
  -8  -3  -2 7928.67 510.983  26
  -8  -3  -2 8755.88 552.529  23
  -8  -3  -2 8007.92 772.347  51
   8   3   2 7869.63 515.792  34
  -8  -3  -2 8028.93 543.102  16
   8   3   2 7998.26 526.947  32
   8   3   3 97866.8 1698.91  27
   8   3   3 95448.2 1751.85  13
  -8  -3  -3 97115.4 1810.53  26
  -8  -3  -3 98486.6 1672.79  24
  -8  -3  -3 100763. 1885.65  23
  -8  -3  -3 101420. 2730.22  51
   8   3   3 94872.5 1801.27  34
   8   3   3 97571.9 1860.06  32
   8   3   4 18097.0 746.911  27
   8   3   4 17181.0 760.836  13
  -8  -3  -4 18533.4 823.700  26
  -8  -3  -4 17808.9 742.271  24
  -8  -3  -4 18719.4 826.904  23
  -8  -3  -4 16194.4 1097.32  51
   8   3   4 17152.6 766.458  10
   8   3   4 17620.8 797.020  34
  -8  -3  -4 16039.2 781.232   7
   8   3   5 149086. 2195.77  27
   8   3   5 147275. 2256.81  13
  -8  -3  -5 147891. 2336.46  26
  -8  -3  -5 144765. 2164.82  24
   8   3   5 143626. 2157.02  10
   8   3   5 147876. 2051.81  35
   8   3   5 147442. 2356.72  34
  -8  -3  -5 148256. 2373.77   7
   8   3   6 1067.12 211.269  27
   8   3   6 1205.63 225.657  13
  -8  -3  -6 787.341 175.601  26
  -8  -3  -6 1019.70 206.277  24
   8   3   6 928.533 180.007  10
   8   3   6 1251.04 214.339  35
  -8  -3  -6 904.924 213.320   7
   8   3   7 165.723 97.2763  27
  -8  -3  -7 51.3167 107.402  26
  -8  -3  -7 130.153 99.8612  20
  -8  -3  -7 41.7438 91.8584   7
   8   3   8 297.736 124.866  27
  -8  -3  -8 178.756 103.339  26
  -8  -3  -8 172.601 86.5201  20
  -8  -3  -8 23.8782 77.1994   7
   8   3   9 29360.9 863.299  27
  -8  -3  -9 27162.0 794.908  26
  -8  -3  -9 27104.8 774.300  20
   8   3  10 219.545 89.2992  27
  -8  -3 -10 376.903 79.1587  26
   8   4  -7 146.574 75.9933  12
   8   4  -7 46.1530 44.9152  11
  -8  -4   7-18.4696 67.9015   9
  -8  -4   7 134.324 61.9784  19
   8   4  -7 138.181 73.3717  33
   8   4  -6 10138.4 487.177  12
  -8  -4   6 10722.7 517.106   9
  -8  -4   6 10761.7 489.377  19
   8   4  -6 11067.6 514.431  33
   8   4  -6 10557.2 464.544  30
   8   4  -5 319.120 132.350  12
  -8  -4   5 258.997 134.790   9
  -8  -4   5 275.799 109.725  19
   8   4  -5 212.254 93.6577  36
   8   4  -5 238.246 121.262  33
   8   4  -5 303.521 114.958  30
   8   4  -4 5731.32 433.170  12
  -8  -4   4 5872.34 471.400   9
  -8  -4   4 6399.42 451.967  19
   8   4  -4 6024.82 437.947  36
   8   4  -4 6256.49 466.790  33
   8   4  -4 5730.12 447.628  30
   8   4  -3 671.399 157.083  12
  -8  -4   3 870.314 198.351   9
  -8  -4   3 757.706 181.171  19
   8   4  -3 835.679 190.838  36
   8   4  -3 640.655 177.565  33
   8   4  -3 626.395 176.795  30
   8   4  -2 31120.7 1004.01  12
  -8  -4   2 29886.8 1064.53   9
  -8  -4   2 31282.1 998.402  19
   8   4  -2 30402.4 1045.94  36
  -8  -4   2 29964.8 942.456  16
   8   4  -2 30303.5 1021.92  33
   8   4  -2 32237.6 1092.79  30
  -8  -4   1 1003.98 275.352  50
  -8  -4   1 1517.28 262.292   9
  -8  -4   1 996.460 184.110  19
   8   4  -1 1202.61 218.660  36
  -8  -4   1 1164.33 211.560  16
   8   4  -1 1377.66 230.322  33
   8   4  -1 1278.53 239.521  30
   8   4   0 11385.9 574.333  12
  -8  -4   0 11561.3 585.044  23
  -8  -4   0 11449.7 863.309  50
  -8  -4   0 11087.8 631.577   9
   8   4   0 10613.8 622.877  36
   8   4   0 11774.5 603.797  34
  -8  -4   0 11327.3 614.192  16
   8   4   0 12629.2 625.297  33
   8   4   0 12121.3 647.938  32
   8   4   0 10530.2 621.277  30
  -8  -4  -1 31600.6 993.203  23
  -8  -4  -1 32651.3 1423.39  50
  -8  -4  -1 32295.6 1055.83   9
   8   4   1 31698.6 1066.64  36
   8   4   1 31694.4 1017.79  34
  -8  -4  -1 31002.0 1022.04  16
   8   4   1 33152.0 1078.25  32
  -8  -4  -2 62271.6 1381.59  26
  -8  -4  -2 60752.6 1401.36  23
  -8  -4  -2 63609.9 2170.79  51
   8   4   2 61796.6 1978.05  47
  -8  -4  -2 59617.5 1398.37   9
   8   4   2 60562.5 1461.92  36
   8   4   2 55841.5 1381.32  34
   8   4   2 62251.3 1484.55  32
  -8  -4  -3 5008.26 414.352  26
  -8  -4  -3 5079.47 425.420  23
  -8  -4  -3 5308.40 622.193  51
  -8  -4  -3 5002.92 394.314   9
   8   4   3 5210.70 440.022  34
  -8  -4  -3 5095.71 439.917   7
   8   4   3 5347.27 447.226  32
   8   4   4 23.4826 99.0241  27
   8   4   4 52.4133 88.2769  13
  -8  -4  -4 163.749 114.111  26
   8   4   4-88.9510 99.3391  54
  -8  -4  -4 415.070 183.636  51
   8   4   4 213.224 107.357  35
   8   4   4-22.9567 91.1457  34
  -8  -4  -4-108.268 104.668   7
   8   4   4 146.951 140.178  32
   8   4   5 1006.45 203.843  27
   8   4   5 786.685 199.656  13
  -8  -4  -5 1471.01 247.018  26
  -8  -4  -5 1316.57 213.334  24
   8   4   5 1052.28 188.026  10
   8   4   5 1025.65 208.683  35
   8   4   5 989.959 220.203  34
  -8  -4  -5 1353.72 251.581   7
   8   4   6 15640.2 747.127  27
   8   4   6 15165.7 743.167  13
  -8  -4  -6 15628.6 754.080  26
  -8  -4  -6 14969.3 691.343   8
  -8  -4  -6 15439.5 774.992   7
   8   4   6 15768.6 717.564  35
   8   4   7 114.338 108.426  27
   8   4   7 53.1026 109.497  13
  -8  -4  -7-49.9479 95.5507  26
  -8  -4  -7-30.9123 69.6479  20
   8   4   7 91.4680 102.249  35
  -8  -4  -7-97.2712 119.397   7
   8   4   8 15476.1 696.587  27
  -8  -4  -8 15131.3 679.917  26
  -8  -4  -8 15586.0 601.642  20
  -8  -4  -8 15806.8 705.545   7
   8   4   9 2171.65 247.911  27
  -8  -4  -9 2047.48 227.772  26
   8   4  10 9750.40 429.317  27
  -8  -4 -10 8617.41 348.635  26
   8   5  -7 27200.4 614.341  12
  -8  -5   7 24740.9 561.454   9
  -8  -5   7 25260.0 602.471  19
   8   5  -7 26656.1 623.794  33
   8   5  -6 521.387 120.293  12
  -8  -5   6 286.349 95.5079   9
  -8  -5   6 433.998 108.062  19
   8   5  -6 375.233 87.5010  36
   8   5  -6 337.660 105.308  33
   8   5  -6 272.831 94.5215  30
   8   5  -5 240.516 96.4495  12
  -8  -5   5 198.141 119.655   9
  -8  -5   5 317.357 125.016  19
   8   5  -5 163.029 86.3716  36
   8   5  -5 223.872 116.042  33
   8   5  -5 186.873 107.621  30
   8   5  -4 1328.25 213.141  12
  -8  -5   4 1233.21 226.622   9
  -8  -5   4 1231.36 217.222  19
   8   5  -4 1288.26 213.754  36
   8   5  -4 974.315 203.332  33
   8   5  -4 838.175 188.465  30
   8   5  -3 6122.60 435.143  12
  -8  -5   3 6559.97 503.729   9
  -8  -5   3 6741.97 482.135  19
   8   5  -3 7452.56 521.731  36
   8   5  -3 6237.51 464.589  33
   8   5  -3 6435.32 493.829  30
   8   5  -2 1572.91 222.428  12
  -8  -5   2 1089.84 226.463   9
  -8  -5   2 1481.21 241.541  19
   8   5  -2 1380.91 247.367  36
   8   5  -2 1251.97 219.646  33
   8   5  -2 1179.07 239.508  30
  -8  -5   1 23818.4 954.279   9
  -8  -5   1 23796.1 885.655  19
   8   5  -1 24255.2 948.818  36
   8   5  -1 24408.0 874.932  33
   8   5  -1 24490.0 946.825  30
  -8  -5   0 16201.6 776.119   9
  -8  -5   0 15409.3 705.861  19
   8   5   0 15585.8 760.487  36
   8   5   0 15667.5 758.585  30
  -8  -5  -1 187753. 2339.00  23
   8   5   1 177835. 3559.77  47
  -8  -5  -1 181790. 2566.33   9
   8   5   1 185883. 2575.47  36
   8   5   1 194732. 2654.91  32
   8   5   1 187090. 2548.07  30
  -8  -5  -2 42045.9 1110.13  26
   8   5   2 40224.1 1672.42  47
  -8  -5  -2 42339.6 1214.20   9
   8   5   2 42015.9 1210.43  36
   8   5   2 45110.9 1273.21  34
  -8  -5  -2 42730.5 1210.24   7
   8   5   2 42772.2 1252.78  32
  -8  -5  -3 136379. 2082.06  26
   8   5   3 141051. 3092.51  54
   8   5   3 139217. 3058.51  47
  -8  -5  -3 134833. 2116.07   9
  -8  -5  -3 132251. 2157.23   7
   8   5   3 132311. 2207.77  34
   8   5   3 134518. 2224.47  32
   8   5   4 14490.7 727.894  13
  -8  -5  -4 15370.9 721.771  26
  -8  -5  -4 15116.1 690.587   9
  -8  -5  -4 14067.6 701.808  45
  -8  -5  -4 13899.4 720.330   7
   8   5   4 14114.8 729.355  34
   8   5   4 13902.4 722.589  32
   8   5   5 1113.50 218.064  27
   8   5   5 1426.51 253.320  13
  -8  -5  -5 1114.28 216.820  26
  -8  -5  -5 1087.39 222.269  45
  -8  -5  -5 738.571 175.030   8
   8   5   5 1374.91 221.552  35
   8   5   5 870.212 205.188  34
  -8  -5  -5 1023.98 216.458   7
   8   5   6 20699.6 858.201  27
   8   5   6 19405.4 838.706  13
  -8  -5  -6 20373.7 848.601  26
  -8  -5  -6 21439.1 847.182   8
  -8  -5  -6 20881.1 890.145   7
   8   5   6 21647.2 852.078  35
   8   5   6 21208.8 876.978  34
   8   5   7 4423.30 355.394  14
   8   5   7 4672.35 412.577  27
   8   5   7 4428.96 396.479  13
  -8  -5  -7 4403.85 389.312  26
  -8  -5  -7 3639.97 313.152   8
  -8  -5  -7 4120.33 391.317   7
   8   5   7 4685.07 396.216  35
   8   5   8 6841.54 410.479  14
   8   5   8 7909.83 492.940  27
  -8  -5  -8 7088.43 459.828  26
   8   5   8 6784.88 454.918  35
   8   5   9 6507.49 353.431  14
   8   5   9 7083.54 412.887  27
  -8  -5  -9 7230.25 406.662  26
   8   5  10 1027.82 143.116  27
  -8  -5 -10 893.372 114.547  26
   8   6  -6 16450.3 532.807  12
  -8  -6   6 15659.0 534.067   9
  -8  -6   6 17048.5 589.172  19
   8   6  -6 16010.2 513.636  36
   8   6  -6 16675.3 569.902  33
   8   6  -6 16130.9 564.999  30
   8   6  -5 9318.00 458.007  12
  -8  -6   5 9789.00 507.556   9
  -8  -6   5 8995.31 495.070  19
   8   6  -5 8528.92 463.469  36
   8   6  -5 9577.52 497.506  33
   8   6  -5 9333.33 504.156  30
   8   6  -4 997.510 171.970  12
  -8  -6   4 1151.15 216.665   9
  -8  -6   4 1336.23 220.142  19
   8   6  -4 1479.13 234.954  36
   8   6  -4 1561.83 227.257  33
   8   6  -4 1158.63 219.006  30
   8   6  -3 16812.3 670.243  12
  -8  -6   3 17111.3 786.965   9
  -8  -6   3 16976.0 761.777  19
   8   6  -3 17868.2 794.505  36
   8   6  -3 18115.2 750.598  33
   8   6  -3 16490.7 771.596  30
  -8  -6   2 63189.0 1530.61   9
  -8  -6   2 59313.9 1435.50  19
   8   6  -2 61641.7 1502.39  36
   8   6  -2 61369.3 1365.46  33
   8   6  -2 59933.5 1473.16  30
  -8  -6   1 6589.73 509.116   9
  -8  -6   1 7653.90 526.926  19
   8   6  -1 6717.83 509.981  36
   8   6  -1 7000.65 445.350  33
   8   6  -1 7361.91 526.816  30
  -8  -6   0 115248. 2070.76   9
   8   6   0 118410. 2072.08  36
  -8  -6  -1 32859.5 1110.62   9
   8   6   1 32436.3 1076.96  36
  -8  -6  -1 32862.6 994.905   7
   8   6   1 34808.5 1070.40  30
  -8  -6  -2 46284.4 1255.33  45
  -8  -6  -2 47136.2 1312.29   9
   8   6   2 48464.6 1277.25  36
  -8  -6  -2 45393.1 1220.50   7
   8   6   2 47143.5 1327.00  32
  -8  -6  -3 51714.4 1255.33  26
  -8  -6  -3 53158.9 1378.60  45
  -8  -6  -3 50456.0 1330.69   9
  -8  -6  -3 52507.3 1328.96   7
   8   6   3 53201.1 1406.97  34
   8   6   3 52694.6 1389.88  32
   8   6   4 9661.64 601.542  13
  -8  -6  -4 10745.4 591.074  26
  -8  -6  -4 10736.6 641.099  45
  -8  -6  -4 9277.09 587.177   8
  -8  -6  -4 9927.42 598.248   7
   8   6   4 10008.5 616.313  34
   8   6   4 11488.9 647.161  32
   8   6   5 48533.3 1319.47  27
   8   6   5 44105.5 1258.62  13
  -8  -6  -5 45083.2 1234.90  26
  -8  -6  -5 45246.3 1312.90  45
  -8  -6  -5 43654.5 1242.26   8
  -8  -6  -5 44448.5 1261.39   7
   8   6   5 45341.0 1289.80  34
   8   6   6 18119.6 800.135  27
   8   6   6 16719.5 755.590  13
  -8  -6  -6 18592.6 786.761  26
  -8  -6  -6 16822.8 800.174  45
  -8  -6  -6 17737.5 757.731   8
  -8  -6  -6 17321.0 783.445   7
   8   6   6 16891.7 758.617  35
   8   6   6 17881.8 782.161  34
   8   6   7 49607.3 1255.06  27
   8   6   7 51632.2 1261.02  13
  -8  -6  -7 53938.5 1291.01  26
  -8  -6  -7 52198.1 1172.43   8
  -8  -6  -7 52828.8 1312.25   7
   8   6   7 51453.8 1273.11  35
   8   6   8 3913.14 315.560  14
   8   6   8 4368.36 351.644  27
  -8  -6  -8 3808.24 327.877  26
   8   6   8 4378.88 355.716  35
   8   6   9 13358.4 490.673  14
   8   6   9 14244.7 540.347  27
  -8  -6  -9 13434.3 522.654  26
   8   6   9 12284.6 438.308  15
   8   7  -6 5625.09 257.554  12
  -8  -7   6 6173.61 276.033   9
  -8  -7   6 6058.16 325.890  19
   8   7  -6 6305.47 307.223  36
   8   7  -6 6714.54 324.869  33
   8   7  -6 6670.74 335.543  30
   8   7  -5 985.336 132.645  12
  -8  -7   5 583.395 126.875   9
  -8  -7   5 658.397 148.242  19
   8   7  -5 696.576 136.560  36
   8   7  -5 619.701 123.966  33
   8   7  -5 747.718 151.655  30
  -8  -7   4 3876.29 329.128   9
  -8  -7   4 3577.31 335.586  19
   8   7  -4 4086.88 355.142  36
   8   7  -4 4235.31 332.383  33
   8   7  -4 3940.31 344.966  30
  -8  -7   3 2071.68 270.668   9
  -8  -7   3 2092.80 279.791  19
   8   7  -3 1620.83 258.041  36
   8   7  -3 2278.35 252.306  33
   8   7  -3 1899.89 268.807  30
  -8  -7   2 33300.4 1080.14   9
  -8  -7   2 32030.1 1046.08  19
   8   7  -2 29704.4 1023.57  36
   8   7  -2 32772.1 933.600  33
   8   7  -2 30516.4 1007.77  30
  -8  -7   1 4611.53 424.138   9
   8   7  -1 4695.22 415.542  36
   8   7  -1 4690.03 407.286  30
  -8  -7   0 50602.8 1261.54  45
  -8  -7   0 50352.7 1378.76   9
   8   7   0 49909.3 1324.31  36
   8   7   0 51897.6 1289.58  30
  -8  -7  -1 18372.3 790.453  45
  -8  -7  -1 18064.1 822.041   9
   8   7   1 19372.2 803.941  36
   8   7   1 18245.3 738.056  30
  -8  -7  -2 26655.7 978.947  45
  -8  -7  -2 26583.9 992.644   9
  -8  -7  -2 25730.3 964.131   8
   8   7   2 27983.0 926.135  36
  -8  -7  -2 26925.6 882.514   7
   8   7   2 25644.5 970.085  32
  -8  -7  -3 4700.49 367.506  26
  -8  -7  -3 4119.79 394.329   9
  -8  -7  -3 4288.06 408.901  45
  -8  -7  -3 4240.97 404.819   8
  -8  -7  -3 4833.31 389.721   7
   8   7   3 5068.79 447.267  34
   8   7   3 4562.84 411.739  32
   8   7   4 65762.8 1509.08  13
  -8  -7  -4 68916.1 1442.81  26
  -8  -7  -4 67117.4 1593.93  45
  -8  -7  -4 68179.6 1564.36   8
  -8  -7  -4 67289.8 1466.89   7
   8   7   4 69538.1 1586.55  34
   8   7   4 67387.2 1489.31  32
   8   7   5 2251.95 293.201  27
   8   7   5 2027.59 270.254  13
  -8  -7  -5 2347.71 282.555  26
  -8  -7  -5 2587.52 325.132  45
  -8  -7  -5 1959.47 270.988   8
  -8  -7  -5 2586.37 302.202   7
   8   7   5 2353.98 298.666  34
   8   7   6 36.1289 116.546  27
   8   7   6 20.8431 91.5770  13
  -8  -7  -6-20.3107 119.615  26
  -8  -7  -6 196.221 146.818  45
  -8  -7  -6 16.8151 95.2793   8
   8   7   6-6.85993 103.518  35
   8   7   6 66.4690 89.4542  34
  -8  -7  -6-46.8222 97.8194   7
   8   7   7 1310.01 211.887  27
   8   7   7 1292.41 193.553  13
  -8  -7  -7 1469.08 214.999  26
   8   7   7 1549.49 231.948  35
   8   7   8 16719.4 606.239  14
   8   7   8 16691.5 611.791  27
  -8  -7  -8 17057.3 626.871  26
   8   7   8 16237.3 626.254  35
   8   7   9 4611.12 266.984  14
   8   7   9 4466.16 263.321  27
  -8  -7  -9 4550.49 274.280  26
   8   7   9 3904.26 235.417  15
  -8  -8   5 397.511 87.1870   9
   8   8  -5 181.181 87.6263  36
   8   8  -5 206.480 78.8889  33
   8   8  -5 411.019 106.765  30
  -8  -8   4 162.285 83.6190   9
   8   8  -4 32.4767 81.3201  36
   8   8  -4 9.19554 55.4127  33
   8   8  -4 61.9795 72.1112  30
  -8  -8   3 188.686 97.3163   9
   8   8  -3 213.229 109.506  36
   8   8  -3 89.4203 62.8243  33
   8   8  -3 59.9399 76.6410  30
  -8  -8   2 2380.63 282.960   9
   8   8  -2 2328.27 285.619  36
   8   8  -2 2500.55 276.799  30
  -8  -8   1 7794.44 480.994  45
  -8  -8   1 8088.93 531.190   9
  -8  -8   1 7523.62 438.936   8
   8   8  -1 7844.15 508.907  36
   8   8  -1 7796.05 472.216  30
  -8  -8   0-85.8401 111.218  45
  -8  -8   0-28.9671 101.332   9
  -8  -8   0 62.0926 76.3667   8
   8   8   0 247.609 126.857  36
   8   8   0 64.8875 96.8952  30
  -8  -8  -1 16221.2 765.988   9
  -8  -8  -1 16326.4 755.748  45
  -8  -8  -1 15988.0 721.125   8
   8   8   1 16619.4 698.863  36
   8   8   1 15517.6 727.882  32
  -8  -8  -2 111.885 100.256  45
  -8  -8  -2-98.0733 122.431   9
  -8  -8  -2 198.523 127.490   8
   8   8   2 67.1348 101.026  32
  -8  -8  -3 14274.9 725.583  45
  -8  -8  -3 14351.7 705.619   8
   8   8   3 13683.7 691.923  34
   8   8   3 13401.3 647.317  32
   8   8   4 14711.5 673.696  13
  -8  -8  -4 14010.9 611.973  26
  -8  -8  -4 14548.2 736.228  45
  -8  -8  -4 15309.5 726.489   8
  -8  -8  -4 14106.5 618.096   7
   8   8   4 13927.8 673.373  34
   8   8   4 14488.5 633.824  32
   8   8   5 24914.5 879.122  27
   8   8   5 26180.9 855.684  13
  -8  -8  -5 26062.1 845.365  26
  -8  -8  -5 27237.2 982.471  45
  -8  -8  -5 25865.0 904.552   8
   8   8   5 26842.9 885.223  34
   8   8   6 15165.2 650.438  27
   8   8   6 15369.7 611.466  13
  -8  -8  -6 14072.2 602.227  26
  -8  -8  -6 14432.0 688.163  45
   8   8   6 14408.6 647.619  35
   8   8   6 15052.0 596.578  34
   8   8   7 16772.8 612.537  27
  -8  -8  -7 16953.0 624.507  26
   8   8   7 16400.6 633.910  35
   8   8   8 109.051 65.7351  14
   8   8   8 208.585 76.8064  27
  -8  -8  -8 135.094 67.0513  26
   8   8   8 156.545 70.4325  35
   8   9  -5 4638.63 249.234  36
   8   9  -5 4756.99 242.437  30
  -8  -9   4 20322.8 523.258   9
   8   9  -4 20400.9 622.628  36
   8   9  -4 20592.0 589.143  30
  -8  -9   3 6046.45 349.122   9
   8   9  -3 5478.07 360.570  36
   8   9  -3 5412.32 333.199  30
  -8  -9   2 879.438 158.118  45
  -8  -9   2 946.336 169.122   9
   8   9  -2 900.635 160.294  36
   8   9  -2 1073.83 157.064  30
  -8  -9   1 1943.15 250.184   9
  -8  -9   1 1639.98 229.637  45
   8   9  -1 1939.42 233.324  36
   8   9  -1 1603.49 191.799  30
  -8  -9   0 6995.79 464.436   9
  -8  -9   0 6669.62 450.791  45
  -8  -9   0 6270.94 390.595   8
   8   9   0 5984.33 393.881  36
  -8  -9  -1 968.181 199.905  45
  -8  -9  -1 767.645 152.404   8
   8   9   1 720.187 164.773  32
  -8  -9  -2 3245.96 337.015  45
  -8  -9  -2 3049.34 307.052   8
   8   9   2 3506.12 312.680  32
   8   9   3 35.5277 77.8498  13
  -8  -9  -3 208.742 128.200  45
  -8  -9  -3 180.321 107.790   8
   8   9   3 37.3398 78.4556  34
   8   9   3 62.0076 65.9177  32
   8   9   4 15134.2 601.559  13
  -8  -9  -4 15390.8 564.211  26
  -8  -9  -4 14145.5 674.829  45
  -8  -9  -4 14972.0 662.328   8
   8   9   4 15502.4 643.105  34
   8   9   5 124.246 86.2040  27
   8   9   5 167.492 75.3755  13
  -8  -9  -5 311.529 94.9589  26
  -8  -9  -5 175.663 121.077  45
   8   9   5 267.329 85.3040  34
   8   9   6 14127.0 537.139  27
  -8  -9  -6 14198.0 530.510  26
  -8  -9  -6 14007.5 609.957  45
   8   9   6 14508.6 576.375  35
   8   9   7 3879.27 264.953  14
   8   9   7 3887.26 242.834  27
  -8  -9  -7 4042.42 260.829  26
   8   9   7 3904.51 268.672  35
  -8 -10   3 11870.9 385.227  45
   8  10  -3 13676.1 456.844  36
  -8 -10   2 1839.23 189.372  45
   8  10  -2 2082.39 195.198  36
  -8 -10   1 15439.1 591.135  45
   8  10  -1 15078.3 513.901  36
  -8 -10   0 5183.54 367.323  45
   8  10   0 5145.62 341.256  32
  -8 -10  -1 24596.0 814.811  45
   8  10   1 24942.2 720.127  32
   8  10   2 8889.27 421.510  13
  -8 -10  -2 8541.26 491.119  45
   8  10   2 8923.49 406.305  32
   8  10   3 5503.42 314.213  13
  -8 -10  -3 4599.58 360.722  45
   8  10   3 5223.30 340.976  34
   8  10   4 2469.12 228.091  27
  -8 -10  -4 2979.51 288.582  45
   8  10   4 2865.93 230.690  34
   8  10   5 5856.76 313.326  27
  -8 -10  -5 6871.13 397.906  45
   8  10   5 7052.40 373.488  35
   8  10   6 1351.48 128.603  27
   8  10   6 1620.26 162.448  35
  -8 -11   1 5357.68 288.160  45
   8  11  -1 5282.64 250.813  32
  -8 -11   0 394.625 101.024  45
   8  11   0 75.0414 44.7850  32
  -8 -11  -1 2105.45 211.868  45
   8  11   1 1968.09 187.098  34
  -8 -11  -2-24.1017 67.3423  45
   8  11   2-5.86127 50.5978  34
  -8 -11  -3 21785.0 641.955  45
   8  11   3 19246.7 479.143  34
  -8 -11  -4 2453.95 208.546  45
   8  11   4 2509.59 191.691  35
  -9   4   0-12.5444 45.9662  26
  -9   4  -1 2241.09 176.076  23
  -9   4  -2 1009.79 137.023  26
  -9   4  -2 989.281 117.952  23
  -9   4  -3 35939.0 731.750  26
  -9   4  -4 6864.62 291.252  26
  -9   4  -4 7506.14 315.678  24
  -9   3   2 589.770 103.188  23
  -9   3   2 479.005 97.7564  22
   9  -3  -2 663.240 99.9635  33
  -9   3   2 612.921 99.4858  16
  -9   3   1 6564.13 332.030  26
  -9   3   1 6713.03 355.613  23
  -9   3   1 6974.94 354.706  22
   9  -3  -1 7166.97 354.976  33
  -9   3   1 7034.94 336.464  16
  -9   3   0 9043.42 437.783  26
  -9   3   0 9813.90 453.678  23
  -9   3   0 8781.73 411.360  22
   9  -3   0 8924.52 429.043  33
  -9   3   0 9009.77 392.184  16
  -9   3  -1 5320.34 356.618  26
  -9   3  -1 5660.29 355.827  23
  -9   3  -1 5104.53 310.073  22
   9  -3   1 5028.90 336.565  33
  -9   3  -1 5294.94 297.665  16
  -9   3  -2 12470.7 546.631  26
  -9   3  -2 12213.2 509.640  23
   9  -3   3 9147.13 415.389  10
  -9   3  -3 9371.29 422.757  23
  -9   3  -4 1948.40 206.856  26
   9  -3   4 1675.83 189.064  10
  -9   3  -4 1734.69 168.457  23
  -9   3  -5 1523.33 169.241  26
  -9   3  -5 1673.63 183.805  24
   9  -3   5 1509.66 176.203  10
  -9   3  -6 19536.1 467.237  26
  -9   3  -6 23827.9 586.142  24
  -9   2   3 20392.0 554.556  23
  -9   2   3 21697.5 596.687  22
  -9   2   3 20903.2 583.688  39
   9  -2  -3 19996.9 550.222  33
  -9   2   3 21541.7 602.044  16
  -9   2   2 9258.14 443.641  23
  -9   2   2 9921.48 461.997  22
  -9   2   2 9224.33 431.665  39
   9  -2  -2 9936.28 446.905  33
  -9   2   2 10387.5 471.021  16
  -9   2   1 27291.0 819.883  23
  -9   2   1 28221.7 823.935  22
  -9   2   1 26474.0 754.935  39
   9  -2  -1 27696.8 809.944  33
  -9   2   1 27170.2 806.291  16
  -9   2   0 289.261 129.372  23
  -9   2   0 296.794 114.227  22
   9  -2   0 402.287 126.437  33
  -9   2   0 352.888 126.990  16
  -9   2  -1 4712.71 383.721  26
  -9   2  -1 4083.02 349.370  23
   9  -2   1 4424.13 313.672  10
  -9   2  -1 4162.69 334.466  22
   9  -2   1 4177.80 350.862  33
  -9   2  -1 4629.36 348.608  16
  -9   2  -2-41.9581 95.7175  26
  -9   2  -2-22.6407 83.9624  23
  -9   2  -2 89.2656 75.3654  22
   9  -2   2 60.5170 68.9547  10
  -9   2  -2 2.90504 73.1104  16
   9  -2   2 74.7972 99.9564  33
  -9   2  -3 3627.82 337.731  26
  -9   2  -3 3190.96 300.200  23
   9  -2   3 3353.35 300.136  10
   9  -2   3 2978.24 291.555  33
  -9   2  -4 6286.22 421.066  26
  -9   2  -4 6654.00 402.676  23
   9  -2   4 5926.56 396.395  10
   9  -2   5 217.835 83.1312   6
  -9   2  -5 364.993 123.880  26
  -9   2  -5 209.944 89.2630  24
  -9   2  -5 290.998 80.5428  23
   9  -2   5 518.220 137.410  10
   9  -2   6 5623.93 332.042   6
  -9   2  -6 6046.59 349.082  26
  -9   2  -6 6199.30 367.342  24
   9  -2   6 6146.84 369.840  10
   9  -2   7 288.487 85.2531   6
  -9   2  -7 212.289 63.5391  26
  -9   2  -7 345.254 88.8725  24
   9  -2   7 262.776 89.1884  10
  -9   2  -7 308.822 92.3287  20
  -9   1   4 146.013 70.7435  22
  -9   1   4 221.278 87.4733  39
   9  -1  -4 155.341 69.5312  33
  -9   1   4 31.7307 55.0914  16
  -9   1   3 6133.28 351.097  23
  -9   1   3 6832.28 389.593  22
  -9   1   3 6655.24 387.575  39
   9  -1  -3 6868.51 381.473  33
  -9   1   3 6309.57 385.849  16
  -9   1   2 391.351 123.870  23
  -9   1   2 442.209 140.876  22
  -9   1   2 390.096 133.301  39
   9  -1  -2 192.927 108.547  33
  -9   1   2 142.943 101.370  16
  -9   1   1 29527.4 866.253  26
  -9   1   1 30919.0 942.016  23
  -9   1   1 31969.9 970.415  22
  -9   1   1 31112.0 933.071  39
   9  -1  -1 30202.6 930.429  33
  -9   1   1 31890.6 975.670  16
  -9   1   0 20250.4 803.708  23
  -9   1   0 21539.8 816.126  22
   9  -1   0 19341.9 685.921  10
  -9   1   0 21604.7 781.754  39
   9  -1   0 21073.7 799.038  33
  -9   1   0 20464.3 805.635  16
  -9   1  -1 17771.7 753.454  26
  -9   1  -1 18506.6 785.807  23
  -9   1  -1 18090.2 746.566  22
   9  -1   1 18262.8 702.979  10
   9  -1   1 17954.3 740.083  33
  -9   1  -1 17869.9 750.191  16
  -9   1  -2 15374.5 715.580  26
  -9   1  -2 15456.2 722.942  23
  -9   1  -2 14366.9 647.531  22
   9  -1   2 13954.9 641.859  10
   9  -1   2 14559.5 670.427  33
  -9   1  -2 14813.2 676.828  16
  -9   1  -3 11362.8 621.958  26
  -9   1  -3 10863.8 591.228  23
   9  -1   3 11152.0 585.924  10
   9  -1   3 11060.1 580.362  33
  -9   1  -4 5506.30 430.993  26
  -9   1  -4 5424.17 405.094  23
   9  -1   4 5800.14 425.623  10
  -9   1  -4 5986.41 400.016   7
  -9   1  -5 34244.6 1005.94  26
  -9   1  -5 34344.6 999.282  24
  -9   1  -5 33741.4 935.964  23
   9  -1   5 34704.3 1003.49  10
  -9   1  -5 34147.7 855.458   7
  -9   1  -6 3887.63 323.416  26
  -9   1  -6 4572.25 356.419  24
   9  -1   6 4168.79 338.958  10
   9  -1   7 3973.20 303.779   6
  -9   1  -7 4279.15 289.572  26
  -9   1  -7 4492.16 317.884  24
   9  -1   7 4537.90 321.475  10
  -9   1  -7 4749.07 331.249  20
   9  -1   8 6524.88 336.185   6
  -9   1  -8 6689.96 305.070  21
  -9   1  -8 7232.93 351.194  20
   9   0  -5 9204.92 356.769  11
  -9   0   5 7777.21 310.015   9
   9   0  -5 8579.57 330.705  33
  -9   0   5 8477.59 332.216  16
   9   0  -4 6680.02 367.524  11
  -9   0   4 6358.90 340.675  22
  -9   0   4 5743.25 320.534   9
  -9   0   4 6953.72 389.007  39
   9   0  -4 6880.32 371.220  33
  -9   0   4 7190.02 391.089  16
   9   0  -3 6023.81 386.891  11
  -9   0   3 6742.44 383.813  23
  -9   0   3 6721.56 414.405  22
  -9   0   3 5813.28 354.341   9
  -9   0   3 6514.70 425.037  39
   9   0  -3 7181.77 431.819  33
  -9   0   3 6600.94 427.540  16
   9   0  -2 9689.61 518.674  11
  -9   0   2 9016.03 504.708  23
  -9   0   2 10176.1 552.437  22
  -9   0   2 10007.0 563.236  39
   9   0  -2 10387.8 546.782  33
  -9   0   2 9400.44 551.543  16
  -9   0   1 12555.9 573.525  26
   9   0  -1 11984.6 592.391  11
  -9   0   1 12252.8 621.704  23
  -9   0   1 12718.7 651.656  22
   9   0  -1 11589.5 538.152  10
  -9   0   1 12655.1 641.671  39
   9   0  -1 12823.0 634.132  33
  -9   0   1 14486.6 714.149  16
  -9   0   0-39.6125 94.9264  26
  -9   0   0 43.7476 105.656  23
  -9   0   0 48.3351 124.592  22
   9   0   0 87.9264 72.0780  10
  -9   0   0-38.9902 101.062  39
  -9   0   0 55.3755 117.064  16
   9   0   0 24.5424 96.7878  33
  -9   0  -1 12956.8 658.521  26
  -9   0  -1 13001.3 683.319  23
  -9   0  -1 12104.1 642.938  22
   9   0   1 13011.5 633.592  10
   9   0   1 12161.0 632.962  33
  -9   0  -1 12436.5 668.509  16
  -9   0  -2 77.5301 110.078  26
  -9   0  -2-41.9214 120.692  23
  -9   0  -2 125.743 109.049  22
   9   0   2 112.256 125.979  10
  -9   0  -2 58.8529 98.8408  16
   9   0   2 187.458 111.301  33
  -9   0  -3 1707.53 271.078  26
  -9   0  -3 1346.67 236.524  23
   9   0   3 1595.43 245.685  10
   9   0   3 1523.11 234.244  33
  -9   0  -4 8306.02 539.831  26
  -9   0  -4 7293.71 504.930  23
   9   0   4 7808.71 513.197  10
   9   0   4 6299.01 428.580  33
  -9   0  -4 7327.68 484.938   7
  -9   0  -5 3442.61 342.123  26
  -9   0  -5 3300.80 330.742  24
  -9   0  -5 3721.31 342.314  23
   9   0   5 3558.77 344.703  10
  -9   0  -5 3594.88 321.979   7
  -9   0  -6 25149.6 858.629  26
  -9   0  -6 23339.2 834.883  24
   9   0   6 25418.3 858.126  10
  -9   0  -6 25717.2 767.504   7
  -9   0  -7 260.326 107.392  26
  -9   0  -7 483.484 142.533  24
   9   0   7 467.337 133.088  10
  -9   0  -7 304.078 117.306  20
  -9   0  -8 41584.3 821.277  26
   9   0   8 39994.0 832.659  10
  -9   0  -8 41303.3 800.267  21
   9   0   9 1318.40 143.378   6
  -9   0  -9 2025.67 172.234  20
   9   1  -5 3421.77 240.313  11
  -9  -1   5 2931.06 234.172   9
   9   1  -5 3444.13 249.123  33
  -9  -1   5 2805.82 205.735  16
   9   1  -4 6575.41 397.868  12
   9   1  -4 7078.52 395.916  11
  -9  -1   4 7165.90 411.579   9
   9   1  -4 6377.39 392.804  33
  -9  -1   4 7190.08 408.597  16
   9   1  -3 582.254 154.972  12
   9   1  -3 407.308 125.502  11
  -9  -1   3 351.228 99.4005  23
  -9  -1   3 446.872 137.804  22
  -9  -1   3 242.406 97.8664   9
  -9  -1   3 462.397 146.983  39
   9   1  -3 249.285 123.409  33
  -9  -1   3 442.576 141.166  16
   9   1  -2 2095.31 271.873  12
   9   1  -2 1895.96 242.334  11
  -9  -1   2 1581.90 220.479  23
  -9  -1   2 2004.07 264.194  22
   9   1  -2 2012.73 229.252  10
  -9  -1   2 1737.68 227.861   9
  -9  -1   2 2225.99 293.358  39
   9   1  -2 1758.43 252.885  33
  -9  -1   2 1755.00 254.682  16
   9   1  -1 12902.8 619.920  11
  -9  -1   1 11607.2 613.636  23
  -9  -1   1 13327.5 678.379  22
   9   1  -1 12550.2 597.975  10
  -9  -1   1 11968.4 577.909   9
  -9  -1   1 11667.9 643.485  39
   9   1  -1 11595.7 616.995  33
  -9  -1   1 12048.3 660.071  16
  -9  -1   0 8593.28 508.617  26
  -9  -1   0 8685.99 552.792  23
  -9  -1   0 8016.73 539.380  22
   9   1   0 8977.24 533.725  10
   9   1   0 8196.07 525.897  33
  -9  -1   0 7947.28 558.060  16
  -9  -1  -1 45053.1 1216.65  26
  -9  -1  -1 45997.7 1290.94  23
  -9  -1  -1 48412.7 1308.12  22
   9   1   1 49006.3 1268.36  10
   9   1   1 46458.6 1238.18  33
  -9  -1  -1 44585.7 1289.75  16
  -9  -1  -2 5611.16 453.390  26
  -9  -1  -2 6484.41 498.095  23
  -9  -1  -2 5673.32 454.146  22
   9   1   2 6084.45 459.150  10
   9   1   2 5600.24 429.781  33
  -9  -1  -2 5626.21 468.579  16
  -9  -1  -3 1818.18 269.508  26
  -9  -1  -3 1387.70 245.724  23
   9   1   3 1359.93 235.565  10
   9   1   3 1442.01 223.789  33
  -9  -1  -4 4731.89 415.264  26
  -9  -1  -4 4278.87 385.690  24
  -9  -1  -4 3922.13 385.560  23
   9   1   4 4128.89 384.198  10
  -9  -1  -4 4631.77 414.561   7
  -9  -1  -5 408.696 146.725  26
  -9  -1  -5 287.003 123.204  24
  -9  -1  -5 541.655 164.585  23
   9   1   5 255.766 132.586  10
  -9  -1  -5 357.248 140.732   7
  -9  -1  -6 3052.51 318.060  26
  -9  -1  -6 3143.05 322.542  24
   9   1   6 3385.94 329.670  10
  -9  -1  -6 3168.57 306.982   7
  -9  -1  -7 11066.6 547.818  26
  -9  -1  -7 11063.4 558.691  24
   9   1   7 10937.9 528.003  10
  -9  -1  -7 10887.6 466.804  21
  -9  -1  -7 10776.5 542.774  20
  -9  -1  -7 11552.4 512.503   7
  -9  -1  -8 1581.30 187.652  26
   9   1   8 1838.26 189.228  10
  -9  -1  -8 2162.25 192.546  21
  -9  -1  -8 1748.81 203.639  20
  -9  -1  -9 2564.22 173.985  26
  -9  -1  -9 3395.99 234.487  20
   9   2  -6 5422.86 254.484  33
   9   2  -5 1202.99 164.361  12
   9   2  -5 1094.51 143.875  11
  -9  -2   5 1014.42 161.785   9
   9   2  -5 1021.03 153.382  33
   9   2  -4 17293.8 664.170  12
   9   2  -4 17329.5 623.874  11
  -9  -2   4 17648.6 681.180   9
   9   2  -4 17652.2 675.572  33
  -9  -2   4 16406.1 602.428  16
   9   2  -3 578.500 158.053  12
   9   2  -3 776.401 161.271  11
  -9  -2   3 832.014 163.938  22
  -9  -2   3 620.123 148.771   9
  -9  -2   3 746.667 162.095  16
   9   2  -3 702.011 179.736  33
   9   2  -2 12743.5 641.395  12
   9   2  -2 12763.5 594.162  11
  -9  -2   2 11711.9 558.767  23
  -9  -2   2 13403.6 653.700  22
  -9  -2   2 12916.9 644.510   9
   9   2  -2 12079.1 625.563  33
  -9  -2   2 12087.1 638.487  16
   9   2  -1 6499.44 470.020  12
   9   2  -1 6875.03 447.812  11
  -9  -2   1 5860.25 432.468  23
  -9  -2   1 6906.51 496.705  22
  -9  -2   1 6666.15 463.516   9
   9   2  -1 6219.81 467.213  33
  -9  -2   1 6782.33 497.868  16
  -9  -2   0 2212.56 265.550  26
   9   2   0 2466.81 266.246  11
  -9  -2   0 2460.92 303.100  23
  -9  -2   0 2598.79 323.176  22
  -9  -2   0 2228.45 268.620   9
   9   2   0 2384.84 290.695  33
  -9  -2   0 2164.93 300.304  16
  -9  -2  -1 12634.3 636.748  26
  -9  -2  -1 13603.0 696.299  23
  -9  -2  -1 12604.1 680.223  22
   9   2   1 12442.5 637.227  33
  -9  -2  -1 11996.3 677.298  16
  -9  -2  -2 44226.9 1215.96  26
  -9  -2  -2 42537.7 1252.47  23
   9   2   2 45714.6 1261.19  10
   9   2   2 45491.7 1171.88  33
  -9  -2  -2 43649.2 1290.04  16
  -9  -2  -3 2388.71 299.680  26
  -9  -2  -3 2487.76 280.233  24
  -9  -2  -3 2079.10 299.409  23
   9   2   3 2314.57 296.880  10
   9   2   4 65373.9 1350.77  13
  -9  -2  -4 63518.4 1500.87  26
  -9  -2  -4 64677.2 1415.62  24
  -9  -2  -4 63183.7 1511.96  23
   9   2   4 63048.1 1465.04  10
  -9  -2  -4 61531.1 1516.74   7
   9   2   5 35973.8 1013.86  13
  -9  -2  -5 38466.8 1160.69  26
  -9  -2  -5 37631.7 1094.74  24
  -9  -2  -5 37590.4 1145.18  23
   9   2   5 37110.8 1102.14  10
  -9  -2  -5 37325.0 1153.60   7
   9   2   6 31453.0 869.771  27
  -9  -2  -6 33489.7 1061.56  26
  -9  -2  -6 33266.4 1020.77  24
   9   2   6 31766.0 972.474  10
  -9  -2  -6 33701.2 1037.68   7
   9   2   7 1247.52 180.516  27
  -9  -2  -7 1886.08 240.868  26
  -9  -2  -7 1474.13 218.983  24
   9   2   7 1714.10 209.487  10
  -9  -2  -7 1870.95 224.610  20
  -9  -2  -7 2160.23 246.571   7
   9   2   8 3293.09 264.053  27
  -9  -2  -8 2921.90 268.532  26
  -9  -2  -8 2805.26 254.137  20
  -9  -2  -8 3164.28 257.351   7
   9   2   9 199.690 78.8792  27
  -9  -2  -9 197.418 71.3859  26
  -9  -2  -9 200.671 72.7551  20
   9   3  -6-30.2576 53.1481  12
  -9  -3   6 131.078 66.6031   9
   9   3  -6 27.7342 49.2655  33
   9   3  -5 4919.27 322.047  12
   9   3  -5 4764.10 281.358  11
  -9  -3   5 4417.94 321.737   9
   9   3  -5 4842.96 322.973  33
   9   3  -4 4794.45 361.705  12
   9   3  -4 4216.24 303.890  11
  -9  -3   4 4628.67 373.009   9
   9   3  -4 5129.27 371.039  33
  -9  -3   4 4625.50 301.282  16
   9   3  -3 63242.3 1362.14  12
   9   3  -3 62878.7 1218.98  11
  -9  -3   3 63892.2 1421.90   9
   9   3  -3 63875.6 1383.22  33
  -9  -3   3 59968.6 1243.36  16
   9   3  -2 1637.74 245.363  12
   9   3  -2 1482.94 207.366  11
  -9  -3   2 1305.93 230.781   9
  -9  -3   2 1767.01 244.141  16
   9   3  -2 1229.18 213.398  33
   9   3  -1 58177.2 1361.44  12
  -9  -3   1 58955.9 1282.43  23
  -9  -3   1 58332.0 1403.17   9
   9   3  -1 60495.4 1403.96  33
  -9  -3   1 59759.6 1411.74  16
   9   3  -1 60699.0 1290.33  32
   9   3   0 48690.1 1233.20  12
  -9  -3   0 49281.7 1244.15  23
  -9  -3   0 48905.1 1261.13   9
   9   3   0 48377.5 1244.54  33
  -9  -3   0 47965.9 1301.82  16
   9   3   0 49372.7 1225.84  32
  -9  -3  -1 84076.1 1586.47  26
  -9  -3  -1 80464.9 1648.14  23
  -9  -3  -1 80137.5 1572.66   9
   9   3   1 83781.3 1548.92  34
   9   3   1 82694.9 1572.92  33
  -9  -3  -1 80713.9 1716.41  16
   9   3   1 79896.9 1622.41  32
   9   3   2 10727.5 562.198  13
  -9  -3  -2 10343.4 585.966  26
  -9  -3  -2 10247.0 610.703  23
   9   3   2 9515.17 549.265  34
   9   3   2 10014.7 590.362  32
   9   3   3 8016.73 500.711  13
  -9  -3  -3 7897.27 527.506  26
  -9  -3  -3 8892.37 575.450  23
   9   3   3 7973.28 536.022  10
   9   3   3 7888.91 519.585  34
   9   3   4 101.334 69.1327  27
   9   3   4 327.288 112.335  13
  -9  -3  -4-22.5440 100.948  26
  -9  -3  -4 110.258 94.3148  24
  -9  -3  -4 257.572 136.388  23
   9   3   4 105.403 112.041  10
  -9  -3  -4 124.969 109.156   7
   9   3   5 77984.1 1475.94  27
   9   3   5 78025.8 1571.42  13
  -9  -3  -5 80076.1 1679.09  26
  -9  -3  -5 79649.5 1542.43  24
   9   3   5 77951.8 1561.86  10
  -9  -3  -5 78834.2 1690.99   7
   9   3   6 12584.9 591.208  27
   9   3   6 13409.2 651.473  13
  -9  -3  -6 13942.7 688.058  26
  -9  -3  -6 12988.8 623.131  24
   9   3   6 12157.1 582.589  10
  -9  -3  -6 12091.2 566.905  20
  -9  -3  -6 12903.5 567.509   8
  -9  -3  -6 12802.3 662.198   7
   9   3   7 12890.9 581.391  27
  -9  -3  -7 12990.1 619.831  26
  -9  -3  -7 13014.8 558.698  20
  -9  -3  -7 13247.2 626.093   7
   9   3   8 4682.23 332.202  27
  -9  -3  -8 4905.30 349.494  26
  -9  -3  -8 4818.77 313.620  20
  -9  -3  -8 4468.94 325.347   7
   9   3   9 336.348 91.7047  27
  -9  -3  -9 285.300 80.0095  26
  -9  -3  -9 486.543 94.5166  20
   9   4  -6 20332.9 518.338  12
  -9  -4   6 20060.2 542.475   9
   9   4  -6 19751.2 523.252  33
   9   4  -5 787.899 138.627  12
   9   4  -5 1023.01 129.286  11
  -9  -4   5 1007.65 165.210   9
  -9  -4   5 718.281 102.537  19
   9   4  -5 908.059 153.630  33
   9   4  -4 894.800 160.751  12
  -9  -4   4 893.404 187.340   9
  -9  -4   4 728.945 130.577  19
   9   4  -4 962.094 169.311  33
   9   4  -3 3048.83 300.352  12
  -9  -4   3 3061.27 323.581   9
   9   4  -3 2898.70 294.154  36
   9   4  -3 3257.90 321.617  33
   9   4  -2 5301.44 396.742  12
  -9  -4   2 5206.21 434.874   9
   9   4  -2 4745.17 404.311  36
  -9  -4   2 5226.00 381.678  16
   9   4  -2 5408.49 416.088  33
   9   4  -2 5375.45 383.313  32
   9   4  -1 14192.0 647.088  12
  -9  -4   1 13569.6 693.237   9
   9   4  -1 13757.8 703.870  36
  -9  -4   1 14232.6 666.583  16
   9   4  -1 14433.0 671.442  33
   9   4  -1 14607.6 669.180  32
   9   4   0 1521.92 217.572  12
  -9  -4   0 1351.52 208.921  23
  -9  -4   0 1617.61 251.515   9
   9   4   0 2048.23 297.426  36
   9   4   0 1560.48 220.404  34
   9   4   0 1729.28 236.054  33
  -9  -4   0 1237.55 221.328  16
   9   4   0 2093.66 276.350  32
  -9  -4  -1 207.723 103.940  23
  -9  -4  -1 148.073 78.9602   9
   9   4   1 121.707 90.2272  34
   9   4   1 428.436 158.297  32
  -9  -4  -2 2041.30 260.849  26
  -9  -4  -2 1876.02 261.881  23
  -9  -4  -2 1875.45 251.706   9
   9   4   2 1791.72 260.604  34
   9   4   2 2509.70 314.161  32
   9   4   3 98071.8 1679.79  27
   9   4   3 98916.1 1808.54  13
  -9  -4  -3 96230.7 1778.48  26
  -9  -4  -3 97114.7 1836.71  23
   9   4   3 98023.4 1854.75  34
  -9  -4  -3 97118.9 1911.26   7
   9   4   3 96402.2 1892.98  32
   9   4   4 6183.94 439.810  27
   9   4   4 6026.88 456.497  13
  -9  -4  -4 6752.14 481.353  26
   9   4   4 5840.80 443.108  10
   9   4   4 6355.44 481.705  34
  -9  -4  -4 6540.26 506.066   7
   9   4   5 14802.1 679.798  27
   9   4   5 14578.4 704.254  13
  -9  -4  -5 15265.8 722.155  26
  -9  -4  -5 14607.7 633.273  24
   9   4   5 15053.4 664.370  10
  -9  -4  -5 14730.4 732.540   7
   9   4   6 4877.96 389.725  27
   9   4   6 4523.34 392.097  13
  -9  -4  -6 5372.92 427.260  26
   9   4   6 4744.53 347.859  10
  -9  -4  -6 4927.97 368.797   8
  -9  -4  -6 5843.02 456.546   7
   9   4   6 4743.96 349.460  35
   9   4   7 5667.47 401.032  27
  -9  -4  -7 5918.48 420.114  26
  -9  -4  -7 6263.84 441.113   7
   9   4   8 419.182 122.019  27
  -9  -4  -8 534.798 142.627  26
  -9  -4  -8 299.545 106.904   7
   9   4   9 61.7923 71.9946  27
  -9  -4  -9 35.7973 52.6323  26
   9   5  -6 1134.44 116.559  12
  -9  -5   6 1070.63 124.769   9
   9   5  -6 1225.30 131.222  33
   9   5  -5 1357.05 162.262  12
  -9  -5   5 1723.27 199.922   9
  -9  -5   5 1326.48 154.169  19
   9   5  -5 1543.44 180.865  33
   9   5  -4 782.594 140.645  12
  -9  -5   4 832.593 169.618   9
  -9  -5   4 672.586 132.634  19
   9   5  -4 770.492 145.086  36
   9   5  -4 756.327 154.316  33
   9   5  -4 874.022 156.799  30
   9   5  -3 8978.71 476.514  12
  -9  -5   3 9655.13 557.704   9
  -9  -5   3 9286.02 486.951  19
   9   5  -3 9464.42 524.846  36
   9   5  -3 9610.56 517.595  33
   9   5  -3 9411.43 476.200  32
   9   5  -3 9028.12 530.203  30
   9   5  -2 626.031 138.282  12
  -9  -5   2 832.782 197.047   9
  -9  -5   2 889.401 168.987  19
   9   5  -2 1149.66 222.035  36
   9   5  -2 888.127 180.478  33
   9   5  -2 1211.45 205.044  32
   9   5  -2 1228.60 229.687  30
   9   5  -1 56009.5 1196.21  12
  -9  -5   1 57804.8 1426.90   9
   9   5  -1 58280.9 1432.47  36
   9   5  -1 57835.7 1250.43  34
   9   5  -1 58634.2 1287.30  33
   9   5  -1 60641.2 1398.16  32
   9   5  -1 59203.0 1436.42  30
  -9  -5   0 83347.0 1713.51   9
   9   5   0 80508.9 1696.06  36
   9   5   0 80191.2 1563.43  34
   9   5   0 81866.2 1670.20  32
  -9  -5  -1 121036. 2030.64   9
   9   5   1 120111. 2078.85  36
   9   5   1 124007. 2012.70  34
  -9  -5  -1 119170. 1983.70   7
   9   5   1 122204. 2081.70  32
  -9  -5  -2 15624.4 661.150  26
  -9  -5  -2 15749.8 720.537   9
   9   5   2 15463.7 740.409  34
  -9  -5  -2 16193.8 755.151   7
   9   5   2 16707.0 790.871  32
   9   5   3 3338.07 349.463  13
  -9  -5  -3 3289.25 322.963  26
  -9  -5  -3 3479.33 326.977   9
  -9  -5  -3 3203.35 350.952   7
   9   5   3 3382.24 356.541  34
   9   5   3 3337.99 364.337  32
   9   5   4 25300.2 900.763  27
   9   5   4 25361.3 944.002  13
  -9  -5  -4 24268.7 884.126  26
   9   5   4 23416.3 836.966  10
  -9  -5  -4 24992.8 947.899   7
   9   5   4 26183.0 973.099  34
   9   5   5 4793.02 392.530  27
   9   5   5 5665.45 445.354  13
  -9  -5  -5 4928.25 408.469  26
   9   5   5 4552.46 349.912  10
  -9  -5  -5 4687.33 399.961   8
  -9  -5  -5 4936.25 427.251   7
   9   5   5 5416.50 390.332  35
   9   5   5 4682.65 419.783  34
   9   5   6 9862.39 547.919  27
   9   5   6 11522.0 617.921  13
  -9  -5  -6 10966.0 593.379  26
  -9  -5  -6 10278.4 537.808   8
  -9  -5  -6 10474.8 595.423   7
   9   5   6 10389.6 530.225  35
   9   5   7 5306.09 390.427  27
  -9  -5  -7 5186.43 388.148  26
  -9  -5  -7 4763.06 316.092   8
  -9  -5  -7 5212.49 397.642   7
   9   5   7 4832.67 351.264  35
   9   5   8 10249.6 489.671  27
  -9  -5  -8 9883.44 480.415  26
   9   5   9 9.06298 61.3603  27
  -9  -5  -9 11.3026 49.1154  26
   9   6  -5 1215.95 133.574  12
  -9  -6   5 1280.65 161.320   9
  -9  -6   5 1080.24 140.905  19
   9   6  -5 1465.55 154.110  36
   9   6  -5 1532.79 167.214  33
   9   6  -5 1351.34 164.094  30
   9   6  -4 26.4281 46.3391  12
  -9  -6   4 31.6173 80.7801   9
  -9  -6   4 1.55403 84.9448  19
   9   6  -4-29.4413 76.6182  36
   9   6  -4 34.7293 65.9479  33
   9   6  -4 31.4858 60.7833  32
   9   6  -4 28.1555 85.9250  30
   9   6  -3 23288.2 682.996  12
  -9  -6   3 24230.1 849.318   9
  -9  -6   3 22259.2 756.608  19
   9   6  -3 23237.9 812.756  36
   9   6  -3 24554.5 771.478  33
   9   6  -3 23061.7 755.654  32
   9   6  -3 22976.2 816.667  30
  -9  -6   2 1605.52 239.629   9
   9   6  -2 1383.37 221.531  36
   9   6  -2 1631.51 200.487  34
   9   6  -2 1385.93 184.253  33
   9   6  -2 1738.11 242.460  32
   9   6  -2 959.184 181.217  30
  -9  -6   1 11598.7 637.240   9
   9   6  -1 12485.7 658.406  36
   9   6  -1 12253.3 594.020  34
   9   6  -1 12118.8 545.660  33
   9   6  -1 12185.7 632.684  32
   9   6  -1 11963.2 632.557  30
  -9  -6   0 61640.9 1468.28   9
   9   6   0 60349.1 1442.84  36
   9   6   0 64201.0 1429.39  34
   9   6   0 62576.8 1466.65  32
  -9  -6  -1 7768.98 528.263   9
   9   6   1 6935.16 498.530  36
  -9  -6  -1 7652.28 479.878   7
   9   6   1 7639.03 516.627  34
   9   6   1 7837.85 537.256  32
  -9  -6  -2 35152.2 1087.23   9
  -9  -6  -2 35255.6 1056.90   7
   9   6   2 35753.9 1122.17  34
   9   6   2 35422.7 1135.29  32
   9   6   3 22893.5 894.048  13
  -9  -6  -3 22278.8 789.178  26
  -9  -6  -3 23428.1 858.702   9
  -9  -6  -3 21219.3 837.400   7
   9   6   3 21015.0 870.352  34
   9   6   3 22175.4 896.618  32
   9   6   4 19180.8 799.401  27
   9   6   4 21799.7 858.455  13
  -9  -6  -4 21231.6 792.844  26
   9   6   4 20477.2 727.340  10
  -9  -6  -4 19443.3 820.355   8
  -9  -6  -4 20396.6 819.732   7
   9   6   4 20159.0 750.232  35
   9   6   4 19369.5 829.609  34
   9   6   4 19893.1 831.646  32
   9   6   5 11348.4 606.185  27
   9   6   5 11015.4 605.534  13
  -9  -6  -5 10928.5 573.027  26
  -9  -6  -5 10826.5 593.130   8
  -9  -6  -5 10911.1 601.473   7
   9   6   5 10350.6 544.706  35
   9   6   5 11733.8 634.917  34
   9   6   6 29528.8 933.315  27
   9   6   6 27049.7 910.629  13
  -9  -6  -6 27990.8 891.088  26
  -9  -6  -6 29429.5 894.262   8
  -9  -6  -6 28485.2 933.731   7
   9   6   6 27865.3 871.655  35
   9   6   7 3944.34 282.508  14
   9   6   7 4543.56 351.469  27
   9   6   7 4830.83 363.000  13
  -9  -6  -7 4360.93 342.039  26
  -9  -6  -7 4358.20 302.976   8
  -9  -6  -7 4118.55 341.031   7
   9   6   7 4399.59 335.676  35
   9   6   8 464.233 92.9519  14
   9   6   8 742.127 146.360  27
  -9  -6  -8 504.402 121.963  26
   9   6   9 1456.00 153.048  27
  -9  -6  -9 1513.15 151.547  26
  -9  -7   5 6660.76 300.259   9
   9   7  -5 7026.48 306.163  36
   9   7  -5 6862.76 290.321  33
   9   7  -5 7029.23 324.148  30
  -9  -7   4 1402.25 177.858   9
   9   7  -4 1379.03 177.144  36
   9   7  -4 1423.89 163.793  33
   9   7  -4 1266.37 154.988  32
   9   7  -4 1359.96 180.647  30
  -9  -7   3 16267.9 647.295   9
   9   7  -3 15494.1 633.933  36
   9   7  -3 16110.7 563.666  33
   9   7  -3 15114.9 602.495  32
   9   7  -3 16473.8 644.352  30
  -9  -7   2 2931.98 307.886   9
   9   7  -2 2567.27 288.822  36
   9   7  -2 2858.37 293.714  30
  -9  -7   1 29.0408 126.640   9
  -9  -7   1 103.532 75.5863   8
   9   7  -1 67.4440 103.018  36
   9   7  -1-0.74743 99.9126  32
   9   7  -1-7.67597 93.1646  30
  -9  -7   0 17900.3 780.003   9
   9   7   0 18843.0 778.022  36
   9   7   0 19278.6 808.030  32
  -9  -7  -1 279.193 141.282   9
   9   7   1 17.1747 87.9011  36
   9   7   1 151.019 124.900  34
   9   7   1 89.9268 102.503  32
  -9  -7  -2 5411.93 431.584   9
  -9  -7  -2 5400.14 434.259   8
  -9  -7  -2 5141.13 372.033   7
   9   7   2 5846.98 459.889  34
   9   7   2 5220.45 431.705  32
   9   7   3 18506.6 780.091  13
  -9  -7  -3 18174.6 729.193  45
  -9  -7  -3 19018.8 800.197   8
  -9  -7  -3 18888.6 728.334   7
   9   7   3 19842.8 826.258  34
   9   7   3 18424.2 787.140  32
   9   7   4 60921.4 1385.42  27
   9   7   4 59329.1 1363.99  13
  -9  -7  -4 58672.6 1237.59  26
  -9  -7  -4 59568.2 1336.64  45
  -9  -7  -4 60326.5 1395.72   8
  -9  -7  -4 57453.3 1282.75   7
   9   7   4 61684.7 1430.19  34
   9   7   4 57038.2 1329.04  32
   9   7   5 10657.1 571.258  27
   9   7   5 10680.7 565.915  13
  -9  -7  -5 10555.7 531.325  26
  -9  -7  -5 10398.1 561.062  45
  -9  -7  -5 11315.0 583.796   8
  -9  -7  -5 10985.0 557.094   7
   9   7   5 11032.3 553.702  35
   9   7   5 12491.2 615.350  34
   9   7   6 26967.5 856.036  27
   9   7   6 27018.3 841.811  13
  -9  -7  -6 25310.8 794.285  26
  -9  -7  -6 25902.0 808.925   8
  -9  -7  -6 26192.7 833.019   7
   9   7   6 26175.0 815.367  35
   9   7   7 12305.6 481.701  14
   9   7   7 12537.0 532.737  27
  -9  -7  -7 12317.7 521.912  26
   9   7   7 12706.1 531.342  35
   9   7   8 1331.95 138.491  14
   9   7   8 1407.52 163.549  27
  -9  -7  -8 1608.03 173.788  26
  -9  -8   4 14154.3 457.804   9
   9   8  -4 13518.6 471.756  36
   9   8  -4 14053.2 457.493  32
   9   8  -4 14032.9 475.435  30
  -9  -8   3 7241.58 391.589   9
   9   8  -3 7726.13 412.051  36
   9   8  -3 6840.68 329.342  34
   9   8  -3 6675.28 377.555  32
   9   8  -3 6681.78 369.941  30
  -9  -8   2 10377.6 511.144   9
   9   8  -2 10446.7 516.336  36
   9   8  -2 9890.75 477.188  30
  -9  -8   1 27197.9 876.968   9
  -9  -8   1 25124.6 714.248   8
   9   8  -1 25860.7 832.254  36
   9   8  -1 27039.0 878.323  32
   9   8  -1 26642.8 792.352  30
  -9  -8   0 648.525 174.414   9
  -9  -8   0 332.601 102.249   8
   9   8   0 503.038 138.275  36
   9   8   0 710.725 173.231  32
  -9  -8  -1 6039.72 439.407   9
  -9  -8  -1 5724.09 405.441   8
   9   8   1 5005.06 360.743  36
   9   8   1 6008.02 434.448  32
  -9  -8  -2 95.4440 106.025  45
  -9  -8  -2 270.777 122.057   8
   9   8   2 185.988 110.449  34
   9   8   2 129.097 102.524  32
   9   8   3 336.388 139.033  13
  -9  -8  -3 326.821 119.124  45
  -9  -8  -3 321.839 136.990   8
   9   8   3 582.284 168.314  34
   9   8   3 375.191 122.610  32
   9   8   4 1090.24 204.755  27
  -9  -8  -4 1433.86 182.374  26
   9   8   4 1260.01 199.792  13
  -9  -8  -4 1127.81 195.397  45
  -9  -8  -4 1312.95 212.672   8
  -9  -8  -4 1529.85 195.794   7
   9   8   4 1369.48 213.913  34
   9   8   5 3452.58 307.579  27
   9   8   5 3429.91 292.253  13
  -9  -8  -5 3444.76 276.496  26
  -9  -8  -5 3126.35 300.999  45
  -9  -8  -5 3170.42 296.307   8
   9   8   5 3619.22 305.982  35
   9   8   5 3413.28 298.316  34
   9   8   6 16129.8 604.517  27
   9   8   6 15921.7 574.458  13
  -9  -8  -6 16023.4 565.531  26
   9   8   6 16028.6 596.235  35
   9   8   7 12346.1 441.861  14
   9   8   7 12048.3 461.165  27
  -9  -8  -7 12037.4 452.636  26
   9   8   7 11940.0 465.449  35
  -9  -9   3 260.417 73.6377   9
   9   9  -3 296.676 83.5540  36
   9   9  -3 78.7785 40.8796  34
   9   9  -3 136.206 62.3245  32
  -9  -9   2 11964.0 477.648   9
   9   9  -2 11608.9 468.654  36
   9   9  -2 12146.0 497.525  32
  -9  -9   1 341.459 105.652   9
   9   9  -1 324.020 90.4516  36
   9   9  -1 250.226 92.1255  32
  -9  -9   0 1859.73 222.786   9
  -9  -9   0 1421.50 173.873  45
  -9  -9   0 1402.39 164.768   8
   9   9   0 1436.51 178.333  36
   9   9   0 1517.56 202.632  32
  -9  -9  -1 703.261 136.037  45
  -9  -9  -1 767.160 139.609   8
   9   9   1 749.846 156.573  34
   9   9   1 760.395 145.461  32
   9   9   2 10908.0 515.007  13
  -9  -9  -2 10213.7 505.730  45
  -9  -9  -2 10744.7 515.617   8
   9   9   2 10217.3 521.826  34
   9   9   2 10688.9 500.946  32
   9   9   3 620.074 137.693  13
  -9  -9  -3 498.578 135.590  45
  -9  -9  -3 606.702 144.109   8
   9   9   3 608.343 148.210  34
   9   9   3 733.152 137.178  32
   9   9   4 1567.15 204.259  27
   9   9   4 2214.54 220.088  13
  -9  -9  -4 1814.95 218.300  45
  -9  -9  -4 2063.22 231.680   8
   9   9   4 1888.61 211.078  34
   9   9   5 488.479 114.482  27
   9   9   5 630.424 107.688  13
  -9  -9  -5 529.480 96.0425  26
  -9  -9  -5 336.577 110.211  45
   9   9   5 533.577 120.056  35
   9   9   5 487.490 106.142  34
   9   9   6 658.814 113.410  27
  -9  -9  -6 894.447 115.587  26
   9   9   6 811.976 125.757  35
   9  10  -2 9908.39 327.895  36
   9  10  -2 10801.8 369.138  34
   9  10  -2 9961.75 364.790  32
   9  10  -1 1339.67 128.963  36
   9  10  -1 1503.06 160.125  32
   9  10   0 1386.61 170.135  34
   9  10   0 1382.36 160.211  32
   9  10   1 430.757 100.772  13
  -9 -10  -1 432.561 103.976  45
   9  10   1 386.891 109.338  34
   9  10   1 601.012 110.314  32
   9  10   2 2553.91 210.904  13
  -9 -10  -2 2122.93 213.326  45
   9  10   2 2549.88 230.300  34
   9  10   2 2762.67 207.629  32
   9  10   3 4452.38 258.914  13
  -9 -10  -3 4028.50 283.874  45
   9  10   3 4411.31 282.627  34
   9  10   4 9945.77 340.114  13
  -9 -10  -4 10179.5 432.705  45
   9  10   4 10464.0 414.677  35
   9  10   4 10357.3 384.988  34
   9  10   5 2580.07 184.195  27
   9  10   5 3382.39 220.039  35
 -10   2   0 825.265 106.986  26
 -10   2   0 921.353 125.722  23
  10  -2   0 848.832 124.939  33
 -10   2  -1 5179.97 287.626  26
 -10   2  -1 5531.42 303.067  23
  10  -2   1 4809.87 279.297  33
  10  -2   2 742.552 98.3320  10
 -10   2  -2 815.164 127.760  23
 -10   2  -2 629.973 88.1876   7
 -10   2  -3 2439.10 213.610  26
 -10   2  -3 2553.59 207.823  24
 -10   2  -3 2659.20 202.094  23
  10  -2   3 2329.99 182.738  10
 -10   2  -4 22063.6 584.237  26
 -10   2  -4 22822.7 585.101  24
 -10   1   2 2180.91 164.370  23
  10  -1  -2 2011.80 173.625  33
 -10   1   2 2458.77 190.757  16
 -10   1   1 15827.7 522.065  23
  10  -1  -1 16192.8 529.234  33
 -10   1   1 16917.3 538.296  16
 -10   1   0 3249.98 241.933  26
 -10   1   0 3583.35 277.943  23
  10  -1   0 3238.41 259.434  33
 -10   1   0 3620.77 273.515  16
 -10   1  -1 2034.66 216.121  26
 -10   1  -1 1993.90 220.282  23
  10  -1   1 1857.15 181.567  10
  10  -1   1 2086.71 215.674  33
 -10   1  -2 2778.49 260.624  26
 -10   1  -2 2858.55 259.499  23
  10  -1   2 2746.95 237.920  10
  10  -1   2 2845.75 246.247  33
 -10   1  -3 2304.71 237.323  26
 -10   1  -3 2200.43 219.318  24
 -10   1  -3 2466.09 243.122  23
  10  -1   3 2380.26 230.502  10
 -10   1  -3 2376.30 216.179   7
 -10   1  -4 3070.26 266.707  26
 -10   1  -4 3289.72 262.462  24
 -10   1  -4 3201.98 254.010  23
  10  -1   4 2760.31 247.456  10
 -10   1  -4 2807.20 208.313   7
 -10   1  -5 1930.28 203.869  26
 -10   1  -5 2140.71 205.478  24
  10  -1   5 1959.72 199.347  10
 -10   1  -6 5463.05 282.467  26
 -10   1  -6 5471.67 291.789  24
  10  -1   6 5192.16 285.600  10
 -10   1  -6 5376.07 289.681  20
 -10   0   3 441.421 86.9065  16
  10   0  -3 299.202 74.7520  33
  10   0  -2 41113.0 860.698  33
 -10   0   2 41148.9 880.437  16
 -10   0   1 790.147 145.351  23
 -10   0   1 818.392 154.559  22
 -10   0   1 660.831 145.507  16
  10   0  -1 616.259 139.631  33
 -10   0   0 28562.4 752.788  26
 -10   0   0 29364.4 840.632  23
 -10   0   0 30543.6 861.924  22
  10   0   0 29377.8 746.296  10
  10   0   0 29033.6 820.186  33
 -10   0   0 30907.4 876.150  16
 -10   0  -1 48.1521 76.5073  26
 -10   0  -1-40.3159 94.0881  23
  10   0   1 109.542 79.4011  10
 -10   0  -1 24.7327 99.8675  16
  10   0   1 109.488 87.6396  33
 -10   0  -2 15281.2 635.912  26
 -10   0  -2 15556.0 650.402  23
  10   0   2 14573.5 594.646  10
  10   0   2 14473.0 588.726  33
 -10   0  -3 2713.72 276.548  26
 -10   0  -3 2531.55 254.156  24
 -10   0  -3 2716.48 279.527  23
  10   0   3 2413.92 256.068  10
  10   0   3 2212.23 233.550  33
 -10   0  -3 2593.85 264.914   7
 -10   0  -4 23208.5 773.613  26
 -10   0  -4 23397.9 737.064  24
 -10   0  -4 24086.1 768.961  23
  10   0   4 24526.0 775.113  10
 -10   0  -4 23224.4 722.123   7
 -10   0  -5 77.9859 72.7287  26
 -10   0  -5 152.240 85.0824  24
  10   0   5 218.421 94.1017  10
 -10   0  -5 26.8285 55.5678   7
 -10   0  -6 13145.3 505.289  26
 -10   0  -6 13673.5 519.312  24
  10   0   6 14018.3 522.754  10
  10   0   7 420.774 94.4008   6
 -10   0  -7 472.250 90.5358  26
 -10   0  -7 481.673 98.0686  24
  10   0   7 485.882 92.2422  10
 -10   0  -7 344.353 81.5624  20
  10   1  -3 3612.88 252.700  33
 -10  -1   3 3709.19 252.790  16
 -10  -1   2 10412.0 418.660  23
  10   1  -2 11075.2 487.845  33
 -10  -1   2 11366.5 501.818  16
 -10  -1   1 11070.2 501.128  23
  10   1  -1 11229.7 468.765  10
  10   1  -1 11940.1 534.369  33
 -10  -1   1 10380.7 524.897  16
 -10  -1   0-42.0737 69.3150  26
 -10  -1   0-33.5837 81.3408  23
  10   1   0-17.3437 78.6395  10
 -10  -1   0 46.2805 107.655  16
  10   1   0 255.719 113.117  33
 -10  -1  -1 1349.30 193.563  26
 -10  -1  -1 2041.55 255.080  23
  10   1   1 2088.44 240.663  10
  10   1   1 1761.99 226.202  33
 -10  -1  -1 1853.11 244.281  16
 -10  -1  -2 1533.76 212.602  26
 -10  -1  -2 1951.99 255.027  23
  10   1   2 1904.70 240.088  10
  10   1   2 1679.19 211.255  33
 -10  -1  -3 6757.81 446.290  26
 -10  -1  -3 6039.67 389.102  24
 -10  -1  -3 6392.15 445.065  23
  10   1   3 6183.82 425.986  10
  10   1   3 6828.82 397.807  33
 -10  -1  -3 6263.42 440.134   7
 -10  -1  -4 1548.30 220.896  26
 -10  -1  -4 1385.54 195.559  24
 -10  -1  -4 1177.64 197.778  23
  10   1   4 1570.89 220.894  10
 -10  -1  -4 1519.83 221.521   7
 -10  -1  -5 177.975 105.035  26
 -10  -1  -5 440.162 121.810  24
  10   1   5 266.267 109.811  10
 -10  -1  -5 352.393 108.594   7
 -10  -1  -6 19622.5 671.302  26
 -10  -1  -6 19702.4 648.523  24
  10   1   6 19370.5 654.215  10
 -10  -1  -6 19232.0 605.937   7
 -10  -1  -7 23259.7 644.578  26
  10   1   7 22387.3 607.104  10
 -10  -1  -7 23976.1 631.366  20
 -10  -1  -8 2782.96 178.817  26
 -10  -1  -8 2656.70 177.531  20
 -10  -2   4 5133.14 256.607   9
  10   2  -4 5342.99 278.917  33
 -10  -2   3 4181.76 273.563   9
  10   2  -3 4384.88 298.058  33
 -10  -2   3 4303.45 278.232  16
  10   2  -2 22481.6 635.754  10
 -10  -2   2 21857.0 655.087   9
  10   2  -2 22888.1 732.805  33
 -10  -2   2 23198.6 728.747  16
 -10  -2   1 5497.31 358.760  23
  10   2  -1 5531.62 361.623  10
 -10  -2   1 5267.94 333.602   9
  10   2  -1 5938.86 395.488  33
 -10  -2   1 5597.25 397.935  16
 -10  -2   0 56984.8 1227.77  23
  10   2   0 59400.2 1255.62  10
  10   2   0 58877.2 1248.90  33
 -10  -2   0 58689.2 1329.75  16
 -10  -2  -1 6494.27 406.054  26
 -10  -2  -1 6485.18 442.075  23
  10   2   1 6812.62 445.801  10
  10   2   1 6667.94 420.438  33
 -10  -2  -1 6692.94 465.721  16
 -10  -2  -2 7094.87 450.831  26
 -10  -2  -2 6413.45 450.190  23
  10   2   2 6694.58 449.368  10
  10   2   2 6661.74 411.967  33
 -10  -2  -3 41268.3 1093.09  26
 -10  -2  -3 41948.0 993.940  24
 -10  -2  -3 43097.8 1157.26  23
  10   2   3 44520.6 1149.19  10
 -10  -2  -3 42370.7 1171.78   7
 -10  -2  -4 98.3683 96.8790  26
 -10  -2  -4 35.0829 69.6134  24
 -10  -2  -4 73.9275 103.658  23
  10   2   4 129.405 90.6003  10
 -10  -2  -4 9.41515 85.2990   7
 -10  -2  -5 7183.53 453.853  26
 -10  -2  -5 7060.56 413.232  24
  10   2   5 7567.07 452.886  10
 -10  -2  -5 7346.38 458.099   7
 -10  -2  -6 4320.90 334.159  26
 -10  -2  -6 4160.50 307.324  24
  10   2   6 3964.39 307.953  10
 -10  -2  -6 4404.77 302.138  20
 -10  -2  -6 4280.30 322.449   7
 -10  -2  -7 7429.43 393.152  26
  10   2   7 7282.45 353.669  10
 -10  -2  -7 7816.35 362.131  20
 -10  -2  -7 7570.01 368.226   7
 -10  -2  -8 4970.84 268.367  26
 -10  -2  -8 5147.46 246.239  20
 -10  -3   4 519.071 99.6609   9
  10   3  -4 560.864 105.552  33
  10   3  -3 624.604 104.341  10
 -10  -3   3 425.153 106.291   9
  10   3  -3 550.281 120.638  33
 -10  -3   2 140.865 84.1861   9
 -10  -3   2 187.354 90.8261  16
  10   3  -2-90.8838 78.2431  33
 -10  -3   1 2263.19 221.164  23
 -10  -3   1 2675.43 263.003   9
  10   3  -1 2761.45 277.073  33
 -10  -3   1 2911.42 286.284  16
 -10  -3   0 34533.7 933.189  23
 -10  -3   0 32900.0 890.821   9
  10   3   0 33701.9 930.299  33
 -10  -3   0 33437.9 998.399  16
 -10  -3  -1 6703.02 399.982  26
 -10  -3  -1 6950.94 450.519  23
  10   3   1 6737.23 451.767  10
  10   3   1 7063.70 428.257  33
 -10  -3  -2 24388.3 817.491  26
 -10  -3  -2 25438.1 879.798  23
  10   3   3 7907.73 429.682  13
 -10  -3  -3 7995.13 484.565  26
 -10  -3  -3 7761.07 497.581  23
  10   3   3 6702.52 454.267  10
 -10  -3  -3 7441.65 501.992   7
  10   3   4 54081.7 1128.53  13
 -10  -3  -4 55948.8 1282.48  26
 -10  -3  -4 56757.8 1129.18  24
 -10  -3  -4 57506.3 1354.65   7
  10   3   5 370.103 111.570  13
 -10  -3  -5 162.339 93.4229  26
 -10  -3  -5 342.046 104.920  24
  10   3   5 486.685 145.583  10
 -10  -3  -5 283.351 129.004   7
 -10  -3  -6 13274.2 585.671  26
  10   3   6 12859.7 534.721  10
 -10  -3  -6 13220.4 585.480   7
  10   3   7 8180.37 349.577  27
 -10  -3  -7 8642.52 433.673  26
 -10  -3  -7 9388.60 443.464   7
  10   3   8 135.691 58.1588  27
 -10  -3  -8 159.745 69.7600  26
 -10  -4   4 303.380 85.5628   9
  10   4  -4 389.039 86.7803  33
 -10  -4   3 3179.95 269.912   9
  10   4  -3 3034.39 252.504  33
 -10  -4   2 172.803 97.3521   9
  10   4  -2 207.676 83.5717  33
 -10  -4   1-28.6614 95.5745   9
  10   4  -1 187.482 80.5830  33
 -10  -4   0 7951.89 428.108  23
 -10  -4   0 7809.94 460.712   9
  10   4   0 7833.23 435.087  33
  10   4   0 8579.53 474.325  32
  10   4   1 8600.65 455.168  13
 -10  -4  -1 8553.92 479.187  23
 -10  -4  -1 8054.54 457.099   9
  10   4   1 8307.39 450.026  34
  10   4   1 8236.79 490.732  32
  10   4   2 4170.55 332.635  13
 -10  -4  -2 3801.46 312.445  26
 -10  -4  -2 4683.36 378.418  23
  10   4   2 4575.29 359.329  34
 -10  -4  -2 4948.15 408.680   7
  10   4   3 7640.89 453.763  13
 -10  -4  -3 7861.46 467.920  26
  10   4   3 7233.88 469.123  10
 -10  -4  -3 7173.92 491.117   7
  10   4   4 355.091 122.633  13
 -10  -4  -4 344.069 119.721  26
  10   4   4 288.731 106.027  10
 -10  -4  -4 318.487 128.878   7
  10   4   5 27871.9 777.875  27
  10   4   5 27696.6 851.355  13
 -10  -4  -5 27647.0 873.426  26
  10   4   5 29223.5 842.750  10
 -10  -4  -5 27868.2 911.493   7
  10   4   6 904.864 149.199  27
 -10  -4  -6 744.877 151.572  26
  10   4   6 1060.99 153.800  10
 -10  -4  -6 892.078 141.741   8
 -10  -4  -6 912.699 167.371   7
  10   4   7 19069.6 581.134  27
 -10  -4  -7 20015.1 652.216  26
 -10  -4  -7 19588.5 659.771   7
  10   4   8 86.2995 65.2170  27
 -10  -4  -8 142.446 61.1378  26
 -10  -5   4 11940.3 443.175   9
  10   5  -4 11600.6 403.640  33
 -10  -5   3 507.631 122.844   9
  10   5  -3 717.053 132.471  33
 -10  -5   2 4914.32 356.249   9
  10   5  -2 4965.97 324.770  33
  10   5  -2 4991.32 307.316  32
 -10  -5   1 9652.99 515.467   9
 -10  -5   1 10169.9 466.472   7
  10   5  -1 11413.1 493.128  33
  10   5  -1 9912.16 490.744  32
 -10  -5   0 156.079 110.318   9
  10   5   0 237.210 86.2126  34
 -10  -5   0 196.003 87.9514   7
  10   5   0 289.014 128.662  32
  10   5   1 6771.70 428.248  13
 -10  -5  -1 5680.62 398.877   9
  10   5   1 6571.74 422.025  34
 -10  -5  -1 6394.40 429.011   7
  10   5   1 5877.98 425.412  32
  10   5   2 100856. 1668.76  13
 -10  -5  -2 104945. 1629.79   9
  10   5   2 102556. 1711.18  34
 -10  -5  -2 98728.1 1714.19   7
  10   5   2 105228. 1809.84  32
  10   5   3 2643.47 254.712  27
  10   5   3 3152.36 312.120  13
 -10  -5  -3 3549.09 303.278  26
  10   5   3 2817.95 294.641  10
 -10  -5  -3 2724.52 299.726   7
  10   5   3 3077.32 312.202  34
  10   5   4 718.546 142.333  27
  10   5   4 907.804 177.613  13
 -10  -5  -4 1063.42 179.144  26
  10   5   4 868.476 164.494  10
  10   5   4 1000.03 192.493  34
 -10  -5  -4 943.917 192.179   7
  10   5   5 4018.67 313.715  27
  10   5   5 4307.73 348.558  13
 -10  -5  -5 3922.04 322.172  26
  10   5   5 3666.05 282.371  10
 -10  -5  -5 4439.34 345.894   8
 -10  -5  -5 4121.54 350.443   7
  10   5   6 349.384 106.319  27
  10   5   6 195.749 103.012  13
 -10  -5  -6 226.422 96.3441  26
 -10  -5  -6 61.6593 60.7466   8
 -10  -5  -6 265.620 104.862   7
  10   5   7 26.8806 59.8651  27
 -10  -5  -7 134.407 92.6019  26
 -10  -5  -7-22.7509 86.2159   7
  10   5   8 1242.89 138.710  27
 -10  -5  -8 1173.62 139.052  26
 -10  -6   4 11640.4 410.824   9
  10   6  -4 10722.2 342.679  33
 -10  -6   3 23.0344 63.4113   9
  10   6  -3-74.0840 57.3972  33
  10   6  -3 73.5358 50.1593  32
 -10  -6   2 17490.9 649.500   9
  10   6  -2 17410.7 537.015  33
  10   6  -2 17386.7 582.961  32
 -10  -6   1 4782.27 358.764   9
  10   6  -1 4676.83 344.021  32
 -10  -6   0 279.120 110.826   9
  10   6   0 412.755 105.454  34
  10   6   0 473.534 144.718  32
 -10  -6  -1 25266.2 830.008   9
 -10  -6  -1 25338.2 782.265   7
  10   6   1 24801.3 814.226  34
  10   6   1 24423.9 847.023  32
  10   6   2 5319.92 393.822  13
 -10  -6  -2 5947.11 401.366   9
 -10  -6  -2 5586.83 381.091   7
  10   6   2 5720.71 411.816  34
  10   6   2 5392.79 410.688  32
  10   6   3 17370.7 654.524  27
  10   6   3 18646.5 725.601  13
 -10  -6  -3 18228.3 623.379  26
  10   6   3 17352.7 660.371  10
 -10  -6  -3 18476.1 709.771   7
  10   6   3 18828.5 749.107  34
  10   6   3 18382.4 756.083  32
  10   6   4 2465.46 257.727  27
  10   6   4 2606.39 278.982  13
 -10  -6  -4 2225.88 231.456  26
  10   6   4 2285.79 222.436  10
 -10  -6  -4 2852.01 296.845   8
 -10  -6  -4 2534.69 271.767   7
  10   6   4 2467.42 284.140  34
  10   6   5 29097.1 827.309  27
  10   6   5 28583.4 858.901  13
 -10  -6  -5 27377.2 791.164  26
 -10  -6  -5 26540.9 817.919   8
 -10  -6  -5 27635.1 846.391   7
  10   6   6 18907.2 636.513  27
  10   6   6 19796.6 678.074  13
 -10  -6  -6 18332.6 626.253  26
 -10  -6  -6 18429.7 600.323   8
 -10  -6  -6 18206.3 653.684   7
  10   6   6 17557.1 542.148  35
  10   6   7 1217.19 158.875  27
 -10  -6  -7 1237.76 160.563  26
  10   6   8 18566.4 487.498  27
 -10  -6  -8 17637.8 480.559  26
 -10  -7   3 4881.55 291.523   9
  10   7  -3 4247.15 236.640  32
 -10  -7   2 15618.2 576.483   9
  10   7  -2 15961.8 576.707  36
  10   7  -2 15303.2 537.564  32
 -10  -7   1 25079.3 777.303   9
 -10  -7   1 23600.8 656.925   8
  10   7  -1 24520.3 761.993  36
  10   7  -1 24121.6 660.359  34
  10   7  -1 25810.0 768.718  32
 -10  -7   0 9963.71 505.099   9
 -10  -7   0 9847.25 478.831   8
  10   7   0 9598.44 467.707  34
  10   7   0 9705.18 504.062  32
 -10  -7  -1 16615.1 657.524   9
 -10  -7  -1 16710.5 657.649   8
  10   7   1 16816.6 659.704  34
  10   7   1 16776.4 684.940  32
  10   7   2 130.367 108.423  13
 -10  -7  -2 155.446 77.4298   9
 -10  -7  -2 140.628 94.1122   8
  10   7   2 120.218 91.8786  34
 -10  -7  -2-33.2588 69.4401   7
  10   7   2 251.481 109.767  32
  10   7   3 42.0402 91.6943  27
  10   7   3-33.1463 107.805  13
  10   7   3 53.6026 54.2690  10
 -10  -7  -3 137.703 94.6108   8
  10   7   3 52.3632 85.3125  34
 -10  -7  -3-55.9097 73.8371   7
  10   7   3 128.866 92.9352  32
  10   7   4 17149.1 638.956  27
  10   7   4 19073.7 689.808  13
 -10  -7  -4 17926.7 580.723  26
 -10  -7  -4 16892.0 659.543   8
 -10  -7  -4 16641.6 612.785   7
  10   7   4 16986.1 555.691  35
  10   7   4 18295.9 698.430  34
  10   7   5 1629.54 199.937  27
  10   7   5 1748.35 214.900  13
 -10  -7  -5 1645.88 183.521  26
 -10  -7  -5 1629.08 205.149   8
 -10  -7  -5 2094.54 224.337   7
  10   7   5 1691.03 179.660  35
  10   7   6 45405.5 929.167  27
  10   7   6 44800.5 931.188  13
 -10  -7  -6 43776.3 874.690  26
 -10  -7  -6 43618.4 872.404   8
  10   7   6 41783.0 815.421  35
  10   7   7 49305.7 860.928  27
 -10  -7  -7 48678.3 831.453  26
 -10  -8   2 4443.31 279.189   9
  10   8  -2 4670.22 279.350  36
  10   8  -2 4526.13 270.993  32
 -10  -8   1 855.813 145.552   9
  10   8  -1 691.541 125.649  36
  10   8  -1 918.170 131.697  34
  10   8  -1 861.455 145.161  32
 -10  -8   0 13909.0 552.430   9
 -10  -8   0 13724.6 492.818   8
  10   8   0 13737.4 531.171  34
  10   8   0 13133.9 540.242  32
 -10  -8  -1 1775.63 211.579   9
 -10  -8  -1 1444.93 185.180   8
  10   8   1 1519.96 197.120  34
  10   8   1 1341.83 189.287  32
  10   8   2 9370.07 465.045  13
 -10  -8  -2 9296.30 463.724   8
  10   8   2 9613.25 483.357  34
  10   8   2 10435.2 497.006  32
  10   8   3-4.70151 73.1840  27
  10   8   3 156.881 89.2407  13
 -10  -8  -3 58.9434 79.0027   8
  10   8   3 59.5502 56.4281  35
  10   8   3-72.2579 90.4697  34
  10   8   3 52.1685 74.0356  32
  10   8   4 23831.9 704.970  27
  10   8   4 24806.6 717.892  13
 -10  -8  -4 25125.6 742.691   8
  10   8   4 24333.4 635.057  35
  10   8   4 25110.2 747.277  34
  10   8   5 2881.93 237.475  27
  10   8   5 2987.82 240.351  13
 -10  -8  -5 2842.57 197.290  26
 -10  -8  -5 2797.07 234.148   8
  10   8   5 2988.91 219.088  35
  10   8   6 3094.08 223.751  27
 -10  -8  -6 2836.67 188.080  26
  10   8   6 2979.34 200.179  35
  10   9  -1 2200.47 169.317  34
  10   9  -1 2372.64 190.574  32
  10   9   0-38.3806 51.8274  34
  10   9   0 36.9663 54.3104  32
  10   9   1 149.415 73.3083  13
 -10  -9  -1 157.783 77.5789   8
  10   9   1 136.705 68.6027  34
  10   9   1 121.641 75.6762  32
  10   9   2 707.403 127.249  27
  10   9   2 855.958 135.261  13
 -10  -9  -2 706.120 120.109   8
  10   9   2 694.557 97.7477  35
  10   9   2 777.526 130.982  34
  10   9   2 723.198 122.483  32
  10   9   3 19504.7 569.744  13
 -10  -9  -3 19260.5 581.773   8
  10   9   3 18938.9 502.567  35
  10   9   3 19488.8 594.719  34
  10   9   4 169.726 74.5009  27
  10   9   4 322.070 80.7421  13
  10   9   4 211.711 63.2192  35
  10   9   4 317.496 81.8253  34
  10   9   5 30428.3 597.842  13
  10   9   5 28972.3 572.480  35
 -11   0  -1 288.132 77.4231  23
 -11   0  -1 250.033 71.4933   7
  11   0   1 277.826 70.2393  33
 -11   0  -2 2899.33 192.613  26
 -11   0  -2 3155.01 217.636  23
  11   0   2 2704.07 182.872  10
 -11   0  -2 2928.11 201.012   7
 -11   0  -3 2879.04 203.073  26
  11   0   3 2688.43 191.076  10
 -11   0  -3 2860.67 189.444   7
 -11  -1   0 4707.77 254.498  23
  11   1   0 4322.77 217.831  10
  11   1   0 4948.98 264.011  33
 -11  -1  -1 22071.4 496.399  26
 -11  -1  -1 25300.4 650.277  23
  11   1   1 24401.5 598.627  10
  11   1   1 22265.8 560.265  33
 -11  -1  -1 25775.3 689.122   7
 -11  -1  -2 2291.39 192.942  26
 -11  -1  -2 2428.95 218.239  23
  11   1   2 2580.96 212.654  10
 -11  -1  -2 2685.06 231.523   7
  11   1   2 1999.52 166.344  33
 -11  -1  -3 2197.95 200.674  26
 -11  -1  -3 2224.63 208.153  23
  11   1   3 1976.58 195.970  10
 -11  -1  -3 1977.07 194.110   7
 -11  -1  -4 4098.40 265.905  26
 -11  -1  -4 3648.53 209.749  24
  11   1   4 4387.36 275.236  10
 -11  -1  -4 3760.41 245.725   7
 -11  -1  -5 117.265 64.2949  26
 -11  -1  -5 128.359 53.8684  24
  11   1   5 194.105 63.6052  10
 -11  -1  -5 53.9555 39.8839   7
  11   2  -1 3852.67 202.953  10
  11   2  -1 4306.66 244.916  33
 -11  -2   0 542.540 97.6057  23
  11   2   0 553.160 103.298  10
  11   2   0 673.071 111.672  33
 -11  -2  -1 233.384 86.6422  23
  11   2   1 320.552 98.6947  10
 -11  -2  -1 450.352 121.232   7
  11   2   1 415.974 92.2103  33
 -11  -2  -2 2237.32 194.785  26
 -11  -2  -2 2571.60 233.924  23
  11   2   2 2293.39 219.658  10
 -11  -2  -2 2385.98 238.116   7
 -11  -2  -3 352.523 94.1742  26
  11   2   3 365.627 106.044  10
 -11  -2  -3 608.362 139.411   7
 -11  -2  -4 3191.45 249.854  26
  11   2   4 3413.21 262.941  10
 -11  -2  -4 3349.58 261.330   7
 -11  -2  -5 44781.5 876.282  26
  11   2   5 46826.5 875.267  10
 -11  -2  -5 47701.4 879.382   7
 -11  -2  -6 75.2533 52.3785  26
  11   2   6 60.9557 50.3867  10
 -11  -2  -6 107.793 55.2838   7
  11   3  -2 26508.1 553.020  33
  11   3  -1 3537.85 226.801  10
 -11  -3   1 3187.92 230.080   7
  11   3  -1 3407.18 222.013  33
  11   3   0 2447.43 218.221  10
 -11  -3   0 2603.12 231.615   7
  11   3   0 2779.37 208.343  33
  11   3   1 466.273 115.720  10
 -11  -3  -1 511.316 127.700   7
 -11  -3  -2 138.707 60.0377  26
 -11  -3  -2 176.430 89.8188   7
 -11  -3  -3 711.434 124.847  26
  11   3   3 834.344 141.815  10
 -11  -3  -3 811.661 157.465   7
 -11  -3  -4 157.382 80.6651  26
  11   3   4 184.313 88.9353  10
 -11  -3  -4 161.467 77.9048   7
 -11  -3  -5 422.137 101.733  26
  11   3   5 374.260 90.1400  10
 -11  -3  -5 352.942 76.3582   8
 -11  -3  -5 516.137 113.548   7
 -11  -3  -6 25430.1 626.985  26
 -11  -3  -6 26966.8 635.770   7
  11   4  -2 23.7854 43.1060  10
  11   4  -2-58.1941 63.4774  33
 -11  -4   1 39698.5 718.928   9
 -11  -4   1 42105.1 771.002   7
  11   4  -1 41662.9 727.491  33
  11   4   0 283.709 93.1315  10
 -11  -4   0 236.346 87.9725   7
  11   4   1 1130.94 171.278  10
 -11  -4  -1 984.090 159.844   7
  11   4   2 4971.03 336.300  10
 -11  -4  -2 5271.52 352.926   7
  11   4   3 4176.53 253.761  13
 -11  -4  -3 4607.94 286.027  26
  11   4   3 4703.29 319.125  10
 -11  -4  -3 4326.39 326.628   7
 -11  -4  -4 286.135 86.3664  26
  11   4   4 243.636 83.1261  10
 -11  -4  -4 282.152 104.519   7
 -11  -4  -5 136.009 66.3289  26
  11   4   5 217.268 73.2288  10
 -11  -4  -5 63.8851 49.6194   8
 -11  -4  -5 50.7151 61.4734   7
 -11  -4  -6 55.8683 60.3373  26
 -11  -4  -6 142.835 67.1197   7
  11   5  -2 13167.7 397.865  10
 -11  -5   2 14273.0 421.340   9
  11   5  -1 31018.5 710.779  10
 -11  -5   1 30935.3 676.368   9
  11   5   0 5319.32 323.105  10
 -11  -5   0 4550.88 271.725   9
 -11  -5   0 4951.03 278.709   7
  11   5   1 4656.77 264.202  13
  11   5   1 4197.94 302.843  10
 -11  -5  -1 4054.07 249.439   9
 -11  -5  -1 4622.46 301.450   7
  11   5   2 3.51333 61.5309  10
 -11  -5  -2-13.4132 75.8549   7
  11   5   3 14468.8 507.599  13
  11   5   3 15031.2 546.789  10
 -11  -5  -3 14361.8 557.863   7
  11   5   4 7756.63 373.315  13
 -11  -5  -4 7254.95 345.431  26
  11   5   4 7329.32 358.553  10
 -11  -5  -4 7535.44 391.600   8
 -11  -5  -4 7685.82 404.653   7
 -11  -5  -5 26750.7 653.706  26
 -11  -5  -5 26467.9 652.803   8
 -11  -5  -5 27731.6 728.181   7
 -11  -5  -6 11098.7 396.738  26
 -11  -5  -6 11746.7 431.049   7
 -11  -6   1 9729.14 380.696   9
 -11  -6   1 8271.11 317.829   8
  11   6   0 18047.7 496.901  13
 -11  -6   0 19231.4 557.923   9
 -11  -6   0 19165.0 572.594   8
  11   6   1 4346.50 268.221  13
  11   6   1 4151.44 285.449  10
 -11  -6  -1 3906.33 256.412   9
 -11  -6  -1 4762.96 314.270   8
 -11  -6  -1 4094.92 247.081   7
  11   6   2 773.240 124.028  13
  11   6   2 915.209 138.670  10
 -11  -6  -2 928.560 150.270   8
 -11  -6  -2 1027.48 145.353   7
  11   6   3 189.516 83.6738  13
  11   6   3 134.270 57.5637  10
 -11  -6  -3 48.6361 77.7634   8
 -11  -6  -3 166.283 86.7977   7
  11   6   4 1524.19 172.371  13
 -11  -6  -4 1389.56 137.290  26
  11   6   4 1315.64 141.729  10
 -11  -6  -4 1440.45 172.225   8
 -11  -6  -4 1430.04 168.576   7
  11   6   5 17627.0 534.470  13
 -11  -6  -5 15890.0 456.897  26
 -11  -6  -5 17346.3 516.219   8
 -11  -6  -5 17244.2 535.522   7
 -11  -6  -6 113.744 53.9206  26
 -11  -6  -6 20.5413 45.2559   7
 -11  -7   1 1715.80 154.201   9
  11   7   0 16512.4 472.108  13
 -11  -7   0 16142.5 487.665   9
 -11  -7   0 15262.7 447.493   8
  11   7   1 18483.3 541.572  13
 -11  -7  -1 18367.3 551.913   8
  11   7   1 17081.0 492.494  34
  11   7   2 1298.26 156.813  13
  11   7   2 1240.76 139.063  10
 -11  -7  -2 1746.85 185.564   8
  11   7   2 1581.93 168.486  34
  11   7   3 25288.7 654.750  13
 -11  -7  -3 24142.0 664.984   8
 -11  -7  -3 23316.4 548.709   7
  11   7   4 2638.30 211.656  13
 -11  -7  -4 2825.25 220.449   8
 -11  -7  -4 2523.71 188.756   7
  11   7   5 23620.0 573.068  13
 -11  -7  -5 22646.4 544.416   8
  11   8   1 476.466 88.9634  13
  11   8   1 316.851 64.8841  10
 -11  -8  -1 346.962 73.9947   8
  11   8   1 358.931 74.2263  34
  11   8   2 10181.0 377.458  13
 -11  -8  -2 10565.6 381.142   8
  11   8   2 10683.6 383.647  34
  11   8   3 49.0241 39.3855  27
  11   8   3 145.759 62.2402  13
 -11  -8  -3 194.259 66.5719   8
   0   0   0    0.00    0.00   0

TITL Jala73 in P-1
REM P-1 (#2 in standard setting)
CELL 1.54184   9.576250  10.097810  10.143878  87.9829  78.9617  69.4851
ZERR    2.00   0.000433   0.000519   0.000318   0.0033   0.0032   0.0044
LATT  1
SFAC C H O F S
UNIT 32.00 20.00 12.00 12.00 4.00
TREF
HKLF 4
END
;
_shelx_res_checksum              91957
_shelx_res_file
;
TITL jala73_a.res in P-1
REM Old TITL Jala73 in P-1 #2
REM SHELXT solution in P-1
REM R1 0.124, Rweak 0.006, Alpha 0.057, Orientation as input
REM Formula found by SHELXT: C16 O6 F6 S2
CELL 1.54184 9.57625 10.09781 10.143878 87.9829 78.9617 69.4851
ZERR 2 0.000433 0.000519 0.000318 0.0033 0.0032 0.0044
LATT 1
SFAC C H F O S
UNIT 32 20 12 12 4

L.S. 11
PLAN  11
BOND $H
MORE -1
CONF
fmap 2
acta
SHEL 99 0.809
REM <olex2.extras>
REM <HklSrc "%.\\Jala73.hkl">
REM </olex2.extras>

WGHT    0.044900    0.519500
FVAR       9.93470
S1    5    0.109134    0.384859    0.198615    11.00000    0.01924    0.02533 =
         0.02381   -0.00061   -0.00656   -0.00986
S2    5    0.694026    0.004271    0.288307    11.00000    0.03005    0.01856 =
         0.03563   -0.00014   -0.01201   -0.00962
F1    3    0.157609    0.174809    0.034709    11.00000    0.06311    0.06345 =
         0.05729   -0.03299   -0.00839   -0.02516
F2    3    0.049022    0.156485    0.236696    11.00000    0.05446    0.04363 =
         0.08900   -0.01231    0.00841   -0.03489
F3    3    0.287769    0.121345    0.191508    11.00000    0.04275    0.02643 =
         0.09353   -0.00136   -0.02159   -0.00597
F4    3    0.881659   -0.246336    0.313227    11.00000    0.03881    0.02192 =
         0.07011   -0.00508   -0.01618   -0.00209
F5    3    0.726199   -0.153953    0.495437    11.00000    0.06195    0.04673 =
         0.05501    0.02363   -0.00236   -0.00078
F6    3    0.914134   -0.083991    0.421932    11.00000    0.04191    0.03889 =
         0.09008   -0.01162   -0.03913   -0.00200
O1    4    0.252936    0.396548    0.100736    11.00000    0.02236    0.03213 =
         0.02405   -0.00213   -0.00531   -0.01381
O2    4   -0.025570    0.459274    0.150624    11.00000    0.02156    0.04445 =
         0.03794    0.00614   -0.01098   -0.01003
O3    4    0.118744    0.401370    0.334329    11.00000    0.03255    0.03691 =
         0.02420   -0.00018   -0.00670   -0.01930
O4    4    0.605985    0.125923    0.397565    11.00000    0.02420    0.02029 =
         0.03410    0.00133   -0.00565   -0.01074
O5    4    0.794317    0.043788    0.187203    11.00000    0.05549    0.02682 =
         0.03413   -0.00581    0.00196   -0.01572
O6    4    0.587553   -0.052282    0.259029    11.00000    0.04140    0.02655 =
         0.07409   -0.00554   -0.02959   -0.01265
C1    1    0.292331    0.518200    0.120570    11.00000    0.02429    0.03026 =
         0.02242    0.00355   -0.00678   -0.01417
C2    1    0.416937    0.497061    0.181349    11.00000    0.01767    0.02399 =
         0.02182   -0.00208   -0.00245   -0.00726
C3    1    0.497917    0.356724    0.231906    11.00000    0.02481    0.02168 =
         0.04601   -0.00001   -0.01677   -0.00884
AFIX  23
H3A   2    0.557685    0.293790    0.155580    11.00000   -1.20000
H3B   2    0.423189    0.317827    0.277993    11.00000   -1.20000
AFIX   0
C4    1    0.600032    0.358585    0.324911    11.00000    0.01683    0.02053 =
         0.02527   -0.00243   -0.00453   -0.00595
C5    1    0.654987    0.243967    0.404908    11.00000    0.02060    0.02021 =
         0.02669   -0.00299   -0.00209   -0.00962
C6    1    0.743852    0.240792    0.496890    11.00000    0.02722    0.02438 =
         0.02400    0.00151   -0.00698   -0.00726
AFIX  43
H6    2    0.776146    0.162338    0.549075    11.00000   -1.20000
AFIX   0
C7    1    0.784270    0.358854    0.509727    11.00000    0.02593    0.02872 =
         0.02435   -0.00402   -0.00850   -0.00901
AFIX  43
H7    2    0.844976    0.359760    0.570868    11.00000   -1.20000
AFIX   0
C8    1    0.734377    0.474268    0.431913    11.00000    0.02194    0.02384 =
         0.02609   -0.00489   -0.00347   -0.01059
AFIX  43
H8    2    0.762018    0.552518    0.441273    11.00000   -1.20000
AFIX   0
C9    1    0.642734    0.475985    0.338894    11.00000    0.01766    0.02100 =
         0.02465   -0.00223   -0.00285   -0.00763
C10   1    0.594038    0.600691    0.253838    11.00000    0.02911    0.02217 =
         0.03999    0.00050   -0.01409   -0.01079
AFIX  23
H10A  2    0.570776    0.685604    0.308166    11.00000   -1.20000
H10B  2    0.678811    0.595911    0.181998    11.00000   -1.20000
AFIX   0
C11   1    0.460332    0.614501    0.193064    11.00000    0.02121    0.02450 =
         0.02242    0.00061   -0.00296   -0.00958
C12   1    0.376915    0.745334    0.147730    11.00000    0.03459    0.02673 =
         0.03696    0.01067   -0.01302   -0.01627
AFIX  43
H12   2    0.405880    0.823015    0.155874    11.00000   -1.20000
AFIX   0
C13   1    0.252154    0.761076    0.091031    11.00000    0.04774    0.03628 =
         0.05960    0.02644   -0.03174   -0.02100
AFIX  43
H13   2    0.196798    0.849334    0.062996    11.00000   -1.20000
AFIX   0
C14   1    0.208980    0.645473    0.075696    11.00000    0.03862    0.04502 =
         0.04533    0.02080   -0.02682   -0.02291
AFIX  43
H14   2    0.126246    0.654303    0.036272    11.00000   -1.20000
AFIX   0
C15   1    0.154929    0.196574    0.162123    11.00000    0.03184    0.03140 =
         0.04865   -0.00946   -0.00585   -0.01583
C16   1    0.811391   -0.128195    0.387317    11.00000    0.03036    0.02519 =
         0.04721    0.00111   -0.01304   -0.00526
HKLF 4

REM  jala73_a.res in P-1
REM R1 =  0.0312 for    3333 Fo > 4sig(Fo)  and  0.0330 for all    3536 data
REM    271 parameters refined using      0 restraints

END

WGHT      0.0449      0.5195

REM Highest difference peak  0.383,  deepest hole -0.371,  1-sigma level  0.050
Q1    1   0.1440  0.2877  0.1859  11.00000  0.05    0.38
Q2    1   0.1580  0.2310 -0.0207  11.00000  0.05    0.32
Q3    1   0.7562 -0.0667  0.3353  11.00000  0.05    0.32
Q4    1   0.4129  0.6802  0.1820  11.00000  0.05    0.30
Q5    1   0.0440  0.1815  0.1502  11.00000  0.05    0.28
Q6    1   0.5552  0.3595  0.2821  11.00000  0.05    0.27
Q7    1   0.7246  0.0375  0.2025  11.00000  0.05    0.25
Q8    1   0.6168  0.5380  0.3024  11.00000  0.05    0.25
Q9    1   0.3430  0.5130  0.1683  11.00000  0.05    0.25
Q10   1   0.5204  0.6051  0.2227  11.00000  0.05    0.24
Q11   1   0.4564  0.2751  0.2341  11.00000  0.05    0.23
;
_shelx_space_group_comment
;
The symmetry employed for this shelxl refinement is uniquely defined
by the following loop, which should always be used as a source of
symmetry information in preference to the above space-group names.
They are only intended as comments.
;
_shelxl_version_number           2013-2
loop_
_space_group_symop_operation_xyz
'x, y, z'
'-x, -y, -z'
loop_
_atom_site_label
_atom_site_type_symbol
_atom_site_fract_x
_atom_site_fract_y
_atom_site_fract_z
_atom_site_U_iso_or_equiv
_atom_site_adp_type
_atom_site_occupancy
_atom_site_site_symmetry_order
_atom_site_calc_flag
_atom_site_refinement_flags_posn
_atom_site_refinement_flags_adp
_atom_site_refinement_flags_occupancy
_atom_site_disorder_assembly
_atom_site_disorder_group
S1 S 0.10913(4) 0.38486(4) 0.19862(4) 0.02185(11) Uani 1 1 d . . . . .
S2 S 0.69403(5) 0.00427(4) 0.28831(4) 0.02694(12) Uani 1 1 d . . . . .
F1 F 0.15761(17) 0.17481(16) 0.03471(14) 0.0600(4) Uani 1 1 d . . . . .
F2 F 0.04902(16) 0.15649(14) 0.23670(16) 0.0603(4) Uani 1 1 d . . . . .
F3 F 0.28777(15) 0.12135(13) 0.19151(16) 0.0546(3) Uani 1 1 d . . . . .
F4 F 0.88166(13) -0.24634(11) 0.31323(13) 0.0449(3) Uani 1 1 d . . . . .
F5 F 0.72620(17) -0.15395(15) 0.49544(14) 0.0613(4) Uani 1 1 d . . . . .
F6 F 0.91413(14) -0.08399(13) 0.42193(16) 0.0562(4) Uani 1 1 d . . . . .
O1 O 0.25294(12) 0.39655(13) 0.10074(11) 0.0248(2) Uani 1 1 d . . . . .
O2 O -0.02557(13) 0.45927(15) 0.15062(13) 0.0344(3) Uani 1 1 d . . . . .
O3 O 0.11874(14) 0.40137(13) 0.33433(11) 0.0291(3) Uani 1 1 d . . . . .
O4 O 0.60598(13) 0.12592(12) 0.39757(12) 0.0254(2) Uani 1 1 d . . . . .
O5 O 0.79432(17) 0.04379(14) 0.18720(13) 0.0398(3) Uani 1 1 d . . . . .
O6 O 0.58755(16) -0.05228(14) 0.25903(17) 0.0443(4) Uani 1 1 d . . . . .
C1 C 0.29233(18) 0.51820(18) 0.12057(15) 0.0241(3) Uani 1 1 d . . . . .
C2 C 0.41694(17) 0.49706(17) 0.18135(15) 0.0213(3) Uani 1 1 d . . . . .
C3 C 0.49792(19) 0.35672(18) 0.23191(19) 0.0292(4) Uani 1 1 d . . . . .
H3A H 0.5577 0.2938 0.1556 0.035 Uiso 1 1 calc R . . . .
H3B H 0.4232 0.3178 0.2780 0.035 Uiso 1 1 calc R . . . .
C4 C 0.60003(16) 0.35858(16) 0.32491(15) 0.0209(3) Uani 1 1 d . . . . .
C5 C 0.65499(17) 0.24397(17) 0.40491(16) 0.0221(3) Uani 1 1 d . . . . .
C6 C 0.74385(18) 0.24079(18) 0.49689(16) 0.0254(3) Uani 1 1 d . . . . .
H6 H 0.7761 0.1623 0.5491 0.030 Uiso 1 1 calc R . . . .
C7 C 0.78427(18) 0.35885(18) 0.50973(16) 0.0258(3) Uani 1 1 d . . . . .
H7 H 0.8450 0.3598 0.5709 0.031 Uiso 1 1 calc R . . . .
C8 C 0.73438(17) 0.47427(17) 0.43191(15) 0.0233(3) Uani 1 1 d . . . . .
H8 H 0.7620 0.5525 0.4413 0.028 Uiso 1 1 calc R . . . .
C9 C 0.64273(16) 0.47599(17) 0.33889(15) 0.0210(3) Uani 1 1 d . . . . .
C10 C 0.59404(19) 0.60069(18) 0.25384(18) 0.0289(4) Uani 1 1 d . . . . .
H10A H 0.5708 0.6856 0.3082 0.035 Uiso 1 1 calc R . . . .
H10B H 0.6788 0.5959 0.1820 0.035 Uiso 1 1 calc R . . . .
C11 C 0.46033(17) 0.61450(17) 0.19306(15) 0.0224(3) Uani 1 1 d . . . . .
C12 C 0.3769(2) 0.74533(19) 0.14773(18) 0.0306(4) Uani 1 1 d . . . . .
H12 H 0.4059 0.8230 0.1559 0.037 Uiso 1 1 calc R . . . .
C13 C 0.2522(2) 0.7611(2) 0.0910(2) 0.0438(5) Uani 1 1 d . . . . .
H13 H 0.1968 0.8493 0.0630 0.053 Uiso 1 1 calc R . . . .
C14 C 0.2090(2) 0.6455(2) 0.0757(2) 0.0386(4) Uani 1 1 d . . . . .
H14 H 0.1262 0.6543 0.0363 0.046 Uiso 1 1 calc R . . . .
C15 C 0.1549(2) 0.1966(2) 0.1621(2) 0.0360(4) Uani 1 1 d . . . . .
C16 C 0.8114(2) -0.1282(2) 0.3873(2) 0.0347(4) Uani 1 1 d . . . . .
loop_
_atom_site_aniso_label
_atom_site_aniso_U_11
_atom_site_aniso_U_22
_atom_site_aniso_U_33
_atom_site_aniso_U_23
_atom_site_aniso_U_13
_atom_site_aniso_U_12
S1 0.01924(19) 0.0253(2) 0.02381(19) -0.00061(14) -0.00656(14) -0.00986(15)
S2 0.0300(2) 0.0186(2) 0.0356(2) -0.00014(16) -0.01201(16) -0.00962(16)
F1 0.0631(8) 0.0634(9) 0.0573(8) -0.0330(7) -0.0084(6) -0.0252(7)
F2 0.0545(8) 0.0436(7) 0.0890(10) -0.0123(7) 0.0084(7) -0.0349(6)
F3 0.0427(7) 0.0264(6) 0.0935(10) -0.0014(6) -0.0216(7) -0.0060(5)
F4 0.0388(6) 0.0219(5) 0.0701(8) -0.0051(5) -0.0162(6) -0.0021(5)
F5 0.0620(8) 0.0467(8) 0.0550(8) 0.0236(6) -0.0024(6) -0.0008(6)
F6 0.0419(7) 0.0389(7) 0.0901(10) -0.0116(7) -0.0391(7) -0.0020(5)
O1 0.0224(5) 0.0321(6) 0.0241(5) -0.0021(5) -0.0053(4) -0.0138(5)
O2 0.0216(6) 0.0445(8) 0.0379(7) 0.0061(6) -0.0110(5) -0.0100(5)
O3 0.0326(6) 0.0369(7) 0.0242(6) -0.0002(5) -0.0067(5) -0.0193(5)
O4 0.0242(5) 0.0203(6) 0.0341(6) 0.0013(5) -0.0057(4) -0.0107(5)
O5 0.0555(8) 0.0268(7) 0.0341(7) -0.0058(5) 0.0020(6) -0.0157(6)
O6 0.0414(8) 0.0265(7) 0.0741(10) -0.0055(7) -0.0296(7) -0.0126(6)
C1 0.0243(7) 0.0303(9) 0.0224(7) 0.0035(6) -0.0068(6) -0.0142(7)
C2 0.0177(7) 0.0240(8) 0.0218(7) -0.0021(6) -0.0025(5) -0.0073(6)
C3 0.0248(8) 0.0217(8) 0.0460(10) 0.0000(7) -0.0168(7) -0.0088(7)
C4 0.0168(7) 0.0205(8) 0.0253(7) -0.0024(6) -0.0045(6) -0.0060(6)
C5 0.0206(7) 0.0202(8) 0.0267(7) -0.0030(6) -0.0021(6) -0.0096(6)
C6 0.0272(8) 0.0244(8) 0.0240(7) 0.0015(6) -0.0070(6) -0.0073(7)
C7 0.0259(8) 0.0287(9) 0.0244(7) -0.0040(6) -0.0085(6) -0.0090(7)
C8 0.0219(7) 0.0238(8) 0.0261(7) -0.0049(6) -0.0035(6) -0.0106(6)
C9 0.0177(7) 0.0210(8) 0.0247(7) -0.0022(6) -0.0028(5) -0.0076(6)
C10 0.0291(8) 0.0222(8) 0.0400(9) 0.0005(7) -0.0141(7) -0.0108(7)
C11 0.0212(7) 0.0245(8) 0.0224(7) 0.0006(6) -0.0030(6) -0.0096(6)
C12 0.0346(9) 0.0267(9) 0.0370(9) 0.0107(7) -0.0130(7) -0.0163(7)
C13 0.0477(11) 0.0363(11) 0.0596(13) 0.0264(10) -0.0317(10) -0.0210(9)
C14 0.0386(10) 0.0450(11) 0.0453(10) 0.0208(9) -0.0268(8) -0.0229(9)
C15 0.0318(9) 0.0314(10) 0.0486(11) -0.0095(8) -0.0058(8) -0.0158(8)
C16 0.0304(9) 0.0252(9) 0.0472(10) 0.0011(8) -0.0130(8) -0.0053(7)
loop_
_atom_type_symbol
_atom_type_description
_atom_type_scat_dispersion_real
_atom_type_scat_dispersion_imag
_atom_type_scat_source
C C 0.0181 0.0091 'International Tables Vol C Tables 4.2.6.8 and 6.1.1.4'
H H 0.0000 0.0000 'International Tables Vol C Tables 4.2.6.8 and 6.1.1.4'
F F 0.0727 0.0534 'International Tables Vol C Tables 4.2.6.8 and 6.1.1.4'
O O 0.0492 0.0322 'International Tables Vol C Tables 4.2.6.8 and 6.1.1.4'
S S 0.3331 0.5567 'International Tables Vol C Tables 4.2.6.8 and 6.1.1.4'
loop_
_exptl_crystal_face_index_h
_exptl_crystal_face_index_k
_exptl_crystal_face_index_l
_exptl_crystal_face_perp_dist
1 0 0 0.0496
-5 -5 -3 0.0425
5 3 3 0.0799
0 0 1 0.0557
-5 1 -3 0.0664
-2 -5 0 0.0374
0 1 0 0.0476
-1 0 0 0.0496
0 -2 -5 0.0524
loop_
_geom_angle_atom_site_label_1
_geom_angle_atom_site_label_2
_geom_angle_atom_site_label_3
_geom_angle
_geom_angle_site_symmetry_1
_geom_angle_site_symmetry_3
_geom_angle_publ_flag
O1 S1 C15 95.35(8) . . ?
O2 S1 O1 111.23(7) . . ?
O2 S1 O3 120.92(8) . . ?
O2 S1 C15 107.21(9) . . ?
O3 S1 O1 110.77(6) . . ?
O3 S1 C15 108.15(9) . . ?
O4 S2 C16 100.67(8) . . ?
O5 S2 O4 111.72(7) . . ?
O5 S2 C16 106.90(9) . . ?
O6 S2 O4 106.94(8) . . ?
O6 S2 O5 122.65(9) . . ?
O6 S2 C16 105.59(9) . . ?
C1 O1 S1 116.60(10) . . ?
C5 O4 S2 120.39(10) . . ?
C2 C1 O1 117.13(14) . . ?
C14 C1 O1 118.49(14) . . ?
C14 C1 C2 124.35(16) . . ?
C1 C2 C3 121.06(14) . . ?
C1 C2 C11 116.81(15) . . ?
C11 C2 C3 122.13(14) . . ?
C2 C3 H3A 108.6 . . ?
C2 C3 H3B 108.6 . . ?
C2 C3 C4 114.74(14) . . ?
H3A C3 H3B 107.6 . . ?
C4 C3 H3A 108.6 . . ?
C4 C3 H3B 108.6 . . ?
C5 C4 C3 121.17(14) . . ?
C5 C4 C9 116.84(14) . . ?
C9 C4 C3 121.97(14) . . ?
C4 C5 O4 117.74(13) . . ?
C6 C5 O4 117.76(14) . . ?
C6 C5 C4 124.34(15) . . ?
C5 C6 H6 121.1 . . ?
C5 C6 C7 117.88(15) . . ?
C7 C6 H6 121.1 . . ?
C6 C7 H7 120.0 . . ?
C8 C7 C6 120.06(15) . . ?
C8 C7 H7 120.0 . . ?
C7 C8 H8 119.4 . . ?
C7 C8 C9 121.26(15) . . ?
C9 C8 H8 119.4 . . ?
C4 C9 C10 120.42(14) . . ?
C8 C9 C4 119.60(15) . . ?
C8 C9 C10 119.96(14) . . ?
C9 C10 H10A 108.4 . . ?
C9 C10 H10B 108.4 . . ?
H10A C10 H10B 107.5 . . ?
C11 C10 C9 115.49(14) . . ?
C11 C10 H10A 108.4 . . ?
C11 C10 H10B 108.4 . . ?
C2 C11 C10 120.40(14) . . ?
C12 C11 C2 119.73(15) . . ?
C12 C11 C10 119.87(15) . . ?
C11 C12 H12 119.5 . . ?
C13 C12 C11 121.04(16) . . ?
C13 C12 H12 119.5 . . ?
C12 C13 H13 119.9 . . ?
C12 C13 C14 120.25(18) . . ?
C14 C13 H13 119.9 . . ?
C1 C14 C13 117.79(16) . . ?
C1 C14 H14 121.1 . . ?
C13 C14 H14 121.1 . . ?
F1 C15 S1 110.37(15) . . ?
F1 C15 F2 109.34(16) . . ?
F1 C15 F3 109.30(17) . . ?
F2 C15 S1 108.08(13) . . ?
F3 C15 S1 110.71(12) . . ?
F3 C15 F2 109.01(18) . . ?
F4 C16 S2 108.64(13) . . ?
F5 C16 S2 110.25(13) . . ?
F5 C16 F4 108.96(16) . . ?
F5 C16 F6 109.75(18) . . ?
F6 C16 S2 110.37(13) . . ?
F6 C16 F4 108.84(15) . . ?
loop_
_geom_bond_atom_site_label_1
_geom_bond_atom_site_label_2
_geom_bond_distance
_geom_bond_site_symmetry_2
_geom_bond_publ_flag
S1 O1 1.5742(11) . ?
S1 O2 1.4146(12) . ?
S1 O3 1.4167(12) . ?
S1 C15 1.8295(19) . ?
S2 O4 1.5685(12) . ?
S2 O5 1.4128(14) . ?
S2 O6 1.4106(13) . ?
S2 C16 1.8290(19) . ?
F1 C15 1.313(2) . ?
F2 C15 1.318(2) . ?
F3 C15 1.318(2) . ?
F4 C16 1.322(2) . ?
F5 C16 1.312(2) . ?
F6 C16 1.320(2) . ?
O1 C1 1.4364(19) . ?
O4 C5 1.4347(18) . ?
C1 C2 1.394(2) . ?
C1 C14 1.369(3) . ?
C2 C3 1.484(2) . ?
C2 C11 1.403(2) . ?
C3 H3A 0.9700 . ?
C3 H3B 0.9700 . ?
C3 C4 1.488(2) . ?
C4 C5 1.395(2) . ?
C4 C9 1.402(2) . ?
C5 C6 1.371(2) . ?
C6 H6 0.9300 . ?
C6 C7 1.393(2) . ?
C7 H7 0.9300 . ?
C7 C8 1.378(2) . ?
C8 H8 0.9300 . ?
C8 C9 1.402(2) . ?
C9 C10 1.488(2) . ?
C10 H10A 0.9700 . ?
C10 H10B 0.9700 . ?
C10 C11 1.487(2) . ?
C11 C12 1.398(2) . ?
C12 H12 0.9300 . ?
C12 C13 1.381(3) . ?
C13 H13 0.9300 . ?
C13 C14 1.391(3) . ?
C14 H14 0.9300 . ?
loop_
_geom_torsion_atom_site_label_1
_geom_torsion_atom_site_label_2
_geom_torsion_atom_site_label_3
_geom_torsion_atom_site_label_4
_geom_torsion
_geom_torsion_site_symmetry_1
_geom_torsion_site_symmetry_2
_geom_torsion_site_symmetry_3
_geom_torsion_site_symmetry_4
_geom_torsion_publ_flag
S1 O1 C1 C2 104.93(14) . . . . ?
S1 O1 C1 C14 -76.91(18) . . . . ?
S2 O4 C5 C4 86.98(15) . . . . ?
S2 O4 C5 C6 -97.55(15) . . . . ?
O1 S1 C15 F1 -61.80(14) . . . . ?
O1 S1 C15 F2 178.67(14) . . . . ?
O1 S1 C15 F3 59.34(15) . . . . ?
O1 C1 C2 C3 -4.3(2) . . . . ?
O1 C1 C2 C11 176.28(13) . . . . ?
O1 C1 C14 C13 -177.59(17) . . . . ?
O2 S1 O1 C1 86.23(12) . . . . ?
O2 S1 C15 F1 52.39(15) . . . . ?
O2 S1 C15 F2 -67.14(16) . . . . ?
O2 S1 C15 F3 173.53(14) . . . . ?
O3 S1 O1 C1 -51.25(13) . . . . ?
O3 S1 C15 F1 -175.72(12) . . . . ?
O3 S1 C15 F2 64.75(16) . . . . ?
O3 S1 C15 F3 -54.58(16) . . . . ?
O4 S2 C16 F4 172.85(12) . . . . ?
O4 S2 C16 F5 53.51(15) . . . . ?
O4 S2 C16 F6 -67.90(15) . . . . ?
O4 C5 C6 C7 -176.34(13) . . . . ?
O5 S2 O4 C5 -14.06(14) . . . . ?
O5 S2 C16 F4 -70.36(14) . . . . ?
O5 S2 C16 F5 170.31(13) . . . . ?
O5 S2 C16 F6 48.90(16) . . . . ?
O6 S2 O4 C5 -150.81(12) . . . . ?
O6 S2 C16 F4 61.73(15) . . . . ?
O6 S2 C16 F5 -57.61(16) . . . . ?
O6 S2 C16 F6 -179.02(14) . . . . ?
C1 C2 C3 C4 -164.56(15) . . . . ?
C1 C2 C11 C10 -178.65(14) . . . . ?
C1 C2 C11 C12 1.6(2) . . . . ?
C2 C1 C14 C13 0.4(3) . . . . ?
C2 C3 C4 C5 164.55(14) . . . . ?
C2 C3 C4 C9 -13.9(2) . . . . ?
C2 C11 C12 C13 -0.2(3) . . . . ?
C3 C2 C11 C10 1.9(2) . . . . ?
C3 C2 C11 C12 -177.87(16) . . . . ?
C3 C4 C5 O4 -1.9(2) . . . . ?
C3 C4 C5 C6 -177.03(15) . . . . ?
C3 C4 C9 C8 177.48(15) . . . . ?
C3 C4 C9 C10 -3.8(2) . . . . ?
C4 C5 C6 C7 -1.2(2) . . . . ?
C4 C9 C10 C11 20.5(2) . . . . ?
C5 C4 C9 C8 -1.1(2) . . . . ?
C5 C4 C9 C10 177.70(14) . . . . ?
C5 C6 C7 C8 0.4(2) . . . . ?
C6 C7 C8 C9 0.0(2) . . . . ?
C7 C8 C9 C4 0.4(2) . . . . ?
C7 C8 C9 C10 -178.41(15) . . . . ?
C8 C9 C10 C11 -160.76(14) . . . . ?
C9 C4 C5 O4 176.67(13) . . . . ?
C9 C4 C5 C6 1.5(2) . . . . ?
C9 C10 C11 C2 -19.6(2) . . . . ?
C9 C10 C11 C12 160.20(15) . . . . ?
C10 C11 C12 C13 -179.93(18) . . . . ?
C11 C2 C3 C4 14.9(2) . . . . ?
C11 C12 C13 C14 -1.2(3) . . . . ?
C12 C13 C14 C1 1.1(3) . . . . ?
C14 C1 C2 C3 177.70(18) . . . . ?
C14 C1 C2 C11 -1.8(2) . . . . ?
C15 S1 O1 C1 -162.96(12) . . . . ?
C16 S2 O4 C5 99.11(12) . . . . ?
loop_
_exptl_oxdiff_crystal_face_indexfrac_h
_exptl_oxdiff_crystal_face_indexfrac_k
_exptl_oxdiff_crystal_face_indexfrac_l
_exptl_oxdiff_crystal_face_x
_exptl_oxdiff_crystal_face_y
_exptl_oxdiff_crystal_face_z
0.9987 -0.0021 0.0009 0.0320 0.1623 0.0566
-4.9960 -4.9892 -3.0040 0.3742 -0.7875 0.5042
4.9944 2.9894 3.0037 -0.3460 0.7920 -0.1796
-0.0006 0.0001 0.9996 -0.1545 -0.0043 0.0080
-4.9912 1.0101 -3.0030 0.2896 -0.8012 -0.4696
-2.0015 -4.9953 -0.0026 0.0065 -0.3132 0.6982
0.0008 0.9999 0.0002 -0.0141 -0.0023 -0.1623
-0.9987 0.0021 -0.0009 -0.0320 -0.1623 -0.0566
0.0013 -2.0000 -4.9983 0.8008 0.0259 0.2844
