#------------------------------------------------------------------------------
#$Date: 2021-04-28 12:39:26 +0300 (Wed, 28 Apr 2021) $
#$Revision: 264640 $
#$URL: file:///home/coder/svn-repositories/cod/cif/1/56/22/1562213.cif $
#------------------------------------------------------------------------------
#
# This file is available in the Crystallography Open Database (COD),
# http://www.crystallography.net/
#
# All data on this site have been placed in the public domain by the
# contributors.
#
data_1562213
loop_
_publ_author_name
'Zhang, Yingjie'
'Bhadbhade, Mohan'
'Scales, Nicholas'
'Karatchevtseva, Inna'
'Price, Jason R.'
'Lu, Kim'
'Lumpkin, Gregory R.'
_publ_section_title
;
 Dysprosium complexes with mono-/di-carboxylate ligands---From simple
 dimers to 2D and 3D frameworks
;
_journal_name_full               'Journal of Solid State Chemistry'
_journal_page_first              1
_journal_page_last               8
_journal_paper_doi               10.1016/j.jssc.2014.07.007
_journal_volume                  219
_journal_year                    2014
_chemical_formula_sum            'C3 Dy O11'
_chemical_formula_weight         374.53
_space_group_crystal_system      monoclinic
_space_group_IT_number           14
_space_group_name_Hall           '-P 2ybc'
_space_group_name_H-M_alt        'P 1 21/c 1'
_atom_sites_solution_hydrogens   .
_audit_creation_method           SHELXL-2013
_cell_angle_alpha                90
_cell_angle_beta                 114.29(3)
_cell_angle_gamma                90
_cell_formula_units_Z            4
_cell_length_a                   10.960(2)
_cell_length_b                   9.5330(19)
_cell_length_c                   9.974(2)
_cell_measurement_reflns_used    9980
_cell_measurement_temperature    100(2)
_cell_measurement_theta_max      22.5
_cell_measurement_theta_min      2.5
_cell_volume                     949.8(4)
_computing_cell_refinement       'XDS (Kabsch, 1993)'
_computing_data_collection       'BLU-ICE (McPhillips et al., 2002)'
_computing_data_reduction        'XDS (Kabsch, 1993)'
_computing_structure_refinement  'SHELXL-2013 (Sheldrick, 2013)'
_computing_structure_solution
;
SHELXS97 (Sheldrick, 2008) and OLEX-2 (Dolomanov <i>et al</i>., 2009)
;
_diffrn_ambient_temperature      100(2)
_diffrn_detector_type            'ADSC Quantum 210r'
_diffrn_measured_fraction_theta_full 0.937
_diffrn_measured_fraction_theta_max 0.931
_diffrn_measurement_device_type  '3-BM1 Australian Synchrotron'
_diffrn_measurement_method       'Phi Scan'
_diffrn_radiation_monochromator  Si<111>
_diffrn_radiation_type           Synchrotron
_diffrn_radiation_wavelength     0.71080
_diffrn_reflns_av_R_equivalents  0.0444
_diffrn_reflns_av_unetI/netI     0.0245
_diffrn_reflns_Laue_measured_fraction_full 0.937
_diffrn_reflns_Laue_measured_fraction_max 0.931
_diffrn_reflns_limit_h_max       13
_diffrn_reflns_limit_h_min       -13
_diffrn_reflns_limit_k_max       11
_diffrn_reflns_limit_k_min       -11
_diffrn_reflns_limit_l_max       12
_diffrn_reflns_limit_l_min       -12
_diffrn_reflns_number            13359
_diffrn_reflns_point_group_measured_fraction_full 0.937
_diffrn_reflns_point_group_measured_fraction_max 0.931
_diffrn_reflns_theta_full        25.244
_diffrn_reflns_theta_max         26.373
_diffrn_reflns_theta_min         2.039
_diffrn_source                   'Synchrotron BM'
_diffrn_standards_decay_%        0
_diffrn_standards_interval_count 0
_diffrn_standards_interval_time  0
_diffrn_standards_number         0
_exptl_absorpt_coefficient_mu    7.914
_exptl_absorpt_correction_type   none
_exptl_crystal_colour            colourless
_exptl_crystal_density_diffrn    2.619
_exptl_crystal_description       Plates
_exptl_crystal_F_000             688
_exptl_crystal_size_max          0.015
_exptl_crystal_size_mid          0.010
_exptl_crystal_size_min          0.010
_refine_diff_density_max         1.466
_refine_diff_density_min         -0.921
_refine_diff_density_rms         0.213
_refine_ls_extinction_coef       0.0098(9)
_refine_ls_extinction_expression Fc^*^=kFc[1+0.001xFc^2^\l^3^/sin(2\q)]^-1/4^
_refine_ls_extinction_method     SHELXL
_refine_ls_goodness_of_fit_ref   1.358
_refine_ls_hydrogen_treatment    undef
_refine_ls_matrix_type           full
_refine_ls_number_parameters     155
_refine_ls_number_reflns         1809
_refine_ls_number_restraints     0
_refine_ls_restrained_S_all      1.358
_refine_ls_R_factor_all          0.0300
_refine_ls_R_factor_gt           0.0289
_refine_ls_shift/su_max          0.000
_refine_ls_shift/su_mean         0.000
_refine_ls_structure_factor_coef Fsqd
_refine_ls_weighting_details
'w=1/[\s^2^(Fo^2^)+(0.0389P)^2^+2.0000P] where P=(Fo^2^+2Fc^2^)/3'
_refine_ls_weighting_scheme      calc
_refine_ls_wR_factor_gt          0.0765
_refine_ls_wR_factor_ref         0.0771
_reflns_Friedel_coverage         0.000
_reflns_Friedel_fraction_full    .
_reflns_Friedel_fraction_max     .
_reflns_number_gt                1722
_reflns_number_total             1809
_reflns_threshold_expression     'I > 2\s(I)'
_cod_data_source_file            mmc4.cif
_cod_data_source_block           p21onc
_cod_original_cell_volume        949.9(4)
_cod_original_sg_symbol_H-M      'P 21/c'
_cod_database_code               1562213
_shelx_space_group_comment
;
The symmetry employed for this shelxl refinement is uniquely defined
by the following loop, which should always be used as a source of
symmetry information in preference to the above space-group names.
They are only intended as comments.
;
_shelxl_version_number           2013-3
_shelx_res_file
;
TITL p21onc in P2(1)/c
CELL 0.71080 10.96 9.533 9.974 90 114.287 90
ZERR 4 0.0022 0.0019 0.002 0 0.03 0
LATT 1
SYMM -X,0.5+Y,0.5-Z
SFAC C  O  Dy
UNIT 12  44  4
L.S. 10
SHEL 999 0.8
ACTA
BOND
FMAP 2
PLAN 3
WGHT    0.038879    2.000000
EXTI    0.009784
FVAR       0.12861
MOLE 2
DY1   3    0.309690    0.454097    0.168675    11.00000    0.00864    0.01469 =
         0.01054   -0.00003    0.00094   -0.00037
O1    2    0.109290    0.392199   -0.036075    11.00000    0.01302    0.02209 =
         0.01996   -0.00346    0.00413    0.00155
O2    2   -0.109243    0.427606   -0.165016    11.00000    0.01190    0.02003 =
         0.01946   -0.00194   -0.00010    0.00132
O3    2    0.372892    0.603637    0.377084    11.00000    0.01718    0.01947 =
         0.01613   -0.00029    0.00079    0.00588
O4    2    0.511838    0.645342    0.611645    11.00000    0.01609    0.01966 =
         0.01636   -0.00066    0.00411    0.00361
O5    2    0.336726    0.436794   -0.069447    11.00000    0.01915    0.03209 =
         0.02285   -0.00532    0.00992   -0.00773
O6    2    0.471846    0.476237   -0.183402    11.00000    0.01780    0.02045 =
         0.01688    0.00031    0.00687   -0.00168
O1W   2    0.332467    0.214740    0.114932    11.00000    0.04552    0.02367 =
         0.01749   -0.00073    0.00054    0.00872
O2W   2    0.204112    0.315664    0.297106    11.00000    0.01731    0.02957 =
         0.02885    0.01051    0.00516    0.00070
O3W   2    0.289166    0.685799    0.072315    11.00000    0.01682    0.02129 =
         0.03408    0.00926    0.00425   -0.00113
C1    1    0.000246    0.447449   -0.058030    11.00000    0.01727    0.01851 =
         0.01665    0.00248    0.00538   -0.00372
C2    1    0.466817    0.572519    0.496994    11.00000    0.01291    0.01576 =
         0.01741   -0.00002    0.00487    0.00026
C3    1    0.445175    0.475720   -0.073401    11.00000    0.02170    0.01811 =
         0.02225    0.00077    0.01111   -0.00045
O4W   2    0.057950    0.710938    0.376152    10.50000    0.02917    0.09349 =
         0.06022   -0.04672    0.00408    0.00084
O5W   2    0.089445    1.018332    0.066536    10.50000    0.05793    0.10985 =
         0.13252   -0.00250   -0.05032    0.03685
O6W   2    0.077214    0.820692    0.289525    10.50000    0.01306    0.03951 =
         0.05239   -0.03128    0.00220    0.00672
O7W   2    0.158926    0.901409    0.163410    10.50000    0.03745    0.05722 =
         0.12889   -0.05321   -0.01817    0.01017
HKLF 4

REM  p21onc in P2(1)/c
REM R1 =  0.0289 for    1722 Fo > 4sig(Fo)  and  0.0300 for all    1809 data
REM    155 parameters refined using      0 restraints

END

WGHT      0.0396      4.4111

REM Highest difference peak  1.466,  deepest hole -0.921,  1-sigma level  0.213
Q1    1   0.1148  1.0453 -0.0348  11.00000  0.05    1.47
Q2    1   0.3282  0.3796  0.1768  11.00000  0.05    1.34
Q3    1   0.2950  0.5614  0.1637  11.00000  0.05    1.30
;
_shelx_res_checksum              53573
_shelx_hkl_file
;
  -1   0   0  222.30   11.91
  -1   0   0  236.40   12.66
   2   0   0  281.20   15.07
  -2   0   0  244.50   13.11
   3   0   0  517.60   27.74
  -3   0   0  568.90   30.47
   4   0   0    1.01    0.24
   4   0   0    1.08    0.23
  -4   0   0    0.75    0.25
  -4   0   0    0.60    0.21
  -5   0   0 1067.00   57.15
   6   0   0  337.70   18.14
   6   0   0  327.90   17.59
  -6   0   0  318.70   17.11
  -6   0   0  311.10   16.70
   7   0   0   43.57    2.46
   7   0   0   36.85    2.06
  -7   0   0   42.19    2.36
  -7   0   0   38.44    2.16
   8   0   0  307.80   16.56
   8   0   0  337.20   18.12
   9   0   0   52.78    2.99
   9   0   0   56.87    3.16
  -9   0   0   49.06    2.77
  -9   0   0   50.15    2.82
  10   0   0  215.00   11.62
  10   0   0  209.50   11.30
 -10   0   0  195.60   10.58
 -10   0   0  229.70   12.37
 -10   0   0  192.50   10.39
  11   0   0   99.35    5.46
  11   0   0  106.90    5.84
 -11   0   0   82.16    4.49
 -11   0   0   90.05    4.94
 -11   0   0   97.18    5.36
  13   0   0  153.90    8.45
  13   0   0  146.40    7.98
 -13   0   0  124.10    6.76
 -13   0   0  125.30    6.79
  14   0   0   38.42    2.78
  14   0   0   39.71    2.43
 -14   0   0   25.12    1.52
 -14   0   0   31.06    1.94
 -13   0  -1   -0.37    0.50
 -13   0  -1   -0.47    0.71
  13   0   1    0.98    1.05
  13   0   1   -0.65    1.43
 -12   0  -1    0.06    0.60
 -12   0  -1   -0.17    0.46
  12   0   1    1.00    0.90
  12   0   1    0.12    1.22
 -11   0  -1    0.16    0.62
 -11   0  -1   -0.26    0.42
 -11   0  -1    0.09    0.78
  11   0   1   -0.85    0.59
  11   0   1    0.01    0.81
 -10   0  -1   -0.21    0.55
 -10   0  -1    0.66    0.37
 -10   0  -1    0.06    0.53
  10   0   1   -0.26    0.71
  10   0   1    0.40    0.59
  -9   0  -1    0.34    0.55
  -9   0  -1    0.04    0.58
   9   0   1    0.08    0.44
   9   0   1    0.01    0.60
  -8   0  -1    0.52    0.51
  -8   0  -1   -0.13    0.47
   8   0   1    0.22    0.43
   8   0   1    0.12    0.46
  -7   0  -1   -0.09    0.43
  -7   0  -1   -0.36    0.40
   7   0   1   -0.67    0.55
   7   0   1   -0.19    0.41
  -6   0  -1   -0.63    0.39
  -6   0  -1    0.18    0.38
   6   0   1   -0.32    0.40
   6   0   1    0.40    0.28
  -5   0  -1    0.28    0.28
  -5   0  -1    0.11    0.31
   5   0   1   -0.09    0.36
   5   0   1    0.33    0.28
  -4   0  -1   -0.09    0.24
  -4   0  -1    0.03    0.25
   4   0   1   -0.11    0.25
   4   0   1    0.00    0.31
  -3   0  -1    0.04    0.20
  -3   0  -1   -0.09    0.20
   3   0   1    0.07    0.24
   3   0   1    0.00    0.17
  -2   0  -1    0.16    0.16
  -2   0  -1   -0.05    0.19
   2   0   1   -0.04    0.16
   2   0   1    0.24    0.20
  -1   0  -1    0.02    0.15
  -1   0  -1    0.14    0.11
   1   0   1    0.05    0.13
   1   0   1   -0.04    0.13
   0   0  -1    0.04    0.07
   0   0  -1    0.04    0.07
   0   0   1    0.03    0.06
   0   0   1    0.09    0.08
  -1   0   1    0.05    0.02
  -1   0   1    0.06    0.02
   2   0  -1    0.03    0.07
   2   0  -1    0.11    0.10
  -2   0   1    0.15    0.09
  -2   0   1   -0.02    0.08
   3   0  -1    0.03    0.15
   3   0  -1    0.02    0.12
  -3   0   1   -0.06    0.13
  -3   0   1    0.10    0.13
   4   0  -1   -0.03    0.17
   4   0  -1    0.09    0.21
  -4   0   1    0.06    0.16
  -4   0   1   -0.11    0.21
   5   0  -1   -0.03    0.20
   5   0  -1    0.06    0.28
  -5   0   1    0.17    0.23
  -5   0   1   -0.02    0.20
   6   0  -1   -0.18    0.20
   6   0  -1   -0.18    0.30
  -6   0   1    0.01    0.23
  -6   0   1    0.17    0.27
   7   0  -1   -0.21    0.38
   7   0  -1   -0.02    0.31
  -7   0   1    0.30    0.35
  -7   0   1    0.50    0.34
   8   0  -1   -0.07    0.37
   8   0  -1    0.54    0.54
  -8   0   1   -0.46    0.43
  -8   0   1   -0.05    0.41
   9   0  -1   -0.97    0.50
   9   0  -1   -0.39    0.46
  -9   0   1   -0.10    0.51
  -9   0   1   -0.11    0.48
  10   0  -1    0.47    0.57
  10   0  -1    0.12    0.65
 -10   0   1   -0.46    0.61
 -10   0   1    0.01    0.54
 -10   0   1    0.00    0.32
  11   0  -1    0.08    0.65
  11   0  -1   -0.44    0.65
 -11   0   1   -0.29    0.70
 -11   0   1    0.18    0.40
 -11   0   1   -0.27    0.52
  12   0  -1   -0.36    0.75
  12   0  -1   -0.24    1.00
 -12   0   1   -0.32    0.65
 -12   0   1    0.76    0.45
  13   0  -1    0.01    0.76
  13   0  -1    0.15    1.21
 -13   0   1   -0.03    0.52
 -13   0   1    0.27    0.61
  14   0  -1   -0.09    1.51
  14   0  -1    0.69    1.04
 -14   0   1   -0.05    0.51
 -14   0   1   -0.04    0.82
 -12   0  -2  112.70    6.11
 -12   0  -2  107.70    5.87
  12   0   2  120.60    6.60
  12   0   2  122.00    6.78
 -11   0  -2    1.81    0.76
 -11   0  -2    0.00    0.57
 -11   0  -2    0.67    0.43
  11   0   2    1.51    0.75
  11   0   2    0.66    0.86
 -10   0  -2  184.00    9.96
 -10   0  -2  199.60   10.78
 -10   0  -2  218.10   11.74
  10   0   2  225.90   12.18
  10   0   2  214.80   11.62
  -9   0  -2  193.60   10.47
  -9   0  -2  197.20   10.65
   9   0   2  203.00   10.95
   9   0   2  213.60   11.54
   8   0   2   32.05    1.86
   8   0   2   28.20    1.72
  -7   0  -2  214.40   11.56
  -7   0  -2  238.90   12.88
   7   0   2  232.90   12.56
   7   0   2  217.80   11.74
  -6   0  -2  107.10    5.83
  -6   0  -2   95.60    5.22
   6   0   2  108.50    5.89
   6   0   2  113.90    6.21
  -5   0  -2  299.00   16.06
  -5   0  -2  267.20   14.36
   5   0   2  270.10   14.54
   5   0   2  297.50   15.97
  -4   0  -2  640.30   34.32
  -4   0  -2  628.20   33.65
   3   0   2   49.58    2.72
   3   0   2   43.05    2.36
  -2   0  -2  718.10   38.46
   2   0   2  700.20   37.50
   1   0   2  450.60   24.14
   0   0  -2  101.40    5.45
   0   0  -2   99.40    5.35
   0   0   2   99.45    5.35
   0   0   2  108.90    5.85
   5   0  -2    3.52    0.34
   5   0  -2    3.42    0.28
  -5   0   2    2.78    0.25
  -5   0   2    2.48    0.26
   6   0  -2  592.30   31.74
   6   0  -2  612.90   32.83
   7   0  -2  130.80    7.08
   7   0  -2  138.90    7.47
  -7   0   2  129.10    6.97
  -7   0   2  133.10    7.17
   8   0  -2  296.40   15.91
   8   0  -2  292.70   15.75
  -8   0   2  259.10   13.92
  -8   0   2  295.10   15.85
   9   0  -2  281.90   15.19
   9   0  -2  291.70   15.67
  -9   0   2  262.20   14.11
  -9   0   2  264.60   14.23
  10   0  -2    7.74    0.76
  10   0  -2    5.49    0.74
 -10   0   2    8.11    0.79
 -10   0   2    5.57    0.68
  11   0  -2  178.10    9.67
  11   0  -2  186.90   10.11
 -11   0   2  182.20    9.84
 -11   0   2  167.20    9.08
 -11   0   2  177.20    9.58
  12   0  -2   83.14    4.67
  12   0  -2   78.74    4.35
 -12   0   2   75.17    4.15
 -12   0   2   66.88    3.68
  13   0  -2   23.70    1.86
  13   0  -2   25.55    1.67
 -13   0   2   27.12    1.61
 -13   0   2   25.79    1.57
  14   0  -2  151.00    8.23
  14   0  -2  144.90    8.02
 -14   0   2  129.70    7.05
 -14   0   2  126.10    6.82
  15   0  -2   19.01    1.61
  15   0  -2   17.51    1.89
 -15   0   2   14.13    1.30
 -15   0   2   10.61    0.86
 -12   0  -3    0.26    0.48
 -12   0  -3    0.33    0.64
  12   0   3   -0.23    0.87
 -11   0  -3   -0.04    0.61
 -11   0  -3   -0.32    0.45
  11   0   3    0.86    0.84
  11   0   3    0.40    1.01
 -10   0  -3   -0.84    0.52
 -10   0  -3   -0.23    0.39
 -10   0  -3    0.16    0.80
  10   0   3   -0.24    0.59
  10   0   3   -0.67    0.94
  -9   0  -3   -0.36    0.58
  -9   0  -3    0.18    0.57
  -9   0  -3    0.44    0.38
   9   0   3    0.35    0.63
   9   0   3    0.18    0.71
  -8   0  -3    0.53    0.51
  -8   0  -3    0.28    0.53
   8   0   3   -0.32    0.54
   8   0   3    0.55    0.59
  -7   0  -3    0.17    0.45
  -7   0  -3   -0.15    0.45
   7   0   3   -0.20    0.49
   7   0   3    0.05    0.43
  -6   0  -3    0.24    0.45
  -6   0  -3   -0.50    0.39
   6   0   3   -0.17    0.39
   6   0   3    0.56    0.45
  -5   0  -3   -0.08    0.37
  -5   0  -3    0.23    0.39
   5   0   3   -0.19    0.34
   5   0   3   -0.38    0.48
  -4   0  -3   -0.17    0.31
  -4   0  -3    0.05    0.32
   4   0   3   -0.09    0.32
   4   0   3   -0.18    0.35
  -3   0  -3   -0.20    0.29
  -3   0  -3    0.07    0.29
   3   0   3    0.20    0.24
   3   0   3    0.02    0.35
  -2   0  -3    0.06    0.25
  -2   0  -3   -0.28    0.26
   2   0   3   -0.17    0.26
   2   0   3   -0.18    0.24
  -1   0  -3    0.05    0.17
  -1   0  -3    0.12    0.22
   1   0   3   -0.04    0.20
   1   0   3   -0.03    0.22
   0   0  -3    0.06    0.18
   0   0  -3   -0.03    0.17
   0   0   3    0.07    0.15
   0   0   3   -0.06    0.17
   1   0  -3   -0.05    0.13
   1   0  -3   -0.03    0.11
  -1   0   3    0.05    0.13
  -1   0   3    0.04    0.11
   2   0  -3    0.32    0.05
   2   0  -3    0.11    0.06
  -2   0   3   -0.04    0.09
  -2   0   3    0.13    0.07
   4   0  -3    0.15    0.13
   4   0  -3    0.17    0.10
  -4   0   3    0.10    0.09
  -4   0   3    0.29    0.10
   5   0  -3   -0.21    0.18
   5   0  -3   -0.03    0.15
  -5   0   3    0.03    0.16
  -5   0   3    0.01    0.15
   6   0  -3    0.08    0.19
   6   0  -3   -0.17    0.24
  -6   0   3    0.19    0.21
  -6   0   3    0.03    0.20
   7   0  -3    0.21    0.32
   7   0  -3   -0.08    0.22
  -7   0   3    0.06    0.27
  -7   0   3   -0.46    0.26
   8   0  -3    0.04    0.42
   8   0  -3    0.02    0.29
  -8   0   3   -0.07    0.31
  -8   0   3    0.27    0.33
   9   0  -3    0.24    0.49
   9   0  -3    0.02    0.34
  -9   0   3   -0.02    0.38
  -9   0   3    0.03    0.24
  -9   0   3   -0.08    0.37
 -10   0   3   -0.37    0.58
 -10   0   3   -0.58    0.53
 -10   0   3   -0.02    0.37
  11   0  -3    0.25    0.56
  11   0  -3   -0.92    0.84
 -11   0   3    0.23    0.54
 -11   0   3    0.29    0.41
  12   0  -3    0.64    0.67
  12   0  -3   -0.37    0.94
 -12   0   3    0.49    0.40
 -12   0   3    0.31    0.59
  13   0  -3   -0.72    1.10
  13   0  -3    0.26    0.72
 -13   0   3   -0.47    0.68
 -13   0   3   -0.28    0.49
  14   0  -3    0.02    0.94
  14   0  -3    2.23    1.34
 -14   0   3   -0.02    0.75
 -14   0   3    0.20    0.57
  15   0  -3   -0.39    1.08
  15   0  -3   -0.93    1.56
 -15   0   3   -0.98    0.89
 -15   0   3   -0.11    0.51
 -11   0  -4  100.80    5.47
 -11   0  -4   87.81    4.82
  11   0   4  106.50    5.98
  11   0   4  104.30    5.73
  10   0   4   21.25    1.45
  10   0   4   19.44    1.55
  -9   0  -4  127.90    6.97
  -9   0  -4  129.10    7.01
   9   0   4  139.70    7.63
   9   0   4  147.70    8.00
  -8   0  -4   54.47    3.04
  -8   0  -4   46.04    2.64
   8   0   4   52.69    2.95
   8   0   4   61.05    3.43
  -7   0  -4   76.45    4.21
  -7   0  -4   92.65    5.08
   7   0   4   91.56    5.01
   7   0   4   86.26    4.77
  -6   0  -4  402.30   21.60
  -6   0  -4  412.20   22.13
   6   0   4  430.30   23.10
   6   0   4  412.60   22.18
   5   0   4    2.01    0.50
   5   0   4    3.07    0.53
  -4   0  -4  358.30   19.24
   4   0   4  404.00   21.68
  -3   0  -4  265.50   14.27
  -3   0  -4  258.60   13.90
   3   0   4  269.10   14.45
   3   0   4  264.80   14.24
  -2   0  -4   34.81    1.94
  -2   0  -4   40.47    2.24
   2   0   4   37.35    2.07
   2   0   4   35.84    2.01
   1   0   4  815.60   43.68
   0   0  -4  322.20   17.28
   0   0  -4  299.30   16.05
   0   0   4  323.80   17.36
   0   0   4  301.90   16.20
   1   0  -4  136.40    7.33
   1   0  -4  128.60    6.92
  -1   0   4  119.40    6.42
  -1   0   4  125.30    6.74
   2   0  -4  633.50   33.98
  -2   0   4  554.20   29.73
   6   0  -4   64.79    3.50
   6   0  -4   61.92    3.36
  -6   0   4   71.23    3.84
  -6   0   4   68.76    3.72
   7   0  -4  264.00   14.19
   7   0  -4  253.90   13.62
  -7   0   4  258.10   13.86
  -7   0   4  302.50   16.24
  -7   0   4  257.50   13.82
   8   0  -4   45.90    2.51
   8   0  -4   44.89    2.50
  -8   0   4   36.53    2.00
  -8   0   4   41.71    2.30
  -9   0   4  188.30   10.14
  -9   0   4  203.00   10.92
  10   0  -4  276.00   14.88
  10   0  -4  280.30   15.08
 -10   0   4  265.80   14.28
 -10   0   4  264.40   14.22
  11   0  -4    0.49    0.83
  11   0  -4    1.01    0.59
 -11   0   4    1.27    0.53
  12   0  -4  116.10    6.39
  12   0  -4  121.80    6.63
 -12   0   4  119.40    6.50
 -12   0   4  113.30    6.15
  13   0  -4   68.03    3.91
  13   0  -4   70.63    3.93
 -13   0   4   60.07    3.32
 -13   0   4   69.72    3.87
  14   0  -4   54.37    3.13
  14   0  -4   52.43    3.29
 -14   0   4   53.91    3.04
 -14   0   4   53.24    2.97
  15   0  -4  173.30    9.53
  15   0  -4  184.60   10.01
 -15   0   4  147.90    8.00
 -15   0   4  155.30    8.42
  16   0  -4    2.06    2.03
  16   0  -4    5.46    1.50
 -16   0   4    3.04    1.03
 -16   0   4    2.69    0.76
 -10   0  -5   -0.16    0.45
 -10   0  -5    0.39    0.62
  10   0   5    1.07    1.08
  10   0   5   -0.63    0.73
  -9   0  -5   -0.16    0.82
  -9   0  -5    0.27    0.53
  -9   0  -5   -0.06    0.42
   9   0   5    0.05    0.79
   9   0   5    0.50    0.88
  -8   0  -5   -0.41    0.39
  -8   0  -5   -0.84    0.74
  -8   0  -5   -0.21    0.60
   8   0   5    0.30    0.70
   8   0   5    1.20    0.91
  -7   0  -5    0.34    0.55
  -7   0  -5    0.25    0.52
  -7   0  -5    0.00    0.35
   7   0   5    0.26    0.61
   7   0   5   -0.42    0.64
  -6   0  -5   -0.41    0.54
  -6   0  -5    0.43    0.47
   6   0   5   -0.26    0.55
   6   0   5   -0.02    0.58
  -5   0  -5    0.26    0.47
  -5   0  -5   -0.49    0.44
   5   0   5   -0.08    0.48
   5   0   5    0.07    0.57
  -4   0  -5    0.23    0.47
  -4   0  -5   -0.18    0.37
   4   0   5    0.03    0.39
   4   0   5   -0.14    0.47
  -3   0  -5    0.05    0.38
  -3   0  -5    0.02    0.37
   3   0   5    0.39    0.39
   3   0   5    0.71    0.55
  -2   0  -5    0.02    0.38
  -2   0  -5    0.03    0.31
   2   0   5    0.36    0.37
   2   0   5    0.01    0.34
  -1   0  -5   -0.12    0.31
  -1   0  -5   -0.08    0.31
   1   0   5    0.33    0.28
   1   0   5   -0.24    0.34
   0   0  -5    0.15    0.25
   0   0  -5    0.38    0.27
   0   0   5    0.01    0.30
   0   0   5    0.00    0.24
   1   0  -5    0.21    0.22
   1   0  -5    0.22    0.22
  -1   0   5   -0.11    0.21
  -1   0   5    0.02    0.23
  -2   0   5    0.01    0.20
  -2   0   5   -0.23    0.15
   3   0  -5    0.18    0.08
   3   0  -5    0.10    0.10
  -3   0   5    0.10    0.11
  -3   0   5    0.06    0.17
   7   0  -5   -0.10    0.18
   7   0  -5    0.17    0.29
  -7   0   5    0.09    0.15
  -7   0   5    0.10    0.12
   8   0  -5    0.01    0.26
   8   0  -5    0.43    0.43
  -8   0   5   -0.17    0.24
  -8   0   5    0.05    0.19
   9   0  -5    0.07    0.36
   9   0  -5   -0.16    0.50
  -9   0   5    0.33    0.23
  -9   0   5    0.10    0.35
  10   0  -5    0.05    0.42
  10   0  -5    0.48    0.63
 -10   0   5   -0.03    0.28
 -10   0   5    0.21    0.37
  11   0  -5    0.64    0.52
  11   0  -5   -0.28    0.75
 -11   0   5   -0.26    0.35
 -11   0   5   -0.17    0.47
  12   0  -5   -0.05    0.90
  12   0  -5    0.32    0.66
 -12   0   5   -0.68    0.57
  13   0  -5   -0.36    0.75
  13   0  -5    0.85    1.07
 -13   0   5    0.21    0.50
 -13   0   5    0.57    0.59
  14   0  -5   -0.85    0.86
  14   0  -5    0.41    1.25
 -14   0   5   -0.11    0.62
 -14   0   5    0.31    0.54
  15   0  -5    0.52    1.05
  15   0  -5   -0.87    1.71
 -15   0   5   -0.14    0.74
 -15   0   5   -0.20    0.60
 -16   0   5    2.08    1.12
 -16   0   5    0.20    0.74
  -8   0  -6  180.80    9.76
  -8   0  -6  175.30    9.45
   8   0   6  198.60   10.73
   8   0   6  198.70   10.78
  -7   0  -6   44.47    2.51
  -7   0  -6   48.90    2.71
   7   0   6   43.22    2.51
   7   0   6   48.08    2.82
  -6   0  -6   78.26    4.32
  -6   0  -6   71.02    3.92
  -6   0  -6   62.08    3.41
   6   0   6   78.46    4.33
   6   0   6   84.03    4.67
  -5   0  -6  228.50   12.32
  -5   0  -6  245.80   13.22
  -5   0  -6  242.70   13.07
   5   0   6  263.50   14.22
   5   0   6  271.20   14.61
   4   0   6    0.42    0.61
   4   0   6    1.36    0.51
  -3   0  -6  184.90    9.97
  -3   0  -6  178.70    9.66
   3   0   6  196.10   10.58
   3   0   6  189.60   10.26
  -2   0  -6   91.38    4.99
  -2   0  -6  100.30    5.45
   2   0   6   92.91    5.05
   2   0   6   98.68    5.41
  -1   0  -6   26.53    1.53
  -1   0  -6   30.60    1.75
   1   0   6   27.02    1.59
   1   0   6   30.13    1.71
   0   0  -6  371.00   19.91
   0   0  -6  391.80   21.02
   0   0   6  406.70   21.81
   0   0   6  393.40   21.11
   1   0  -6   60.15    3.28
   1   0  -6   65.79    3.58
   1   0  -6   66.01    3.58
  -1   0   6   60.44    3.29
  -1   0   6   64.54    3.52
   2   0  -6  335.50   17.99
   2   0  -6  307.40   16.49
  -2   0   6  297.00   15.95
  -2   0   6  332.50   17.84
   3   0  -6  143.00    7.69
   3   0  -6  159.00    8.55
  -3   0   6  152.20    8.19
  -3   0   6  146.80    7.89
   9   0  -6   23.64    1.34
   9   0  -6   21.69    1.29
  -9   0   6   19.21    1.07
  -9   0   6   21.73    1.21
  10   0  -6  131.00    7.12
  10   0  -6  147.40    7.96
 -10   0   6  130.40    7.04
 -10   0   6  141.90    7.64
  11   0  -6  131.30    7.12
  11   0  -6  139.00    7.58
 -11   0   6  113.00    6.10
 -11   0   6  122.80    6.64
  12   0  -6   41.98    2.42
  12   0  -6   41.88    2.56
 -12   0   6   44.13    2.46
 -12   0   6   49.48    2.72
  13   0  -6  136.60    7.45
  13   0  -6  142.30    7.88
 -13   0   6  122.20    6.62
 -13   0   6  123.70    6.69
  14   0  -6   44.85    2.99
  14   0  -6   44.32    2.66
 -14   0   6   32.93    1.90
 -14   0   6   36.31    2.09
  15   0  -6   42.05    2.66
  15   0  -6   39.28    3.07
 -15   0   6   37.38    2.19
 -15   0   6   43.65    2.48
  -8   0  -7    0.20    0.44
  -8   0  -7   -0.13    0.60
   8   0   7   -0.70    0.87
   8   0   7    0.19    1.19
  -7   0  -7    0.24    0.54
  -7   0  -7   -0.03    0.43
   7   0   7    0.25    0.67
   7   0   7    0.20    0.99
  -6   0  -7   -0.03    0.41
  -6   0  -7    0.35    0.56
  -6   0  -7   -0.23    0.60
   6   0   7   -0.38    0.61
   6   0   7   -0.87    0.78
  -5   0  -7   -0.31    0.49
  -5   0  -7    0.11    0.36
  -5   0  -7   -0.84    0.63
   5   0   7    0.28    0.65
   5   0   7   -0.44    0.77
  -4   0  -7    0.29    0.57
  -4   0  -7    0.64    0.54
  -4   0  -7    0.41    0.33
   4   0   7    0.39    0.49
   4   0   7    0.24    0.67
  -3   0  -7    0.15    0.46
  -3   0  -7    0.46    0.32
  -3   0  -7   -0.53    0.55
   3   0   7    0.38    0.68
   3   0   7   -0.02    0.54
  -2   0  -7    0.26    0.49
  -2   0  -7   -0.22    0.45
  -2   0  -7   -0.02    0.29
   2   0   7   -0.60    0.54
   2   0   7    0.49    0.46
  -1   0  -7    0.38    0.46
  -1   0  -7   -0.17    0.42
  -1   0  -7    0.09    0.28
   1   0   7   -0.31    0.40
   1   0   7    0.31    0.61
   0   0  -7   -0.06    0.42
   0   0  -7   -0.04    0.34
   0   0  -7    0.13    0.27
   0   0   7    0.46    0.45
   0   0   7   -0.20    0.34
   1   0  -7    0.24    0.31
   1   0  -7    0.26    0.32
   1   0  -7    0.27    0.24
  -1   0   7    0.29    0.40
  -1   0   7   -0.07    0.35
   2   0  -7    0.02    0.26
   2   0  -7    0.02    0.20
  -2   0   7   -0.08    0.30
  -2   0   7    0.00    0.39
   3   0  -7   -0.02    0.21
   3   0  -7    0.01    0.16
  -3   0   7    0.09    0.24
  -3   0   7    0.42    0.34
   4   0  -7    0.10    0.12
   4   0  -7    0.18    0.11
  -4   0   7    0.00    0.29
  -4   0   7    0.14    0.17
 -11   0   7   -0.05    0.22
 -11   0   7    0.17    0.23
  12   0  -7    0.24    0.71
  12   0  -7   -0.99    0.95
 -12   0   7   -0.14    0.39
 -12   0   7   -0.33    0.32
  13   0  -7    1.28    1.27
  13   0  -7    0.36    0.79
 -13   0   7   -0.36    0.47
 -13   0   7   -0.15    0.42
  14   0  -7   -0.43    1.11
  14   0  -7    0.79    1.86
 -14   0   7    0.42    0.59
 -14   0   7    0.70    0.63
  15   0  -7   -0.16    2.82
  15   0  -7   -0.28    1.51
 -15   0   7    0.42    0.87
 -15   0   7   -0.40    0.83
  -7   0  -8  149.40    8.09
  -7   0  -8  147.60    7.97
   7   0   8  180.90    9.80
   7   0   8  193.90   10.56
  -6   0  -8   16.66    1.06
  -6   0  -8   14.08    0.98
   6   0   8   11.87    1.37
   6   0   8   12.77    1.13
  -5   0  -8  106.50    5.81
  -5   0  -8  104.90    5.69
   5   0   8  123.80    6.75
   5   0   8  118.70    6.55
  -4   0  -8  146.40    7.95
  -4   0  -8  154.70    8.34
  -4   0  -8  133.60    7.25
   4   0   8  153.80    8.40
   4   0   8  136.90    7.45
  -3   0  -8   13.55    0.99
  -3   0  -8   10.41    0.86
   3   0   8   11.93    1.13
   3   0   8   12.64    1.01
  -2   0  -8  219.90   11.83
  -2   0  -8  219.00   11.81
  -2   0  -8  217.60   11.74
   2   0   8  234.40   12.64
   2   0   8  233.70   12.65
  -1   0  -8  125.10    6.76
  -1   0  -8  107.90    5.88
  -1   0  -8  102.30    5.57
   1   0   8  106.70    5.83
   1   0   8  110.50    6.08
   0   0  -8  117.50    6.37
   0   0  -8  117.40    6.36
   0   0   8  120.90    6.62
   0   0   8  123.90    6.72
   1   0  -8  221.20   11.90
   1   0  -8  223.60   12.03
  -1   0   8  193.70   10.44
  -1   0   8  209.60   11.32
   2   0  -8    2.85    0.41
  -2   0   8    1.20    0.38
  -2   0   8    1.52    0.56
   3   0  -8  241.20   12.98
   3   0  -8  221.40   11.90
  -3   0   8  229.90   12.38
  -3   0   8  234.80   12.62
   4   0  -8  124.20    6.70
   4   0  -8  129.50    6.99
  -4   0   8  144.00    7.79
  -4   0   8  134.80    7.27
  -6   0  -9    0.43    0.68
  -6   0  -9   -0.62    0.51
   6   0   9   -1.26    0.99
  -5   0  -9    0.44    0.72
  -5   0  -9   -0.38    0.51
  -4   0  -9    0.51    0.63
   4   0   9   -1.19    1.15
  -3   0  -9    0.35    0.46
   3   0   9   -0.96    1.10
   3   0   9    0.05    0.72
  -2   0  -9    0.13    0.51
  -2   0  -9   -0.06    0.41
   2   0   9    0.45    0.68
   2   0   9   -0.04    0.95
  -1   0  -9   -0.12    0.48
  -1   0  -9    0.12    0.39
   1   0   9    0.36    0.61
   1   0   9    0.55    0.90
   0   0  -9   -0.03    0.53
   0   0  -9    0.10    0.37
   0   0   9    0.12    0.61
   0   0   9    0.56    0.85
   1   0  -9   -0.09    0.34
   1   0  -9    0.38    0.50
  -1   0   9    0.68    0.78
  -1   0   9    0.28    0.57
   2   0  -9   -0.03    0.31
   2   0  -9   -0.48    0.42
  -2   0   9   -0.21    0.45
  -2   0   9   -0.04    0.67
   3   0  -9    0.27    0.27
   3   0  -9    0.21    0.41
  -3   0   9    0.22    0.57
  -3   0   9   -0.09    0.39
   4   0  -9   -0.30    0.30
   4   0  -9   -0.13    0.23
  -4   0   9    0.26    0.32
  -4   0   9    0.33    0.65
  -5   0 -10   -0.13    0.83
  -5   0 -10    1.96    0.55
   5   0  10    0.82    1.04
   5   0  10   -0.01    1.71
  -4   0 -10  131.30    7.14
  -4   0 -10  131.40    7.11
   4   0  10  151.60    8.25
   4   0  10  156.90    8.67
  -3   0 -10   91.96    5.03
  -3   0 -10   92.12    5.02
   3   0  10   97.68    5.38
   3   0  10  109.50    6.16
   2   0  10    8.59    0.96
   2   0  10    7.98    1.36
  -1   0 -10  134.00    7.25
  -1   0 -10  121.80    6.62
   1   0  10  145.30    8.00
   1   0  10  136.80    7.44
   0   0  10   22.66    1.72
   0   0  10   20.61    1.37
   1   0 -10  172.00    9.31
   1   0 -10  179.40    9.67
  -1   0  10  183.60    9.93
  -1   0  10  176.40    9.63
   2   0 -10  135.80    7.37
   2   0 -10  123.90    6.71
  -2   0  10  135.90    7.38
  -2   0  10  133.60    7.31
   3   0 -10    5.90    0.51
   3   0 -10    5.08    0.56
  -3   0  10    2.54    0.78
  -3   0  10    4.28    0.59
   4   0 -10  186.60   10.05
   4   0 -10  174.40    9.40
  -4   0  10  177.40    9.57
  -4   0  10  180.10    9.76
  -4   0 -11    0.36    0.78
  -4   0 -11   -0.10    0.62
   4   0  11    1.20    1.82
   4   0  11   -1.05    1.17
  -3   0 -11   -0.23    0.55
  -3   0 -11   -0.54    0.82
   3   0  11    0.78    1.02
   3   0  11   -3.09    1.60
  -2   0 -11    0.50    0.55
  -2   0 -11    0.24    0.64
   2   0  11    0.55    0.89
   2   0  11    0.32    1.36
  -1   0 -11   -0.32    0.46
  -1   0 -11    0.45    0.71
   1   0  11    0.84    1.42
   1   0  11    0.15    0.87
   0   0 -11   -0.28    0.45
   0   0 -11    0.63    0.66
   0   0  11   -0.48    1.27
   0   0  11    0.74    0.85
   1   0 -11   -0.35    0.45
   1   0 -11   -0.48    0.63
  -1   0  11    0.40    0.73
  -1   0  11    0.18    1.21
   2   0 -11   -0.60    0.68
   2   0 -11    0.31    0.43
  -2   0  11   -0.98    1.14
  -2   0  11   -0.12    0.76
   3   0 -11    0.00    0.55
   3   0 -11   -0.16    0.40
  -3   0  11   -0.05    1.09
  -3   0  11    0.56    0.68
   4   0 -11    0.41    0.45
   4   0 -11   -0.19    0.38
  -4   0  11    0.04    0.60
  -4   0  11    1.21    1.06
  -3   0 -12   72.45    4.03
   3   0  12  105.70    6.01
  -2   0 -12   32.05    1.84
  -2   0 -12   27.35    1.76
   2   0  12   37.31    2.59
   2   0  12   37.48    2.77
  -1   0 -12   31.92    1.91
  -1   0 -12   30.08    1.73
   1   0  12   46.08    2.91
   1   0  12   40.81    2.86
   0   0 -12  112.90    6.16
   0   0 -12  103.70    5.63
   0   0  12  112.30    6.34
   0   0  12  120.10    6.59
   1   0 -12   12.09    1.05
   1   0 -12   13.53    0.93
  -1   0  12   11.34    1.20
  -1   0  12   10.12    1.56
   2   0 -12   91.99    5.00
   2   0 -12   90.85    4.97
  -2   0  12   99.58    5.69
  -2   0  12  110.40    6.05
   3   0 -12   69.39    3.81
   3   0 -12   77.34    4.24
  -3   0  12   90.65    5.22
  -3   0  12   73.99    4.11
   4   0 -12   15.71    1.01
   4   0 -12   16.42    1.06
  -4   0  12   17.59    1.27
  -4   0  12   17.52    1.73
  -1   0 -13    0.36    0.96
  -1   0 -13    0.35    0.60
   1   0  13    1.63    1.54
   1   0  13    1.02    2.23
   0   0 -13    0.08    0.58
   0   0 -13   -0.26    0.91
   0   0  13    0.31    1.99
   0   0  13    1.09    1.53
   1   0 -13    0.23    0.79
   1   0 -13    0.39    0.59
  -1   0  13    0.98    1.26
  -1   0  13   -0.30    2.27
   2   0 -13    0.27    0.59
   2   0 -13    0.35    0.73
  -2   0  13    0.20    1.06
  -2   0  13   -0.14    2.16
   3   0 -13   -0.10    0.63
   3   0 -13   -0.05    0.86
  -3   0  13   -1.64    2.00
  -3   0  13   -0.27    1.07
   4   0 -13    0.20    0.57
   4   0 -13   -0.02    0.64
  -4   0  13    1.63    2.10
  -4   0  13   -1.22    1.11
  -4   1  13   90.28    5.04
  -4   1  13   94.44    5.57
   4  -1 -13   79.12    4.32
   4  -1 -13   83.39    4.58
  -3   1  13   -2.31    1.26
  -3   1  13    1.73    2.05
   3  -1 -13    1.03    0.84
   3  -1 -13    0.73    0.60
  -2   1  13   89.94    5.04
  -2   1  13   74.27    4.53
   2  -1 -13   74.26    4.12
   2  -1 -13   74.02    4.06
  -1   1  13   51.56    3.07
  -1   1  13   49.12    3.54
   1  -1 -13   41.68    2.37
   1  -1 -13   41.44    2.40
   0   1  13   17.61    1.80
   0   1  13   20.54    2.39
   0  -1 -13   18.87    1.22
   0  -1 -13   18.06    1.30
   1   1  13   95.69    5.77
   1   1  13   83.94    4.84
  -1  -1 -13   75.24    4.20
  -1  -1 -13   77.01    4.21
  -4   1  12   19.54    1.80
  -4   1  12   18.77    1.34
   4  -1 -12   15.01    0.96
   4  -1 -12   16.38    1.03
  -3   1  12   11.33    1.51
  -3   1  12   13.94    1.23
   3  -1 -12   11.11    0.90
   3  -1 -12   12.60    0.94
  -2   1  12    3.73    0.88
  -2   1  12    5.80    1.47
   2  -1 -12    4.10    0.58
   2  -1 -12    4.44    0.65
  -1   1  12    8.34    1.57
  -1   1  12    6.28    0.99
   1  -1 -12    5.37    0.73
   1  -1 -12    6.27    0.64
   0   1  12    2.25    1.57
   0   1  12    0.52    0.90
   0  -1 -12    0.70    0.69
   0  -1 -12    0.43    0.52
   1   1  12    5.47    1.72
   1   1  12    6.10    1.25
  -1  -1 -12    4.20    0.83
  -1  -1 -12    4.14    0.56
   2   1  12   14.20    1.54
   2   1  12    9.54    1.96
  -2  -1 -12    9.65    0.76
  -2  -1 -12    9.76    0.99
  -3  -1 -12    0.57    0.82
  -4   1  11  114.40    6.30
  -4   1  11  123.10    6.69
   4  -1 -11  122.80    6.64
   4  -1 -11  118.40    6.40
  -3   1  11  136.90    7.51
  -3   1  11  133.80    7.26
   3  -1 -11  128.50    6.96
   3  -1 -11  120.10    6.50
  -2   1  11    1.81    1.15
  -2   1  11    1.47    0.73
   2  -1 -11    0.81    0.55
   2  -1 -11    0.57    0.42
  -1   1  11  161.10    8.86
  -1   1  11  151.40    8.21
   1  -1 -11  135.10    7.33
   1  -1 -11  147.70    7.97
   0   1  11   67.43    3.97
   0   1  11   61.65    3.48
   0  -1 -11   55.62    3.11
   0  -1 -11   52.80    2.92
   1   1  11   25.69    2.06
   1   1  11   26.29    1.72
  -1  -1 -11   25.22    1.59
  -1  -1 -11   22.26    1.35
   2   1  11  103.90    5.89
   2   1  11   96.74    5.34
  -2  -1 -11   85.71    4.72
  -2  -1 -11   71.98    3.95
   3   1  11    3.81    1.64
   3   1  11    5.36    1.10
  -3  -1 -11    3.75    0.87
  -3  -1 -11    2.26    0.59
   4   1  11   86.54    5.14
   4   1  11   88.89    4.98
  -4  -1 -11   70.77    3.98
  -4  -1 -11   66.36    3.67
  -4   1  10    1.28    0.76
  -4   1  10    1.80    0.54
   4  -1 -10    1.33    0.36
   4  -1 -10    1.33    0.31
  -3   1  10    2.08    0.75
  -3   1  10    2.50    0.52
   3  -1 -10    2.57    0.49
   3  -1 -10    1.93    0.37
  -2   1  10    0.91    0.85
  -2   1  10    1.71    0.63
   2  -1 -10    1.67    0.51
   2  -1 -10    1.35    0.44
  -1   1  10    3.42    0.98
  -1   1  10    4.58    0.77
   1  -1 -10    3.06    0.61
   1  -1 -10    3.95    0.47
   0   1  10    5.37    0.79
   0   1  10    4.92    1.10
   0  -1 -10    5.33    0.69
   0  -1 -10    3.21    0.48
   1   1  10    0.97    1.04
   1   1  10   -0.25    0.71
  -1  -1 -10    0.18    0.40
  -1  -1 -10   -0.13    0.78
  -1  -1 -10    0.33    0.61
   2   1  10    8.20    1.31
   2   1  10    7.39    0.92
  -2  -1 -10    7.60    1.06
  -2  -1 -10    7.77    0.64
  -2  -1 -10    7.95    0.82
   3   1  10    2.76    1.27
   3   1  10    4.24    0.93
  -3  -1 -10    2.28    0.53
  -3  -1 -10    2.62    0.70
   4   1  10    4.99    1.47
   4   1  10    8.18    0.99
  -4  -1 -10    7.96    0.71
  -4  -1 -10    6.07    0.87
   5   1  10   10.11    1.90
   5   1  10    9.87    1.41
  -5  -1 -10    7.73    0.73
  -5  -1 -10   10.58    1.06
  -4   1   9   16.51    1.11
  -4   1   9   16.91    1.02
   4  -1  -9   13.78    0.81
   4  -1  -9   16.00    0.93
  -3   1   9  140.90    7.64
  -3   1   9  133.70    7.22
   3  -1  -9  127.60    6.89
   3  -1  -9  117.20    6.33
  -2   1   9   70.35    3.92
  -2   1   9   70.89    3.89
   2  -1  -9   74.10    4.08
   2  -1  -9   66.63    3.64
   2  -1  -9   62.23    3.42
  -1   1   9   30.33    1.89
  -1   1   9   32.35    1.89
   1  -1  -9   27.89    1.69
   1  -1  -9   32.10    1.82
   1  -1  -9   33.84    1.98
   0   1   9  320.10   17.22
   0   1   9  345.00   18.60
   0  -1  -9  319.30   17.19
   0  -1  -9  332.20   17.84
   0  -1  -9  350.30   18.83
   1   1   9   64.07    3.57
   1   1   9   60.47    3.48
  -1  -1  -9   54.16    3.03
  -1  -1  -9   61.76    3.46
  -1  -1  -9   49.17    2.72
   2   1   9   80.74    4.45
   2   1   9   80.93    4.58
  -2  -1  -9   74.83    4.13
  -2  -1  -9   79.24    4.33
  -2  -1  -9   67.13    3.77
   3   1   9  177.90    9.73
   3   1   9  182.80    9.90
  -3  -1  -9  160.60    8.70
  -3  -1  -9  168.00    9.12
  -3  -1  -9  154.30    8.33
   4   1   9    1.93    1.06
   4   1   9    1.79    0.88
   5   1   9  167.00    9.23
  -4   1   8   19.17    1.15
  -4   1   8   20.61    1.18
   4  -1  -8   17.32    0.98
   4  -1  -8   17.20    0.97
  -3   1   8    8.08    0.65
  -3   1   8    8.11    0.59
   3  -1  -8    9.56    0.60
   3  -1  -8    7.95    0.55
   3  -1  -8    7.67    0.58
  -2   1   8   27.70    1.59
  -2   1   8   28.20    1.67
  -1   1   8   -0.42    0.53
  -1   1   8    0.12    0.45
   1  -1  -8    0.05    0.51
   1  -1  -8    0.37    0.36
   0   1   8   11.71    0.98
   0   1   8   10.94    0.82
   0  -1  -8   11.17    0.89
   0  -1  -8   11.90    0.83
   1   1   8   27.21    1.64
   1   1   8   27.96    1.76
  -1  -1  -8   27.18    1.62
  -1  -1  -8   27.55    1.66
   2   1   8    1.30    0.62
   2   1   8    1.88    0.70
  -2  -1  -8    1.87    0.49
  -2  -1  -8    1.28    0.62
   3   1   8   11.36    1.05
   3   1   8   11.70    0.96
  -3  -1  -8   10.17    0.80
  -3  -1  -8   11.02    0.95
   4   1   8   -0.14    0.72
   4   1   8    1.01    0.87
  -4  -1  -8    0.27    0.62
  -4  -1  -8    0.71    0.60
   5   1   8    3.92    0.80
   5   1   8    5.44    0.90
  -5  -1  -8    4.04    0.84
  -5  -1  -8    5.22    0.52
  -5  -1  -8    4.79    0.63
   6   1   8   11.86    1.09
   6   1   8   11.70    1.31
  -6  -1  -8   10.97    1.05
  -6  -1  -8    8.43    0.69
  -6  -1  -8   10.67    0.85
   7   1   8    0.17    0.77
   7   1   8    0.31    1.21
  -7  -1  -8    0.28    0.96
  -7  -1  -8    0.29    0.65
  -7  -1  -8    0.22    0.48
  15  -1  -7  103.60    5.86
  15  -1  -7   98.62    6.14
 -14   1   7   34.49    1.99
 -14   1   7   35.71    2.08
  14  -1  -7   33.17    2.63
  14  -1  -7   39.52    2.42
 -13   1   7   20.07    1.20
 -13   1   7   23.92    1.42
  13  -1  -7   29.79    1.80
  13  -1  -7   24.18    1.84
 -12   1   7  122.70    6.63
 -12   1   7  123.10    6.66
  12  -1  -7  139.30    7.57
  12  -1  -7  115.50    6.33
 -11   1   7    0.18    0.29
 -11   1   7    0.16    0.25
   4  -1  -7  307.80   16.60
   4  -1  -7  313.80   16.94
  -3   1   7   14.93    0.86
  -3   1   7   15.05    0.90
   3  -1  -7   15.58    0.91
   3  -1  -7   14.55    0.83
  -2   1   7  300.20   16.11
  -2   1   7  310.30   16.66
   2  -1  -7  318.20   17.07
   2  -1  -7  296.40   15.92
  -1   1   7  241.80   12.99
  -1   1   7  224.20   12.06
   1  -1  -7  237.20   12.75
   1  -1  -7  239.10   12.86
   0   1   7   13.09    0.90
   0   1   7   13.19    0.85
  -1  -1  -7  212.90   11.48
  -1  -1  -7  185.90   10.02
   2   1   7    9.97    0.78
   2   1   7    9.56    0.85
  -2  -1  -7    8.89    0.71
  -2  -1  -7   11.77    0.87
   3   1   7  139.90    7.59
   3   1   7  144.00    7.84
  -3  -1  -7  141.30    7.65
  -3  -1  -7  142.60    7.72
   4   1   7  205.90   11.15
   4   1   7  210.20   11.34
  -4  -1  -7  195.00   10.52
  -4  -1  -7  199.60   10.77
   5   1   7    2.89    0.82
   5   1   7    2.40    0.68
  -5  -1  -7    1.97    0.57
  -5  -1  -7    3.80    0.56
   6   1   7  132.80    7.28
   6   1   7  133.90    7.28
  -6  -1  -7  121.50    6.60
  -6  -1  -7  125.50    6.83
   7   1   7   58.92    3.43
   7   1   7   60.98    3.41
  -7  -1  -7   50.48    2.84
  -7  -1  -7   54.58    3.11
   8   1   7   45.43    2.82
   8   1   7   52.01    2.99
  -8  -1  -7   47.45    2.70
  -8  -1  -7   39.78    2.41
  -8  -1  -7   49.10    2.72
 -15   1   6    2.38    0.85
 -15   1   6    1.52    0.70
  15  -1  -6    0.89    2.17
  15  -1  -6    1.38    1.14
 -14   1   6   10.74    0.96
 -14   1   6   10.99    0.85
  14  -1  -6    8.43    1.70
  14  -1  -6    9.98    1.12
 -13   1   6    2.04    0.49
 -13   1   6    0.20    0.63
  13  -1  -6    1.56    1.37
  13  -1  -6    0.73    0.82
 -12   1   6   25.21    1.51
 -12   1   6   24.21    1.40
  12  -1  -6   22.71    1.77
  12  -1  -6   25.38    1.60
 -11   1   6   15.30    0.92
 -11   1   6   17.04    1.08
  11  -1  -6   15.63    1.34
  11  -1  -6   15.63    1.05
  10  -1  -6    4.47    0.73
  10  -1  -6    5.04    0.50
  -9   1   6   18.52    1.03
  -9   1   6   19.32    1.11
   9  -1  -6   17.51    1.02
   9  -1  -6   15.73    0.99
  -8   1   6    6.43    0.39
  -8   1   6    6.18    0.37
  -4   1   6   17.50    0.98
  -4   1   6   18.07    1.01
  -3   1   6    6.55    0.42
  -3   1   6    5.69    0.39
   3  -1  -6    6.76    0.43
   3  -1  -6    6.02    0.37
  -2   1   6   52.48    2.85
  -2   1   6   51.76    2.83
   2  -1  -6   54.19    2.95
   2  -1  -6   56.78    3.08
  -1   1   6   45.34    2.48
  -1   1   6   44.18    2.44
   1  -1  -6   48.60    2.66
   1  -1  -6   45.06    2.48
   0   1   6   16.20    0.97
   0   1   6   17.02    1.04
   1   1   6   22.88    1.33
   1   1   6   22.24    1.34
  -1  -1  -6   24.44    1.43
  -1  -1  -6   22.88    1.33
   2   1   6    4.52    0.47
  -2  -1  -6    4.44    0.46
   3   1   6   30.82    1.88
   3   1   6   29.98    1.75
  -3  -1  -6   30.83    1.80
  -3  -1  -6   26.68    1.57
   4   1   6   48.28    2.71
   4   1   6   51.66    2.94
  -4  -1  -6   49.07    2.74
  -4  -1  -6   49.98    2.79
   5   1   6    3.88    0.76
   5   1   6    5.77    0.67
  -5  -1  -6    4.77    0.54
  -5  -1  -6    5.79    0.62
   6   1   6   13.58    1.12
   6   1   6   14.42    1.07
  -6  -1  -6   11.64    0.90
  -6  -1  -6   13.50    0.92
   7   1   6   16.88    1.28
   7   1   6   15.27    1.09
  -7  -1  -6   14.31    1.07
  -7  -1  -6   14.26    0.99
   8   1   6    2.63    0.78
   8   1   6    2.90    0.89
  -8  -1  -6    3.35    0.66
  -8  -1  -6    3.69    0.43
  -8  -1  -6    1.34    0.74
   9   1   6   28.93    2.00
   9   1   6   28.12    1.76
  -9  -1  -6   25.77    1.51
  -9  -1  -6   27.75    1.69
  -9  -1  -6   23.64    1.74
 -16   1   5   40.98    2.49
 -16   1   5   36.34    2.11
 -15   1   5    9.02    0.83
 -15   1   5   11.00    1.06
  15  -1  -5   13.55    2.15
  15  -1  -5   13.79    1.39
 -14   1   5  115.10    6.27
 -14   1   5  119.80    6.49
  14  -1  -5  130.20    7.10
  14  -1  -5  133.40    7.45
 -13   1   5   25.60    1.53
 -13   1   5   24.86    1.56
  13  -1  -5   23.52    1.90
  13  -1  -5   20.42    1.42
 -12   1   5   55.74    3.12
  12  -1  -5   61.11    3.45
  12  -1  -5   67.55    3.94
 -11   1   5  177.70    9.57
 -11   1   5  164.60    8.89
  11  -1  -5  168.50    9.18
  11  -1  -5  179.00    9.67
 -10   1   5    0.03    0.29
 -10   1   5    0.54    0.37
  10  -1  -5    1.26    0.79
  10  -1  -5    1.06    0.46
  -9   1   5  196.20   10.55
  -9   1   5  194.50   10.47
   9  -1  -5  177.20    9.59
   9  -1  -5  199.60   10.75
  -8   1   5   44.91    2.46
  -8   1   5   46.89    2.55
   8  -1  -5   47.65    2.61
   8  -1  -5   46.99    2.62
  -7   1   5   68.22    3.68
  -7   1   5   72.59    3.93
   7  -1  -5   82.41    4.45
   7  -1  -5   77.63    4.22
  -6   1   5  383.60   20.89
  -6   1   5  366.70   19.97
  -3   1   5  188.50   10.14
  -3   1   5  173.60    9.33
   3  -1  -5  193.40   10.40
   3  -1  -5  175.80    9.45
  -2   1   5   40.91    2.23
  -2   1   5   38.94    2.12
   2  -1  -5   39.51    2.15
   2  -1  -5   37.22    2.02
  -1   1   5  638.80   34.22
  -1   1   5  663.50   35.54
   1  -1  -5  632.30   33.88
   1  -1  -5  672.70   36.04
   0   1   5  216.20   11.61
   0   1   5  208.10   11.18
   0  -1  -5  217.90   11.71
   0  -1  -5  211.80   11.38
   1   1   5  199.60   10.73
   1   1   5  213.50   11.49
  -1  -1  -5  207.10   11.14
  -1  -1  -5  219.30   11.78
   2   1   5  277.20   14.89
   2   1   5  288.00   15.48
  -2  -1  -5  270.10   14.52
  -2  -1  -5  275.70   14.81
   3   1   5   26.44    1.54
  -3  -1  -5   24.71    1.44
   4   1   5  217.30   11.71
   4   1   5  247.20   13.33
  -4  -1  -5  244.10   13.14
  -4  -1  -5  247.90   13.35
   5   1   5  249.20   13.45
   5   1   5  255.90   13.78
  -5  -1  -5  249.10   13.41
  -5  -1  -5  243.50   13.11
   6   1   5   28.13    1.67
   6   1   5   29.45    1.79
  -6  -1  -5   25.17    1.51
  -6  -1  -5   31.00    1.80
   7   1   5  146.60    7.98
   7   1   5  148.60    8.05
  -7  -1  -5  143.00    7.74
  -7  -1  -5  136.50    7.40
   8   1   5   39.08    2.37
   8   1   5   38.09    2.21
  -8  -1  -5   38.03    2.26
  -8  -1  -5   32.01    1.87
   9   1   5   94.01    5.17
   9   1   5  101.10    5.60
  -9  -1  -5   79.77    4.44
  -9  -1  -5   85.34    4.68
  10   1   5  154.00    8.43
  10   1   5  159.50    8.66
 -10  -1  -5  139.90    7.67
 -10  -1  -5  136.10    7.38
 -16   1   4    5.06    1.14
 -16   1   4    6.09    0.82
  16  -1  -4    6.16    2.34
  16  -1  -4    3.79    1.55
 -15   1   4    2.97    0.91
 -15   1   4    4.24    0.65
  15  -1  -4    3.54    1.95
  15  -1  -4    3.14    1.16
 -14   1   4    3.70    0.62
 -14   1   4    4.41    0.82
  14  -1  -4    4.61    1.01
  14  -1  -4    4.13    1.57
 -13   1   4    4.00    0.56
 -13   1   4    2.84    0.70
  13  -1  -4    4.91    0.83
  13  -1  -4    4.57    1.13
 -12   1   4    7.26    0.75
 -12   1   4    7.27    0.65
  12  -1  -4    8.11    1.08
  12  -1  -4    8.22    0.83
 -11   1   4    8.78    0.76
  11  -1  -4    9.07    0.89
 -10   1   4    6.89    0.53
 -10   1   4    5.74    0.59
  10  -1  -4    6.31    0.82
  10  -1  -4    6.27    0.67
  -9   1   4    3.23    0.35
  -9   1   4    4.48    0.55
  -8   1   4    9.42    0.58
  -8   1   4   10.69    0.70
   8  -1  -4   12.48    0.87
   8  -1  -4   13.48    0.81
  -7   1   4    0.91    0.17
  -7   1   4    1.59    0.27
   7  -1  -4    1.15    0.24
   7  -1  -4    1.26    0.41
  -6   1   4   50.62    2.75
  -6   1   4   54.37    2.93
   6  -1  -4   53.59    2.90
   6  -1  -4   51.33    2.81
  -5   1   4   85.97    4.63
  -5   1   4   85.81    4.63
   5  -1  -4   85.02    4.59
   5  -1  -4   83.38    4.51
  -4   1   4    9.04    0.50
  -4   1   4    8.47    0.48
   4  -1  -4    8.70    0.49
   4  -1  -4    9.47    0.53
  -3   1   4  143.70    7.75
  -3   1   4  149.70    8.06
   3  -1  -4  145.70    7.86
  -2   1   4    6.07    0.37
  -2   1   4    6.96    0.42
  -1   1   4   26.82    1.48
  -1   1   4   25.95    1.43
   1  -1  -4   26.31    1.45
   1  -1  -4   29.08    1.59
   0   1   4   73.16    3.96
   0   1   4   70.97    3.85
   0  -1  -4   73.96    4.01
   0  -1  -4   75.60    4.09
   1   1   4    1.15    0.27
   1   1   4    1.44    0.31
  -1  -1  -4    1.17    0.27
  -1  -1  -4    1.20    0.28
   2   1   4   59.71    3.27
   2   1   4   58.47    3.19
  -2  -1  -4   62.24    3.39
  -2  -1  -4   60.43    3.30
   3   1   4   35.64    1.99
   3   1   4   37.02    2.09
  -3  -1  -4   35.17    1.97
  -3  -1  -4   38.33    2.15
   4   1   4   15.74    1.06
   4   1   4   13.06    0.87
  -4  -1  -4   12.45    0.88
  -4  -1  -4   14.78    0.93
   5   1   4   54.91    3.06
   5   1   4   60.17    3.37
  -5  -1  -4   57.93    3.21
  -5  -1  -4   53.07    2.95
   6   1   4    0.24    0.56
   6   1   4    0.16    0.48
  -6  -1  -4   -0.29    0.42
  -6  -1  -4   -0.46    0.44
   7   1   4   48.75    2.80
   7   1   4   47.74    2.69
  -7  -1  -4   45.29    2.58
  -7  -1  -4   48.89    2.73
   8   1   4   24.42    1.57
   8   1   4   21.64    1.37
  -8  -1  -4   19.21    1.23
  -8  -1  -4   18.99    1.25
   9   1   4    1.68    0.76
   9   1   4    1.33    0.69
  -9  -1  -4    1.17    0.57
  -9  -1  -4    0.67    0.78
  10   1   4   17.53    1.45
  10   1   4   19.92    1.40
 -10  -1  -4   12.51    0.83
 -10  -1  -4   15.54    1.09
 -10  -1  -4   16.35    1.33
  11   1   4    4.31    0.97
  11   1   4    4.72    1.13
 -11  -1  -4    2.28    0.49
 -11  -1  -4    4.11    1.04
 -11  -1  -4    3.66    0.72
 -15   1   3   42.39    2.57
 -15   1   3   44.41    2.50
  15  -1  -3   48.83    2.90
  15  -1  -3   42.50    2.86
 -14   1   3   38.05    2.19
 -14   1   3   45.21    2.62
  14  -1  -3   57.89    3.38
  14  -1  -3   51.31    3.18
 -13   1   3  146.00    7.92
 -13   1   3  147.00    7.96
  13  -1  -3  163.10    8.84
  13  -1  -3  160.30    8.77
 -12   1   3    8.83    0.82
 -12   1   3   11.60    0.83
  12  -1  -3    9.27    1.12
  12  -1  -3    7.75    0.85
 -11   1   3  159.80    8.63
 -11   1   3  144.80    7.86
  11  -1  -3  124.20    6.75
  11  -1  -3  149.40    8.16
 -10   1   3  195.30   10.57
 -10   1   3  222.40   11.99
  10  -1  -3  242.90   13.19
  10  -1  -3  200.40   10.82
   9  -1  -3    8.28    0.81
   9  -1  -3   10.24    0.71
  -8   1   3  396.80   21.29
  -8   1   3  401.60   21.53
   8  -1  -3  394.40   21.19
   8  -1  -3  401.60   21.54
  -7   1   3  146.00    7.85
  -7   1   3  132.20    7.13
   7  -1  -3  136.10    7.36
   7  -1  -3  134.70    7.25
  -6   1   3  113.50    6.10
  -6   1   3  119.70    6.45
   6  -1  -3  133.10    7.16
   6  -1  -3  123.80    6.68
   5  -1  -3  736.10   39.46
   4  -1  -3   28.37    1.54
   4  -1  -3   29.07    1.60
  -3   1   3  336.30   18.08
  -2   1   3  243.40   13.06
   2  -1  -3  216.80   11.64
  -1   1   3   69.07    3.73
  -1   1   3   70.77    3.81
   1  -1  -3   77.12    4.15
   1  -1  -3   71.89    3.87
   0   1   3  650.10   34.81
   0  -1  -3  615.30   32.95
   1   1   3  191.50   10.29
   1   1   3  168.70    9.07
  -1  -1  -3  195.50   10.50
  -1  -1  -3  192.20   10.33
   2   1   3  206.70   11.11
   2   1   3  198.80   10.69
  -2  -1  -3  202.90   10.91
  -2  -1  -3  212.80   11.44
   3   1   3  298.10   16.00
   3   1   3  281.60   15.13
  -3  -1  -3  274.10   14.72
  -3  -1  -3  297.40   15.97
   4   1   3    3.33    0.41
   4   1   3    4.33    0.50
  -4  -1  -3    3.10    0.44
  -4  -1  -3    3.65    0.40
   5   1   3  420.50   22.57
   5   1   3  415.50   22.33
  -5  -1  -3  365.10   19.61
  -5  -1  -3  415.60   22.30
   6   1   3  143.60    7.79
   6   1   3  133.90    7.24
  -6  -1  -3  152.60    8.26
  -6  -1  -3  125.70    6.82
   7   1   3   58.02    3.25
   7   1   3   55.20    3.06
  -7  -1  -3   52.00    2.91
  -7  -1  -3   60.74    3.36
   8   1   3  210.20   11.33
   8   1   3  215.80   11.66
  -8  -1  -3  201.50   10.87
  -8  -1  -3  201.50   10.88
   9   1   3   31.51    1.88
   9   1   3   31.29    1.89
  10   1   3   68.01    3.86
  10   1   3   72.03    4.00
 -10  -1  -3   62.98    3.57
 -10  -1  -3   63.86    3.53
  11   1   3   88.39    4.98
  11   1   3   90.08    4.97
 -11  -1  -3   87.85    4.89
 -11  -1  -3   72.97    4.02
 -11  -1  -3   70.72    3.88
  12   1   3   14.42    1.35
 -12  -1  -3   15.34    1.14
 -15   1   2    4.06    0.67
 -15   1   2    4.64    1.10
  15  -1  -2    4.75    1.63
  15  -1  -2    4.82    1.28
 -14   1   2   -0.09    0.53
 -14   1   2   -0.71    0.79
  14  -1  -2    0.54    0.99
  14  -1  -2   -1.78    1.44
 -13   1   2   10.53    0.94
 -13   1   2   10.08    0.77
  13  -1  -2   12.59    1.46
  13  -1  -2   14.57    1.20
 -12   1   2   10.80    0.79
 -12   1   2    8.92    0.78
  12  -1  -2   10.40    0.94
  12  -1  -2    7.39    1.15
 -11   1   2    0.83    0.57
 -11   1   2    0.03    0.42
  11  -1  -2    0.30    0.80
  11  -1  -2    1.27    0.64
 -10   1   2    2.63    0.39
 -10   1   2    2.28    0.66
  10  -1  -2    3.01    0.63
  10  -1  -2    3.61    0.78
  -9   1   2    5.18    0.61
  -9   1   2    6.11    0.49
   9  -1  -2    5.85    0.77
   9  -1  -2    5.65    0.55
  -8   1   2   19.33    1.11
  -8   1   2   22.48    1.34
   8  -1  -2   22.61    1.32
   8  -1  -2   23.60    1.47
  -7   1   2   31.40    1.73
  -7   1   2   32.70    1.84
   7  -1  -2   35.00    1.94
   7  -1  -2   35.15    2.02
  -6   1   2    1.10    0.18
  -6   1   2    1.15    0.28
   6  -1  -2    2.09    0.27
   6  -1  -2    1.41    0.39
  -5   1   2    6.21    0.44
  -5   1   2    5.71    0.36
   5  -1  -2    5.80    0.46
   5  -1  -2    6.22    0.42
  -4   1   2   21.84    1.22
  -4   1   2   19.47    1.07
   4  -1  -2   22.07    1.22
   4  -1  -2   22.78    1.28
  -3   1   2   33.90    1.85
  -3   1   2   33.98    1.84
   3  -1  -2   33.44    1.83
   3  -1  -2   38.77    2.09
  -2   1   2  111.20    5.98
   2  -1  -2  110.90    5.96
   2  -1  -2  112.00    6.02
  -1   1   2    9.15    0.52
  -1   1   2   10.54    0.59
   1  -1  -2   10.33    0.58
   1  -1  -2    9.77    0.55
   0   1   2   10.62    0.61
   0   1   2    9.47    0.56
   0  -1  -2   10.02    0.59
   0  -1  -2    9.71    0.57
   1   1   2   53.17    2.88
   1   1   2   56.56    3.07
  -1  -1  -2   54.04    2.94
  -1  -1  -2   55.76    3.03
   2   1   2    1.19    0.21
   2   1   2    1.39    0.26
  -2  -1  -2    1.17    0.23
  -2  -1  -2    1.15    0.25
   3   1   2  333.30   17.88
   3   1   2  351.80   18.87
  -3  -1  -2  339.30   18.20
  -3  -1  -2  357.50   19.18
   4   1   2   15.90    0.98
   4   1   2   19.00    1.11
  -4  -1  -2   18.21    1.08
  -4  -1  -2   19.55    1.13
   5   1   2   12.19    0.85
   5   1   2   12.97    0.81
  -5  -1  -2   14.48    0.90
  -5  -1  -2   11.56    0.77
   6   1   2   19.22    1.22
   6   1   2   17.30    1.07
  -6  -1  -2   15.85    1.01
  -6  -1  -2   16.92    1.07
   7   1   2    9.62    0.78
   7   1   2   10.00    0.75
  -7  -1  -2    8.65    0.70
  -7  -1  -2   11.05    0.81
   8   1   2   39.26    2.27
   8   1   2   40.63    2.29
  -8  -1  -2   37.57    2.16
  -8  -1  -2   37.01    2.11
   9   1   2    9.22    0.86
   9   1   2   12.38    0.88
  -9  -1  -2   10.16    0.82
  -9  -1  -2   11.94    0.91
  10   1   2   -0.25    0.66
  10   1   2    1.21    0.56
 -10  -1  -2    0.20    0.58
 -10  -1  -2    0.13    0.72
  11   1   2   23.18    1.59
  11   1   2   25.29    1.58
 -11  -1  -2   24.02    1.48
 -11  -1  -2   20.48    1.48
  12   1   2    4.98    1.09
  12   1   2    4.51    0.80
 -12  -1  -2    2.95    0.74
 -12  -1  -2    3.99    1.17
 -12  -1  -2    2.55    0.52
 -14   1   1   27.74    1.72
 -14   1   1   34.44    1.98
  14  -1  -1   33.55    2.46
  14  -1  -1   30.04    2.01
 -13   1   1   34.46    2.06
 -13   1   1   29.44    1.72
  13  -1  -1   40.19    2.62
  13  -1  -1   44.65    2.64
 -12   1   1  125.00    6.78
 -12   1   1  110.00    6.01
  12  -1  -1  120.40    6.65
  12  -1  -1  120.00    6.55
  11  -1  -1   11.30    1.13
  11  -1  -1   11.20    0.97
 -10   1   1  185.00    9.97
 -10   1   1  212.50   11.48
  10  -1  -1  223.90   12.11
  10  -1  -1  230.50   12.43
  -9   1   1   87.62    4.82
  -9   1   1   88.10    4.80
   9  -1  -1   86.98    4.79
   9  -1  -1   81.87    4.50
   8  -1  -1   40.98    2.36
   8  -1  -1   38.78    2.17
  -7   1   1  402.00   21.55
  -7   1   1  372.20   19.97
  -7   1   1  382.20   20.51
  -6   1   1   36.82    2.04
  -6   1   1   37.98    2.11
   6  -1  -1   41.43    2.32
   6  -1  -1   41.62    2.29
  -5   1   1  510.50   27.35
  -5   1   1  451.30   24.20
   5  -1  -1  491.10   26.31
   5  -1  -1  460.00   24.67
   4  -1  -1  538.70   28.87
   3  -1  -1   16.66    0.96
   3  -1  -1   16.07    0.89
  -2  -1  -1   29.03    1.60
  -2  -1  -1   27.35    1.52
   3   1   1  659.00   35.30
  -3  -1  -1  668.40   35.80
   4   1   1  421.80   22.62
   4   1   1  486.30   26.06
  -4  -1  -1  473.60   25.39
  -4  -1  -1  513.00   27.50
   5   1   1   27.27    1.57
   5   1   1   27.74    1.56
  -5  -1  -1   29.95    1.69
  -5  -1  -1   26.42    1.50
   6   1   1  326.60   17.53
   6   1   1  319.60   17.18
  -6  -1  -1  331.50   17.80
  -6  -1  -1  340.70   18.29
   7   1   1   23.61    1.45
  -7  -1  -1   28.09    1.64
   8   1   1  115.90    6.28
   8   1   1  132.60    7.21
  -8  -1  -1  113.50    6.17
  -8  -1  -1  122.70    6.67
   9   1   1  350.10   18.83
   9   1   1  352.90   18.96
  -9  -1  -1  337.40   18.14
  -9  -1  -1  358.10   19.26
  10   1   1    2.31    0.73
  10   1   1    2.64    0.63
 -10  -1  -1    1.40    0.53
 -10  -1  -1    1.72    0.68
  11   1   1  153.90    8.38
  11   1   1  148.50    8.06
 -11  -1  -1  152.40    8.25
 -11  -1  -1  134.40    7.33
  12   1   1   85.38    4.83
  12   1   1   86.32    4.76
 -12  -1  -1   76.10    4.21
 -12  -1  -1   83.37    4.68
 -12  -1  -1   68.80    3.78
  13   1   1   12.51    1.61
  13   1   1   16.28    1.38
 -13  -1  -1   15.99    1.22
 -13  -1  -1   10.56    1.37
 -13  -1  -1   14.45    0.98
 -14   1   0    2.04    0.58
 -14   1   0    1.06    0.75
  14  -1   0    2.23    1.78
  14  -1   0    3.40    1.21
 -13   1   0    3.05    0.52
 -13   1   0    2.89    0.71
  13  -1   0    4.34    1.00
  13  -1   0    2.39    1.33
 -12   1   0   11.49    0.86
 -12   1   0   10.13    0.98
  12  -1   0   13.28    1.20
 -11   1   0    6.95    0.62
 -11   1   0    6.52    0.84
  11  -1   0    8.65    1.04
  11  -1   0    8.64    0.91
 -10   1   0   25.20    1.48
 -10   1   0   24.92    1.56
  10  -1   0   25.90    1.66
  10  -1   0   27.71    1.68
  -9   1   0   22.52    1.32
  -9   1   0   25.06    1.54
   9  -1   0   24.74    1.56
   9  -1   0   20.99    1.30
  -8   1   0    8.49    0.68
  -8   1   0    6.96    0.53
  -8   1   0    8.02    0.72
   8  -1   0    7.62    0.79
   8  -1   0    7.94    0.70
  -7   1   0   47.01    2.61
  -7   1   0   46.44    2.59
   7  -1   0   52.66    2.96
   7  -1   0   49.72    2.74
  -6   1   0   20.24    1.18
  -6   1   0   23.30    1.31
  -6   1   0   20.97    1.24
   6  -1   0   20.84    1.27
   6  -1   0   19.98    1.16
  -5   1   0   22.66    1.29
  -5   1   0   18.79    1.06
  -5   1   0   20.35    1.18
   5  -1   0   21.80    1.24
   5  -1   0   22.73    1.34
  -4   1   0   16.50    0.95
  -4   1   0   17.21    1.01
  -4   1   0   15.11    0.85
   4  -1   0   17.81    1.02
   4  -1   0   18.60    1.09
   3  -1   0   35.78    1.95
   3  -1   0   38.85    2.14
  -2   1   0   58.56    3.16
  -2   1   0   53.12    2.88
   2  -1   0   55.82    3.01
   2  -1   0   55.14    3.00
   2  -1   0   58.64    3.17
  -1   1   0   88.54    4.76
  -1   1   0   86.48    4.66
   1  -1   0   84.88    4.56
   1  -1   0   82.58    4.46
   0   1   0    0.29    0.15
   0   1   0    0.13    0.07
   0  -1   0    0.00    0.06
   0  -1   0    0.10    0.13
   1   1   0   87.42    4.70
   1   1   0   97.48    5.24
  -1  -1   0   94.67    5.09
  -1  -1   0   99.84    5.36
   2   1   0   61.76    3.35
   2   1   0   61.14    3.30
  -2  -1   0   62.96    3.40
  -2  -1   0   67.31    3.64
   3   1   0   43.09    2.36
   3   1   0   40.04    2.18
  -3  -1   0   42.88    2.34
  -3  -1   0   39.02    2.13
   4   1   0   18.10    1.06
   4   1   0   17.87    1.02
  -4  -1   0   18.11    1.03
  -4  -1   0   18.30    1.05
   5   1   0   23.14    1.31
   5   1   0   21.60    1.26
  -5  -1   0   22.25    1.27
  -5  -1   0   20.92    1.20
   6   1   0   18.88    1.11
   6   1   0   21.18    1.25
  -6  -1   0   20.45    1.20
  -6  -1   0   19.96    1.17
   7   1   0   54.93    3.06
   7   1   0   50.00    2.76
  -7  -1   0   50.49    2.79
  -7  -1   0   47.36    2.63
   8   1   0    8.49    0.77
   8   1   0    9.46    0.72
  -8  -1   0    9.53    0.78
  -8  -1   0    7.19    0.64
   9   1   0   23.51    1.44
   9   1   0   26.66    1.64
  -9  -1   0   23.05    1.39
  -9  -1   0   21.01    1.31
  10   1   0   26.95    1.68
  10   1   0   26.63    1.63
 -10  -1   0   25.30    1.54
 -10  -1   0   26.07    1.65
  11   1   0    8.20    0.85
  11   1   0    7.11    0.77
 -11  -1   0    5.72    0.87
 -11  -1   0    8.40    0.82
 -12  -1   0   13.48    1.31
 -12  -1   0   12.71    1.04
 -12  -1   0   12.01    0.85
  13   1   0    3.37    0.96
  13   1   0    2.95    1.08
 -13  -1   0    3.49    1.24
 -13  -1   0    3.48    0.58
 -13  -1   0    3.81    0.70
  14   1   0    3.35    1.10
  14   1   0    1.41    1.63
 -14  -1   0    1.46    0.79
 -14  -1   0    2.20    0.62
  13  -1   1   16.13    1.32
  13  -1   1   13.81    1.76
 -12   1  -1   72.08    3.98
 -12   1  -1   67.30    3.70
  12  -1   1   98.25    5.54
  12  -1   1   83.01    4.60
 -11   1  -1  134.00    7.28
 -11   1  -1  134.20    7.26
  11  -1   1  152.90    8.30
  11  -1   1  158.10    8.62
 -10   1  -1    0.42    0.40
 -10   1  -1    1.08    0.60
  10  -1   1    1.18    0.71
  10  -1   1    2.59    0.63
  -9   1  -1  359.30   19.29
  -9   1  -1  335.00   18.02
   9  -1   1  365.90   19.66
   9  -1   1  353.90   19.04
  -8   1  -1  112.00    6.10
  -8   1  -1  121.30    6.60
  -8   1  -1  136.30    7.37
   8  -1   1  127.80    6.96
   8  -1   1  121.30    6.58
   7  -1   1   25.72    1.56
  -6   1  -1  305.00   16.37
  -6   1  -1  336.60   18.08
  -6   1  -1  326.80   17.55
   6  -1   1  318.00   17.07
   6  -1   1  312.90   16.83
  -5   1  -1   27.28    1.56
  -5   1  -1   28.83    1.61
  -5   1  -1   23.62    1.36
   5  -1   1   25.77    1.46
   5  -1   1   30.20    1.74
  -4   1  -1  499.30   26.76
  -4   1  -1  449.50   24.10
   4  -1   1  509.10   27.27
   4  -1   1  463.60   24.86
  -3   1  -1  555.30   29.75
  -3   1  -1  578.90   31.02
  -2   1  -1   24.86    1.39
  -2   1  -1   20.91    1.16
   2  -1   1   27.64    1.52
   2  -1   1   26.18    1.47
  -3  -1   1   17.31    0.96
  -3  -1   1   17.64    0.99
   4   1  -1  546.30   29.27
   4   1  -1  625.90   33.52
  -4  -1   1  531.00   28.44
   5   1  -1  468.40   25.10
   5   1  -1  453.70   24.33
  -5  -1   1  465.10   24.92
  -5  -1   1  469.60   25.17
   6   1  -1   43.15    2.40
   6   1  -1   41.21    2.26
  -6  -1   1   44.11    2.43
  -6  -1   1   39.95    2.20
   7   1  -1  388.40   20.86
   7   1  -1  393.00   21.08
  -7  -1   1  393.20   21.10
  -7  -1   1  394.40   21.16
   8   1  -1   41.16    2.36
   8   1  -1   44.55    2.47
  -8  -1   1   38.38    2.16
  -8  -1   1   35.34    1.99
   9   1  -1   79.65    4.38
   9   1  -1   74.24    4.08
  -9  -1   1   78.57    4.33
  -9  -1   1   81.09    4.45
  10   1  -1  204.40   11.05
  10   1  -1  213.10   11.49
 -10  -1   1  208.10   11.25
 -10  -1   1  214.20   11.56
  11   1  -1   12.89    1.08
  11   1  -1   12.44    1.00
 -11  -1   1   13.17    1.00
 -11  -1   1   10.59    0.97
  12   1  -1  125.90    6.92
  12   1  -1  124.00    6.75
 -12  -1   1  117.50    6.40
 -12  -1   1  115.90    6.38
  13   1  -1   44.81    2.63
  13   1  -1   38.18    2.39
 -13  -1   1   35.93    2.25
 -13  -1   1   28.59    1.67
 -13  -1   1   33.70    2.01
  14   1  -1   29.36    1.92
  14   1  -1   30.57    2.22
 -14  -1   1   36.54    2.08
 -14  -1   1   29.84    1.81
 -12   1  -2    2.29    0.70
 -12   1  -2    2.24    0.49
  12  -1   2    3.24    1.29
  12  -1   2    2.94    0.91
 -11   1  -2   23.56    1.40
 -11   1  -2   22.92    1.45
  11  -1   2   24.92    1.62
  11  -1   2   24.60    1.80
 -10   1  -2    0.56    0.65
 -10   1  -2    0.68    0.39
  10  -1   2    0.32    0.85
  10  -1   2    0.89    0.66
  -9   1  -2    9.36    0.68
  -9   1  -2   10.48    0.88
   9  -1   2   12.75    1.05
   9  -1   2   12.08    0.92
  -8   1  -2   36.52    2.11
  -8   1  -2   39.88    2.24
  -8   1  -2   37.17    2.15
   8  -1   2   37.58    2.21
   8  -1   2   38.04    2.18
  -7   1  -2    9.72    0.73
  -7   1  -2    9.72    0.78
   7  -1   2    9.89    0.76
   7  -1   2   11.46    0.86
  -6   1  -2   18.26    1.16
  -6   1  -2   16.47    1.07
   6  -1   2   18.19    1.19
   6  -1   2   16.93    1.07
  -5   1  -2   14.24    0.85
  -5   1  -2   11.74    0.79
  -5   1  -2   15.11    0.94
   5  -1   2   15.06    0.99
   5  -1   2   12.78    0.80
  -4   1  -2   21.09    1.22
  -4   1  -2   18.21    1.08
   4  -1   2   20.18    1.17
   4  -1   2   19.27    1.18
  -3   1  -2  341.20   18.30
  -3   1  -2  297.30   15.95
  -3   1  -2  333.10   17.88
   3  -1   2  331.50   17.80
   3  -1   2  342.20   18.35
  -2   1  -2    1.00    0.17
  -2   1  -2    1.17    0.21
  -2   1  -2    0.93    0.22
   2  -1   2    0.91    0.22
   2  -1   2    1.19    0.26
  -1   1  -2   52.86    2.87
  -1   1  -2   49.39    2.69
   1  -1   2   51.09    2.77
   1  -1   2   49.18    2.69
   0   1  -2    8.03    0.47
   0   1  -2    8.69    0.53
   1   1  -2    8.48    0.48
   1   1  -2    8.71    0.52
  -1  -1   2    9.38    0.57
  -1  -1   2    8.11    0.45
   2   1  -2  134.60    7.23
   2   1  -2  121.60    6.54
  -2  -1   2  123.80    6.64
  -2  -1   2  133.20    7.15
   3   1  -2   37.69    2.04
   3   1  -2   38.68    2.10
  -3  -1   2   36.93    2.00
  -3  -1   2   38.57    2.09
   4   1  -2   23.97    1.32
   4   1  -2   22.82    1.27
  -4  -1   2   23.48    1.30
  -4  -1   2   21.38    1.18
   5   1  -2    6.59    0.43
   5   1  -2    6.10    0.43
  -5  -1   2    6.17    0.41
  -5  -1   2    6.19    0.42
   6   1  -2    1.63    0.31
   6   1  -2    1.97    0.26
  -6  -1   2    1.75    0.28
  -6  -1   2    1.28    0.25
   7   1  -2   33.04    1.88
   7   1  -2   35.90    1.99
  -7  -1   2   33.66    1.88
  -7  -1   2   33.44    1.86
   8   1  -2   23.90    1.44
   8   1  -2   23.39    1.35
  -8  -1   2   22.27    1.31
  -8  -1   2   23.80    1.38
   9   1  -2    5.26    0.60
   9   1  -2    5.28    0.53
  -9  -1   2    5.22    0.54
  -9  -1   2    3.80    0.62
  10   1  -2    4.10    0.64
  10   1  -2    3.90    0.67
 -10  -1   2    3.13    0.64
 -10  -1   2    3.15    0.61
  11   1  -2    0.17    0.58
  11   1  -2   -0.14    0.72
 -11  -1   2    0.42    0.73
 -11  -1   2    1.01    0.51
  12   1  -2   10.49    0.88
  12   1  -2   10.38    1.01
 -12  -1   2    9.14    1.04
 -12  -1   2   11.35    0.88
  13   1  -2   13.30    1.10
  13   1  -2   12.31    1.34
 -13  -1   2   12.90    0.94
 -13  -1   2   13.21    0.98
  14   1  -2   -0.12    1.43
  14   1  -2    0.87    0.91
 -14  -1   2    0.09    0.50
 -14  -1   2   -0.08    0.72
  15   1  -2    3.55    1.63
  15   1  -2    5.43    1.17
 -15  -1   2    5.91    0.71
 -15  -1   2    4.94    0.96
 -12   1  -3   14.55    1.13
  12  -1   3   14.01    1.22
 -11   1  -3   70.71    3.91
 -11   1  -3   60.09    3.31
  11  -1   3   85.41    4.71
  11  -1   3   91.65    5.17
 -10   1  -3   66.89    3.70
 -10   1  -3   68.08    3.73
  10  -1   3   73.25    4.05
  10  -1   3   73.96    4.19
   9  -1   3   30.61    1.90
   9  -1   3   32.96    1.94
  -8   1  -3  210.90   11.35
  -8   1  -3  221.90   11.97
   8  -1   3  211.80   11.42
   8  -1   3  200.60   10.86
  -7   1  -3   66.68    3.65
  -7   1  -3   58.46    3.26
   7  -1   3   54.56    3.03
   7  -1   3   57.26    3.21
  -6   1  -3  136.60    7.40
  -6   1  -3  132.00    7.17
   6  -1   3  138.80    7.52
   6  -1   3  136.90    7.44
  -5   1  -3  401.80   21.57
  -5   1  -3  396.20   21.28
  -5   1  -3  419.20   22.49
   5  -1   3  400.60   21.50
   5  -1   3  427.40   22.97
  -3   1  -3  300.00   16.10
  -3   1  -3  265.10   14.24
  -3   1  -3  241.80   12.99
   3  -1   3  297.30   15.96
   3  -1   3  277.40   14.91
  -2   1  -3  187.10   10.06
  -2   1  -3  200.30   10.76
  -2   1  -3  210.40   11.31
   2  -1   3  208.70   11.22
   2  -1   3  206.90   11.12
  -1   1  -3  178.40    9.59
  -1   1  -3  192.70   10.35
   1  -1   3  186.00   10.00
   1  -1   3  196.20   10.53
   1   1  -3   67.57    3.64
   1   1  -3   71.06    3.83
  -1  -1   3   60.48    3.26
  -1  -1   3   66.01    3.56
  -1  -1   3   68.95    3.72
   2   1  -3  197.40   10.60
  -2  -1   3  220.50   11.84
   3   1  -3  353.90   19.00
   4   1  -3   34.93    1.90
   4   1  -3   33.79    1.84
  -4  -1   3   37.05    2.00
  -4  -1   3   30.70    1.67
   5   1  -3  771.50   41.35
  -5  -1   3  799.50   42.84
   6   1  -3  124.60    6.72
   6   1  -3  120.50    6.48
  -6  -1   3  134.20    7.22
  -6  -1   3  125.30    6.74
   7   1  -3  141.80    7.63
   7   1  -3  136.10    7.35
  -7  -1   3  135.10    7.27
  -7  -1   3  147.50    7.94
   8   1  -3  413.30   22.17
   8   1  -3  391.80   21.04
  -8  -1   3  415.80   22.31
  -8  -1   3  394.90   21.18
   9   1  -3    9.37    0.77
   9   1  -3   10.09    0.71
  -9  -1   3    9.69    0.74
  -9  -1   3    7.70    0.60
 -10  -1   3  194.30   10.51
  11   1  -3  155.30    8.44
  11   1  -3  153.80    8.32
 -11  -1   3  154.20    8.34
 -11  -1   3  158.30    8.61
  12   1  -3    9.47    0.86
  12   1  -3   10.29    1.06
 -12  -1   3   13.43    0.90
 -12  -1   3   10.79    0.87
  13   1  -3  157.50    8.61
  13   1  -3  157.10    8.51
 -13  -1   3  169.10    9.13
 -13  -1   3  148.50    8.12
 -13  -1   3  148.20    8.02
  14   1  -3   52.97    3.06
  14   1  -3   58.24    3.53
 -14  -1   3   42.18    2.42
 -14  -1   3   39.98    2.29
 -11   1  -4    3.25    0.73
 -11   1  -4    2.60    0.50
  11  -1   4    2.89    0.95
  11  -1   4    6.07    1.33
 -10   1  -4   14.55    1.09
 -10   1  -4   13.73    0.91
  10  -1   4   20.29    1.59
  10  -1   4   16.38    1.25
  -9   1  -4    1.80    0.42
  -9   1  -4    0.79    0.58
   9  -1   4    0.72    0.58
   9  -1   4    2.14    0.98
  -8   1  -4   18.07    1.11
  -8   1  -4   21.28    1.38
   8  -1   4   22.20    1.41
   8  -1   4   21.63    1.50
  -7   1  -4   49.38    2.79
  -7   1  -4   52.82    2.91
   7  -1   4   51.27    2.94
   7  -1   4   49.20    2.76
  -6   1  -4   -0.12    0.45
  -6   1  -4    1.02    0.32
  -6   1  -4    0.14    0.49
   6  -1   4   -0.04    0.42
   6  -1   4    1.08    0.67
  -5   1  -4   53.10    2.95
  -5   1  -4   52.08    2.86
  -5   1  -4   55.65    3.10
   5  -1   4   58.75    3.30
   5  -1   4   58.93    3.27
  -4   1  -4   13.79    0.92
  -4   1  -4   14.44    0.89
  -4   1  -4   12.65    0.87
   4  -1   4   13.58    0.90
   4  -1   4   13.22    0.97
  -3   1  -4   35.20    1.98
  -3   1  -4   28.83    1.62
  -3   1  -4   34.33    1.94
   3  -1   4   37.26    2.11
   3  -1   4   37.06    2.07
  -2   1  -4   61.19    3.35
  -2   1  -4   56.19    3.08
  -2   1  -4   61.36    3.34
   2  -1   4   59.09    3.23
   2  -1   4   60.46    3.32
  -1   1  -4    0.79    0.20
  -1   1  -4    1.14    0.29
   1  -1   4    1.61    0.35
   1  -1   4    1.19    0.23
   0   1  -4   70.70    3.83
   0   1  -4   69.19    3.74
   0  -1   4   76.64    4.16
   0  -1   4   66.11    3.59
   1   1  -4   27.38    1.50
   1   1  -4   25.66    1.42
  -1  -1   4   27.56    1.53
  -1  -1   4   26.85    1.48
   2   1  -4    6.60    0.41
   2   1  -4    6.64    0.39
   3   1  -4  146.10    7.86
   3   1  -4  142.90    7.69
  -3  -1   4  150.10    8.07
  -3  -1   4  133.10    7.16
   4   1  -4    8.61    0.50
   4   1  -4    8.87    0.50
  -4  -1   4    8.25    0.46
  -4  -1   4    9.32    0.52
   5   1  -4   83.19    4.49
   5   1  -4   93.59    5.05
  -5  -1   4   96.55    5.19
  -5  -1   4   89.86    4.84
   6   1  -4   56.77    3.08
   6   1  -4   61.29    3.31
  -6  -1   4   54.54    2.95
  -6  -1   4   53.16    2.88
   7   1  -4    1.39    0.30
   7   1  -4    0.94    0.23
  -7  -1   4    1.45    0.23
  -7  -1   4    1.36    0.28
   8   1  -4   12.28    0.82
   8   1  -4   12.52    0.76
  -8  -1   4   11.25    0.71
  -8  -1   4   12.33    0.77
  -9  -1   4    4.04    0.53
  -9  -1   4    4.04    0.41
  10   1  -4    6.85    0.63
  10   1  -4    7.04    0.79
 -10  -1   4    6.35    0.64
 -10  -1   4    6.83    0.58
  11   1  -4   10.90    0.95
  11   1  -4    8.96    0.84
 -11  -1   4    8.84    0.87
 -11  -1   4   10.11    0.79
  12   1  -4    8.55    0.98
  12   1  -4    7.98    0.81
 -12  -1   4    8.34    1.04
 -12  -1   4    7.96    0.74
 -12  -1   4    6.43    0.62
  13   1  -4    4.61    1.08
  13   1  -4    5.05    0.82
 -13  -1   4    5.07    0.54
 -13  -1   4    3.44    0.64
  14   1  -4    4.93    0.96
  14   1  -4    5.55    1.43
 -14  -1   4    4.45    0.70
 -14  -1   4    2.84    0.54
  15   1  -4    5.10    1.59
  15   1  -4    2.78    1.06
 -15  -1   4    4.00    0.63
 -15  -1   4    2.89    0.75
  16   1  -4    5.99    1.45
  16   1  -4    6.09    2.07
 -16  -1   4    5.71    1.02
 -16  -1   4    5.17    0.80
 -10   1  -5  146.40    7.90
 -10   1  -5  123.00    6.69
  10  -1   5  152.10    8.35
  10  -1   5  151.10    8.22
  -9   1  -5   90.27    4.96
  -9   1  -5   97.85    5.31
   9  -1   5   92.45    5.08
   9  -1   5   96.57    5.41
  -8   1  -5   31.80    1.90
  -8   1  -5   27.67    1.60
   8  -1   5   40.38    2.45
   8  -1   5   39.37    2.30
  -7   1  -5  143.40    7.78
  -7   1  -5  141.20    7.62
   7  -1   5  152.60    8.28
   7  -1   5  148.00    8.08
   6  -1   5   28.12    1.69
   6  -1   5   30.07    1.86
  -5   1  -5  251.60   13.54
  -5   1  -5  249.20   13.43
  -5   1  -5  229.10   12.32
   5  -1   5  254.00   13.68
   5  -1   5  259.70   14.02
  -4   1  -5  288.40   15.49
  -4   1  -5  260.70   14.04
   4  -1   5  252.90   13.65
   4  -1   5  245.80   13.24
   3  -1   5   26.21    1.52
  -2   1  -5  285.80   15.36
  -2   1  -5  307.50   16.52
  -2   1  -5  283.10   15.20
   2  -1   5  298.50   16.05
   2  -1   5  303.00   16.27
  -1   1  -5  235.70   12.66
  -1   1  -5  196.10   10.55
   1  -1   5  212.20   11.42
   1  -1   5  215.90   11.61
   0   1  -5  210.30   11.30
   0   1  -5  190.50   10.24
   0  -1   5  218.70   11.75
   0  -1   5  221.70   11.92
   1   1  -5  632.10   33.87
  -1  -1   5  648.20   34.72
  -1  -1   5  613.50   32.88
   2   1  -5   38.33    2.08
   2   1  -5   41.65    2.27
  -2  -1   5   39.48    2.17
  -2  -1   5   35.95    1.96
   3   1  -5  178.10    9.58
   3   1  -5  153.70    8.26
  -3  -1   5  196.40   10.55
  -3  -1   5  176.40    9.49
   4   1  -5  438.60   23.92
  -4  -1   5  401.00   21.74
  -4  -1   5  455.30   24.64
  -5  -1   5   53.10    2.94
  -5  -1   5   45.37    2.52
   6   1  -5  369.60   20.00
   6   1  -5  385.40   20.86
  -6  -1   5  390.60   21.07
   7   1  -5   77.58    4.19
   7   1  -5   81.22    4.40
  -7  -1   5   82.68    4.47
  -7  -1   5   70.52    3.80
   8   1  -5   58.86    3.23
   8   1  -5   63.49    3.46
  -8  -1   5   45.73    2.50
  -8  -1   5   45.24    2.49
   9   1  -5  209.80   11.29
   9   1  -5  193.10   10.41
  -9  -1   5  189.40   10.21
  -9  -1   5  192.00   10.33
  10   1  -5    0.76    0.48
  10   1  -5    1.07    0.56
 -10  -1   5    0.42    0.32
 -10  -1   5    1.15    0.49
 -10  -1   5    0.06    0.27
  11   1  -5  166.00    8.98
  11   1  -5  168.40    9.14
 -11  -1   5  160.90    8.68
 -11  -1   5  154.10    8.36
 -11  -1   5  177.10    9.54
 -12  -1   5   46.54    2.60
 -12  -1   5   52.21    2.90
  13   1  -5   21.36    1.45
  13   1  -5   23.08    1.73
 -13  -1   5   25.43    1.52
 -13  -1   5   23.53    1.44
  14   1  -5  130.40    7.21
  14   1  -5  123.90    6.77
 -14  -1   5  123.80    6.71
 -14  -1   5  119.70    6.49
  15   1  -5   15.72    1.56
  15   1  -5   16.99    2.01
 -15  -1   5   10.62    0.95
 -15  -1   5    8.32    0.81
 -16  -1   5   56.71    3.17
 -16  -1   5   52.22    3.06
  -9   1  -6   23.93    1.42
  -9   1  -6   26.59    1.65
   9  -1   6   27.18    2.01
   9  -1   6   28.37    1.78
  -8   1  -6    3.64    0.51
  -8   1  -6    3.20    0.64
   8  -1   6    3.45    1.11
   8  -1   6    2.61    0.79
  -7   1  -6   12.63    1.01
  -7   1  -6   12.34    0.84
   7  -1   6   15.75    1.37
   7  -1   6   15.38    1.16
  -6   1  -6   12.49    0.96
  -6   1  -6   13.27    0.86
   6  -1   6   14.39    1.15
   6  -1   6   12.77    0.98
  -5   1  -6    5.09    0.66
  -5   1  -6    3.69    0.43
   5  -1   6    4.82    0.81
   5  -1   6    6.06    0.69
  -4   1  -6   48.83    2.69
  -4   1  -6   51.92    2.91
   4  -1   6   50.34    2.89
   4  -1   6   51.48    2.89
  -3   1  -6   30.30    1.71
  -3   1  -6   30.16    1.78
   3  -1   6   28.84    1.77
   3  -1   6   27.15    1.62
  -2   1  -6    4.15    0.51
   2  -1   6    4.34    0.51
  -1   1  -6   22.76    1.34
  -1   1  -6   22.32    1.28
   1  -1   6   25.51    1.54
   1  -1   6   22.83    1.33
   0   1  -6   21.18    1.21
   0   1  -6   18.86    1.12
   0  -1   6   19.05    1.19
   0  -1   6   18.32    1.10
   1   1  -6   45.90    2.51
   1   1  -6   44.43    2.44
  -1  -1   6   45.04    2.50
  -1  -1   6   46.50    2.54
   2   1  -6   51.42    2.80
   2   1  -6   56.13    3.04
  -2  -1   6   53.26    2.92
  -2  -1   6   48.13    2.63
   3   1  -6    6.18    0.41
   3   1  -6    5.64    0.35
  -3  -1   6    6.12    0.40
  -3  -1   6    6.04    0.48
  -4  -1   6   16.71    0.94
  -4  -1   6   17.74    0.98
  -8  -1   6    6.37    0.38
  -8  -1   6    6.61    0.40
   9   1  -6   18.48    1.12
   9   1  -6   17.33    1.04
  -9  -1   6   18.54    1.04
  -9  -1   6   19.30    1.08
  10   1  -6    6.77    0.65
  10   1  -6    6.38    0.73
 -10  -1   6    5.92    0.46
 -10  -1   6    4.75    0.38
  11   1  -6   18.43    1.29
  11   1  -6   16.28    1.14
 -11  -1   6   16.71    1.02
 -11  -1   6   15.31    0.92
  12   1  -6   26.00    1.74
  12   1  -6   30.90    1.88
 -12  -1   6   24.43    1.43
 -12  -1   6   24.55    1.41
  13   1  -6    0.94    1.18
  13   1  -6    1.33    0.95
 -13  -1   6    1.45    0.58
 -13  -1   6    2.76    0.53
  14   1  -6   12.50    1.51
  14   1  -6   13.98    1.36
 -14  -1   6   11.14    0.92
 -14  -1   6   11.35    0.87
  15   1  -6    0.60    1.77
  15   1  -6    3.45    1.35
 -15  -1   6    2.94    0.86
 -15  -1   6    2.34    0.66
   8  -1   7   54.08    3.28
   8  -1   7   44.82    2.59
  -7   1  -7   50.43    2.87
  -7   1  -7   43.19    2.42
  -6   1  -7  112.40    6.08
  -6   1  -7  127.40    6.93
   6  -1   7  144.70    7.93
   6  -1   7  127.80    6.96
  -5   1  -7    4.28    0.69
  -5   1  -7    5.87    0.52
   5  -1   7    2.06    0.67
   5  -1   7    4.12    0.91
  -4   1  -7  191.90   10.37
  -4   1  -7  175.30    9.45
   4  -1   7  215.50   11.63
   4  -1   7  200.30   10.87
  -3   1  -7  145.80    7.87
  -3   1  -7  151.10    8.19
   3  -1   7  147.30    8.04
   3  -1   7  147.00    7.97
   2  -1   7   10.77    1.00
   2  -1   7   10.95    0.86
  -1   1  -7  194.10   10.47
   1  -1   7  197.20   10.64
   0   1  -7   16.55    0.98
   0   1  -7   16.02    1.02
   0  -1   7   13.61    0.97
   0  -1   7   13.38    0.87
   1   1  -7  228.30   12.27
   1   1  -7  239.00   12.84
  -1  -1   7  231.70   12.48
  -1  -1   7  237.00   12.74
   2   1  -7  296.20   15.90
   2   1  -7  313.30   16.81
  -2  -1   7  293.20   15.75
  -2  -1   7  297.00   15.94
   3   1  -7   15.44    0.91
   3   1  -7   14.61    0.83
  -3  -1   7   14.18    0.84
  -3  -1   7   15.27    0.96
   4   1  -7  317.80   17.11
   4   1  -7  297.80   16.03
  -4  -1   7  316.70   17.04
  -4  -1   7  289.60   15.59
  11   1  -7    0.00    0.64
  11   1  -7    0.78    0.61
 -11  -1   7    0.26    0.28
 -11  -1   7    0.48    0.25
  12   1  -7  133.60    7.32
  12   1  -7  127.20    6.94
 -12  -1   7  116.00    6.27
 -12  -1   7  124.20    6.71
  13   1  -7   29.20    2.12
  13   1  -7   29.44    1.85
 -13  -1   7   19.59    1.18
 -13  -1   7   23.25    1.36
  14   1  -7   41.85    2.63
  14   1  -7   39.88    2.99
 -14  -1   7   38.37    2.16
 -14  -1   7   40.95    2.32
  15   1  -7  102.60    5.88
 -15  -1   7   98.75    5.42
 -15  -1   7   91.01    5.00
  -7   1  -8    0.09    0.62
  -7   1  -8    0.25    0.47
   7  -1   8    1.17    0.94
   7  -1   8    0.85    1.28
  -6   1  -8   10.32    0.86
  -6   1  -8    8.59    0.71
   6  -1   8   11.62    1.40
   6  -1   8   12.57    1.13
  -5   1  -8    4.85    0.54
  -5   1  -8    4.87    0.71
   5  -1   8    4.71    0.77
   5  -1   8    4.67    1.07
  -4   1  -8    0.73    0.38
  -4   1  -8    0.98    0.69
   4  -1   8    0.49    0.86
   4  -1   8    0.45    0.69
  -3   1  -8   12.51    0.98
  -3   1  -8   10.00    0.72
   3  -1   8   11.75    0.97
   3  -1   8   11.94    1.16
  -2   1  -8    3.59    0.41
  -2   1  -8    2.27    0.57
   2  -1   8    2.75    0.83
   2  -1   8    1.72    0.59
  -1   1  -8   26.18    1.51
  -1   1  -8   28.15    1.71
   1  -1   8   27.60    1.67
   1  -1   8   29.32    1.87
   0  -1   8   11.41    0.86
   1   1  -8    0.19    0.30
   1   1  -8   -0.14    0.41
  -1  -1   8   -0.11    0.46
  -1  -1   8    0.78    0.64
   2   1  -8   34.43    1.97
  -2  -1   8   28.67    1.65
  -2  -1   8   25.85    1.59
   3   1  -8    8.40    0.63
   3   1  -8    8.79    0.57
  -3  -1   8    7.35    0.55
  -3  -1   8    7.33    0.74
   4   1  -8   18.07    1.02
   4   1  -8   16.71    0.98
  -4  -1   8   17.77    1.13
  -4  -1   8   16.23    0.96
  -6   1  -9   61.43    3.39
  -6   1  -9   61.91    3.48
   6  -1   9   86.86    4.86
   6  -1   9   92.99    5.41
   5  -1   9  155.50    8.49
  -4   1  -9    1.73    0.66
   4  -1   9    2.14    1.25
  -3   1  -9  187.60   10.12
   3  -1   9  194.30   10.53
   3  -1   9  169.90    9.33
  -2   1  -9   72.11    4.01
  -2   1  -9   84.15    4.59
   2  -1   9   80.77    4.61
   2  -1   9   74.38    4.14
  -1   1  -9   52.22    2.89
  -1   1  -9   55.38    3.12
   1  -1   9   65.29    3.64
   1  -1   9   55.72    3.28
   0   1  -9  317.80   17.10
   0   1  -9  382.90   20.56
   0  -1   9  334.30   18.04
   0  -1   9  332.30   17.88
   1   1  -9   31.92    1.82
   1   1  -9   31.08    1.85
  -1  -1   9   32.85    1.93
  -1  -1   9   28.75    1.92
   2   1  -9   67.22    3.71
   2   1  -9   63.38    3.47
  -2  -1   9   69.60    3.82
  -2  -1   9   67.19    3.77
   3   1  -9  134.20    7.24
   3   1  -9  123.00    6.66
  -3  -1   9  129.80    7.02
  -3  -1   9  129.10    7.04
   4   1  -9   14.33    0.90
   4   1  -9   15.69    0.91
  -4  -1   9   13.95    1.06
  -4  -1   9   16.34    0.99
  -5  -1   9  265.90   14.48
  -5  -1   9  291.20   15.85
  -5   1 -10    9.21    0.94
  -5   1 -10    8.31    0.76
   5  -1  10   10.34    1.30
   5  -1  10   11.60    1.78
  -4   1 -10    6.32    0.87
  -4   1 -10    6.31    0.66
   4  -1  10    6.44    1.00
   4  -1  10    4.68    1.55
  -3   1 -10    3.10    0.74
  -3   1 -10    2.85    0.54
   3  -1  10    2.85    0.92
   3  -1  10    2.56    1.35
  -2   1 -10    9.19    0.75
  -2   1 -10    7.15    0.82
   2  -1  10    9.01    1.41
   2  -1  10    7.31    0.93
  -1   1 -10    0.27    0.54
  -1   1 -10    0.17    0.45
   1  -1  10   -0.72    0.70
   1  -1  10    0.55    1.16
   0   1 -10    5.43    0.72
   0   1 -10    3.69    0.50
   0  -1  10    4.99    1.15
   0  -1  10    5.34    0.81
   1   1 -10    3.42    0.47
   1   1 -10    3.52    0.63
  -1  -1  10    1.05    1.05
  -1  -1  10    3.46    0.69
   2   1 -10    1.08    0.42
   2   1 -10    1.18    0.54
  -2  -1  10    1.29    1.02
  -2  -1  10    2.01    0.61
   3   1 -10    2.34    0.53
   3   1 -10    1.23    0.38
  -3  -1  10    3.77    0.62
  -3  -1  10    2.95    0.91
   4   1 -10    1.72    0.34
   4   1 -10    1.39    0.47
  -4  -1  10    0.98    0.86
  -4  -1  10    0.88    0.50
  -5  -1  10   11.21    0.86
  -5  -1  10   12.51    0.78
  -4   1 -11   66.82    3.69
  -4   1 -11   65.67    3.68
   4  -1  11   78.55    4.49
   4  -1  11   84.17    5.05
  -3   1 -11    2.50    0.61
  -3   1 -11    4.00    0.88
   3  -1  11    5.90    1.12
   3  -1  11    5.02    1.73
  -2   1 -11   84.55    4.66
  -2   1 -11   85.40    4.66
   2  -1  11  101.40    5.75
   2  -1  11  101.60    5.61
  -1   1 -11   26.01    1.54
  -1   1 -11   21.47    1.41
   1  -1  11   22.65    1.58
   1  -1  11   21.28    1.95
   0   1 -11   50.64    2.82
   0   1 -11   52.02    2.94
   0  -1  11   56.53    3.45
   0  -1  11   62.99    3.56
   1   1 -11  149.00    8.05
   1   1 -11  141.80    7.69
  -1  -1  11  142.10    7.85
  -1  -1  11  158.90    8.62
   2   1 -11    0.46    0.45
   2   1 -11    0.18    0.61
  -2  -1  11   -0.35    1.37
  -2  -1  11    0.68    0.73
   3   1 -11  124.70    6.75
   3   1 -11  126.20    6.86
  -3  -1  11  127.20    7.02
  -3  -1  11  135.60    7.37
   4   1 -11  117.00    6.36
   4   1 -11  120.90    6.53
  -4  -1  11  115.60    6.29
  -4  -1  11  115.40    6.38
  -5  -1  11   20.26    1.38
  -5  -1  11   22.68    1.34
  -3   1 -12    0.42    0.84
  -2   1 -12    9.75    0.76
  -2   1 -12   10.03    1.08
   2  -1  12   10.73    2.00
   2  -1  12   12.87    1.59
  -1   1 -12    3.68    0.84
  -1   1 -12    4.75    0.57
   1  -1  12    5.95    1.29
   1  -1  12    5.57    1.61
   0   1 -12    0.39    0.77
   0   1 -12    0.50    0.53
   0  -1  12    0.52    1.02
   0  -1  12    0.11    1.73
   1   1 -12    6.61    0.93
   1   1 -12    5.73    0.62
  -1  -1  12    7.61    1.10
  -1  -1  12    7.90    1.72
   2   1 -12    2.99    0.79
   2   1 -12    3.29    0.55
  -2  -1  12    5.12    1.67
  -2  -1  12    4.76    1.01
   3   1 -12   11.24    0.82
   3   1 -12   11.34    0.98
  -3  -1  12   11.29    1.75
   4   1 -12   13.87    0.95
   4   1 -12   13.02    0.90
  -4  -1  12   17.95    1.77
  -4  -1  12   16.57    1.23
  -5  -1  12    0.25    0.96
  -5  -1  12    0.44    0.61
  -1   1 -13   82.50    4.57
  -1   1 -13   78.40    4.28
   1  -1  13   97.67    5.62
   1  -1  13  101.40    6.12
   0   1 -13   16.49    1.09
   0   1 -13   16.22    1.37
   0  -1  13   20.97    2.12
   0  -1  13   22.09    2.60
   1   1 -13   46.57    2.75
   1   1 -13   38.72    2.20
  -1  -1  13   50.69    3.71
  -1  -1  13   57.64    3.47
   2   1 -13   72.59    3.98
   2   1 -13   77.75    4.32
  -2  -1  13   77.39    4.81
  -2  -1  13   84.80    4.77
   3   1 -13    0.30    0.88
   3   1 -13    0.49    0.62
  -3  -1  13   -0.15    1.13
  -3  -1  13    1.91    2.17
   4   1 -13   69.35    3.82
   4   1 -13   82.56    4.54
  -4  -1  13   87.94    5.25
  -4  -1  13   79.92    4.45
  -4   2  13    0.51    1.34
  -4   2  13    3.47    2.11
   4  -2 -13    0.79    0.68
   4  -2 -13    0.69    0.60
   3  -2 -13   45.23    2.54
   3  -2 -13   47.52    2.69
  -2   2  13    4.40    1.45
  -2   2  13    4.23    1.98
   2  -2 -13    2.19    0.70
   2  -2 -13    2.03    0.78
  -1   2  13   18.83    2.43
  -1   2  13   15.60    1.87
   1  -2 -13   14.37    1.17
   1  -2 -13   16.04    1.10
   0   2  13   31.34    2.45
   0   2  13   29.07    2.84
   0  -2 -13   25.71    1.55
   0  -2 -13   24.84    1.63
   1   2  13   -0.20    1.60
   1   2  13    3.19    2.32
  -1  -2 -13    0.16    0.97
  -1  -2 -13    1.26    0.63
  -5   2  12   98.94    5.45
  -5   2  12  105.40    5.87
  -4   2  12    5.72    1.57
  -4   2  12    5.46    1.09
   4  -2 -12    5.06    0.58
   4  -2 -12    4.72    0.57
  -3   2  12   67.78    3.88
  -3   2  12   58.68    3.62
   3  -2 -12   55.75    3.10
   3  -2 -12   50.81    2.82
  -2   2  12   63.74    3.65
  -2   2  12   63.26    3.80
   2  -2 -12   54.70    3.02
   2  -2 -12   54.61    3.05
  -1   2  12    7.44    1.13
  -1   2  12    8.32    1.52
   1  -2 -12    8.01    0.79
   1  -2 -12    7.53    0.68
   0   2  12  118.50    6.71
   0   2  12  110.90    6.09
   0  -2 -12   98.79    5.38
   0  -2 -12   91.89    5.00
   1   2  12   28.00    2.33
   1   2  12   28.67    2.02
  -1  -2 -12   23.43    1.48
  -1  -2 -12   21.80    1.31
   2   2  12   23.70    1.86
   2   2  12   27.17    2.36
  -2  -2 -12   23.72    1.43
  -2  -2 -12   21.92    1.45
  -5   2  11   25.96    1.62
  -5   2  11   26.83    1.71
  -4   2  11   11.33    1.07
  -4   2  11   11.19    1.33
   4  -2 -11    7.90    0.61
   4  -2 -11    8.31    0.64
  -3   2  11   16.01    1.25
  -3   2  11   12.03    1.29
  -2   2  11   67.70    3.81
  -2   2  11   68.13    3.95
   2  -2 -11   63.10    3.47
   2  -2 -11   64.15    3.54
  -1   2  11    2.36    0.78
  -1   2  11    1.66    1.12
   1  -2 -11    2.29    0.86
   1  -2 -11    1.71    0.58
   1  -2 -11    0.71    0.46
   0   2  11   18.37    1.31
   0   2  11   16.56    1.64
   0  -2 -11   17.51    1.11
   0  -2 -11   16.21    1.11
   0  -2 -11   18.60    1.42
   1   2  11   26.28    1.99
   1   2  11   27.37    1.77
  -1  -2 -11   26.90    1.84
  -1  -2 -11   21.24    1.38
  -1  -2 -11   23.67    1.43
   2   2  11    0.68    1.36
   2   2  11    1.32    0.94
  -2  -2 -11    0.86    0.51
  -2  -2 -11    1.34    0.71
  -2  -2 -11    1.26    1.26
   3   2  11   47.83    2.82
   3   2  11   47.77    3.15
  -3  -2 -11   43.39    2.45
  -3  -2 -11   41.66    2.40
  -3  -2 -11   50.44    3.10
   4   2  11   15.32    1.51
  -4  -2 -11   12.38    1.06
  -5   2  10   80.14    4.40
  -5   2  10   87.99    4.82
   5  -2 -10   76.49    4.17
   5  -2 -10   78.60    4.29
  -4   2  10  154.40    8.35
  -4   2  10  145.70    7.92
   4  -2 -10  121.60    6.57
   4  -2 -10  135.20    7.29
  -3   2  10    0.52    0.62
  -3   2  10    0.80    0.74
   3  -2 -10    0.45    0.67
   3  -2 -10    0.11    0.46
   3  -2 -10    0.24    0.36
  -2   2  10  112.20    6.12
  -2   2  10  116.40    6.39
   2  -2 -10  105.70    5.76
   2  -2 -10  100.90    5.54
   2  -2 -10  122.70    6.66
  -1   2  10   86.81    4.78
  -1   2  10   87.48    4.91
   1  -2 -10   81.67    4.51
   1  -2 -10   76.34    4.18
   0   2  10   35.99    2.26
   0   2  10   33.84    2.00
   0  -2 -10   31.55    1.83
   0  -2 -10   28.77    1.80
   1   2  10  100.70    5.52
   1   2  10  100.90    5.62
  -1  -2 -10   88.80    4.86
  -1  -2 -10   90.22    4.99
   2   2  10    8.25    0.92
   2   2  10    8.17    1.25
  -2  -2 -10    9.98    1.11
  -2  -2 -10    7.81    0.74
   3   2  10   76.90    4.28
   3   2  10   74.50    4.30
  -3  -2 -10   66.73    3.70
  -3  -2 -10   71.52    3.92
  -3  -2 -10   72.87    4.14
   4   2  10  104.00    5.83
   4   2  10   99.15    5.47
  -4  -2 -10   96.20    5.40
  -4  -2 -10   87.81    4.82
  -4  -2 -10   76.59    4.19
   5   2  10    1.38    1.07
   5   2  10    1.10    1.68
  -5  -2 -10   -0.81    0.80
  -5  -2 -10    0.45    0.55
  -5  -2 -10    1.24    1.34
  -5   2   9    7.52    0.66
  -5   2   9    6.98    0.62
  -4   2   9  105.30    5.73
  -4   2   9  100.80    5.48
   4  -2  -9   99.63    5.38
   4  -2  -9   94.34    5.10
   4  -2  -9   95.85    5.21
  -3   2   9   21.86    1.31
  -3   2   9   20.74    1.30
   3  -2  -9   19.21    1.14
   3  -2  -9   19.47    1.20
  -2   2   9   23.97    1.43
  -2   2   9   26.72    1.67
   2  -2  -9   26.34    1.61
   2  -2  -9   26.47    1.53
  -1   2   9   48.06    2.71
  -1   2   9   55.20    3.19
   1  -2  -9   44.06    2.49
   0   2   9    3.52    0.62
   0   2   9    2.85    0.85
   0  -2  -9    3.19    0.68
   0  -2  -9    2.61    0.51
   1   2   9   62.65    3.60
   1   2   9   60.47    3.38
  -1  -2  -9   60.70    3.36
  -1  -2  -9   57.76    3.26
   2   2   9   37.43    2.34
   2   2   9   39.43    2.30
  -2  -2  -9   38.37    2.22
  -2  -2  -9   37.06    2.23
   3   2   9   12.14    1.03
   3   2   9   14.15    1.36
  -3  -2  -9   10.35    0.98
  -3  -2  -9   11.16    0.97
   4   2   9   46.10    2.69
   4   2   9   42.24    2.61
  -4  -2  -9   38.45    2.25
  -4  -2  -9   37.76    2.33
   5   2   9    6.90    1.41
   5   2   9    7.42    1.06
  -5  -2  -9    6.47    0.80
  -5  -2  -9    8.64    1.12
   6   2   9   21.67    1.57
   6   2   9   20.37    1.89
  -6  -2  -9   21.22    1.33
  -6  -2  -9   24.02    1.58
  -6  -2  -9   20.04    1.67
   5  -2  -8   22.96    1.28
   5  -2  -8   22.16    1.23
  -4   2   8  156.70    8.46
  -4   2   8  153.80    8.30
   4  -2  -8  148.00    7.97
   4  -2  -8  146.30    7.89
  -3   2   8  172.60    9.30
  -3   2   8  171.90    9.29
   3  -2  -8  180.30    9.71
   3  -2  -8  178.20    9.61
  -2   2   8   21.19    1.26
  -2   2   8   25.35    1.55
   2  -2  -8   26.12    1.49
   2  -2  -8   22.85    1.38
   0   2   8   96.09    5.26
   0   2   8   95.52    5.30
   0  -2  -8  100.60    5.47
   0  -2  -8  105.40    5.76
   1   2   8   51.40    2.90
   1   2   8   50.04    2.91
  -1  -2  -8   50.17    2.85
  -1  -2  -8   56.06    3.13
   2   2   8  144.20    7.87
   2   2   8  145.90    7.92
  -2  -2  -8  136.10    7.38
  -2  -2  -8  146.50    7.94
   3   2   8   10.99    1.03
   3   2   8   13.12    1.03
  -3  -2  -8   10.19    0.85
  -3  -2  -8   11.74    0.99
   4   2   8  122.50    6.73
   4   2   8  131.30    7.16
  -4  -2  -8  111.20    6.06
  -4  -2  -8  111.80    6.11
   5   2   8  111.50    6.09
   5   2   8  111.50    6.14
  -5  -2  -8   91.79    5.02
  -5  -2  -8   96.22    5.30
   6   2   8    5.05    0.85
   6   2   8    6.28    1.09
  -6  -2  -8    4.58    0.99
  -6  -2  -8    5.66    0.70
   7   2   8   97.72    5.39
   7   2   8   95.66    5.37
  -7  -2  -8   90.25    4.94
  -7  -2  -8   96.32    5.38
 -15   2   7    0.54    0.87
 -15   2   7    0.71    1.17
  15  -2  -7   -0.49    1.60
 -14   2   7   18.50    1.21
 -14   2   7   19.18    1.32
  14  -2  -7   23.18    1.66
  14  -2  -7   17.82    2.13
 -13   2   7   55.66    3.10
 -13   2   7   51.81    2.86
  13  -2  -7   50.90    2.88
  13  -2  -7   44.18    2.80
 -12   2   7    2.03    0.41
 -12   2   7    3.09    0.57
  12  -2  -7    1.80    1.01
  12  -2  -7    2.97    0.65
 -11   2   7   79.40    4.33
 -11   2   7   70.80    3.84
  11  -2  -7   67.00    3.72
  11  -2  -7   72.88    3.99
  -5   2   7   22.63    1.28
  -5   2   7   25.80    1.43
   5  -2  -7   22.48    1.25
   5  -2  -7   27.15    1.52
  -4   2   7   18.47    1.09
  -4   2   7   19.11    1.10
   4  -2  -7   17.54    1.01
   4  -2  -7   15.85    0.88
  -3   2   7  195.00   10.49
  -3   2   7  194.40   10.45
   3  -2  -7  197.50   10.62
   3  -2  -7  207.50   11.14
  -2   2   7   48.62    2.66
  -2   2   7   46.30    2.56
   2  -2  -7   49.18    2.68
   2  -2  -7   49.96    2.75
  -1   2   7   75.47    4.10
  -1   2   7   78.60    4.29
   1  -2  -7   71.73    3.89
   1  -2  -7   74.26    4.05
   0   2   7   56.15    3.13
   0   2   7   57.49    3.16
   0  -2  -7   55.03    3.02
   0  -2  -7   60.19    3.33
   1   2   7    0.98    0.48
   1   2   7    1.58    0.65
  -1  -2  -7    0.96    0.52
  -1  -2  -7    1.20    0.44
   2   2   7  125.90    6.83
   2   2   7  128.70    7.02
  -2  -2  -7  119.60    6.49
  -2  -2  -7  116.80    6.35
   3   2   7   61.06    3.40
   3   2   7   64.34    3.62
  -3  -2  -7   58.26    3.23
  -3  -2  -7   67.30    3.73
   4   2   7    8.95    0.76
   4   2   7   10.03    0.96
  -4  -2  -7    8.62    0.74
  -4  -2  -7    7.08    0.75
   5   2   7   27.43    1.77
   5   2   7   29.58    1.79
  -5  -2  -7   27.84    1.67
  -5  -2  -7   25.39    1.52
   6   2   7    7.71    0.78
   6   2   7    6.48    0.98
  -6  -2  -7    6.77    0.80
  -6  -2  -7    5.46    0.68
   7   2   7   35.81    2.14
   7   2   7   34.66    2.15
  -7  -2  -7   27.80    1.83
  -7  -2  -7   30.57    1.81
   8   2   7   45.94    2.68
   8   2   7   42.45    2.65
  -8  -2  -7   42.09    2.61
  -8  -2  -7   39.99    2.31
 -15   2   6   33.65    1.99
 -15   2   6   34.90    2.18
  15  -2  -6   32.10    2.24
  15  -2  -6   30.33    2.99
 -14   2   6   21.98    1.45
 -14   2   6   21.85    1.37
  14  -2  -6   21.47    1.62
  14  -2  -6   24.35    2.21
  13  -2  -6   88.78    4.92
  13  -2  -6   91.05    5.29
  12  -2  -6   18.76    1.69
  12  -2  -6   16.15    1.16
 -11   2   6   88.06    4.78
 -11   2   6   85.12    4.65
  11  -2  -6   90.79    4.97
  11  -2  -6   87.25    4.85
 -10   2   6  155.60    8.40
 -10   2   6  153.50    8.26
  10  -2  -6  152.90    8.26
  10  -2  -6  144.50    7.84
  -9   2   6    0.47    0.23
  -9   2   6    0.29    0.37
   9  -2  -6    0.42    0.38
   9  -2  -6    0.45    0.56
  -8   2   6  167.00    9.00
  -8   2   6  189.60   10.23
   8  -2  -6  180.80    9.77
   8  -2  -6  159.30    8.61
  -7   2   6   63.91    3.47
  -7   2   6   61.86    3.37
  -6   2   6  150.90    8.24
  -6   2   6  159.70    8.71
   6  -2  -6  150.60    8.85
  -5   2   6  442.40   23.90
  -5   2   6  453.40   24.48
   5  -2  -6  455.60   24.74
  -4   2   6   15.74    0.89
  -4   2   6   15.37    0.92
   4  -2  -6   15.33    0.87
   4  -2  -6   15.25    0.84
  -3   2   6  147.60    7.94
  -3   2   6  142.10    7.65
   3  -2  -6  144.30    7.75
   3  -2  -6  138.30    7.45
  -2   2   6  193.30   10.38
  -2   2   6  184.80    9.94
   2  -2  -6  174.50    9.37
   2  -2  -6  180.20    9.69
  -1   2   6   28.70    1.63
  -1   2   6   26.28    1.48
   1  -2  -6   28.97    1.64
   1  -2  -6   31.20    1.73
   0   2   6  363.60   19.51
   0   2   6  337.70   18.13
   0  -2  -6  357.40   19.17
   0  -2  -6  363.00   19.49
   1   2   6   82.04    4.48
   1   2   6   88.10    4.79
  -1  -2  -6   87.61    4.78
  -1  -2  -6   81.36    4.42
   2   2   6   97.51    5.30
   2   2   6  107.00    5.86
  -2  -2  -6  108.10    5.87
  -2  -2  -6  103.20    5.62
   3   2   6  180.50    9.75
   3   2   6  171.10    9.28
  -3  -2  -6  172.60    9.32
  -3  -2  -6  176.70    9.54
   4   2   6    0.15    0.68
   4   2   6    0.19    0.50
  -4  -2  -6    0.86    0.55
  -4  -2  -6    0.00    0.40
   5   2   6  178.50    9.64
   5   2   6  172.60    9.37
  -5  -2  -6  164.20    8.88
  -5  -2  -6  183.40    9.90
   6   2   6   56.30    3.21
   6   2   6   59.07    3.31
  -6  -2  -6   53.79    3.03
  -6  -2  -6   51.69    2.89
   7   2   6   27.27    1.70
   7   2   6   29.07    1.84
  -7  -2  -6   29.67    1.77
  -7  -2  -6   25.73    1.61
   8   2   6  109.10    6.02
   8   2   6  111.60    6.12
  -8  -2  -6   90.14    4.92
  -8  -2  -6   95.96    5.31
   9   2   6   13.50    1.17
   9   2   6   12.02    1.34
  -9  -2  -6   10.50    1.11
  -9  -2  -6    9.63    0.82
 -15   2   5   19.54    1.44
 -15   2   5   20.38    1.32
  15  -2  -5   22.05    2.62
  15  -2  -5   21.04    1.84
 -14   2   5    0.45    0.54
 -14   2   5   -0.10    0.74
  14  -2  -5   -0.42    1.69
  14  -2  -5   -0.79    1.04
 -13   2   5   42.53    2.40
 -13   2   5   45.01    2.58
  13  -2  -5   48.40    3.00
  13  -2  -5   52.70    3.04
  12  -2  -5   31.30    2.13
  12  -2  -5   29.92    1.88
 -11   2   5    3.50    0.46
 -11   2   5    5.19    0.69
  11  -2  -5    5.47    0.72
  11  -2  -5    5.33    1.03
 -10   2   5   62.56    3.42
 -10   2   5   65.85    3.63
  10  -2  -5   66.39    3.66
  10  -2  -5   63.83    3.61
  -9   2   5    1.80    0.31
  -9   2   5    1.22    0.44
   9  -2  -5    0.94    0.68
   9  -2  -5    0.85    0.40
  -8   2   5   59.51    3.26
  -8   2   5   55.30    3.00
   8  -2  -5   59.66    3.26
   8  -2  -5   60.14    3.32
  -7   2   5  166.70    8.96
  -7   2   5  151.60    8.17
   7  -2  -5  157.80    8.51
   7  -2  -5  161.80    8.70
   6  -2  -5    3.97    0.35
   6  -2  -5    3.96    0.30
  -5   2   5  118.50    6.38
  -5   2   5  116.70    6.30
   5  -2  -5  113.20    6.10
   5  -2  -5  119.20    6.42
  -4   2   5   86.00    4.65
  -4   2   5   88.09    4.75
   4  -2  -5   84.74    4.56
   4  -2  -5   87.22    4.70
  -3   2   5   38.83    2.12
  -3   2   5   41.07    2.23
   3  -2  -5   42.36    2.30
   3  -2  -5   38.64    2.09
  -2   2   5  172.80    9.29
  -2   2   5  166.90    8.97
   2  -2  -5  190.80   10.24
   2  -2  -5  180.50    9.70
  -1   2   5    3.38    0.31
  -1   2   5    2.43    0.29
   1  -2  -5    3.67    0.33
   1  -2  -5    2.71    0.27
   0   2   5  147.90    7.97
   0   2   5  152.10    8.18
   0  -2  -5  159.30    8.57
   0  -2  -5  149.00    8.03
   1   2   5   72.19    3.94
   1   2   5   81.53    4.43
  -1  -2  -5   78.20    4.26
  -1  -2  -5   68.79    3.74
   2   2   5    5.82    0.53
   2   2   5    6.03    0.53
  -2  -2  -5    5.21    0.52
  -2  -2  -5    6.24    0.50
   3   2   5  128.30    6.95
   3   2   5  114.10    6.23
  -3  -2  -5  121.40    6.59
  -3  -2  -5  121.20    6.57
   4   2   5   15.40    1.01
   4   2   5   13.95    1.05
  -4  -2  -5   14.78    0.96
  -4  -2  -5   16.04    1.06
   5   2   5   66.47    3.67
   5   2   5   66.85    3.74
  -5  -2  -5   68.46    3.77
  -5  -2  -5   56.38    3.14
   6   2   5  156.70    8.48
   6   2   5  158.80    8.63
  -6  -2  -5  148.40    8.03
  -6  -2  -5  144.00    7.81
   7   2   5    1.54    0.57
   7   2   5    1.03    0.72
  -7  -2  -5    2.04    0.57
  -7  -2  -5    0.41    0.50
   8   2   5   50.86    2.92
   8   2   5   50.91    2.91
  -8  -2  -5   48.80    2.79
  -8  -2  -5   50.49    2.83
   9   2   5   31.68    2.05
   9   2   5   31.80    1.98
  -9  -2  -5   25.59    1.54
  -9  -2  -5   26.84    1.77
  10   2   5   12.32    1.35
  10   2   5   12.25    1.17
 -10  -2  -5   10.20    1.33
 -10  -2  -5   11.30    0.96
 -16   2   4    2.72    0.80
 -16   2   4    3.26    1.32
  16  -2  -4    4.52    1.87
  16  -2  -4    4.25    2.33
 -15   2   4   78.11    4.38
 -15   2   4   78.75    4.30
  15  -2  -4   95.05    5.53
  15  -2  -4   98.54    5.54
 -14   2   4   34.58    2.00
 -14   2   4   29.54    1.83
  14  -2  -4   29.60    2.41
  14  -2  -4   30.99    1.99
 -13   2   4   22.77    1.47
 -13   2   4   20.94    1.29
  13  -2  -4   25.83    1.73
  13  -2  -4   27.77    2.12
 -12   2   4   87.45    4.81
 -12   2   4   88.47    4.82
  12  -2  -4   95.24    5.38
  12  -2  -4   88.86    4.89
 -11   2   4    3.80    0.76
 -11   2   4    4.94    0.54
  11  -2  -4    2.18    0.65
  11  -2  -4    1.21    1.08
 -10   2   4  172.00    9.27
 -10   2   4  178.50    9.65
  10  -2  -4  182.80    9.88
  10  -2  -4  184.80   10.04
  -9   2   4  144.60    7.83
  -9   2   4  152.40    8.22
   9  -2  -4  145.10    7.89
   9  -2  -4  151.90    8.21
  -8   2   4   23.30    1.30
  -8   2   4   26.28    1.52
   8  -2  -4   33.52    1.87
   8  -2  -4   33.35    1.96
  -7   2   4  248.40   13.35
  -7   2   4  270.10   14.49
   7  -2  -4  263.40   14.17
   7  -2  -4  268.50   14.41
  -6   2   4   78.70    4.26
  -6   2   4   83.40    4.49
   6  -2  -4   79.68    4.30
   6  -2  -4   78.32    4.26
  -5   2   4  174.10    9.36
  -5   2   4  170.80    9.17
   5  -2  -4  173.00    9.31
   5  -2  -4  182.50    9.80
  -4   2   4  356.60   19.14
  -4   2   4  374.30   20.07
   4  -2  -4  400.40   21.49
  -3   2   4    3.71    0.25
  -3   2   4    3.67    0.36
   3  -2  -4    3.65    0.27
   3  -2  -4    4.07    0.26
  -2   2   4  448.10   24.01
  -2   2   4  442.20   23.70
   2  -2  -4  412.60   22.11
  -1   2   4  480.40   25.74
  -1   2   4  482.60   25.86
   1  -2  -4  444.10   23.80
   1  -2  -4  493.90   26.46
   0   2   4   65.47    3.56
   0   2   4   60.87    3.30
   0  -2  -4   61.91    3.36
   0  -2  -4   61.81    3.35
   1   2   4  589.30   31.58
   1   2   4  527.20   28.25
  -1  -2  -4  618.00   33.11
  -1  -2  -4  572.50   30.68
   2   2   4   25.36    1.46
   2   2   4   24.59    1.41
   3   2   4  166.40    8.96
   3   2   4  162.20    8.76
  -3  -2  -4  180.40    9.72
  -3  -2  -4  161.20    8.70
   4   2   4  283.70   15.28
   4   2   4  322.00   17.30
  -4  -2  -4  303.40   16.31
  -4  -2  -4  293.20   15.77
   5   2   4    0.63    0.40
   5   2   4    0.59    0.58
  -5  -2  -4    0.35    0.41
  -5  -2  -4    0.42    0.49
   6   2   4  185.60   10.06
   6   2   4  179.40    9.69
  -6  -2  -4  167.50    9.05
  -6  -2  -4  172.50    9.32
   7   2   4   57.14    3.19
   7   2   4   63.56    3.58
  -7  -2  -4   56.03    3.12
  -7  -2  -4   61.11    3.41
   8   2   4   56.65    3.22
   8   2   4   47.57    2.71
  -8  -2  -4   45.54    2.60
  -8  -2  -4   49.25    2.77
   9   2   4  164.90    8.97
   9   2   4  161.60    8.75
  -9  -2  -4  144.00    7.79
  -9  -2  -4  144.30    7.85
  10   2   4    7.61    1.03
  10   2   4    8.94    0.99
 -10  -2  -4    7.96    0.95
 -10  -2  -4    6.10    0.73
  11   2   4   64.69    3.74
  11   2   4   61.46    3.49
 -11  -2  -4   66.05    3.80
 -11  -2  -4   60.25    3.36
 -15   2   3   16.54    1.08
 -15   2   3   16.61    1.44
  15  -2  -3   20.70    2.16
  15  -2  -3   26.23    1.93
 -14   2   3   36.09    2.09
 -14   2   3   35.29    2.13
  14  -2  -3   36.81    2.30
  14  -2  -3   42.42    2.92
 -13   2   3    0.67    0.53
 -13   2   3    0.25    0.72
  13  -2  -3    1.91    1.38
  13  -2  -3    0.22    0.84
 -12   2   3   46.97    2.63
 -12   2   3   55.81    3.17
  12  -2  -3   53.83    3.06
  12  -2  -3   50.54    3.04
 -11   2   3    2.00    0.65
 -11   2   3    3.84    0.50
  11  -2  -3    2.94    0.84
  11  -2  -3    3.37    0.65
 -10   2   3    5.52    0.56
 -10   2   3    8.14    0.89
  10  -2  -3   10.89    0.92
  10  -2  -3    7.84    1.01
  -9   2   3   97.77    5.33
  -9   2   3  105.60    5.71
   9  -2  -3   94.76    5.23
   9  -2  -3   99.75    5.41
   8  -2  -3   33.80    1.89
   8  -2  -3   38.98    2.25
  -7   2   3   94.21    5.08
  -7   2   3   96.10    5.21
   7  -2  -3  101.30    5.47
   7  -2  -3   95.84    5.23
  -6   2   3   42.17    2.32
  -6   2   3   36.69    2.00
   6  -2  -3   44.22    2.47
   6  -2  -3   43.06    2.35
  -5   2   3   17.86    0.99
  -5   2   3   19.20    1.10
   5  -2  -3   21.60    1.26
   5  -2  -3   20.37    1.14
  -4   2   3  280.20   15.03
  -4   2   3  317.90   17.04
   4  -2  -3  295.50   15.86
   4  -2  -3  317.60   17.02
  -3   2   3  247.20   13.25
  -3   2   3  269.10   14.44
   3  -2  -3  263.40   14.12
   3  -2  -3  256.20   13.74
  -2   2   3  109.40    5.88
  -2   2   3   95.90    5.17
   2  -2  -3  107.20    5.76
   2  -2  -3  106.20    5.71
  -1   2   3   70.06    3.78
  -1   2   3   77.77    4.19
   1  -2  -3   72.05    3.88
   1  -2  -3   71.10    3.84
   0   2   3  117.30    6.32
   0   2   3  111.20    5.99
   0  -2  -3  116.70    6.28
   0  -2  -3  113.40    6.10
   1   2   3  159.90    8.60
   1   2   3  158.80    8.55
  -1  -2  -3  172.60    9.28
  -1  -2  -3  166.00    8.92
   2   2   3  286.90   15.40
   2   2   3  289.40   15.53
  -2  -2  -3  298.80   16.04
  -2  -2  -3  281.30   15.10
   3   2   3    5.06    0.44
   3   2   3    5.70    0.50
  -3  -2  -3    6.95    0.51
  -3  -2  -3    5.23    0.47
   4   2   3   76.77    4.18
   4   2   3   73.03    4.01
  -4  -2  -3   75.85    4.15
  -4  -2  -3   74.23    4.05
   5   2   3   19.67    1.25
  -5  -2  -3   22.54    1.35
   6   2   3   41.91    2.34
   6   2   3   42.64    2.44
  -6  -2  -3   42.53    2.39
  -6  -2  -3   40.82    2.33
   7   2   3   88.83    4.88
   7   2   3   81.69    4.47
  -7  -2  -3   73.29    4.03
  -7  -2  -3   80.08    4.41
   8   2   3   10.10    0.94
   8   2   3    9.23    0.75
  -8  -2  -3   10.20    0.78
  -8  -2  -3    7.64    0.83
   9   2   3   35.29    2.13
   9   2   3   41.91    2.40
  -9  -2  -3   34.19    1.98
  -9  -2  -3   37.92    2.24
  10   2   3   14.24    1.16
  10   2   3   18.03    1.32
 -10  -2  -3   15.62    1.24
 -10  -2  -3   15.28    1.07
  11   2   3   14.34    1.28
  11   2   3   14.52    1.22
 -11  -2  -3   14.16    1.00
 -11  -2  -3   12.43    1.27
 -15   2   2    3.82    0.97
 -15   2   2    3.12    0.60
  15  -2  -2    6.58    1.72
  15  -2  -2    6.98    1.38
 -14   2   2   77.13    4.28
 -14   2   2   80.52    4.40
  14  -2  -2   96.08    5.53
  14  -2  -2   89.86    5.02
  13  -2  -2   13.67    1.12
  13  -2  -2   15.12    1.50
 -12   2   2   61.48    3.45
 -12   2   2   51.36    2.87
  12  -2  -2   67.69    3.78
  12  -2  -2   64.56    3.73
 -11   2   2  140.70    7.65
 -11   2   2  129.90    7.05
  11  -2  -2  132.60    7.27
  11  -2  -2  127.70    6.95
 -10   2   2    0.59    0.66
 -10   2   2    0.06    0.36
  10  -2  -2    0.90    0.75
  10  -2  -2    1.50    0.61
   9  -2  -2  182.60    9.91
   9  -2  -2  161.80    8.74
  -8   2   2   96.94    5.27
  -8   2   2  102.90    5.56
   8  -2  -2   97.99    5.32
   8  -2  -2   88.42    4.87
   7  -2  -2   26.95    1.53
   7  -2  -2   23.25    1.42
  -6   2   2  262.10   14.06
  -6   2   2  242.10   13.02
   6  -2  -2  262.10   14.07
   6  -2  -2  246.10   13.24
  -5   2   2   90.56    4.88
  -5   2   2   75.25    4.08
   5  -2  -2   77.82    4.24
   5  -2  -2   70.33    3.80
  -4   2   2  234.20   12.55
  -4   2   2  236.40   12.69
  -3   2   2  316.40   16.95
  -3   2   2  278.80   14.96
   3  -2  -2  315.10   16.90
   3  -2  -2  315.10   16.89
  -2   2   2   77.83    4.20
  -2   2   2   86.78    4.67
   2  -2  -2   70.90    3.83
   2  -2  -2   72.90    3.92
   0   2   2   60.61    3.28
   0   2   2   67.99    3.67
   0  -2  -2   63.19    3.42
   0  -2  -2   66.02    3.56
   1   2   2   59.46    3.22
   1   2   2   62.29    3.38
  -1  -2  -2   57.04    3.10
  -1  -2  -2   54.09    2.93
   2   2   2  163.50    8.79
   2   2   2  176.00    9.47
  -2  -2  -2  181.20    9.74
  -2  -2  -2  167.10    8.98
   3   2   2    9.82    0.65
   3   2   2   11.46    0.71
   4   2   2  299.70   16.10
   4   2   2  284.90   15.29
  -4  -2  -2  308.40   16.56
  -4  -2  -2  295.70   15.87
   5   2   2  204.90   11.02
   5   2   2  209.40   11.29
  -5  -2  -2  220.00   11.83
  -5  -2  -2  207.30   11.16
   6   2   2   15.80    1.06
   6   2   2   14.48    0.96
  -6  -2  -2   17.27    1.11
  -6  -2  -2   16.11    1.05
   7   2   2  215.40   11.61
   7   2   2  196.30   10.61
  -7  -2  -2  180.60    9.77
  -7  -2  -2  178.10    9.63
   8   2   2   24.41    1.45
   8   2   2   23.21    1.46
  -8  -2  -2   19.98    1.23
  -8  -2  -2   23.45    1.48
   9   2   2  135.10    7.37
   9   2   2  131.60    7.13
  -9  -2  -2  131.80    7.15
  -9  -2  -2  123.60    6.74
  10   2   2  128.60    7.01
  10   2   2  123.50    6.73
 -10  -2  -2  113.40    6.21
 -10  -2  -2  115.40    6.28
  11   2   2   -0.56    0.71
  11   2   2   -0.07    0.92
 -11  -2  -2   -0.49    0.75
 -11  -2  -2   -0.17    0.51
  12   2   2   98.31    5.41
  12   2   2   99.69    5.58
 -12  -2  -2   91.65    5.02
 -12  -2  -2   89.03    4.98
 -14   2   1   20.74    1.30
 -14   2   1   17.86    1.25
  14  -2  -1   18.87    2.02
  14  -2  -1   22.41    1.72
 -13   2   1   27.69    1.64
 -13   2   1   26.59    1.73
  13  -2  -1   24.67    1.71
  13  -2  -1   30.07    2.21
 -12   2   1    6.57    0.85
 -12   2   1    4.45    0.56
  12  -2  -1    6.26    1.13
  12  -2  -1    7.17    0.83
 -11   2   1   66.69    3.67
 -11   2   1   64.97    3.66
  11  -2  -1   70.31    3.92
  11  -2  -1   68.46    3.89
 -10   2   1   19.54    1.18
 -10   2   1   18.70    1.28
  10  -2  -1   13.94    1.03
  10  -2  -1   16.40    1.24
  -9   2   1   12.06    0.94
  -9   2   1   10.64    0.71
   9  -2  -1   15.13    1.13
   9  -2  -1   16.52    1.10
  -8   2   1   81.47    4.47
  -8   2   1   84.90    4.61
   8  -2  -1   87.36    4.82
   8  -2  -1   82.39    4.50
  -7   2   1    1.13    0.41
  -7   2   1    0.38    0.23
   7  -2  -1    1.32    0.58
   7  -2  -1    2.23    0.38
  -6   2   1  115.70    6.23
  -6   2   1  122.10    6.60
   6  -2  -1  131.30    7.12
   6  -2  -1  133.00    7.17
  -5   2   1   26.64    1.51
  -5   2   1   25.42    1.41
   5  -2  -1   26.39    1.53
   5  -2  -1   28.54    1.59
  -4   2   1    1.06    0.28
  -4   2   1    0.44    0.15
   4  -2  -1    1.12    0.35
   4  -2  -1    1.24    0.23
  -3   2   1    6.28    0.39
  -3   2   1    7.32    0.51
  -2   2   1   15.61    0.91
  -2   2   1   14.23    0.79
   2  -2  -1   16.96    1.00
   2  -2  -1   16.51    0.91
  -1   2   1  164.90    8.85
  -1   2   1  157.60    8.48
   1  -2  -1  151.20    8.11
   1  -2  -1  151.50    8.15
   0   2   1  128.40    6.91
   0   2   1  141.00    7.58
   0  -2  -1  141.10    7.58
   0  -2  -1  124.10    6.67
   1   2   1   28.00    1.55
   1   2   1   28.54    1.57
   2   2   1  263.80   14.16
   2   2   1  245.50   13.17
  -2  -2  -1  256.10   13.74
  -2  -2  -1  232.40   12.47
   3   2   1   60.51    3.28
   3   2   1   60.65    3.31
  -3  -2  -1   64.96    3.53
  -3  -2  -1   63.91    3.47
   4   2   1  118.70    6.42
   4   2   1  114.70    6.18
  -4  -2  -1  114.40    6.17
  -4  -2  -1  115.60    6.24
   5   2   1  143.80    7.75
   5   2   1  146.20    7.90
  -5  -2  -1  162.80    8.77
  -5  -2  -1  164.40    8.86
   6   2   1   13.48    0.94
   6   2   1   13.87    0.87
  -6  -2  -1   13.80    0.89
  -6  -2  -1   14.17    0.90
   7   2   1   55.74    3.12
   7   2   1   58.75    3.24
  -7  -2  -1   62.33    3.45
  -7  -2  -1   61.19    3.39
   8   2   1  110.30    6.03
   8   2   1  106.70    5.80
  -8  -2  -1  106.10    5.79
  -8  -2  -1  109.50    5.95
   9   2   1    6.88    0.80
   9   2   1    5.58    0.65
  -9  -2  -1    5.88    0.63
  -9  -2  -1    4.83    0.73
  10   2   1   79.23    4.40
  10   2   1   73.03    4.04
 -10  -2  -1   68.86    3.81
 -10  -2  -1   72.92    4.06
  11   2   1   25.98    1.64
  11   2   1   22.61    1.57
 -11  -2  -1   25.08    1.61
 -11  -2  -1   21.74    1.36
  12   2   1   12.58    1.24
  12   2   1   11.91    1.08
 -12  -2  -1    8.98    1.13
 -12  -2  -1   12.34    1.00
  13   2   1   35.24    2.32
  13   2   1   36.04    2.21
 -13  -2  -1   33.85    2.03
 -13  -2  -1   34.99    2.34
 -14   2   0   27.68    1.81
 -14   2   0   29.59    1.75
  14  -2   0   38.80    2.52
  14  -2   0   36.62    2.84
 -13   2   0  102.60    5.58
 -13   2   0   98.01    5.38
  13  -2   0  104.80    5.91
  13  -2   0  101.90    5.60
 -12   2   0    6.46    0.94
 -12   2   0    9.23    0.75
  12  -2   0    5.39    1.22
  12  -2   0    4.09    0.91
 -11   2   0   64.56    3.63
 -11   2   0   55.72    3.08
  11  -2   0   66.72    3.80
  11  -2   0   75.55    4.21
 -10   2   0   90.76    4.99
 -10   2   0   99.55    5.41
  10  -2   0   94.03    5.16
  10  -2   0  101.30    5.59
  -9   2   0   39.88    2.31
  -9   2   0   32.72    1.85
   9  -2   0   41.77    2.44
   9  -2   0   46.24    2.61
  -8   2   0  167.10    9.05
  -8   2   0  153.10    8.26
   8  -2   0  168.30    9.12
   8  -2   0  166.50    9.00
  -7   2   0   90.53    4.90
  -7   2   0   93.40    5.09
   7  -2   0   99.03    5.43
   7  -2   0   93.34    5.07
  -6   2   0  148.20    8.00
  -6   2   0  149.40    8.04
   6  -2   0  144.70    7.85
   6  -2   0  158.60    8.55
  -5   2   0  413.00   22.17
  -5   2   0  408.10   21.87
   5  -2   0  383.90   20.58
   5  -2   0  390.00   20.94
  -4   2   0    0.26    0.17
  -4   2   0   -0.11    0.30
   4  -2   0    0.10    0.35
   4  -2   0    0.52    0.24
  -3   2   0  246.60   13.23
  -3   2   0  238.70   12.83
   3  -2   0  250.70   13.47
   3  -2   0  269.70   14.46
  -2   2   0   50.63    2.76
  -2   2   0   50.09    2.71
   2  -2   0   50.60    2.78
   2  -2   0   46.55    2.52
  -1   2   0  121.50    6.55
  -1   2   0  125.50    6.74
   1  -2   0  130.10    6.99
   1  -2   0  128.40    6.92
   1   2   0  138.10    7.42
   1   2   0  136.60    7.35
  -1  -2   0  144.10    7.73
  -1  -2   0  147.30    7.92
   2   2   0   63.16    3.42
   2   2   0   59.10    3.20
  -2  -2   0   58.81    3.18
  -2  -2   0   53.97    2.93
   3   2   0  262.80   14.11
   3   2   0  271.90   14.58
  -3  -2   0  238.70   12.81
  -3  -2   0  268.00   14.37
   4   2   0   -0.20    0.24
   4   2   0    0.11    0.23
  -4  -2   0   -0.03    0.24
  -4  -2   0   -0.05    0.24
   5   2   0  417.40   22.39
   5   2   0  386.20   20.70
  -5  -2   0  416.50   22.34
  -5  -2   0  404.00   21.67
   6   2   0  138.90    7.51
   6   2   0  155.80    8.39
  -6  -2   0  156.40    8.43
  -6  -2   0  155.50    8.39
   7   2   0   96.56    5.27
   7   2   0  103.20    5.59
  -7  -2   0   97.86    5.32
  -7  -2   0   95.40    5.18
   8   2   0  169.20    9.15
   8   2   0  176.40    9.52
  -8  -2   0  149.30    8.09
  -8  -2   0  174.70    9.45
   9   2   0   43.86    2.49
   9   2   0   43.16    2.47
  -9  -2   0   38.74    2.20
  -9  -2   0   39.54    2.29
  10   2   0   89.92    4.96
  10   2   0  101.00    5.52
 -10  -2   0   98.74    5.39
 -10  -2   0   91.96    5.07
  11   2   0   75.38    4.17
  11   2   0   72.23    4.05
 -11  -2   0   70.68    3.97
 -11  -2   0   69.80    3.87
  12   2   0    3.53    0.87
 -12  -2   0    3.86    1.05
 -12  -2   0    6.15    0.78
  13   2   0  105.70    5.80
  13   2   0  110.00    6.13
 -13  -2   0  107.20    5.99
 -13  -2   0  100.80    5.50
  14   2   0   37.13    2.33
  14   2   0   38.45    2.78
 -14  -2   0   24.52    1.50
 -14  -2   0   27.40    1.69
 -13   2  -1   29.32    1.73
 -13   2  -1   31.11    1.90
  13  -2   1   37.95    2.39
  13  -2   1   36.99    2.64
 -12   2  -1   12.73    1.12
 -12   2  -1   13.23    0.91
  12  -2   1   12.06    1.48
  12  -2   1   12.58    1.13
  11  -2   1   24.61    1.75
  11  -2   1   25.48    1.64
 -10   2  -1   72.98    4.05
 -10   2  -1   79.04    4.31
  10  -2   1   69.10    3.84
  10  -2   1   70.67    3.97
  -9   2  -1    7.99    0.61
  -9   2  -1    6.26    0.69
   9  -2   1    4.48    0.61
   9  -2   1    5.76    0.83
  -8   2  -1  112.50    6.14
  -8   2  -1  120.40    6.51
   8  -2   1  112.40    6.11
   8  -2   1  112.60    6.16
  -7   2  -1   54.30    3.05
  -7   2  -1   57.69    3.17
   7  -2   1   62.28    3.49
   7  -2   1   61.74    3.41
  -6   2  -1   13.19    0.90
  -6   2  -1   10.42    0.67
   6  -2   1   14.80    0.93
   6  -2   1   13.85    1.03
  -5   2  -1  138.20    7.47
  -5   2  -1  154.30    8.30
   5  -2   1  165.20    8.94
   5  -2   1  154.80    8.34
   4  -2   1  104.80    5.65
   4  -2   1  105.90    5.76
  -3   2  -1   56.52    3.10
  -3   2  -1   52.05    2.83
   3  -2   1   63.29    3.44
   3  -2   1   58.18    3.20
  -2   2  -1  245.40   13.18
  -2   2  -1  239.30   12.84
   2  -2   1  206.80   11.10
   2  -2   1  233.70   12.56
  -1   2  -1   27.75    1.52
  -1   2  -1   23.64    1.33
   1  -2   1   29.15    1.60
   1  -2   1   26.79    1.51
   0   2  -1  104.10    5.60
   0   2  -1  113.70    6.13
   0  -2   1  118.70    6.41
   0  -2   1  117.00    6.29
   1   2  -1  144.90    7.78
   1   2  -1  160.40    8.63
  -1  -2   1  140.90    7.56
  -1  -2   1  153.50    8.25
   2   2  -1   19.19    1.08
   2   2  -1   18.37    1.03
  -2  -2   1   19.19    1.06
  -2  -2   1   19.76    1.10
   3   2  -1    8.21    0.51
   3   2  -1    8.41    0.52
  -3  -2   1    7.50    0.46
  -3  -2   1    8.24    0.50
   4   2  -1    1.04    0.22
   4   2  -1    0.95    0.25
  -4  -2   1    0.82    0.19
  -4  -2   1    1.03    0.20
   5   2  -1   26.63    1.48
   5   2  -1   28.84    1.63
  -5  -2   1   28.52    1.59
  -5  -2   1   29.77    1.66
   6   2  -1  125.70    6.80
   6   2  -1  124.30    6.70
  -6  -2   1  124.80    6.73
  -6  -2   1  131.90    7.11
   7   2  -1    0.94    0.38
   7   2  -1    1.37    0.34
  -7  -2   1    1.49    0.38
  -7  -2   1    1.16    0.33
   8   2  -1   89.10    4.85
  -8  -2   1   85.71    4.67
   9   2  -1   14.09    0.96
   9   2  -1   15.65    1.09
  10   2  -1   19.12    1.31
  10   2  -1   16.48    1.12
 -10  -2   1   17.58    1.24
 -10  -2   1   19.21    1.21
  11   2  -1   76.44    4.23
  11   2  -1   72.90    4.07
 -11  -2   1   70.96    3.98
 -11  -2   1   68.85    3.81
  12   2  -1    6.85    0.83
  12   2  -1    6.79    0.90
  13   2  -1   24.15    1.60
  13   2  -1   29.67    2.06
 -13  -2   1   21.94    1.58
 -13  -2   1   26.39    1.59
  14   2  -1   24.72    2.06
  14   2  -1   20.75    1.54
 -14  -2   1   18.68    1.20
 -14  -2   1   20.13    1.87
 -14  -2   1   19.34    1.27
 -12   2  -2   81.12    4.43
 -12   2  -2   85.45    4.70
  12  -2   2  101.10    5.58
  12  -2   2   96.55    5.46
 -11   2  -2    0.28    0.70
 -11   2  -2    0.61    0.42
  11  -2   2    0.80    0.73
  11  -2   2    1.29    1.13
 -10   2  -2  109.60    5.94
 -10   2  -2  115.00    6.29
  10  -2   2  110.80    6.10
  10  -2   2  122.70    6.69
  -9   2  -2  135.60    7.37
  -9   2  -2  147.50    7.97
   9  -2   2  129.50    7.04
   9  -2   2  139.60    7.62
   7  -2   2  184.30    9.98
   7  -2   2  197.20   10.64
  -6   2  -2   18.72    1.11
  -6   2  -2   15.14    1.05
   6  -2   2   15.24    0.98
   6  -2   2   16.46    1.15
  -5   2  -2  187.30   10.10
  -5   2  -2  163.50    8.80
   5  -2   2  211.00   11.35
   5  -2   2  203.00   10.96
  -4   2  -2  282.90   15.20
  -4   2  -2  274.50   14.73
   4  -2   2  278.40   14.95
   4  -2   2  278.10   14.97
   3  -2   2   10.02    0.72
   3  -2   2   11.16    0.71
  -2   2  -2  158.10    8.51
  -2   2  -2  165.10    8.87
   2  -2   2  176.00    9.46
   2  -2   2  144.50    7.77
   2  -2   2  156.80    8.45
  -1   2  -2   59.04    3.22
  -1   2  -2   61.48    3.33
   1  -2   2   55.68    3.05
   1  -2   2   61.68    3.34
   0   2  -2   53.57    2.92
   0   2  -2   54.92    2.97
   0  -2   2   59.58    3.25
   0  -2   2   61.07    3.30
   1   2  -2  479.90   25.72
  -1  -2   2  489.70   26.24
   2   2  -2   82.09    4.42
   2   2  -2   77.17    4.18
  -2  -2   2   84.01    4.52
  -2  -2   2   80.85    4.36
   3   2  -2  305.10   16.36
   3   2  -2  323.00   17.31
  -3  -2   2  328.70   17.62
   4   2  -2  260.60   13.98
   4   2  -2  277.20   14.86
  -4  -2   2  257.90   13.83
  -4  -2   2  249.30   13.37
   5   2  -2   82.51    4.47
   5   2  -2   75.38    4.07
  -5  -2   2   83.00    4.48
  -5  -2   2   79.06    4.27
   6   2  -2  278.80   14.98
   6   2  -2  245.60   13.18
  -6  -2   2  236.40   12.70
  -6  -2   2  255.40   13.71
   7   2  -2   22.81    1.36
   7   2  -2   24.46    1.38
  -7  -2   2   20.86    1.21
  -7  -2   2   24.15    1.39
   8   2  -2  101.70    5.55
   8   2  -2   99.09    5.37
  -8  -2   2  105.70    5.73
  -8  -2   2   96.69    5.25
   9   2  -2  154.00    8.36
   9   2  -2  155.80    8.41
  -9  -2   2  147.20    7.96
  -9  -2   2  152.00    8.24
  10   2  -2    0.24    0.68
  10   2  -2    1.25    0.57
 -10  -2   2    1.02    0.52
 -10  -2   2    1.70    0.67
  11   2  -2  138.80    7.57
  11   2  -2  138.30    7.50
 -11  -2   2  127.50    6.98
 -11  -2   2  140.10    7.59
 -12  -2   2   59.20    3.29
 -12  -2   2   67.83    3.85
  13   2  -2   16.65    1.46
  13   2  -2   13.81    1.13
 -13  -2   2   15.47    1.04
 -13  -2   2   15.04    1.44
  14   2  -2   93.26    5.16
  14   2  -2   99.50    5.62
 -14  -2   2   94.60    5.34
 -14  -2   2   91.22    4.97
  15   2  -2    6.36    1.54
  15   2  -2    4.56    1.11
 -15  -2   2    3.36    0.61
 -15  -2   2    4.56    0.94
 -11   2  -3   14.05    1.11
 -11   2  -3   15.80    1.02
  11  -2   3   14.32    1.41
  11  -2   3   14.03    1.17
 -10   2  -3   12.03    0.82
 -10   2  -3   14.05    1.04
  10  -2   3   17.01    1.44
  10  -2   3   17.02    1.25
  -9   2  -3   38.82    2.26
  -9   2  -3   38.06    2.14
   9  -2   3   38.78    2.33
   9  -2   3   37.92    2.20
  -8   2  -3   11.96    0.81
  -8   2  -3    9.12    0.84
  -7   2  -3   76.64    4.23
  -7   2  -3   68.50    3.75
   7  -2   3   82.67    4.58
   7  -2   3   85.23    4.66
  -6   2  -3   39.88    2.23
  -6   2  -3   40.59    2.35
   6  -2   3   43.38    2.50
   6  -2   3   40.37    2.31
  -5   2  -3   17.27    1.04
   5  -2   3   22.82    1.47
  -4   2  -3   58.89    3.22
  -4   2  -3   70.34    3.85
   4  -2   3   72.05    3.98
   4  -2   3   76.03    4.15
  -3   2  -3    5.32    0.47
  -3   2  -3    6.52    0.46
   3  -2   3    5.49    0.58
   3  -2   3    4.72    0.41
  -2   2  -3  278.40   14.94
  -2   2  -3  270.90   14.55
   2  -2   3  255.60   13.74
   2  -2   3  290.50   15.59
  -1   2  -3  153.40    8.26
  -1   2  -3  160.00    8.60
   1  -2   3  159.80    8.60
   1  -2   3  148.80    8.00
   1  -2   3  159.30    8.58
   0   2  -3  116.40    6.26
   0   2  -3  116.10    6.27
   0  -2   3  117.40    6.31
   0  -2   3  109.50    5.92
   1   2  -3   62.91    3.40
   1   2  -3   65.01    3.53
  -1  -2   3   62.37    3.37
  -1  -2   3   68.14    3.70
   2   2  -3   98.66    5.32
   2   2  -3   93.94    5.05
  -2  -2   3  103.90    5.59
  -2  -2   3  106.20    5.72
   3   2  -3  279.10   14.96
   3   2  -3  260.20   13.96
  -3  -2   3  263.20   14.11
  -3  -2   3  286.00   15.33
   4   2  -3  285.20   15.30
   4   2  -3  298.70   16.02
  -4  -2   3  333.90   17.90
  -4  -2   3  304.40   16.32
   5   2  -3   20.23    1.14
   5   2  -3   23.23    1.30
  -5  -2   3   23.17    1.28
  -5  -2   3   21.38    1.19
   6   2  -3   40.46    2.23
   6   2  -3   44.99    2.45
  -6  -2   3   47.81    2.61
  -6  -2   3   44.35    2.42
   7   2  -3   96.37    5.20
   7   2  -3  103.00    5.59
  -7  -2   3  103.10    5.56
  -7  -2   3  108.90    5.88
   8   2  -3   39.54    2.19
   8   2  -3   42.89    2.42
  -8  -2   3   39.22    2.17
  -8  -2   3   32.56    1.84
   9   2  -3  103.70    5.61
   9   2  -3  106.90    5.84
  -9  -2   3   88.14    4.79
  -9  -2   3   98.96    5.39
  10   2  -3   13.66    1.14
  10   2  -3   12.67    0.97
 -10  -2   3   10.57    0.84
 -10  -2   3   12.11    1.06
  11   2  -3    2.72    0.58
  11   2  -3    2.60    0.73
 -11  -2   3    2.84    0.53
 -11  -2   3    3.33    0.74
  12   2  -3   61.01    3.47
  12   2  -3   56.57    3.16
  13   2  -3    0.54    0.75
  13   2  -3    2.04    1.02
 -13  -2   3    1.16    0.59
 -13  -2   3    1.16    1.05
  14   2  -3   38.72    2.32
  14   2  -3   40.24    2.61
 -14  -2   3   37.26    2.53
 -14  -2   3   42.16    2.40
 -14  -2   3   38.63    2.22
  15   2  -3   22.53    1.96
  15   2  -3   20.29    1.56
 -15  -2   3   17.53    1.15
 -15  -2   3   18.72    1.34
 -11   2  -4   52.42    2.98
 -11   2  -4   56.70    3.13
  11  -2   4   68.33    4.06
  11  -2   4   67.44    3.84
  10  -2   4    9.68    0.98
  10  -2   4    9.02    1.23
  -9   2  -4  159.70    8.65
  -9   2  -4  142.80    7.71
   9  -2   4  162.80    8.82
   9  -2   4  154.50    8.45
  -8   2  -4   53.72    2.97
  -8   2  -4   52.03    2.96
   8  -2   4   46.01    2.62
   8  -2   4   48.53    2.83
  -7   2  -4   49.52    2.74
  -7   2  -4   54.92    3.08
   7  -2   4   54.41    3.13
   7  -2   4   61.41    3.41
  -6   2  -4  175.70    9.47
  -6   2  -4  167.80    9.08
   6  -2   4  177.10    9.62
   6  -2   4  180.90    9.78
  -5   2  -4    1.41    0.59
  -5   2  -4    0.96    0.30
   5  -2   4    0.36    0.55
   5  -2   4    0.83    0.65
  -4   2  -4  316.00   17.00
  -4   2  -4  277.70   14.92
  -3   2  -4  189.90   10.21
  -3   2  -4  160.10    8.64
   3  -2   4  178.50    9.65
   3  -2   4  161.90    8.73
  -2   2  -4   24.06    1.40
  -2   2  -4   22.07    1.25
   2  -2   4   29.47    1.67
   2  -2   4   26.35    1.56
  -1   2  -4  575.30   30.82
  -1   2  -4  560.00   30.01
   1  -2   4  536.90   28.79
   1  -2   4  524.40   28.10
   0   2  -4   65.07    3.53
   0   2  -4   62.80    3.42
   0  -2   4   56.91    3.12
   0  -2   4   57.35    3.12
   1   2  -4  463.40   24.84
   1   2  -4  450.10   24.12
  -1  -2   4  432.90   23.21
   2   2  -4  460.70   24.68
   2   2  -4  420.50   22.54
  -2  -2   4  382.30   20.50
   3   2  -4    3.74    0.25
   3   2  -4    3.66    0.35
  -3  -2   4    3.32    0.31
  -3  -2   4    4.38    0.29
   4   2  -4  405.40   21.74
   4   2  -4  363.60   19.51
  -4  -2   4  395.40   21.20
   5   2  -4  187.10   10.06
   5   2  -4  174.30    9.37
  -5  -2   4  171.40    9.20
  -5  -2   4  177.30    9.52
   6   2  -4   87.33    4.72
   6   2  -4   83.62    4.52
  -6  -2   4   79.87    4.31
  -6  -2   4   86.55    4.66
   7   2  -4  261.50   14.05
   7   2  -4  273.40   14.67
  -7  -2   4  272.10   14.61
  -7  -2   4  296.20   15.89
   8   2  -4   32.14    1.84
   8   2  -4   36.09    2.01
  -8  -2   4   31.50    1.77
  -8  -2   4   26.82    1.50
  -9  -2   4  142.50    7.68
  -9  -2   4  145.30    7.87
  10   2  -4  177.60    9.64
  10   2  -4  175.00    9.45
 -10  -2   4  171.90    9.27
 -10  -2   4  176.20    9.53
  11   2  -4    2.09    0.68
  12   2  -4   89.50    4.96
  12   2  -4   90.67    4.97
 -12  -2   4   87.22    4.76
 -12  -2   4   86.10    4.80
  13   2  -4   31.53    2.05
  13   2  -4   26.06    1.68
 -13  -2   4   23.61    1.44
 -13  -2   4   28.95    1.95
  14   2  -4   33.85    2.30
  14   2  -4   33.58    2.14
 -14  -2   4   28.43    2.19
 -14  -2   4   36.02    2.08
 -14  -2   4   30.84    1.82
  15   2  -4  106.20    6.01
  15   2  -4  102.70    5.73
 -15  -2   4   83.70    4.57
 -15  -2   4   86.86    4.78
  16   2  -4    4.23    2.11
  16   2  -4    6.01    1.65
 -16  -2   4    2.14    0.75
 -16  -2   4    2.69    1.18
  10  -2   5   12.58    1.53
  10  -2   5   11.03    1.17
  -9   2  -5   21.83    1.30
  -9   2  -5   26.26    1.65
   9  -2   5   30.75    2.11
   9  -2   5   30.95    1.92
  -8   2  -5   51.55    2.86
  -8   2  -5   53.47    3.03
   8  -2   5   52.93    3.12
   8  -2   5   54.59    3.10
  -7   2  -5    1.27    0.56
  -7   2  -5    0.57    0.35
   7  -2   5    0.75    0.87
   7  -2   5    1.20    0.68
  -6   2  -5  149.70    8.08
  -6   2  -5  143.50    7.78
   6  -2   5  160.40    8.74
   6  -2   5  154.10    8.35
  -5   2  -5   68.54    3.74
  -5   2  -5   62.38    3.46
   5  -2   5   67.35    3.80
   5  -2   5   63.02    3.50
  -4   2  -5   11.47    0.74
  -4   2  -5   13.78    1.01
   4  -2   5   14.57    1.11
   4  -2   5   15.68    1.06
  -3   2  -5  122.80    6.67
  -3   2  -5  127.70    6.90
   3  -2   5  118.60    6.51
   3  -2   5  130.20    7.06
  -2   2  -5    8.08    0.55
  -2   2  -5    6.27    0.55
   2  -2   5    5.45    0.63
   2  -2   5    5.15    0.50
  -1   2  -5   72.73    3.97
  -1   2  -5   68.56    3.73
   1  -2   5   79.11    4.33
   1  -2   5   76.49    4.16
   0   2  -5  152.20    8.20
   0   2  -5  162.30    8.73
   0  -2   5  145.80    7.88
   0  -2   5  151.50    8.16
   1   2  -5    3.77    0.37
   1   2  -5    2.78    0.25
  -1  -2   5    2.75    0.44
  -1  -2   5    2.97    0.32
   2   2  -5  179.50    9.65
   2   2  -5  178.00    9.56
  -2  -2   5  153.80    8.27
  -2  -2   5  166.80    8.96
  -2  -2   5  165.80    8.93
   3   2  -5   39.94    2.17
   3   2  -5   43.26    2.37
  -3  -2   5   41.29    2.27
  -3  -2   5   38.77    2.10
   4   2  -5   79.71    4.31
   4   2  -5   89.90    4.84
  -4  -2   5   81.56    4.39
  -4  -2   5   84.78    4.57
   5   2  -5  122.00    6.58
   5   2  -5  121.80    6.56
  -5  -2   5  115.00    6.19
  -5  -2   5  116.20    6.25
   6   2  -5    4.93    0.45
   6   2  -5    4.83    0.36
   7   2  -5  167.90    9.04
   7   2  -5  151.00    8.13
  -7  -2   5  158.10    8.51
  -7  -2   5  154.30    8.29
   8   2  -5   63.41    3.48
   8   2  -5   61.94    3.40
  -8  -2   5   57.31    3.11
  -8  -2   5   61.39    3.36
   9   2  -5    0.92    0.49
   9   2  -5    1.59    0.49
  -9  -2   5    1.62    0.29
  -9  -2   5    1.62    0.49
  10   2  -5   75.16    4.13
  10   2  -5   65.77    3.66
 -10  -2   5   68.49    3.73
 -10  -2   5   69.42    3.83
  11   2  -5    5.41    0.82
  11   2  -5    6.42    0.78
 -11  -2   5    6.42    0.74
 -11  -2   5    5.11    0.52
  12   2  -5   32.75    2.05
 -12  -2   5   30.13    1.74
 -12  -2   5   27.05    1.76
  13   2  -5   57.61    3.36
  13   2  -5   61.27    3.49
 -13  -2   5   54.04    3.19
 -13  -2   5   50.15    2.79
 -13  -2   5   50.53    2.83
  14   2  -5    1.74    1.33
  14   2  -5   -0.90    1.00
 -14  -2   5    0.30    0.63
 -14  -2   5    0.39    0.47
  15   2  -5   25.32    2.36
  15   2  -5   24.79    1.91
 -15  -2   5   18.90    1.24
 -15  -2   5   21.49    1.42
  -9   2  -6    7.81    0.66
  -9   2  -6    9.26    0.89
   9  -2   6   13.08    1.14
   9  -2   6   12.51    1.52
  -8   2  -6   95.03    5.17
  -8   2  -6   98.55    5.41
   8  -2   6  109.20    6.06
   8  -2   6  106.10    5.82
  -7   2  -6   29.85    1.82
  -7   2  -6   33.67    1.91
   7  -2   6   31.40    2.04
   7  -2   6   30.46    1.86
  -6   2  -6   48.68    2.69
  -6   2  -6   56.78    3.18
   6  -2   6   59.92    3.43
   6  -2   6   57.25    3.23
  -5   2  -6  175.10    9.43
  -5   2  -6  172.00    9.30
   5  -2   6  178.60    9.71
   5  -2   6  173.00    9.36
  -4   2  -6    0.30    0.54
  -4   2  -6    0.04    0.31
   4  -2   6   -0.04    0.72
   4  -2   6    0.58    0.50
  -3   2  -6  173.20    9.33
  -3   2  -6  165.80    8.97
   3  -2   6  180.00    9.73
   3  -2   6  181.20    9.83
  -2   2  -6  104.10    5.67
  -2   2  -6  109.70    5.94
   2  -2   6   99.88    5.50
   2  -2   6  101.10    5.50
  -1   2  -6   81.93    4.47
  -1   2  -6   80.73    4.39
   1  -2   6   88.90    4.88
   1  -2   6   87.16    4.74
   0   2  -6  353.30   18.96
   0   2  -6  341.50   18.33
   0  -2   6  326.70   17.54
   0  -2   6  345.70   18.58
   1   2  -6   34.19    1.89
   1   2  -6   29.85    1.69
  -1  -2   6   30.88    1.80
  -1  -2   6   26.92    1.52
   2   2  -6  181.90    9.77
   2   2  -6  180.50    9.71
  -2  -2   6  178.70    9.61
  -2  -2   6  171.90    9.27
   3   2  -6  133.80    7.20
   3   2  -6  124.60    6.70
  -3  -2   6  134.60    7.26
  -3  -2   6  137.20    7.38
   4   2  -6   15.18    0.88
   4   2  -6   14.34    0.80
  -4  -2   6   13.80    0.80
  -4  -2   6   14.42    0.85
  -4  -2   6   15.37    0.86
   5   2  -6  466.00   25.07
   5   2  -6  472.00   25.40
  -5  -2   6  458.50   24.64
  -5  -2   6  487.60   26.21
   6   2  -6  145.70    7.88
   6   2  -6  142.00    7.68
   7   2  -6   61.88    3.39
   7   2  -6   61.07    3.33
  -7  -2   6   56.41    3.05
  -7  -2   6   60.10    3.27
   8   2  -6  182.40    9.84
   8   2  -6  175.70    9.49
  -8  -2   6  182.20    9.82
  -8  -2   6  164.30    8.85
   9   2  -6    0.43    0.45
   9   2  -6    1.14    0.53
  -9  -2   6    0.71    0.44
  -9  -2   6    0.32    0.25
  10   2  -6  162.60    8.80
  10   2  -6  154.20    8.34
 -10  -2   6  155.80    8.39
 -10  -2   6  145.60    7.87
  11   2  -6   99.47    5.46
  11   2  -6   92.86    5.10
 -11  -2   6   89.26    4.90
 -11  -2   6   92.03    4.99
  12   2  -6   20.31    1.48
  12   2  -6   18.49    1.37
 -12  -2   6   19.84    1.20
 -12  -2   6   22.61    1.32
  13   2  -6   97.62    5.45
  13   2  -6  100.30    5.58
 -13  -2   6   93.00    5.07
  14   2  -6   25.51    1.85
  14   2  -6   28.30    2.11
  15   2  -6   34.88    2.44
  15   2  -6   38.27    2.87
 -15  -2   6   35.60    2.05
 -15  -2   6   36.05    2.13
  -8   2  -7   38.92    2.30
  -8   2  -7   37.09    2.11
   8  -2   7   49.78    3.09
   8  -2   7   47.39    2.75
  -7   2  -7   32.72    1.98
  -7   2  -7   33.94    1.94
   7  -2   7   36.43    2.36
   7  -2   7   33.80    2.06
  -6   2  -7    5.14    0.51
  -6   2  -7    5.87    0.79
   6  -2   7    7.56    1.13
   6  -2   7    7.52    0.85
  -5   2  -7   27.86    1.69
  -5   2  -7   24.54    1.43
   5  -2   7   28.71    1.90
   5  -2   7   29.59    1.81
  -4   2  -7    9.70    0.87
  -4   2  -7   11.87    0.78
   4  -2   7   10.04    1.04
   4  -2   7    8.87    0.80
  -3   2  -7   48.55    2.68
  -3   2  -7   59.39    3.33
   3  -2   7   62.53    3.57
   3  -2   7   58.84    3.29
  -2   2  -7  115.80    6.32
  -2   2  -7  133.50    7.21
   2  -2   7  124.10    6.80
   2  -2   7  133.40    7.25
  -1   2  -7    1.40    0.35
  -1   2  -7    0.52    0.56
   1  -2   7    0.80    0.55
   1  -2   7    0.99    0.71
   0   2  -7   52.56    2.91
   0   2  -7   51.33    2.82
   0  -2   7   57.63    3.18
   0  -2   7   50.71    2.86
   1   2  -7   84.42    4.57
   1   2  -7   77.11    4.21
  -1  -2   7   76.53    4.17
  -1  -2   7   75.43    4.16
   2   2  -7   47.90    2.64
   2   2  -7   47.37    2.59
  -2  -2   7   46.85    2.58
  -2  -2   7   48.14    2.70
   3   2  -7  198.40   10.66
   3   2  -7  189.90   10.22
  -3  -2   7  172.60    9.29
  -3  -2   7  188.80   10.17
   4   2  -7   15.46    0.87
   4   2  -7   16.93    0.98
   5   2  -7   24.49    1.37
   5   2  -7   24.28    1.34
  -5  -2   7   27.93    1.55
  -5  -2   7   24.31    1.36
  -9  -2   7   21.00    1.17
  -9  -2   7   19.48    1.09
  10   2  -7   17.07    1.13
  10   2  -7   18.82    1.16
 -10  -2   7   21.57    1.21
 -10  -2   7   18.13    1.03
  11   2  -7   78.18    4.34
  11   2  -7   81.75    4.51
 -11  -2   7   81.41    4.41
 -11  -2   7   74.00    4.02
  12   2  -7    3.84    0.93
  12   2  -7    2.80    0.96
 -12  -2   7    2.31    0.38
 -12  -2   7    3.29    0.45
  13   2  -7   57.40    3.44
  13   2  -7   54.81    3.16
 -13  -2   7   57.73    3.17
 -13  -2   7   57.91    3.18
  14   2  -7   22.81    1.86
  14   2  -7   22.61    2.29
 -14  -2   7   18.50    1.20
 -14  -2   7   19.30    1.24
  15   2  -7    1.85    2.39
  15   2  -7   -1.95    1.98
 -15  -2   7    0.20    0.83
 -15  -2   7    1.86    0.75
  -7   2  -8   84.60    4.66
  -7   2  -8   82.15    4.48
   7  -2   8   95.08    5.42
   7  -2   8  100.40    5.56
   6  -2   8    8.18    1.29
   6  -2   8    4.30    0.86
  -5   2  -8  100.70    5.47
  -5   2  -8   91.30    5.01
   5  -2   8  108.50    6.03
   5  -2   8  115.80    6.33
  -4   2  -8  119.70    6.54
  -4   2  -8  120.80    6.54
   4  -2   8  124.60    6.87
   4  -2   8  113.50    6.21
  -3   2  -8    9.01    0.67
  -3   2  -8   10.99    0.94
   3  -2   8   10.58    1.12
   3  -2   8   10.56    0.94
  -2   2  -8  138.40    7.53
  -2   2  -8  132.20    7.14
   2  -2   8  145.90    7.98
   2  -2   8  142.00    7.71
  -1   2  -8   50.99    2.89
  -1   2  -8   55.31    3.04
   1  -2   8   49.54    2.81
   1  -2   8   54.10    3.13
   0   2  -8   88.93    4.84
   0   2  -8   94.75    5.19
   0  -2   8   90.90    5.01
   0  -2   8   93.13    5.20
   1   2  -8  199.20   10.74
   1   2  -8  188.00   10.13
  -1  -2   8  215.70   11.64
  -1  -2   8  212.20   11.50
  -2  -2   8   21.58    1.32
  -2  -2   8   25.25    1.62
   3   2  -8  180.40    9.71
   3   2  -8  169.70    9.17
  -3  -2   8  164.30    8.91
  -3  -2   8  168.20    9.07
   4   2  -8  143.60    7.76
   4   2  -8  155.10    8.35
  -4  -2   8  133.90    7.26
  -4  -2   8  145.70    7.86
   5   2  -8   24.14    1.33
   5   2  -8   22.08    1.26
  -5  -2   8   21.52    1.25
  -5  -2   8   25.98    1.46
  -6   2  -9   23.22    1.45
  -5   2  -9    7.91    1.00
  -5   2  -9    5.47    0.66
   4  -2   9   38.71    2.56
   4  -2   9   45.68    2.73
  -3   2  -9   13.16    0.90
  -3   2  -9   12.20    1.06
   3  -2   9   13.34    1.50
   3  -2   9   11.84    1.09
  -2   2  -9   35.03    2.00
  -2   2  -9   34.70    2.08
   2  -2   9   41.62    2.45
   2  -2   9   36.72    2.36
  -1   2  -9   60.76    3.34
  -1   2  -9   60.03    3.37
   1  -2   9   57.82    3.40
   1  -2   9   58.60    3.30
   0   2  -9    3.24    0.68
   0   2  -9    2.27    0.43
   0  -2   9    4.50    0.75
   0  -2   9    2.81    0.97
   1   2  -9   44.59    2.59
   1   2  -9   44.88    2.50
  -1  -2   9   47.20    2.71
  -1  -2   9   49.84    3.00
   2   2  -9   24.36    1.51
   2   2  -9   26.02    1.51
  -2  -2   9   26.14    1.77
  -2  -2   9   23.86    1.46
   3   2  -9   19.41    1.24
   3   2  -9   17.88    1.07
  -3  -2   9   18.85    1.18
  -3  -2   9   19.07    1.38
   4   2  -9   99.29    5.36
   4   2  -9   95.98    5.22
  -4  -2   9   91.06    4.95
  -4  -2   9   88.41    4.84
   5   2  -9    5.48    0.47
   5   2  -9    5.57    0.38
  -5  -2   9    5.23    0.48
  -5  -2   9    4.86    0.56
  -5   2 -10    0.47    0.92
  -5   2 -10    0.32    0.58
   5  -2  10    1.00    1.14
   5  -2  10    3.32    1.82
  -4   2 -10   87.84    4.84
  -4   2 -10   78.78    4.31
   4  -2  10  105.90    5.86
   4  -2  10   97.92    5.58
  -3   2 -10   69.93    3.91
  -3   2 -10   73.96    4.06
   3  -2  10   72.21    4.06
   3  -2  10   75.39    4.38
  -2   2 -10    7.30    0.86
  -2   2 -10    5.93    0.61
   2  -2  10    8.85    1.01
   2  -2  10    9.24    1.44
  -1   2 -10   91.69    4.99
  -1   2 -10   98.30    5.40
   1  -2  10   99.43    5.60
   1  -2  10  109.50    6.01
   0   2 -10   35.24    2.09
   0   2 -10   36.49    2.06
   0  -2  10   34.07    2.07
   0  -2  10   37.35    2.51
   1   2 -10   91.64    5.05
   1   2 -10   89.94    4.89
  -1  -2  10   85.04    4.86
  -1  -2  10   90.75    5.00
   2   2 -10  131.40    7.12
   2   2 -10  108.40    5.95
  -2  -2  10  107.60    5.88
  -2  -2  10  109.80    6.13
   3   2 -10    0.06    0.58
   3   2 -10    0.02    0.42
  -3  -2  10    1.47    1.04
  -3  -2  10    0.18    0.58
   4   2 -10  134.80    7.27
   4   2 -10  132.40    7.18
  -4  -2  10  131.80    7.19
  -4  -2  10  139.60    7.56
   5   2 -10   76.53    4.15
   5   2 -10   78.73    4.29
  -5  -2  10   77.56    4.23
  -5  -2  10   78.14    4.29
  -4   2 -11   14.63    1.21
   4  -2  11   18.39    1.68
  -3   2 -11   40.29    2.40
  -3   2 -11   42.19    2.38
   3  -2  11   49.93    2.99
   3  -2  11   49.96    3.37
  -2   2 -11    1.32    0.82
  -2   2 -11    1.46    0.55
   2  -2  11   -1.04    1.53
   2  -2  11    0.19    1.00
  -1   2 -11   23.52    1.55
  -1   2 -11   22.51    1.37
   1  -2  11   27.60    1.83
   1  -2  11   30.09    2.47
   0   2 -11   17.21    1.26
   0   2 -11   19.34    1.20
   0  -2  11   20.03    1.51
   0  -2  11   18.05    1.90
   1   2 -11    1.42    0.71
   1   2 -11    1.96    0.48
  -1  -2  11    1.35    1.47
  -1  -2  11    2.39    0.88
   2   2 -11   60.92    3.43
   2   2 -11   59.05    3.26
  -2  -2  11   66.85    3.79
  -2  -2  11   64.78    3.88
   3   2 -11   12.03    1.01
   3   2 -11   14.10    0.95
  -3  -2  11   15.61    1.71
  -3  -2  11   12.84    1.10
   4   2 -11    7.97    0.62
   4   2 -11    7.13    0.79
  -4  -2  11    8.80    1.26
  -4  -2  11    9.49    0.93
   5   2 -11   23.88    1.42
   5   2 -11   23.39    1.32
  -5  -2  11   27.74    1.64
  -5  -2  11   26.86    1.77
  -2   2 -12   21.99    1.55
  -2   2 -12   24.37    1.45
   2  -2  12   27.14    2.20
   2  -2  12   31.59    2.71
  -1   2 -12   24.12    1.60
  -1   2 -12   21.94    1.31
   1  -2  12   28.97    2.06
   1  -2  12   33.40    2.77
   0   2 -12  100.50    5.51
   0   2 -12   96.14    5.22
   0  -2  12  117.90    6.48
   0  -2  12  115.40    6.59
   1   2 -12    6.73    0.88
   1   2 -12    7.05    0.73
  -1  -2  12    6.71    1.12
  -1  -2  12    8.51    1.83
   2   2 -12   50.71    2.87
   2   2 -12   54.05    2.99
  -2  -2  12   56.20    3.22
  -2  -2  12   52.95    3.41
   3   2 -12   56.39    3.19
   3   2 -12   51.61    2.86
  -3  -2  12   50.84    2.94
  -3  -2  12   53.53    3.42
   4   2 -12    4.26    0.72
   4   2 -12    4.55    0.61
  -4  -2  12    5.93    0.96
  -4  -2  12    4.67    1.51
   5   2 -12   89.48    4.87
   5   2 -12   86.98    4.74
  -5  -2  12  101.10    5.52
  -5  -2  12   90.74    5.06
  -1   2 -13    1.64    0.99
  -1   2 -13   -0.39    0.57
   1  -2  13    0.59    2.01
   1  -2  13   -0.43    2.49
   0   2 -13   25.56    1.78
   0   2 -13   24.71    1.52
   0  -2  13   29.82    2.42
   0  -2  13   23.45    2.70
   1   2 -13   14.46    1.27
   1   2 -13   14.99    1.07
  -1  -2  13   14.67    1.67
  -1  -2  13   13.05    2.61
   2   2 -13    2.38    0.64
   2   2 -13    2.77    0.92
  -2  -2  13    2.81    1.34
  -2  -2  13    4.94    2.36
   3   2 -13   46.32    2.74
   3   2 -13   41.41    2.35
  -3  -2  13   49.18    2.97
  -3  -2  13   50.88    3.70
   4   2 -13   -0.15    0.66
   4   2 -13    0.23    0.82
  -4  -2  13    0.67    2.06
  -4  -2  13    1.17    1.14
  -5   3  13   11.16    1.56
  -5   3  13   16.48    2.29
  -4   3  13   26.01    2.14
  -4   3  13   33.02    3.24
   4  -3 -13   23.13    1.49
   4  -3 -13   24.02    1.49
  -3   3  13   -1.24    2.05
  -3   3  13   -0.44    1.60
   3  -3 -13    0.47    0.75
   3  -3 -13    0.22    0.61
  -2   3  13   39.44    3.11
  -2   3  13   35.98    2.43
   2  -3 -13   33.13    1.98
   2  -3 -13   34.20    1.98
  -1   3  13   40.69    3.24
  -1   3  13   42.28    2.91
   0   3  13    0.56    2.40
   0   3  13    2.99    1.62
   0  -3 -13    2.10    0.62
   0  -3 -13    2.38    0.95
  -5   3  12    8.07    1.19
  -5   3  12    9.39    1.43
   5  -3 -12    7.94    0.61
   5  -3 -12    8.23    0.58
  -4   3  12   88.75    5.15
  -4   3  12   76.10    4.31
   4  -3 -12   65.33    3.58
   4  -3 -12   72.73    3.99
  -3   3  12   46.12    2.84
  -3   3  12   40.66    2.73
   3  -3 -12   40.65    2.30
   3  -3 -12   40.58    2.28
  -2   3  12   50.60    3.00
  -2   3  12   46.40    2.97
   2  -3 -12   49.02    2.75
   2  -3 -12   49.49    2.75
   2  -3 -12   44.82    2.72
  -1   3  12   77.21    4.35
  -1   3  12   74.17    4.33
   1  -3 -12   57.78    3.19
   1  -3 -12   65.91    3.65
   1  -3 -12   61.28    3.63
   0   3  12    3.43    1.14
   0   3  12    2.10    1.54
   0  -3 -12    1.99    0.74
   0  -3 -12    4.07    1.32
   0  -3 -12    1.93    0.54
   1   3  12   57.74    3.65
   1   3  12   58.42    3.53
  -1  -3 -12   46.32    2.58
  -1  -3 -12   50.42    3.20
  -1  -3 -12   47.76    2.68
   2   3  12   55.58    3.60
   2   3  12   53.28    3.32
  -2  -3 -12   48.84    2.78
  -2  -3 -12   51.22    3.28
  -2  -3 -12   44.13    2.46
  -5   3  11   16.72    1.34
  -5   3  11   14.72    1.32
   5  -3 -11   14.62    0.88
   5  -3 -11   12.90    0.80
  -4   3  11   24.29    1.64
  -4   3  11   28.03    1.87
   4  -3 -11   23.42    1.55
   4  -3 -11   22.61    1.35
   4  -3 -11   24.43    1.42
  -3   3  11   49.83    3.01
  -3   3  11   47.63    2.81
   3  -3 -11   41.62    2.48
   3  -3 -11   38.43    2.18
  -2   3  11   -0.32    0.91
  -2   3  11   -0.37    1.10
   2  -3 -11   -1.43    0.89
   2  -3 -11    0.08    0.55
  -1   3  11   62.49    3.68
  -1   3  11   67.50    3.81
   1  -3 -11   54.94    3.16
   1  -3 -11   57.52    3.19
   0   3  11   34.73    2.32
   0   3  11   31.50    2.00
   0  -3 -11   31.58    2.04
   0  -3 -11   31.35    1.82
   1   3  11   11.16    1.57
   1   3  11    8.68    1.04
  -1  -3 -11    9.97    0.89
  -1  -3 -11    7.54    1.19
   2   3  11   41.63    2.76
   2   3  11   38.91    2.36
  -2  -3 -11   36.90    2.16
  -2  -3 -11   39.46    2.60
   3   3  11    0.94    1.46
   3   3  11    0.91    1.03
  -3  -3 -11    0.28    0.49
  -3  -3 -11   -0.16    0.70
  -3  -3 -11    1.28    1.32
  -5   3  10   71.41    3.97
  -5   3  10   82.00    4.51
   5  -3 -10   75.38    4.14
   5  -3 -10   72.13    3.92
   5  -3 -10   72.69    3.95
  -4   3  10   10.15    0.96
  -4   3  10    9.18    0.91
   4  -3 -10    8.99    0.67
   4  -3 -10    7.73    0.76
  -3   3  10  103.30    5.69
  -3   3  10  104.30    5.71
   3  -3 -10   96.25    5.28
   3  -3 -10   99.66    5.41
  -2   3  10   18.75    1.46
   2  -3 -10   19.86    1.25
   2  -3 -10   18.33    1.26
  -1   3  10   59.25    3.35
  -1   3  10   61.30    3.55
   1  -3 -10   51.31    2.93
   1  -3 -10   50.58    2.83
   0   3  10   68.65    3.81
   0   3  10   65.23    3.76
   0  -3 -10   65.43    3.69
   0  -3 -10   56.97    3.16
   1   3  10    3.84    1.11
   1   3  10    0.60    0.77
  -1  -3 -10    2.32    0.60
  -1  -3 -10    1.10    0.87
   2   3  10  106.50    5.96
   2   3  10  100.50    5.51
  -2  -3 -10   86.81    4.74
  -2  -3 -10   96.88    5.35
   3   3  10   40.15    2.59
   3   3  10   39.89    2.36
  -3  -3 -10   33.03    1.92
  -3  -3 -10   38.06    2.41
   4   3  10   18.43    1.75
   4   3  10   18.69    1.41
  -4  -3 -10   16.91    1.51
  -4  -3 -10   18.91    1.28
  -5  -3 -10   60.24    3.37
  -5   3   9   96.21    5.27
  -5   3   9  101.80    5.54
   5  -3  -9   98.67    5.34
   5  -3  -9   97.14    5.28
  -4   3   9    6.72    0.74
  -4   3   9    6.50    0.71
   4  -3  -9    6.45    0.52
   4  -3  -9    6.25    0.66
  -3   3   9   74.10    4.09
  -3   3   9   70.36    3.91
   3  -3  -9   66.34    3.62
   3  -3  -9   62.45    3.47
  -2   3   9   52.55    2.95
  -2   3   9   44.39    2.57
   2  -3  -9   41.98    2.42
   2  -3  -9   40.50    2.28
  -1   3   9   12.35    1.10
  -1   3   9   13.12    1.07
   0   3   9   76.73    4.34
   0   3   9   72.01    3.98
   0  -3  -9   76.26    4.23
   0  -3  -9   69.21    3.80
   1   3   9    7.60    0.78
   1   3   9    8.46    1.13
  -1  -3  -9    8.11    0.91
  -1  -3  -9    6.17    0.59
   2   3   9   26.91    1.65
   2   3   9   29.57    2.01
  -2  -3  -9   29.58    1.87
  -2  -3  -9   27.37    1.62
   3   3   9   71.92    4.12
   3   3   9   68.91    3.84
  -3  -3  -9   63.67    3.59
  -3  -3  -9   54.32    3.03
   4   3   9    0.40    0.84
   4   3   9    2.14    1.09
  -4  -3  -9    1.17    0.86
  -4  -3  -9   -0.15    0.63
   5   3   9   34.21    2.33
   5   3   9   32.53    2.04
  -5  -3  -9   28.95    1.75
  -5  -3  -9   31.37    2.05
   6   3   9   14.79    1.34
  -6  -3  -9   11.90    1.03
 -14   3   8    0.40    0.59
 -14   3   8    0.38    0.61
  -6   3   8    3.34    0.51
  -6   3   8    3.87    0.39
  -5   3   8  144.90    7.83
  -5   3   8  137.60    7.45
   5  -3  -8  134.10    7.23
   5  -3  -8  146.80    7.93
  -4   3   8  102.60    5.57
  -4   3   8  101.90    5.54
   4  -3  -8  100.10    5.44
   4  -3  -8  106.90    5.77
  -3   3   8   82.66    4.51
  -3   3   8   77.58    4.26
   3  -3  -8   74.01    4.06
   3  -3  -8   77.79    4.22
  -2   3   8  210.10   11.35
  -2   3   8  235.90   12.70
   2  -3  -8  232.90   12.55
   2  -3  -8  246.80   13.27
  -1   3   8   11.26    0.91
  -1   3   8    9.79    0.98
   1  -3  -8   12.67    0.99
   1  -3  -8   11.54    0.81
   0   3   8   62.26    3.48
   0   3   8   60.86    3.46
   0  -3  -8   62.83    3.50
   0  -3  -8   60.98    3.38
   1   3   8  168.30    9.11
   1   3   8  183.80    9.98
  -1  -3  -8  194.50   10.51
  -1  -3  -8  165.40    8.94
   2   3   8    0.93    0.60
   2   3   8    0.51    0.80
  -2  -3  -8    0.73    0.52
  -2  -3  -8    0.94    0.66
   3   3   8  117.20    6.46
   3   3   8  119.70    6.52
  -3  -3  -8  107.40    5.87
  -3  -3  -8  102.60    5.59
   4   3   8   27.28    1.81
   4   3   8   27.91    1.74
  -4  -3  -8   27.46    1.75
  -4  -3  -8   22.83    1.44
   5   3   8   24.94    1.61
   5   3   8   24.58    1.74
  -5  -3  -8   22.19    1.47
  -5  -3  -8   22.55    1.40
   6   3   8   94.10    5.17
   6   3   8   93.33    5.20
   7   3   8    7.37    1.29
   7   3   8    6.70    1.02
  -7  -3  -8    4.72    0.73
  -7  -3  -8    8.08    1.33
 -14   3   7   17.77    1.21
 -14   3   7   14.63    1.34
  14  -3  -7   16.77    1.55
  14  -3  -7   15.78    2.31
 -13   3   7   15.19    1.13
 -13   3   7   15.15    1.02
  13  -3  -7   14.16    1.80
  13  -3  -7   16.61    1.34
 -12   3   7   47.14    2.66
 -12   3   7   51.77    2.85
  12  -3  -7   49.87    2.98
  12  -3  -7   53.02    3.01
 -11   3   7    1.68    0.36
 -11   3   7    2.12    0.55
  11  -3  -7    0.87    0.78
  11  -3  -7    1.67    0.65
 -10   3   7   67.19    3.68
 -10   3   7   59.07    3.21
  10  -3  -7   67.73    3.71
  10  -3  -7   57.47    3.17
  -9   3   7   91.32    4.94
  -9   3   7   94.12    5.12
   9  -3  -7   91.42    4.98
   9  -3  -7   93.62    5.10
  -8   3   7    3.44    0.43
  -8   3   7    4.46    0.34
  -7   3   7   81.33    4.43
  -7   3   7   87.92    4.77
   7  -3  -7   83.50    4.56
   7  -3  -7   75.89    4.15
  -6   3   7   38.31    2.11
  -6   3   7   33.30    1.87
   6  -3  -7   35.86    1.97
   6  -3  -7   41.16    2.24
  -5   3   7  107.30    5.80
  -5   3   7  105.30    5.72
   5  -3  -7  101.10    5.47
   5  -3  -7  108.10    5.83
  -4   3   7  116.80    6.32
  -4   3   7  121.80    6.60
  -3   3   7    9.23    0.70
  -3   3   7    8.50    0.64
  -2   3   7  118.60    6.41
  -2   3   7  110.00    5.97
   2  -3  -7  105.50    5.72
   2  -3  -7  116.90    6.30
  -1   3   7   75.61    4.15
  -1   3   7   78.00    4.25
   1  -3  -7   72.55    3.94
   1  -3  -7   68.58    3.78
   0   3   7   18.82    1.15
   0   3   7   21.01    1.34
   0  -3  -7   19.32    1.24
   0  -3  -7   20.49    1.20
   1   3   7  104.80    5.75
   1   3   7   96.89    5.29
  -1  -3  -7   91.99    5.01
  -1  -3  -7  107.60    5.86
   2   3   7    4.40    0.60
   2   3   7    4.13    0.77
  -2  -3  -7    4.51    0.65
  -2  -3  -7    2.78    0.52
   3   3   7   69.06    3.87
   3   3   7   61.48    3.42
  -3  -3  -7   67.67    3.73
  -3  -3  -7   63.99    3.56
   4   3   7   94.91    5.19
   4   3   7   96.77    5.35
  -4  -3  -7   85.19    4.69
  -4  -3  -7   87.14    4.76
   5   3   7    7.57    1.01
   5   3   7    7.23    0.81
   6   3   7   67.22    3.74
   6   3   7   68.42    3.89
  -6  -3  -7   62.62    3.47
  -6  -3  -7   59.20    3.36
   7   3   7   18.71    1.45
   7   3   7   19.37    1.33
  -7  -3  -7   17.70    1.34
  -7  -3  -7   15.39    1.06
   8   3   7   16.40    1.27
   8   3   7   16.49    1.56
  -8  -3  -7   16.21    1.15
  -8  -3  -7   17.11    1.58
 -15   3   6   23.60    1.49
 -15   3   6   22.92    1.74
  15  -3  -6   24.32    2.05
  15  -3  -6   25.54    2.74
 -14   3   6   49.13    2.76
 -14   3   6   42.89    2.53
  14  -3  -6   46.97    3.15
  14  -3  -6   43.61    2.65
 -13   3   6    0.17    0.57
 -13   3   6    1.46    0.75
  13  -3  -6   -0.13    1.39
 -12   3   6   90.40    4.91
 -12   3   6   99.02    5.44
  12  -3  -6   90.17    4.98
  12  -3  -6   92.64    5.23
 -11   3   6   59.48    3.33
 -11   3   6   55.32    3.04
  11  -3  -6   50.67    2.87
  11  -3  -6   49.48    2.92
 -10   3   6   33.07    1.85
 -10   3   6   31.38    1.83
  10  -3  -6   31.60    1.86
  10  -3  -6   37.47    2.28
  -9   3   6  121.70    6.56
  -9   3   6  116.40    6.31
   9  -3  -6  116.40    6.31
   9  -3  -6  121.10    6.59
  -8   3   6   40.27    2.20
  -8   3   6   36.23    2.03
   8  -3  -6   33.10    1.87
   8  -3  -6   32.34    1.83
  -7   3   6  126.60    6.85
  -7   3   6  124.30    6.70
   7  -3  -6  121.70    6.58
   7  -3  -6  131.90    7.12
  -6   3   6   91.32    4.96
  -6   3   6   92.49    4.99
  -5   3   6    7.25    0.47
  -5   3   6    8.62    0.64
  -4   3   6  153.20    8.26
  -4   3   6  148.10    7.97
   4  -3  -6  159.30    8.57
   4  -3  -6  155.50    8.36
  -3   3   6   58.77    3.20
  -3   3   6   63.16    3.44
   3  -3  -6   56.89    3.08
   3  -3  -6   65.26    3.55
  -2   3   6   77.07    4.19
  -2   3   6   78.37    4.26
   2  -3  -6   72.91    3.96
   2  -3  -6   78.84    4.26
  -1   3   6  181.90    9.79
  -1   3   6  167.70    9.03
   1  -3  -6  173.00    9.30
   1  -3  -6  188.90   10.17
   0   3   6    0.28    0.35
   0   3   6    0.52    0.41
   0  -3  -6    0.58    0.39
   0  -3  -6    0.64    0.31
   1   3   6  109.50    5.96
   1   3   6  104.90    5.69
  -1  -3  -6  103.20    5.59
  -1  -3  -6  108.00    5.88
   2   3   6  123.40    6.70
   2   3   6  128.80    7.02
  -2  -3  -6  116.40    6.32
  -2  -3  -6  133.50    7.24
   3   3   6   42.77    2.49
   3   3   6   42.58    2.41
  -3  -3  -6   45.49    2.54
  -3  -3  -6   42.33    2.41
   4   3   6  185.00   10.03
   4   3   6  189.80   10.24
  -4  -3  -6  190.80   10.29
  -4  -3  -6  194.00   10.47
   5   3   6   26.98    1.64
   5   3   6   25.71    1.67
  -5  -3  -6   24.88    1.49
  -5  -3  -6   28.13    1.69
   6   3   6   44.13    2.54
   6   3   6   45.37    2.68
  -6  -3  -6   42.38    2.40
  -6  -3  -6   35.21    2.09
   7   3   6   77.03    4.34
   7   3   6   86.89    4.78
  -7  -3  -6   73.53    4.03
  -7  -3  -6   78.26    4.36
   8   3   6   -0.73    0.93
   8   3   6    0.17    0.75
  -8  -3  -6   -0.04    0.89
  -8  -3  -6    1.02    0.57
   9   3   6   83.12    4.70
   9   3   6   83.50    4.62
  -9  -3  -6   83.28    4.56
  -9  -3  -6   89.13    5.01
 -15   3   5    4.09    1.02
 -15   3   5    5.73    0.82
  15  -3  -5    5.08    2.58
  15  -3  -5    5.96    1.35
 -14   3   5   51.78    2.90
 -14   3   5   46.22    2.68
  14  -3  -5   54.38    3.15
  14  -3  -5   57.54    3.63
  13  -3  -5   17.12    1.40
  13  -3  -5   19.35    1.85
 -12   3   5   14.39    0.99
 -12   3   5   13.40    1.12
  12  -3  -5   16.60    1.75
  12  -3  -5   16.05    1.25
 -11   3   5   50.31    2.86
 -11   3   5   54.83    3.03
  11  -3  -5   49.36    2.83
  11  -3  -5   51.18    3.12
 -10   3   5   -0.09    0.64
 -10   3   5    0.23    0.37
  10  -3  -5   -0.27    0.56
  10  -3  -5   -0.46    0.89
  -9   3   5  115.10    6.26
  -9   3   5  116.00    6.26
   9  -3  -5  119.40    6.48
   9  -3  -5  112.50    6.16
  -8   3   5   90.25    4.88
  -8   3   5   85.06    4.65
   8  -3  -5   82.24    4.54
   8  -3  -5   71.99    3.94
  -7   3   5   30.00    1.72
   7  -3  -5   27.51    1.61
   7  -3  -5   27.39    1.53
  -6   3   5  148.40    7.97
  -6   3   5  151.00    8.14
   6  -3  -5  143.10    7.69
   6  -3  -5  149.50    8.05
  -5   3   5    3.53    0.27
  -5   3   5    2.73    0.42
   5  -3  -5    3.29    0.25
   5  -3  -5    3.67    0.36
  -4   3   5  118.70    6.41
  -4   3   5  117.50    6.32
  -3   3   5  149.20    8.03
  -3   3   5  140.60    7.56
   3  -3  -5  129.80    6.97
   3  -3  -5  149.60    8.05
  -2   3   5    0.92    0.35
  -2   3   5    1.01    0.26
   2  -3  -5    1.09    0.29
   2  -3  -5    0.94    0.19
  -1   3   5  202.40   10.87
  -1   3   5  198.40   10.67
   1  -3  -5  216.10   11.60
   1  -3  -5  189.30   10.18
   0   3   5   43.30    2.38
   0   3   5   42.74    2.37
   0  -3  -5   47.73    2.63
   0  -3  -5   43.88    2.40
   1   3   5  102.40    5.54
   1   3   5  111.50    6.04
  -1  -3  -5  107.10    5.81
  -1  -3  -5  107.40    5.80
   2   3   5  248.00   13.35
   2   3   5  250.80   13.48
  -2  -3  -5  247.70   13.33
  -2  -3  -5  238.30   12.80
   3   3   5    0.53    0.49
   3   3   5    0.38    0.53
  -3  -3  -5    0.22    0.45
  -3  -3  -5    0.91    0.42
   4   3   5  126.50    6.89
   4   3   5  133.40    7.23
  -4  -3  -5  124.60    6.77
  -4  -3  -5  138.30    7.48
   5   3   5   63.40    3.56
   5   3   5   57.59    3.20
  -5  -3  -5   64.60    3.58
  -5  -3  -5   65.31    3.60
   6   3   5   18.82    1.31
   6   3   5   17.74    1.19
  -6  -3  -5   16.92    1.13
  -6  -3  -5   19.32    1.21
   7   3   5  121.50    6.65
   7   3   5  125.80    6.84
  -7  -3  -5  107.50    5.88
  -7  -3  -5  116.90    6.35
   8   3   5   15.53    1.25
   8   3   5   13.81    1.06
  -8  -3  -5   14.62    1.01
  -8  -3  -5   15.87    1.27
   9   3   5   41.40    2.51
   9   3   5   42.72    2.49
  -9  -3  -5   43.16    2.58
  -9  -3  -5   44.36    2.51
  10   3   5   62.00    3.49
 -10  -3  -5   57.18    3.19
 -15   3   4    2.43    1.15
 -15   3   4    3.98    0.73
  15  -3  -4    2.03    1.85
  15  -3  -4    0.67    1.44
 -14   3   4   33.05    2.05
 -14   3   4   30.56    1.81
  14  -3  -4   34.44    2.54
  14  -3  -4   29.17    1.92
 -13   3   4   49.74    2.90
 -13   3   4   52.11    2.92
  13  -3  -4   47.79    3.05
  13  -3  -4   48.45    2.82
 -12   3   4   24.96    1.62
 -12   3   4   22.44    1.38
  12  -3  -4   26.29    1.94
  12  -3  -4   30.72    1.91
 -11   3   4  102.10    5.61
 -11   3   4   97.71    5.32
  11  -3  -4  100.80    5.62
  11  -3  -4  108.40    5.93
  10  -3  -4   36.04    2.25
  10  -3  -4   33.85    2.02
  -9   3   4  101.30    5.53
  -9   3   4   91.31    4.96
   9  -3  -4  105.20    5.80
   9  -3  -4  112.60    6.12
  -8   3   4  159.00    8.59
  -8   3   4  160.00    8.61
   8  -3  -4  157.40    8.53
   8  -3  -4  153.60    8.28
  -7   3   4    8.86    0.64
  -7   3   4    8.21    0.51
   7  -3  -4    8.96    0.75
   7  -3  -4    9.53    0.64
  -6   3   4  303.60   16.31
  -6   3   4  270.80   14.52
   6  -3  -4  309.50   16.60
   6  -3  -4  290.40   15.61
  -5   3   4  195.30   10.50
  -5   3   4  210.10   11.27
   5  -3  -4  214.90   11.53
   5  -3  -4  204.30   10.99
  -4   3   4   23.26    1.35
  -4   3   4   21.10    1.16
   4  -3  -4   20.49    1.13
   4  -3  -4   24.28    1.37
  -3   3   4  531.60   28.50
  -3   3   4  530.80   28.44
   3  -3  -4  518.60   27.78
   3  -3  -4  536.30   28.74
  -2   3   4   47.41    2.60
  -2   3   4   46.30    2.52
   2  -3  -4   44.69    2.42
   2  -3  -4   50.37    2.74
  -1   3   4  127.30    6.85
  -1   3   4  124.50    6.71
   1  -3  -4  121.60    6.54
   1  -3  -4  134.80    7.26
   0   3   4  306.70   16.45
   0   3   4  301.50   16.18
   0  -3  -4  289.60   15.53
   0  -3  -4  305.30   16.38
   1   3   4    2.99    0.33
   1   3   4    1.91    0.33
  -1  -3  -4    2.83    0.30
  -1  -3  -4    3.08    0.35
   2   3   4  247.10   13.27
   2   3   4  259.60   13.96
  -2  -3  -4  236.70   12.71
  -2  -3  -4  253.20   13.61
   3   3   4  105.70    5.73
   3   3   4  103.50    5.64
  -3  -3  -4   97.84    5.33
  -3  -3  -4  108.40    5.87
   4   3   4   34.96    2.01
   4   3   4   38.45    2.23
  -4  -3  -4   39.82    2.25
  -4  -3  -4   34.16    1.96
   5   3   4   92.76    5.07
   5   3   4   92.93    5.12
  -5  -3  -4   89.20    4.87
  -5  -3  -4  104.10    5.67
   6   3   4   14.63    1.01
   6   3   4   14.40    1.05
   7   3   4  137.80    7.47
   7   3   4  148.60    8.09
  -7  -3  -4  147.00    7.96
  -7  -3  -4  134.10    7.29
   8   3   4   81.00    4.47
   8   3   4   86.71    4.80
  -8  -3  -4   82.94    4.56
  -8  -3  -4   82.01    4.55
   9   3   4    1.39    0.95
   9   3   4    0.65    0.73
  -9  -3  -4    0.54    0.83
  -9  -3  -4    1.21    0.55
  10   3   4   79.10    4.44
  10   3   4   79.69    4.42
 -10  -3  -4   76.95    4.23
 -10  -3  -4   73.78    4.13
 -15   3   3   11.40    1.19
 -15   3   3   11.25    0.90
  15  -3  -3   15.78    1.65
  15  -3  -3   14.42    2.08
 -14   3   3    9.67    1.03
 -14   3   3    8.18    0.75
  14  -3  -3   15.08    2.08
  14  -3  -3   11.25    1.29
 -13   3   3   46.77    2.63
 -13   3   3   50.38    2.90
  13  -3  -3   53.08    3.07
  13  -3  -3   50.13    3.14
 -12   3   3   18.48    1.17
 -12   3   3   14.80    1.18
  12  -3  -3   14.54    1.57
  12  -3  -3   11.71    1.11
 -11   3   3   65.04    3.58
 -11   3   3   64.88    3.63
  11  -3  -3   63.55    3.68
  11  -3  -3   71.36    3.96
 -10   3   3   58.01    3.21
 -10   3   3   50.86    2.94
  10  -3  -3   62.66    3.64
  10  -3  -3   52.87    3.02
  -9   3   3    3.72    0.67
  -9   3   3    3.14    0.41
   9  -3  -3    5.59    0.66
   9  -3  -3    4.56    0.91
  -8   3   3   98.31    5.31
  -8   3   3   96.75    5.27
   8  -3  -3   96.72    5.25
   8  -3  -3   95.15    5.23
   7  -3  -3   30.81    1.73
   7  -3  -3   29.65    1.78
  -6   3   3   57.46    3.11
  -6   3   3   61.49    3.36
   6  -3  -3   59.65    3.23
   6  -3  -3   72.19    3.98
   6  -3  -3   64.17    3.49
  -5   3   3  184.70    9.91
  -5   3   3  172.90    9.31
   5  -3  -3  208.10   11.17
   5  -3  -3  181.50    9.78
  -4   3   3   30.16    1.71
  -4   3   3   28.62    1.56
   4  -3  -3   30.60    1.74
   4  -3  -3   30.58    1.67
  -3   3   3  143.60    7.71
  -3   3   3  143.90    7.76
   3  -3  -3  146.30    7.87
   3  -3  -3  144.10    7.73
  -2   3   3  209.70   11.25
  -2   3   3  192.70   10.36
   2  -3  -3  206.60   11.08
   2  -3  -3  202.20   10.86
  -1   3   3   49.56    2.71
  -1   3   3   46.99    2.56
   1  -3  -3   46.25    2.51
   1  -3  -3   44.24    2.41
   0   3   3  625.90   33.53
   0   3   3  614.60   32.92
   0  -3  -3  657.10   35.19
   0  -3  -3  562.50   30.14
   1   3   3  121.60    6.55
   1   3   3  121.70    6.56
  -1  -3  -3  121.50    6.54
  -1  -3  -3  115.60    6.24
   2   3   3   73.57    4.01
   2   3   3   71.56    3.88
  -2  -3  -3   67.10    3.66
  -2  -3  -3   72.94    3.95
   3   3   3   68.65    3.74
   3   3   3   72.72    3.97
  -3  -3  -3   67.31    3.66
  -3  -3  -3   76.64    4.18
   4   3   3    0.44    0.36
   4   3   3    0.44    0.47
  -4  -3  -3   -0.03    0.43
  -4  -3  -3    0.48    0.33
   5   3   3  225.80   12.19
   5   3   3  221.90   11.96
  -5  -3  -3  229.10   12.34
  -5  -3  -3  196.10   10.58
   6   3   3  101.60    5.56
   6   3   3   98.96    5.38
  -6  -3  -3  105.50    5.75
  -6  -3  -3  106.90    5.81
   7   3   3   12.06    0.89
   7   3   3   13.73    1.04
  -7  -3  -3   12.80    0.88
  -7  -3  -3   10.48    0.87
   8   3   3  106.60    5.84
   8   3   3  116.00    6.31
  -8  -3  -3  102.60    5.63
  -8  -3  -3  106.90    5.82
  -9  -3  -3    8.95    0.97
  -9  -3  -3    7.81    0.74
  10   3   3   76.00    4.21
  10   3   3   74.93    4.24
 -10  -3  -3   77.84    4.27
 -10  -3  -3   69.46    3.89
  11   3   3   42.26    2.57
  11   3   3   44.05    2.58
 -11  -3  -3   38.99    2.25
 -11  -3  -3   41.57    2.56
 -15   3   2   40.57    2.54
 -15   3   2   44.31    2.51
  15  -3  -2   47.22    2.97
  15  -3  -2   49.66    3.34
 -14   3   2    1.21    0.97
 -14   3   2    1.29    0.58
  14  -3  -2    3.23    1.97
  14  -3  -2    0.69    1.13
 -13   3   2   81.72    4.48
 -13   3   2   81.09    4.52
  13  -3  -2   91.35    5.07
  13  -3  -2   87.75    5.07
 -12   3   2   98.52    5.42
 -12   3   2  103.70    5.64
  12  -3  -2   98.39    5.54
  12  -3  -2   94.81    5.22
 -11   3   2   17.74    1.13
 -11   3   2   17.54    1.24
  11  -3  -2   22.87    1.48
  11  -3  -2   23.84    1.80
 -10   3   2   77.98    4.27
 -10   3   2   85.99    4.79
  10  -3  -2   87.64    4.90
  10  -3  -2   85.58    4.73
  -9   3   2   29.37    1.83
  -9   3   2   31.39    1.79
   9  -3  -2   28.89    1.75
   9  -3  -2   30.35    1.89
  -8   3   2   96.04    5.20
  -8   3   2   92.96    5.08
   8  -3  -2   92.55    5.03
   8  -3  -2   95.96    5.29
  -7   3   2  203.20   10.95
  -7   3   2  230.30   12.37
   7  -3  -2  239.80   12.89
   7  -3  -2  223.10   12.04
  -6   3   2    0.69    0.37
  -6   3   2    0.13    0.21
   6  -3  -2    0.27    0.31
   6  -3  -2    0.67    0.56
  -5   3   2   86.46    4.66
  -5   3   2   96.89    5.26
  -4   3   2   89.64    4.83
  -4   3   2   88.51    4.80
   4  -3  -2   91.95    5.00
   4  -3  -2  100.50    5.41
  -3   3   2  119.90    6.47
  -3   3   2  114.00    6.13
   3  -3  -2  129.30    6.98
   3  -3  -2  116.40    6.26
  -2   3   2  664.80   35.61
   2  -3  -2  638.90   34.22
  -1   3   2   20.28    1.12
  -1   3   2   17.14    1.02
   1  -3  -2   20.12    1.12
   1  -3  -2   19.43    1.11
   0   3   2   79.89    4.31
   0   3   2   92.56    5.00
   0  -3  -2   88.10    4.76
   0  -3  -2   80.76    4.35
   1   3   2  184.00    9.89
   1   3   2  199.10   10.69
  -1  -3  -2  188.50   10.12
  -1  -3  -2  193.00   10.37
   2   3   2   25.06    1.41
   2   3   2   26.25    1.48
  -2  -3  -2   27.56    1.53
  -2  -3  -2   24.43    1.39
   3   3   2  425.70   22.83
   3   3   2  406.70   21.81
  -3  -3  -2  406.70   21.81
  -3  -3  -2  362.00   19.41
   4   3   2   34.76    1.96
   4   3   2   31.97    1.79
   5   3   2   78.06    4.25
  -5  -3  -2   79.70    4.34
   6   3   2  135.60    7.34
   6   3   2  138.10    7.49
  -6  -3  -2  142.40    7.71
  -6  -3  -2  138.70    7.52
   7   3   2    6.58    0.74
   7   3   2    7.61    0.67
  -7  -3  -2    6.14    0.61
  -7  -3  -2    7.98    0.76
   8   3   2  143.00    7.77
   8   3   2  142.80    7.74
  -8  -3  -2  138.80    7.54
  -8  -3  -2  140.20    7.60
   9   3   2   28.52    1.71
   9   3   2   29.24    1.83
  10   3   2   35.56    2.15
  10   3   2   32.08    1.94
 -10  -3  -2   28.32    1.82
 -10  -3  -2   33.38    1.94
  11   3   2   89.45    4.92
  11   3   2   82.89    4.67
 -11  -3  -2   83.10    4.65
 -11  -3  -2   67.92    3.75
  12   3   2   10.74    1.06
  12   3   2   12.03    1.38
 -14   3   1   20.74    1.29
 -14   3   1   17.13    1.41
  14  -3  -1   20.62    1.73
  14  -3  -1   18.62    2.50
 -13   3   1   24.26    1.46
 -13   3   1   23.99    1.60
  13  -3  -1   28.99    1.93
  13  -3  -1   27.97    2.30
 -12   3   1   48.46    2.80
 -12   3   1   50.45    2.82
  12  -3  -1   48.85    3.03
  12  -3  -1   49.29    2.86
 -11   3   1    1.66    0.51
  11  -3  -1    2.38    0.77
  11  -3  -1    1.85    1.06
 -10   3   1   79.71    4.36
 -10   3   1   88.93    4.92
  10  -3  -1   86.17    4.79
  10  -3  -1   85.09    4.68
  -9   3   1   62.08    3.49
  -9   3   1   55.07    3.04
   9  -3  -1   58.43    3.27
   9  -3  -1   54.35    3.09
  -8   3   1    5.99    0.51
   8  -3  -1    8.33    0.90
   8  -3  -1    9.82    0.82
  -7   3   1   71.05    3.86
  -7   3   1   66.21    3.64
   7  -3  -1   72.64    4.04
   7  -3  -1   74.09    4.04
  -6   3   1    3.45    0.31
  -6   3   1    2.56    0.40
   6  -3  -1    2.77    0.62
   6  -3  -1    2.79    0.35
  -5   3   1  118.10    6.36
  -5   3   1  135.70    7.33
   5  -3  -1  128.60    6.92
   5  -3  -1  138.60    7.51
   5  -3  -1  133.40    7.18
  -4   3   1  412.30   22.09
  -4   3   1  355.00   19.05
   4  -3  -1  416.70   22.33
   4  -3  -1  377.20   20.25
  -2   3   1  102.40    5.51
  -2   3   1   95.92    5.20
   2  -3  -1  104.20    5.61
   2  -3  -1  104.70    5.67
  -1   3   1    8.45    0.51
  -1   3   1    9.69    0.65
   1  -3  -1    9.66    0.63
   1  -3  -1    8.70    0.52
   0   3   1  188.20   10.11
   0   3   1  218.00   11.69
   0  -3  -1  201.40   10.80
   0  -3  -1  198.90   10.69
   1   3   1  399.90   21.43
   1   3   1  420.90   22.56
  -1  -3  -1  394.20   21.13
  -1  -3  -1  407.00   21.80
   2   3   1   40.09    2.20
   2   3   1   43.94    2.41
  -2  -3  -1   43.46    2.38
  -2  -3  -1   39.01    2.14
   3   3   1  128.60    6.92
   3   3   1  140.20    7.56
  -3  -3  -1  136.60    7.36
  -3  -3  -1  135.20    7.28
   4   3   1  192.20   10.33
   4   3   1  217.50   11.70
  -4  -3  -1  204.70   11.00
  -4  -3  -1  182.80    9.83
   5   3   1    1.65    0.33
   5   3   1    1.95    0.42
  -5  -3  -1    1.77    0.33
  -5  -3  -1    1.43    0.33
   6   3   1  227.60   12.24
   6   3   1  241.90   13.04
  -6  -3  -1  229.90   12.39
  -6  -3  -1  251.60   13.53
   7   3   1   37.13    2.15
   7   3   1   37.08    2.11
  -7  -3  -1   34.75    1.99
  -7  -3  -1   35.27    2.06
   8   3   1   63.18    3.53
   8   3   1   58.23    3.22
  -8  -3  -1   64.44    3.55
  -8  -3  -1   57.16    3.20
   9   3   1  128.90    7.00
   9   3   1  128.50    7.00
  -9  -3  -1  134.30    7.27
  -9  -3  -1  131.30    7.14
  10   3   1    6.13    0.71
  10   3   1    7.08    0.83
 -10  -3  -1    6.90    0.71
 -10  -3  -1    6.48    0.86
  11   3   1   43.19    2.57
  11   3   1   35.51    2.08
 -11  -3  -1   37.75    2.17
 -11  -3  -1   39.81    2.41
  12   3   1   39.68    2.34
  12   3   1   43.54    2.71
 -12  -3  -1   34.40    1.99
 -12  -3  -1   38.85    2.35
  13   3   1    5.01    1.35
  13   3   1    4.92    0.98
 -13  -3  -1    6.69    1.58
 -13  -3  -1    5.74    0.81
 -13   3   0    1.33    0.57
 -13   3   0    2.33    0.99
  13  -3   0    4.05    1.73
  13  -3   0    5.75    1.15
 -12   3   0   84.82    4.71
 -12   3   0   77.03    4.22
  12  -3   0   85.92    4.91
  12  -3   0   93.72    5.19
 -11   3   0   27.73    1.61
 -11   3   0   25.96    1.68
  11  -3   0   22.81    1.53
  11  -3   0   25.04    1.76
 -10   3   0   44.46    2.49
 -10   3   0   51.97    2.96
  10  -3   0   50.82    2.95
  10  -3   0   50.26    2.86
  -9   3   0  168.90    9.11
  -9   3   0  157.10    8.54
   9  -3   0  156.10    8.46
   9  -3   0  148.30    8.07
  -8   3   0    4.00    0.68
  -8   3   0    4.94    0.47
   8  -3   0    2.29    0.62
   8  -3   0    2.74    0.59
  -7   3   0  172.10    9.27
  -7   3   0  168.80    9.14
   7  -3   0  181.90    9.81
   7  -3   0  174.50    9.46
  -6   3   0  186.80   10.04
  -6   3   0  203.20   10.95
   6  -3   0  190.80   10.32
   6  -3   0  198.00   10.65
   5  -3   0    9.35    0.80
   5  -3   0   10.21    0.68
  -4   3   0  429.90   23.04
  -4   3   0  422.00   22.64
   4  -3   0  397.50   21.35
   4  -3   0  340.70   18.27
  -3   3   0   69.77    3.81
  -3   3   0   73.05    3.95
   3  -3   0   70.88    3.88
   3  -3   0   80.28    4.34
  -2   3   0  178.90    9.61
  -2   3   0  164.00    8.84
   2  -3   0  170.90    9.18
   2  -3   0  170.20    9.18
  -1   3   0  315.00   16.91
  -1   3   0  325.30   17.43
   1  -3   0  327.30   17.54
   1  -3   0  310.00   16.65
   0   3   0   -0.04    0.15
   0   3   0   -0.30    0.34
   0  -3   0    0.07    0.14
   0  -3   0   -0.05    0.27
   1   3   0  282.00   15.13
   1   3   0  326.70   17.51
  -1  -3   0  315.20   16.89
  -1  -3   0  323.30   17.34
   2   3   0  167.20    8.99
   2   3   0  195.50   10.50
  -2  -3   0  197.50   10.60
  -2  -3   0  178.90    9.61
   3   3   0   78.04    4.23
   3   3   0   75.89    4.11
  -3  -3   0   70.83    3.84
  -3  -3   0   74.30    4.02
   4   3   0  429.40   23.01
   4   3   0  445.50   23.89
  -4  -3   0  420.70   22.55
  -4  -3   0  437.70   23.46
   5   3   0    7.14    0.57
   5   3   0    8.04    0.55
  -5  -3   0    9.22    0.62
  -5  -3   0    7.24    0.51
   6   3   0  207.10   11.17
   6   3   0  176.40    9.49
  -6  -3   0  185.70    9.99
  -6  -3   0  218.50   11.75
   7   3   0  187.50   10.10
   7   3   0  181.00    9.78
  -7  -3   0  181.60    9.81
  -7  -3   0  158.50    8.56
   8   3   0    2.80    0.46
   8   3   0    3.06    0.55
  -8  -3   0    3.92    0.50
  -8  -3   0    2.59    0.59
   9   3   0  162.40    8.80
   9   3   0  149.70    8.10
  -9  -3   0  157.70    8.56
  -9  -3   0  153.10    8.28
  10   3   0   51.55    2.93
  10   3   0   51.08    2.87
 -10  -3   0   51.86    2.90
 -10  -3   0   56.38    3.21
  11   3   0   25.95    1.61
  11   3   0   28.29    1.85
 -11  -3   0   20.86    1.48
 -11  -3   0   25.33    1.52
  12   3   0   91.38    5.11
  12   3   0   84.79    4.68
 -12  -3   0   84.26    4.74
 -12  -3   0   71.39    3.94
  13   3   0    3.59    0.92
  13   3   0    5.26    1.10
 -13  -3   0    4.15    1.36
 -13  -3   0    1.92    0.65
 -13   3  -1    6.05    1.02
 -13   3  -1    7.86    0.73
  13  -3   1    6.05    1.31
  13  -3   1    7.46    1.93
 -12   3  -1   33.12    1.92
 -12   3  -1   38.60    2.33
 -11   3  -1   47.49    2.65
 -11   3  -1   39.19    2.31
  11  -3   1   41.97    2.59
  11  -3   1   41.62    2.44
 -10   3  -1    5.90    0.78
 -10   3  -1    5.26    0.54
  10  -3   1    7.56    0.78
  10  -3   1    6.99    0.96
  -9   3  -1  114.00    6.18
  -9   3  -1  125.80    6.85
   9  -3   1  124.10    6.79
   9  -3   1  129.50    7.05
   8  -3   1   62.54    3.52
   8  -3   1   53.64    3.01
  -7   3  -1   33.34    1.97
  -7   3  -1   29.51    1.68
  -6   3  -1  222.00   11.97
  -6   3  -1  262.30   14.10
   6  -3   1  229.90   12.37
   6  -3   1  240.60   12.99
  -5   3  -1    1.60    0.28
  -5   3  -1    0.73    0.44
   5  -3   1    1.75    0.34
   5  -3   1    1.38    0.53
  -4   3  -1  206.20   11.10
  -4   3  -1  183.30    9.85
   4  -3   1  195.40   10.55
   4  -3   1  201.70   10.83
   4  -3   1  201.10   10.81
  -3   3  -1  133.70    7.19
  -3   3  -1  134.20    7.25
   3  -3   1  121.00    6.56
   3  -3   1  114.30    6.15
  -2   3  -1   36.57    2.00
  -2   3  -1   39.82    2.22
   2  -3   1   35.99    1.97
   2  -3   1   39.83    2.23
  -1   3  -1  383.50   20.55
  -1   3  -1  364.90   19.58
   1  -3   1  367.80   19.73
   0   3  -1  189.10   10.15
   0   3  -1  184.80    9.94
   0  -3   1  190.90   10.24
   0  -3   1  190.30   10.24
   2   3  -1  107.70    5.80
   2   3  -1   94.78    5.12
  -2  -3   1  107.50    5.78
  -2  -3   1  113.40    6.11
   3   3  -1    1.58    0.23
   3   3  -1    2.29    0.31
   4   3  -1  428.10   22.94
   4   3  -1  440.20   23.60
  -4  -3   1  425.10   22.78
  -4  -3   1  419.00   22.46
   5   3  -1  134.40    7.26
   5   3  -1  143.40    7.72
  -5  -3   1  136.80    7.37
  -5  -3   1  139.00    7.48
   6   3  -1    3.15    0.36
   6   3  -1    2.78    0.41
  -6  -3   1    2.53    0.36
  -6  -3   1    2.80    0.33
   7   3  -1   68.64    3.74
   7   3  -1   71.38    3.93
  -7  -3   1   69.36    3.78
  -7  -3   1   77.61    4.23
   8   3  -1    7.20    0.73
   9   3  -1   61.46    3.43
   9   3  -1   58.78    3.26
  -9  -3   1   54.38    3.01
  -9  -3   1   57.01    3.20
  10   3  -1   82.13    4.51
  10   3  -1   91.05    5.02
  11   3  -1    2.69    0.66
  11   3  -1    1.79    0.72
 -11  -3   1    1.49    0.56
 -11  -3   1    1.69    0.86
  12   3  -1   49.99    2.84
  12   3  -1   46.75    2.76
 -12  -3   1   44.95    2.53
 -12  -3   1   47.52    2.86
  13   3  -1   30.49    1.89
  13   3  -1   31.74    2.08
 -13  -3   1   25.39    1.55
 -13  -3   1   30.31    2.08
  14   3  -1   15.79    1.39
  14   3  -1   20.38    1.77
 -14  -3   1   19.75    1.28
 -14  -3   1   15.26    1.89
 -12   3  -2    5.77    0.61
 -12   3  -2    7.86    1.01
  12  -3   2   10.62    1.59
  12  -3   2   13.23    1.27
 -11   3  -2   83.33    4.60
 -11   3  -2   82.85    4.52
  11  -3   2   82.58    4.57
  11  -3   2   81.99    4.65
 -10   3  -2   32.73    1.98
 -10   3  -2   35.82    2.03
  10  -3   2   31.31    2.02
  10  -3   2   32.00    1.94
  -9   3  -2   20.74    1.25
  -9   3  -2   24.77    1.58
   9  -3   2   26.31    1.59
   9  -3   2   27.28    1.78
  -8   3  -2  138.80    7.50
  -8   3  -2  131.50    7.16
   8  -3   2  143.60    7.79
   8  -3   2  138.10    7.54
   7  -3   2    8.83    0.74
   7  -3   2    6.56    0.79
  -6   3  -2  137.10    7.45
  -6   3  -2  127.30    6.88
   6  -3   2  129.80    7.07
   6  -3   2  127.30    6.91
  -5   3  -2   80.46    4.42
   5  -3   2   78.18    4.27
   4  -3   2   35.39    1.98
   4  -3   2   31.82    1.87
  -3   3  -2  390.90   20.96
  -3   3  -2  404.20   21.69
   3  -3   2  360.90   19.36
   3  -3   2  384.20   20.63
   3  -3   2  391.60   21.00
  -2   3  -2   28.46    1.58
  -2   3  -2   25.83    1.49
   2  -3   2   28.72    1.59
   2  -3   2   25.23    1.48
  -1   3  -2  168.50    9.08
  -1   3  -2  147.30    7.92
   1  -3   2  168.60    9.06
   1  -3   2  166.40    8.97
   0   3  -2   69.29    3.74
   0   3  -2   82.89    4.50
   0  -3   2   75.72    4.09
   0  -3   2   80.69    4.39
   1   3  -2   17.68    1.05
   1   3  -2   19.57    1.09
  -1  -3   2   19.58    1.09
  -1  -3   2   18.82    1.12
   2   3  -2  712.00   38.15
  -2  -3   2  648.00   34.71
   3   3  -2  121.10    6.52
   3   3  -2  121.50    6.54
  -3  -3   2  117.10    6.29
  -3  -3   2  132.20    7.11
   4   3  -2   88.16    4.76
   4   3  -2   98.13    5.30
  -4  -3   2   96.92    5.22
  -4  -3   2   90.30    4.87
   5   3  -2   89.14    4.83
   5   3  -2   95.99    5.18
  -5  -3   2   95.23    5.14
  -5  -3   2   94.67    5.11
   6   3  -2    0.54    0.31
   6   3  -2    0.27    0.31
   7   3  -2  237.20   12.77
   7   3  -2  238.80   12.83
  -7  -3   2  234.50   12.60
  -7  -3   2  239.40   12.87
   8   3  -2   98.96    5.41
   8   3  -2   93.31    5.06
  -8  -3   2   98.51    5.36
  -8  -3   2   88.34    4.79
   9   3  -2   28.51    1.68
   9   3  -2   30.52    1.82
  -9  -3   2   30.29    1.75
  -9  -3   2   26.20    1.61
  10   3  -2   90.48    4.99
  10   3  -2   86.72    4.76
 -10  -3   2   80.27    4.40
 -10  -3   2   88.44    4.88
  11   3  -2   23.95    1.56
  11   3  -2   19.67    1.28
 -11  -3   2   17.52    1.12
 -11  -3   2   21.94    1.55
  12   3  -2   93.16    5.11
  12   3  -2   97.98    5.43
 -12  -3   2   90.81    4.96
 -12  -3   2   86.49    4.84
  13   3  -2   94.96    5.30
  13   3  -2   87.20    4.82
 -13  -3   2   82.83    4.53
 -13  -3   2   87.99    4.96
  14   3  -2    0.76    1.30
  14   3  -2    1.34    1.02
 -14  -3   2    1.98    0.61
 -14  -3   2    0.39    1.39
  15   3  -2   54.92    3.37
  15   3  -2   52.77    3.20
 -15  -3   2   48.67    2.83
 -15  -3   2   46.27    3.25
 -15  -3   2   47.86    2.66
 -11   3  -3   39.21    2.31
 -11   3  -3   39.35    2.22
  11  -3   3   39.96    2.56
  11  -3   3   43.12    2.59
 -10   3  -3   73.76    4.03
 -10   3  -3   69.15    3.86
  10  -3   3   75.26    4.30
  10  -3   3   71.94    4.03
   9  -3   3    7.77    1.03
   9  -3   3   10.81    0.96
  -8   3  -3  102.50    5.57
  -8   3  -3   94.86    5.22
   8  -3   3  100.90    5.56
   8  -3   3  100.30    5.49
  -7   3  -3   12.63    1.03
  -7   3  -3   15.91    0.99
   7  -3   3   12.64    1.04
   7  -3   3   11.09    0.85
  -6   3  -3   87.76    4.77
  -6   3  -3  105.10    5.75
   6  -3   3  101.00    5.55
   6  -3   3  104.20    5.68
  -5   3  -3  217.50   11.75
  -5   3  -3  217.50   11.70
   5  -3   3  205.50   11.12
   5  -3   3  201.30   10.86
  -4   3  -3    0.43    0.29
  -4   3  -3    0.97    0.47
   4  -3   3    0.43    0.56
   4  -3   3    0.95    0.41
  -3   3  -3   70.67    3.86
  -3   3  -3   62.66    3.42
   3  -3   3   72.27    3.98
   3  -3   3   78.23    4.26
  -2   3  -3   79.04    4.28
  -2   3  -3   70.52    3.85
   2  -3   3   75.27    4.13
   2  -3   3   66.51    3.63
   2  -3   3   67.57    3.67
  -1   3  -3  118.50    6.41
  -1   3  -3  109.90    5.93
   1  -3   3  107.20    5.78
   1  -3   3  114.20    6.19
   0  -3   3  584.70   31.32
   0  -3   3  540.10   28.96
   1   3  -3   44.36    2.45
   1   3  -3   45.81    2.49
  -1  -3   3   42.04    2.29
  -1  -3   3   46.88    2.58
   2   3  -3  191.70   10.29
   2   3  -3  181.60    9.77
  -2  -3   3  200.80   10.77
  -2  -3   3  190.20   10.22
   3   3  -3  149.60    8.06
   3   3  -3  161.80    8.69
  -3  -3   3  161.60    8.68
  -3  -3   3  154.90    8.33
   4   3  -3   30.04    1.65
   4   3  -3   29.53    1.65
  -4  -3   3   32.01    1.75
  -4  -3   3   28.24    1.56
   5   3  -3  188.90   10.15
   5   3  -3  204.10   10.97
  -5  -3   3  177.90    9.55
  -5  -3   3  192.00   10.31
   6   3  -3   65.74    3.58
   6   3  -3   60.88    3.33
  -6  -3   3   66.39    3.60
  -6  -3   3   62.54    3.40
   7   3  -3   32.09    1.83
   7   3  -3   34.50    1.93
  -7  -3   3   34.75    1.93
  -7  -3   3   30.04    1.69
   8   3  -3  101.90    5.56
   8   3  -3  112.70    6.10
  -8  -3   3   90.93    4.92
  -8  -3   3   90.69    4.93
   9   3  -3    4.18    0.61
   9   3  -3    4.74    0.56
  -9  -3   3    3.94    0.45
  -9  -3   3    4.34    0.73
  10   3  -3   54.92    3.13
  10   3  -3   57.83    3.26
 -10  -3   3   55.08    3.06
 -10  -3   3   56.65    3.23
  11   3  -3   67.76    3.81
  11   3  -3   74.35    4.11
 -11  -3   3   60.98    3.36
 -11  -3   3   64.25    3.64
  12   3  -3   15.92    1.33
  12   3  -3   17.72    1.27
 -12  -3   3   16.00    1.06
 -12  -3   3   13.19    1.31
  13   3  -3   52.27    3.09
  13   3  -3   56.03    3.20
 -13  -3   3   48.06    2.70
 -13  -3   3   51.05    3.07
  14   3  -3   12.74    1.53
  14   3  -3   14.05    1.35
 -14  -3   3   11.99    0.98
 -14  -3   3   11.00    1.50
  15   3  -3   14.26    1.67
  15   3  -3   18.76    1.66
 -15  -3   3   17.90    1.33
 -15  -3   3   12.32    2.04
 -15  -3   3   18.15    1.16
 -10   3  -4   70.87    3.88
 -10   3  -4   74.97    4.16
  10  -3   4   80.07    4.59
  10  -3   4   78.81    4.38
  -9   3  -4    1.80    0.44
  -9   3  -4    1.08    0.74
   9  -3   4   -1.04    1.01
   9  -3   4    0.29    0.75
  -8   3  -4   69.58    3.81
  -8   3  -4   72.53    4.03
   8  -3   4   84.57    4.72
   8  -3   4   83.10    4.58
  -7   3  -4  141.40    7.65
  -7   3  -4  142.20    7.73
   7  -3   4  142.30    7.78
   7  -3   4  142.70    7.75
   6  -3   4   14.70    1.16
   6  -3   4   17.73    1.16
  -5   3  -4   83.56    4.54
  -5   3  -4   94.10    5.15
   5  -3   4   91.46    5.06
   5  -3   4   95.35    5.22
  -4   3  -4   40.18    2.23
  -4   3  -4   37.04    2.14
   4  -3   4   37.23    2.19
   4  -3   4   33.31    1.92
  -3   3  -4  103.40    5.60
  -3   3  -4  102.40    5.58
   3  -3   4  104.70    5.74
   3  -3   4  107.60    5.84
  -2   3  -4  252.10   13.54
  -2   3  -4  257.10   13.83
   2  -3   4  243.60   13.10
   2  -3   4  247.80   13.35
  -1   3  -4    2.69    0.30
  -1   3  -4    2.90    0.43
   1  -3   4    3.28    0.36
   1  -3   4    2.21    0.26
   1  -3   4    2.67    0.54
   0   3  -4  310.20   16.66
   0   3  -4  320.10   17.17
   0  -3   4  251.80   13.51
   0  -3   4  271.00   14.57
   1   3  -4  123.10    6.65
   1   3  -4  126.70    6.82
  -1  -3   4  116.10    6.25
  -1  -3   4  127.90    6.91
   2   3  -4   49.90    2.74
   2   3  -4   44.70    2.43
  -2  -3   4   52.13    2.87
  -2  -3   4   45.91    2.49
   3   3  -4  509.60   27.32
   3   3  -4  476.10   25.51
  -3  -3   4  531.90   28.50
  -3  -3   4  472.60   25.33
   4   3  -4   22.81    1.32
   4   3  -4   22.35    1.24
  -4  -3   4   22.72    1.28
  -4  -3   4   21.06    1.17
   5   3  -4  203.70   10.95
   5   3  -4  187.00   10.05
  -5  -3   4  197.30   10.59
  -5  -3   4  207.10   11.12
   6   3  -4  278.30   14.94
   6   3  -4  309.40   16.61
  -6  -3   4  290.20   15.56
  -6  -3   4  309.70   16.61
   7   3  -4    9.54    0.69
   7   3  -4    9.67    0.67
  -7  -3   4    8.82    0.56
  -7  -3   4    8.96    0.61
   8   3  -4  163.50    8.84
   8   3  -4  170.80    9.20
  -8  -3   4  166.60    8.96
  -8  -3   4  152.30    8.22
   9   3  -4  119.60    6.50
   9   3  -4  109.60    6.00
  -9  -3   4   99.38    5.43
  -9  -3   4  104.40    5.66
  10   3  -4   39.51    2.33
  10   3  -4   40.34    2.35
 -10  -3   4   38.90    2.19
  11   3  -4  120.40    6.56
  11   3  -4  109.30    5.99
 -11  -3   4  105.20    5.78
 -11  -3   4  104.60    5.68
  12   3  -4   33.24    2.00
  12   3  -4   31.28    2.00
 -12  -3   4   29.86    1.94
 -12  -3   4   23.97    1.46
  13   3  -4   53.53    3.07
  13   3  -4   51.16    3.02
 -13  -3   4   47.68    2.95
 -13  -3   4   48.27    2.70
  14   3  -4   42.87    2.59
  14   3  -4   40.33    2.57
 -14  -3   4   38.24    2.54
 -14  -3   4   34.83    2.02
  15   3  -4    2.44    1.27
  15   3  -4    0.93    1.37
 -15  -3   4    2.51    0.86
 -15  -3   4    4.70    0.66
 -15  -3   4    1.68    1.78
 -10   3  -5   59.30    3.36
  10  -3   5   72.40    4.10
  -9   3  -5   43.34    2.52
  -9   3  -5   44.11    2.47
   9  -3   5   44.78    2.63
   9  -3   5   46.78    2.84
   8  -3   5   17.24    1.24
   8  -3   5   16.32    1.36
  -7   3  -5  112.10    6.12
  -7   3  -5  106.60    5.78
   7  -3   5  112.60    6.14
   7  -3   5  112.00    6.18
  -6   3  -5   18.92    1.31
  -6   3  -5   21.86    1.29
   6  -3   5   17.54    1.24
   6  -3   5   17.24    1.29
  -5   3  -5   52.93    2.91
  -5   3  -5   61.83    3.45
   5  -3   5   61.08    3.47
   5  -3   5   70.31    3.90
  -4   3  -5  137.20    7.46
  -4   3  -5  141.40    7.63
   4  -3   5  131.40    7.14
   4  -3   5  134.20    7.33
  -3   3  -5    1.27    0.31
  -3   3  -5    0.79    0.56
   3  -3   5    0.44    0.50
   3  -3   5    0.32    0.62
  -2   3  -5  251.60   13.52
  -2   3  -5  257.90   13.88
   2  -3   5  258.40   13.89
   2  -3   5  233.50   12.60
  -1   3  -5  119.10    6.43
  -1   3  -5  102.30    5.56
   1  -3   5   98.50    5.35
   1  -3   5  109.30    5.96
   0   3  -5   43.07    2.39
   0   3  -5   40.33    2.22
   0  -3   5   41.52    2.27
   0  -3   5   49.28    2.77
   0  -3   5   48.52    2.67
   1   3  -5  210.00   11.28
   1   3  -5  204.90   11.03
  -1  -3   5  203.50   10.93
  -1  -3   5  196.00   10.56
   2   3  -5    1.34    0.38
   2   3  -5    0.95    0.21
  -2  -3   5    1.04    0.19
  -2  -3   5    1.46    0.42
   3   3  -5  139.00    7.49
   3   3  -5  136.40    7.33
  -3  -3   5  147.00    7.93
  -3  -3   5  141.50    7.61
   4   3  -5  120.20    6.49
   4   3  -5  128.00    6.88
  -4  -3   5  117.90    6.35
  -4  -3   5  113.20    6.10
   5   3  -5    2.97    0.44
   5   3  -5    3.55    0.31
  -5  -3   5    2.82    0.31
  -5  -3   5    3.24    0.27
   6   3  -5  166.20    8.95
   6   3  -5  154.40    8.32
  -6  -3   5  155.80    8.38
  -6  -3   5  162.00    8.71
   7   3  -5   25.82    1.47
   7   3  -5   27.95    1.61
  -7  -3   5   28.20    1.56
  -7  -3   5   26.47    1.50
   8   3  -5   79.66    4.37
   8   3  -5   91.66    5.00
  -8  -3   5   79.98    4.37
  -8  -3   5   88.07    4.76
   9   3  -5  114.90    6.26
   9   3  -5  117.80    6.41
  -9  -3   5  122.50    6.61
  -9  -3   5  112.40    6.11
  10   3  -5    0.46    0.73
  10   3  -5    0.36    0.66
 -10  -3   5    0.75    0.69
 -10  -3   5   -0.16    0.34
  11   3  -5   60.11    3.43
  11   3  -5   54.86    3.14
 -11  -3   5   55.33    3.05
  12   3  -5   17.38    1.30
  12   3  -5   17.98    1.38
 -12  -3   5   15.96    1.04
 -12  -3   5   17.03    1.35
  13   3  -5   21.22    1.56
  13   3  -5   22.13    1.60
 -13  -3   5   20.22    1.27
 -13  -3   5   18.16    1.53
  14   3  -5   62.33    3.62
  14   3  -5   66.85    3.82
 -14  -3   5   56.71    3.40
 -14  -3   5   59.97    3.32
  15   3  -5    7.96    1.63
  15   3  -5    8.47    1.51
 -15  -3   5    6.96    2.07
 -15  -3   5    6.04    0.79
 -15  -3   5    5.16    0.72
  -9   3  -6   85.52    4.71
  -9   3  -6   78.79    4.29
   9  -3   6   87.31    4.98
   9  -3   6  100.40    5.55
  -8   3  -6   -0.14    0.74
  -8   3  -6    0.67    0.48
   8  -3   6   -0.13    1.05
   8  -3   6   -0.40    0.79
  -7   3  -6   65.49    3.59
  -7   3  -6   73.90    4.10
   7  -3   6   85.88    4.73
   7  -3   6   74.30    4.22
  -6   3  -6   42.98    2.48
  -6   3  -6   47.08    2.61
   6  -3   6   43.35    2.60
   6  -3   6   41.00    2.38
   5  -3   6   30.68    1.87
   5  -3   6   26.17    1.71
  -4   3  -6  188.70   10.21
  -4   3  -6  181.10    9.75
   4  -3   6  182.10    9.90
   4  -3   6  198.50   10.71
  -3   3  -6   53.12    2.92
  -3   3  -6   48.31    2.75
   3  -3   6   41.31    2.38
   3  -3   6   45.05    2.62
  -2   3  -6  128.00    6.97
  -2   3  -6  127.00    6.86
   2  -3   6  118.40    6.49
   2  -3   6  118.40    6.45
  -1   3  -6  113.80    6.18
  -1   3  -6  111.70    6.04
   1  -3   6  109.90    6.03
   1  -3   6  111.00    6.03
   0   3  -6    1.13    0.29
   0   3  -6    1.36    0.45
   0  -3   6    0.67    0.60
   0  -3   6    0.84    0.40
   1   3  -6  167.00    8.99
   1   3  -6  176.60    9.52
  -1  -3   6  171.70    9.25
  -1  -3   6  169.70    9.17
   2   3  -6   75.84    4.13
   2   3  -6   78.49    4.25
  -2  -3   6   71.61    3.93
  -2  -3   6   66.81    3.64
  -2  -3   6   67.97    3.68
   3   3  -6   63.00    3.41
   3   3  -6   67.30    3.68
  -3  -3   6   59.82    3.29
  -3  -3   6   54.64    2.96
   4   3  -6  127.70    6.87
   4   3  -6  147.00    7.92
  -4  -3   6  134.10    7.23
  -4  -3   6  143.50    7.71
   5   3  -6    8.63    0.54
   5   3  -6    8.85    0.66
  -5  -3   6    8.61    0.58
  -5  -3   6    7.00    0.44
   6   3  -6   98.60    5.36
   6   3  -6   97.70    5.28
  -6  -3   6   98.68    5.33
  -6  -3   6  110.00    5.93
   7   3  -6  120.10    6.49
   7   3  -6  119.30    6.48
  -7  -3   6  123.30    6.66
  -7  -3   6  117.80    6.35
   8   3  -6   38.53    2.16
   8   3  -6   36.03    2.11
   9   3  -6  121.60    6.62
   9   3  -6  117.30    6.36
  -9  -3   6  120.60    6.50
  -9  -3   6  127.20    6.89
  10   3  -6   36.89    2.14
  10   3  -6   32.71    1.98
 -10  -3   6   32.19    1.80
 -10  -3   6   36.68    2.12
  11   3  -6   55.37    3.15
  11   3  -6   55.25    3.18
 -11  -3   6   54.56    3.11
 -11  -3   6   60.12    3.29
  12   3  -6  101.40    5.61
  12   3  -6  100.40    5.59
 -12  -3   6  103.70    5.63
 -12  -3   6  109.30    6.04
  13   3  -6    0.88    1.01
  13   3  -6    0.24    1.19
 -13  -3   6    0.82    0.49
 -13  -3   6    1.29    1.10
  14   3  -6   58.26    3.49
  14   3  -6   53.33    3.19
 -14  -3   6   47.99    3.06
 -14  -3   6   50.36    2.80
 -14  -3   6   56.93    3.15
  15   3  -6   34.97    2.69
  15   3  -6   32.36    2.49
 -15  -3   6   27.67    1.68
 -15  -3   6   28.57    1.71
  -8   3  -7   19.65    1.22
  -8   3  -7   16.02    1.26
   8  -3   7   18.73    1.46
   8  -3   7   19.72    1.87
  -7   3  -7   16.17    1.20
  -7   3  -7   14.30    0.96
   7  -3   7   19.71    1.71
   7  -3   7   20.16    1.42
  -6   3  -7   66.28    3.63
  -6   3  -7   63.80    3.57
   6  -3   7   67.13    3.86
   6  -3   7   66.04    3.71
   5  -3   7    5.95    0.80
   5  -3   7    6.72    1.07
  -4   3  -7   94.94    5.15
  -4   3  -7   91.68    5.04
   4  -3   7   92.64    5.16
   4  -3   7  108.80    5.96
  -3   3  -7   66.88    3.65
  -3   3  -7   64.63    3.62
   3  -3   7   64.20    3.59
   3  -3   7   63.87    3.65
  -2   3  -7    4.23    0.74
  -2   3  -7    3.53    0.41
   2  -3   7    5.45    0.72
   2  -3   7    3.95    0.76
  -1   3  -7  117.70    6.36
  -1   3  -7  112.70    6.16
   1  -3   7  109.30    6.03
   1  -3   7  114.00    6.22
   0   3  -7   22.12    1.29
   0   3  -7   20.65    1.30
   0  -3   7   19.67    1.41
   0  -3   7   18.16    1.17
   1   3  -7   67.75    3.72
   1   3  -7   74.29    4.05
  -1  -3   7   67.38    3.75
  -1  -3   7   77.09    4.23
   2   3  -7  109.40    5.93
   2   3  -7  108.00    5.83
  -2  -3   7  106.90    5.79
  -2  -3   7  106.30    5.80
   3   3  -7   10.59    0.66
   3   3  -7    9.06    0.68
  -3  -3   7    8.19    0.71
  -3  -3   7    6.30    0.52
   4   3  -7  123.70    6.69
   4   3  -7  113.80    6.13
  -4  -3   7  126.40    6.82
  -4  -3   7  143.60    7.79
  -4  -3   7  117.90    6.38
   5   3  -7  106.90    5.76
   5   3  -7  104.30    5.67
  -5  -3   7  110.80    5.99
  -5  -3   7  101.70    5.48
   6   3  -7   30.66    1.70
   6   3  -7   34.04    1.94
  -6  -3   7   41.85    2.28
  -6  -3   7   35.18    1.95
   7   3  -7   80.61    4.37
   7   3  -7   75.19    4.12
  -7  -3   7   84.78    4.58
  -7  -3   7   82.00    4.45
   8   3  -7    4.48    0.65
   8   3  -7    4.04    0.44
  -8  -3   7    4.68    0.36
  -8  -3   7    4.21    0.46
   9   3  -7   98.93    5.38
   9   3  -7   93.07    5.11
  -9  -3   7   97.66    5.30
  -9  -3   7   99.17    5.36
  10   3  -7   69.25    3.82
  10   3  -7   64.70    3.64
 -10  -3   7   67.28    3.66
 -10  -3   7   69.13    3.80
  11   3  -7    1.70    0.78
  11   3  -7    2.40    1.11
 -11  -3   7    1.78    0.41
 -11  -3   7    0.35    0.80
  12   3  -7   58.22    3.46
  12   3  -7   59.04    3.39
 -12  -3   7   55.10    3.19
 -12  -3   7   55.13    3.04
  13   3  -7   19.05    1.69
  13   3  -7   19.46    1.70
 -13  -3   7   16.87    1.06
 -13  -3   7   16.50    1.06
 -13  -3   7   16.42    1.69
  14   3  -7   19.04    1.90
  14   3  -7   22.07    2.13
 -14  -3   7   18.20    1.23
 -14  -3   7   21.42    1.35
 -15  -3   7   41.60    2.40
 -15  -3   7   42.49    2.47
   7  -3   8    7.12    1.56
   7  -3   8    8.39    1.16
  -6   3  -8   94.80    5.20
  -6   3  -8   84.48    4.60
   6  -3   8  107.20    5.90
   6  -3   8  105.30    5.90
  -5   3  -8   28.54    1.66
  -5   3  -8   25.25    1.64
   5  -3   8   28.26    1.96
   5  -3   8   24.87    1.62
  -4   3  -8   20.68    1.24
  -4   3  -8   24.30    1.56
   4  -3   8   28.10    1.91
   4  -3   8   31.11    1.94
  -3   3  -8  112.00    6.06
  -3   3  -8  113.50    6.21
   3  -3   8  106.30    5.90
   3  -3   8  104.60    5.73
  -2   3  -8    0.03    0.36
  -2   3  -8    0.33    0.70
   2  -3   8    1.21    0.74
   2  -3   8    1.09    0.96
  -1   3  -8  181.80    9.85
  -1   3  -8  182.10    9.81
   1  -3   8  188.20   10.24
   1  -3   8  184.60   10.00
   0   3  -8   69.66    3.81
   0   3  -8   67.23    3.79
   0  -3   8   64.54    3.72
   0  -3   8   64.33    3.63
   1   3  -8    7.19    0.62
   1   3  -8    9.43    0.84
   2   3  -8  259.60   13.96
   2   3  -8  243.50   13.13
  -2  -3   8  201.50   10.87
  -2  -3   8  219.50   11.89
   3   3  -8   74.79    4.13
   3   3  -8   79.03    4.29
  -3  -3   8   72.56    4.06
  -3  -3   8   69.35    3.82
   4   3  -8  102.30    5.53
   4   3  -8  100.10    5.45
  -4  -3   8  102.40    5.61
  -4  -3   8  105.40    5.73
   5   3  -8  134.60    7.25
   5   3  -8  142.50    7.71
  -5  -3   8  134.10    7.25
  -5  -3   8  141.00    7.62
   6   3  -8    2.87    0.44
   6   3  -8    3.42    0.31
  -6  -3   8    2.59    0.39
  -6  -3   8    3.14    0.44
  -7  -3   8  136.30    7.38
  -7  -3   8  154.80    8.37
  -7  -3   8  131.70    7.15
  -8  -3   8  117.80    6.44
  -9  -3   8   14.02    0.80
  -9  -3   8   13.35    0.81
 -11  -3   8   12.88    0.76
 -11  -3   8   12.85    0.76
 -12  -3   8   31.95    1.78
 -12  -3   8   27.61    1.55
 -14  -3   8    1.41    0.49
 -14  -3   8    2.15    0.61
  -6   3  -9   13.13    1.24
   6  -3   9   17.72    1.66
  -5   3  -9   35.24    2.18
  -5   3  -9   34.34    1.98
   5  -3   9   35.31    2.24
   5  -3   9   28.93    2.30
  -4   3  -9    0.95    0.83
  -4   3  -9    0.06    0.50
   4  -3   9    1.83    0.99
   4  -3   9    0.60    1.41
  -3   3  -9   60.13    3.32
  -3   3  -9   63.20    3.56
   3  -3   9   68.50    4.08
   3  -3   9   69.09    3.91
  -2   3  -9   29.20    1.80
  -2   3  -9   31.01    1.78
   2  -3   9   27.26    1.73
   2  -3   9   30.39    2.21
  -1   3  -9    5.55    0.74
  -1   3  -9    5.03    0.53
   1  -3   9    6.14    1.32
   1  -3   9    6.46    0.83
   0   3  -9   74.60    4.14
   0   3  -9   73.00    3.98
   0  -3   9   77.42    4.30
   0  -3   9   74.72    4.31
   1   3  -9   14.60    0.93
   1   3  -9   11.78    1.05
  -1  -3   9   10.16    0.93
  -1  -3   9   14.12    1.38
   2   3  -9   43.55    2.55
   2   3  -9   41.74    2.34
  -2  -3   9   43.71    2.52
  -2  -3   9   42.89    2.63
   3   3  -9   63.22    3.46
   3   3  -9   67.36    3.75
  -3  -3   9   67.53    3.74
  -3  -3   9   69.88    3.96
   4   3  -9    6.63    0.52
   4   3  -9    5.90    0.74
  -4  -3   9    6.91    1.06
  -4  -3   9    6.05    0.66
   5   3  -9   91.97    5.01
   5   3  -9   89.41    4.83
  -5  -3   9   82.71    4.53
  -5  -3   9   90.62    4.93
   6   3  -9   34.16    1.88
   6   3  -9   33.93    1.91
  -6  -3   9   34.25    1.92
  -6  -3   9   37.19    2.08
  -4   3 -10   19.76    1.47
  -4   3 -10   21.53    1.33
   4  -3  10   23.36    2.19
   4  -3  10   20.90    1.68
  -3   3 -10   34.90    2.00
  -3   3 -10   34.33    2.11
   3  -3  10   41.11    2.81
   3  -3  10   44.13    2.65
  -2   3 -10  101.80    5.59
  -2   3 -10   99.31    5.40
   2  -3  10  102.90    5.89
   2  -3  10  106.90    5.87
  -1   3 -10    3.79    0.53
  -1   3 -10    2.98    0.79
   1  -3  10    1.23    0.85
   1  -3  10    2.80    1.42
   0   3 -10   61.22    3.37
   0   3 -10   67.24    3.77
   0  -3  10   70.50    3.95
   0  -3  10   69.17    4.05
   1   3 -10   54.33    3.00
   1   3 -10   53.15    3.03
  -1  -3  10   50.58    3.16
  -1  -3  10   51.53    2.94
   2   3 -10   18.43    1.14
   2   3 -10   19.26    1.38
  -2  -3  10   16.78    1.23
  -2  -3  10   16.94    1.67
   3   3 -10   96.21    5.30
   3   3 -10   92.19    5.01
  -3  -3  10   90.31    4.96
  -3  -3  10   99.94    5.59
   4   3 -10    8.98    0.67
   4   3 -10    9.05    0.85
  -4  -3  10    7.12    0.74
  -4  -3  10    7.58    1.18
   5   3 -10   69.12    3.76
   5   3 -10   78.91    4.34
  -5  -3  10   69.98    3.85
  -5  -3  10   67.05    3.76
  -6  -3  10   64.90    3.57
  -6  -3  10   76.63    4.19
  -3   3 -11   -0.31    0.58
  -3   3 -11    0.57    0.95
   3  -3  11    2.82    2.02
   3  -3  11    0.30    1.26
  -2   3 -11   33.72    1.95
  -2   3 -11   34.82    2.17
   2  -3  11   43.29    2.64
   2  -3  11   41.85    2.93
  -1   3 -11   10.20    1.07
  -1   3 -11   10.07    0.80
   1  -3  11   11.84    1.84
   1  -3  11    8.87    1.19
   0   3 -11   29.29    1.86
   0   3 -11   30.11    1.77
   0  -3  11   30.00    1.98
   0  -3  11   30.07    2.40
   1   3 -11   54.56    3.13
   1   3 -11   48.38    2.70
  -1  -3  11   56.35    3.26
  -1  -3  11   57.90    3.58
   2   3 -11    0.33    0.80
   2   3 -11    0.06    0.48
  -2  -3  11    2.19    1.61
  -2  -3  11    0.68    0.84
   3   3 -11   38.91    2.21
   3   3 -11   39.26    2.39
  -3  -3  11   35.19    2.21
  -3  -3  11   42.61    2.82
   4   3 -11   21.43    1.45
   4   3 -11   23.19    1.38
  -4  -3  11   25.48    1.97
  -4  -3  11   24.67    1.60
   5   3 -11   12.91    0.83
   5   3 -11   13.50    1.00
  -5  -3  11   14.54    1.07
  -5  -3  11   15.66    1.38
  -2   3 -12   51.02    2.97
  -2   3 -12   45.38    2.54
   2  -3  12   55.14    3.73
   2  -3  12   57.72    3.60
  -1   3 -12   48.95    2.86
  -1   3 -12   49.94    2.76
   1  -3  12   59.28    3.60
   1  -3  12   57.81    3.78
   0   3 -12    2.39    0.95
   0   3 -12    2.42    0.61
   0  -3  12    1.60    1.17
   0  -3  12    3.16    2.01
   1   3 -12   66.34    3.65
   1   3 -12   61.83    3.50
  -1  -3  12   68.81    3.91
  -1  -3  12   64.01    4.00
   2   3 -12   45.63    2.55
   2   3 -12   42.17    2.48
  -2  -3  12   44.71    2.69
  -2  -3  12   47.38    3.25
   3   3 -12   32.24    1.98
   3   3 -12   37.45    2.13
  -3  -3  12   38.91    2.86
  -3  -3  12   45.90    2.75
   4   3 -12   67.27    3.71
   4   3 -12   71.67    3.98
  -4  -3  12   69.15    4.24
  -4  -3  12   59.93    3.42
   5   3 -12    8.30    0.71
   5   3 -12    8.68    0.84
  -5  -3  12    6.91    1.40
  -5  -3  12    8.19    1.01
   0   3 -13    1.47    1.10
   0   3 -13    1.20    0.70
   0  -3  13    0.02    2.46
   0  -3  13    0.13    1.77
   1   3 -13   30.56    2.01
   1   3 -13   28.68    1.71
  -1  -3  13   36.83    3.27
  -1  -3  13   32.77    2.41
   2   3 -13   29.70    1.75
   2   3 -13   29.19    1.98
  -2  -3  13   38.55    3.41
  -2  -3  13   29.69    2.19
   3   3 -13    0.33    0.67
   3   3 -13    0.89    0.98
  -3  -3  13   -0.68    2.15
  -3  -3  13   -0.03    1.34
   4   3 -13   25.92    1.60
   4   3 -13   24.93    1.79
  -4  -3  13   25.84    2.71
  -4  -3  13   26.11    2.06
  -5   4  13   29.62    2.51
  -5   4  13   37.84    3.21
  -4   4  13    6.89    2.82
  -4   4  13    7.68    2.13
   4  -4 -13    5.00    0.82
   4  -4 -13    6.00    0.74
  -3   4  13   86.45    5.05
  -3   4  13   89.63    5.35
   3  -4 -13   75.34    4.16
   3  -4 -13   81.18    4.45
  -2   4  13   13.39    1.92
  -2   4  13    9.41    2.18
   2  -4 -13    9.95    1.04
   2  -4 -13    8.30    0.82
  -1   4  13   22.15    2.53
  -1   4  13   24.78    2.33
   1  -4 -13   24.74    2.28
   1  -4 -13   26.08    1.58
   1  -4 -13   22.79    1.52
   0   4  13   59.33    3.81
   0   4  13   48.27    3.56
   0  -4 -13   53.64    3.58
   0  -4 -13   54.98    3.15
  -5   4  12   22.60    2.01
  -5   4  12   21.36    1.91
   5  -4 -12   18.87    1.15
   5  -4 -12   19.08    1.17
  -4   4  12   -1.09    1.40
  -4   4  12    0.79    1.51
   4  -4 -12    1.37    1.36
   4  -4 -12    0.36    0.56
   4  -4 -12    0.75    0.61
  -3   4  12   11.23    1.49
  -3   4  12    9.95    1.47
   3  -4 -12   10.39    1.32
   3  -4 -12   12.02    0.92
  -2   4  12    9.65    1.55
  -2   4  12   11.78    1.59
   2  -4 -12    8.72    0.78
   2  -4 -12    9.25    1.41
  -1   4  12    0.45    1.48
  -1   4  12    1.07    1.19
   1  -4 -12    1.72    0.63
   1  -4 -12    2.09    1.29
   0   4  12   31.22    2.38
   0   4  12   33.45    2.30
   0  -4 -12   27.93    1.69
   0  -4 -12   28.65    2.13
   1   4  12   10.29    1.78
   1   4  12    9.51    1.85
  -1  -4 -12    7.39    1.60
  -1  -4 -12    8.18    0.90
   2   4  12    5.73    1.61
   2   4  12    2.84    1.96
  -2  -4 -12    3.44    1.70
  -2  -4 -12    4.13    0.87
  -6   4  11    1.27    0.81
  -6   4  11   -0.29    1.01
  -5   4  11   78.21    4.40
  -5   4  11   85.25    4.78
   5  -4 -11   72.91    4.08
   5  -4 -11   75.92    4.13
  -4   4  11   56.05    3.31
  -4   4  11   59.58    3.45
   4  -4 -11   49.11    2.84
   4  -4 -11   53.67    2.98
  -3   4  11   11.46    1.42
  -3   4  11   13.75    1.40
  -2   4  11  154.40    8.41
  -2   4  11  147.50    8.14
   2  -4 -11  129.80    7.11
   2  -4 -11  140.30    7.59
  -1   4  11    7.32    1.14
  -1   4  11    6.53    1.38
   1  -4 -11    6.02    1.06
   1  -4 -11    6.76    0.69
   0  -4 -11   53.89    3.22
   0  -4 -11   60.53    3.37
   1   4  11   94.08    5.24
   1   4  11   85.11    4.85
  -1  -4 -11   79.96    4.39
  -1  -4 -11   86.27    4.89
   2   4  11   -0.30    1.42
   2   4  11    2.37    1.09
  -2  -4 -11    1.84    0.79
  -2  -4 -11    0.56    1.40
   3   4  11   74.19    4.41
   3   4  11   69.95    4.10
  -6   4  10    0.33    0.95
  -6   4  10    1.00    0.69
   6  -4 -10    0.28    0.56
   6  -4 -10    1.04    0.30
  -5   4  10    9.27    1.18
  -5   4  10    8.65    0.93
   5  -4 -10    8.62    0.85
   5  -4 -10    7.58    0.61
  -4   4  10   42.57    2.54
  -4   4  10   46.74    2.71
   4  -4 -10   35.67    2.13
   4  -4 -10   43.40    2.42
  -3   4  10    5.06    1.06
   3  -4 -10    5.18    0.92
   3  -4 -10    5.44    0.58
  -2   4  10   13.64    1.21
  -2   4  10   12.04    1.31
   2  -4 -10   12.83    0.86
   2  -4 -10   11.35    1.07
  -1   4  10    6.60    0.97
  -1   4  10    4.54    1.08
   1  -4 -10    4.94    0.96
   1  -4 -10    5.02    0.60
   0   4  10    4.22    1.10
   0   4  10    4.90    1.00
   0  -4 -10    3.72    0.58
   0  -4 -10    3.73    0.89
   1   4  10   19.18    1.66
   1   4  10   20.12    1.43
  -1  -4 -10   16.97    1.38
  -1  -4 -10   19.24    1.22
   2   4  10    2.26    1.27
   2   4  10    1.46    0.98
  -2  -4 -10    1.10    0.53
  -2  -4 -10    1.23    1.06
   3   4  10   22.68    1.91
   3   4  10   21.36    1.57
  -3  -4 -10   20.73    1.32
  -3  -4 -10   20.08    1.68
   4   4  10   10.54    1.66
   4   4  10   12.66    1.23
  -4  -4 -10   10.98    0.96
  -4  -4 -10   13.16    1.69
  -6   4   9  101.80    5.54
  -6   4   9   87.55    4.82
   6  -4  -9   98.89    5.35
   6  -4  -9   98.68    5.37
  -5   4   9    3.05    0.63
  -5   4   9    3.18    0.85
   5  -4  -9    3.28    0.39
   5  -4  -9    3.80    0.63
  -4   4   9  199.30   10.77
  -4   4   9  188.70   10.21
   4  -4  -9  186.00   10.01
   4  -4  -9  191.70   10.35
  -3   4   9   69.78    3.91
  -3   4   9   69.20    3.87
   3  -4  -9   69.90    3.89
   3  -4  -9   72.70    3.97
  -2   4   9   61.06    3.50
  -2   4   9   67.30    3.77
   2  -4  -9   62.51    3.44
   2  -4  -9   62.83    3.52
  -1   4   9  137.30    7.50
  -1   4   9  161.70    8.75
   1  -4  -9  132.70    7.23
   1  -4  -9  135.60    7.33
   0   4   9   -0.25    0.82
   0   4   9    0.07    0.89
   0  -4  -9    0.04    0.48
   0  -4  -9    1.30    0.83
   1   4   9  118.40    6.47
   1   4   9  120.70    6.67
  -1  -4  -9  111.60    6.05
  -1  -4  -9  114.60    6.28
   2   4   9   98.27    5.39
   2   4   9  100.40    5.62
  -2  -4  -9   94.92    5.25
  -2  -4  -9   91.16    4.97
  -3  -4  -9   15.23    1.35
  -3  -4  -9   18.46    1.17
   4   4   9  111.90    6.13
   4   4   9  120.60    6.68
  -4  -4  -9  112.90    6.24
  -4  -4  -9  107.40    5.83
   5   4   9   21.26    1.87
   5   4   9   17.81    1.35
 -13   4   8    6.29    0.84
 -13   4   8    5.76    0.63
 -12   4   8    2.29    0.59
 -12   4   8    2.26    0.44
 -10   4   8    0.32    0.49
 -10   4   8    0.66    0.35
  -8   4   8    7.90    0.68
  -8   4   8    9.70    0.65
  -7   4   8    4.35    0.64
  -7   4   8    5.27    0.50
   7  -4  -8    5.06    0.36
   7  -4  -8    5.53    0.50
  -6   4   8   50.35    2.78
  -6   4   8   49.53    2.82
   6  -4  -8   51.21    2.79
   6  -4  -8   57.00    3.15
  -5   4   8    5.42    0.61
  -5   4   8    5.34    0.78
   5  -4  -8    4.97    0.43
   5  -4  -8    5.43    0.57
  -4   4   8   14.22    1.02
  -4   4   8   14.48    1.15
   4  -4  -8   12.79    0.90
   4  -4  -8   15.30    0.93
  -3   4   8   17.86    1.23
  -3   4   8   17.82    1.21
   3  -4  -8   18.01    1.19
   3  -4  -8   17.41    1.05
  -2   4   8    5.95    0.81
  -2   4   8    7.04    0.84
   2  -4  -8    6.54    0.56
   2  -4  -8    5.55    0.70
  -1   4   8   73.86    4.13
  -1   4   8   61.16    3.52
   1  -4  -8   61.63    3.42
   1  -4  -8   51.36    2.95
   0  -4  -8   25.69    1.55
   0  -4  -8   25.62    1.62
   1   4   8    0.11    0.82
   1   4   8    0.76    0.73
  -1  -4  -8    1.74    0.69
  -1  -4  -8    1.34    0.45
   2   4   8   10.38    0.93
   2   4   8   11.68    1.04
  -2  -4  -8   10.25    0.79
  -2  -4  -8   10.99    1.00
   3   4   8    0.36    0.69
   3   4   8    0.54    0.82
  -3  -4  -8   -0.03    0.76
  -3  -4  -8   -0.06    0.55
   4   4   8   29.42    1.81
   4   4   8   30.12    2.01
  -4  -4  -8   26.60    1.60
  -4  -4  -8   24.93    1.67
   5   4   8   18.75    1.58
   5   4   8   16.41    1.23
  -5  -4  -8   16.82    1.40
  -5  -4  -8   15.08    1.01
   6   4   8    1.46    1.07
   6   4   8    2.27    0.85
  -6  -4  -8    2.25    0.63
  -6  -4  -8    0.29    1.11
 -14   4   7   44.72    2.79
 -14   4   7   40.11    2.34
  14  -4  -7   43.75    2.99
  14  -4  -7   42.55    3.29
 -13   4   7   49.12    2.86
 -13   4   7   46.68    2.62
  13  -4  -7   47.50    2.89
  13  -4  -7   47.30    3.22
 -12   4   7   10.90    0.81
 -12   4   7   12.54    1.15
  12  -4  -7   12.77    1.41
  12  -4  -7   10.93    1.11
 -11   4   7  120.70    6.58
 -11   4   7  119.60    6.46
  11  -4  -7  118.20    6.45
  11  -4  -7  118.30    6.47
 -10   4   7   39.95    2.29
 -10   4   7   40.09    2.22
  10  -4  -7   35.36    2.07
  10  -4  -7   35.87    2.11
  -9   4   7   19.65    1.13
  -9   4   7   19.97    1.28
   9  -4  -7   21.09    1.29
   9  -4  -7   22.07    1.37
  -8   4   7  174.20    9.38
  -8   4   7  174.80    9.44
   8  -4  -7  181.70    9.80
   8  -4  -7  172.50    9.31
  -7   4   7    1.01    0.60
  -7   4   7    1.94    0.36
  -6   4   7  154.00    8.30
  -6   4   7  172.80    9.35
   6  -4  -7  177.50    9.55
   6  -4  -7  169.80    9.15
  -5   4   7  115.30    6.29
  -5   4   7  119.80    6.48
   5  -4  -7  118.30    6.40
   5  -4  -7  108.10    5.84
  -4   4   7   18.95    1.30
  -4   4   7   17.65    1.12
   4  -4  -7   19.38    1.19
   4  -4  -7   17.15    1.01
   3  -4  -7  232.40   12.51
   3  -4  -7  226.60   12.17
  -2   4   7   33.18    1.92
  -2   4   7   37.41    2.15
   2  -4  -7   33.87    1.87
   2  -4  -7   38.09    2.16
  -1   4   7  107.00    5.81
  -1   4   7  102.10    5.58
   1  -4  -7  115.20    6.22
   1  -4  -7  104.50    5.70
   0  -4  -7  126.90    6.87
   0  -4  -7  121.50    6.61
   1   4   7    6.97    0.75
   1   4   7    8.84    0.92
  -1  -4  -7    9.29    0.82
  -1  -4  -7    7.07    0.63
   2   4   7  208.60   11.30
   2   4   7  185.90   10.04
  -2  -4  -7  199.00   10.72
  -2  -4  -7  197.10   10.64
   3   4   7   83.76    4.66
   3   4   7   87.00    4.77
  -3  -4  -7   91.17    5.00
  -3  -4  -7   75.48    4.13
   4   4   7   34.90    2.04
   4   4   7   36.70    2.21
  -4  -4  -7   33.14    1.90
  -4  -4  -7   31.62    1.91
   5   4   7  139.00    7.60
   5   4   7  138.60    7.53
  -5  -4  -7  119.00    6.46
  -5  -4  -7  134.80    7.34
   6   4   7   11.64    0.95
   6   4   7   10.30    1.12
  -6  -4  -7    8.77    0.76
  -6  -4  -7   10.75    1.14
   7   4   7   77.98    4.42
   7   4   7   76.96    4.27
  -7  -4  -7   69.08    3.80
  -7  -4  -7   71.60    4.09
 -15   4   6    6.88    1.31
 -15   4   6    9.10    1.03
  15  -4  -6    5.89    1.77
  15  -4  -6    6.20    2.48
 -14   4   6    1.75    1.11
 -14   4   6    3.90    0.77
  14  -4  -6    2.16    1.82
  14  -4  -6    2.18    1.21
 -13   4   6   20.60    1.34
 -13   4   6   18.95    1.46
  13  -4  -6   21.28    1.94
  13  -4  -6   23.83    1.70
 -12   4   6    0.03    0.61
 -12   4   6    0.17    0.83
  12  -4  -6    0.32    1.33
  12  -4  -6    0.47    1.04
 -11   4   6   26.53    1.55
 -11   4   6   24.35    1.61
 -10   4   6   46.52    2.57
 -10   4   6   41.61    2.42
  10  -4  -6   42.42    2.59
  10  -4  -6   43.90    2.54
  -9   4   6    4.39    0.47
  -9   4   6    3.57    0.75
   9  -4  -6    4.33    0.84
   9  -4  -6    4.12    0.68
  -8   4   6   23.91    1.36
  -8   4   6   27.01    1.65
   8  -4  -6   26.91    1.63
   8  -4  -6   27.96    1.65
  -7   4   6    2.11    0.36
  -7   4   6    1.46    0.66
   7  -4  -6    1.51    0.28
   7  -4  -6    1.32    0.54
  -6   4   6   21.23    1.22
  -6   4   6   18.25    1.20
   6  -4  -6   20.37    1.16
   6  -4  -6   20.03    1.19
  -5   4   6   58.22    3.17
  -5   4   6   57.22    3.19
   5  -4  -6   51.34    2.81
   5  -4  -6   61.34    3.32
  -4   4   6   13.88    0.97
  -4   4   6   12.38    0.76
   4  -4  -6   14.38    0.88
   4  -4  -6   14.85    0.85
  -3   4   6   34.14    1.90
  -3   4   6   31.45    1.81
   3  -4  -6   31.96    1.81
   3  -4  -6   35.78    1.96
  -2   4   6    2.08    0.49
  -2   4   6    1.58    0.36
   2  -4  -6    1.78    0.27
   2  -4  -6    2.33    0.40
   1  -4  -6   20.49    1.17
   1  -4  -6   17.72    1.10
   0   4   6   48.47    2.72
   0   4   6   49.31    2.74
   0  -4  -6   47.73    2.62
   0  -4  -6   45.61    2.56
   1   4   6   11.95    0.93
  -1  -4  -6   12.78    0.83
  -1  -4  -6   11.19    0.87
   2   4   6   55.10    3.13
   2   4   6   46.36    2.60
  -2  -4  -6   49.58    2.74
  -2  -4  -6   42.36    2.42
   3   4   6   39.76    2.32
   3   4   6   35.61    2.04
  -3  -4  -6   35.70    2.09
  -3  -4  -6   35.86    2.03
   4   4   6    0.13    0.55
   4   4   6    0.40    0.72
  -4  -4  -6    0.74    0.41
  -4  -4  -6   -0.10    0.61
   5   4   6   41.98    2.45
   5   4   6   39.33    2.27
  -5  -4  -6   40.45    2.36
  -5  -4  -6   37.09    2.10
   6   4   6   26.81    1.72
   6   4   6   23.15    1.47
   7   4   6    6.68    0.82
   7   4   6    9.90    1.16
  -7  -4  -6    5.34    0.97
  -7  -4  -6    6.77    0.68
   8   4   6   27.06    1.93
   8   4   6   22.43    1.48
  -8  -4  -6   24.37    1.78
  -8  -4  -6   21.47    1.33
 -15   4   5   34.91    2.24
 -15   4   5   41.42    2.38
  15  -4  -5   41.35    2.87
  15  -4  -5   45.66    3.44
 -14   4   5    0.08    1.05
 -14   4   5    1.04    0.61
  14  -4  -5    0.37    1.95
  14  -4  -5   -0.67    1.13
 -13   4   5   80.10    4.39
 -13   4   5   89.89    4.99
  13  -4  -5   91.34    5.28
  13  -4  -5  102.90    5.68
 -12   4   5   47.54    2.75
 -12   4   5   55.78    3.09
  12  -4  -5   54.85    3.14
  12  -4  -5   54.82    3.33
  11  -4  -5   15.49    1.49
  11  -4  -5   18.46    1.40
 -10   4   5  114.20    6.19
 -10   4   5  123.50    6.75
  10  -4  -5  123.00    6.71
  10  -4  -5  118.30    6.51
  -9   4   5   10.14    0.96
  -9   4   5   11.79    0.79
   9  -4  -5   12.35    1.22
   9  -4  -5    8.90    0.81
  -8   4   5  170.70    9.24
  -8   4   5  172.20    9.27
   8  -4  -5  172.10    9.34
   8  -4  -5  172.00    9.30
  -7   4   5  225.40   12.17
  -7   4   5  189.50   10.19
   7  -4  -5  235.80   12.71
   7  -4  -5  236.90   12.72
  -6   4   5   22.26    1.24
  -6   4   5   20.97    1.28
   6  -4  -5   23.18    1.38
   6  -4  -5   21.60    1.21
  -5   4   5  137.30    7.38
  -5   4   5  126.20    6.84
   5  -4  -5  125.30    6.74
   5  -4  -5  147.80    7.97
  -4   4   5   63.22    3.43
  -4   4   5   63.13    3.47
  -3   4   5  133.60    7.19
  -3   4   5  139.70    7.55
   3  -4  -5  144.50    7.77
   3  -4  -5  138.30    7.45
  -2   4   5  203.80   10.95
  -2   4   5  202.50   10.89
   2  -4  -5  186.30   10.00
   2  -4  -5  212.00   11.40
  -1   4   5   13.82    0.85
  -1   4   5   15.86    0.99
   1  -4  -5   14.45    0.84
   1  -4  -5   15.36    0.93
   0   4   5  273.70   14.70
   0   4   5  246.80   13.27
   0  -4  -5  257.80   13.86
   0  -4  -5  286.00   15.35
   1   4   5  164.20    8.87
   1   4   5  175.90    9.48
   2   4   5   38.74    2.24
  -2  -4  -5   34.83    1.99
   3   4   5  285.20   15.33
   3   4   5  307.10   16.53
  -3  -4  -5  289.50   15.57
  -3  -4  -5  271.20   14.57
   4   4   5   34.19    1.96
   4   4   5   35.12    2.11
   5   4   5  102.50    5.63
   5   4   5   91.94    5.03
  -5  -4  -5   96.61    5.29
  -5  -4  -5   81.91    4.47
   6   4   5  190.70   10.33
   6   4   5  172.60    9.33
   7   4   5    1.92    0.63
   7   4   5    2.08    0.78
  -7  -4  -5    1.69    0.49
  -7  -4  -5    2.85    0.69
   8   4   5  117.60    6.46
   8   4   5  109.60    5.98
  -8  -4  -5   93.12    5.07
  -8  -4  -5   99.45    5.49
   9   4   5   88.74    4.89
   9   4   5   95.89    5.38
 -15   4   4    9.34    1.49
 -15   4   4   12.53    1.04
  15  -4  -4   15.16    2.33
  15  -4  -4   14.35    1.67
 -14   4   4    9.31    0.85
 -14   4   4    6.13    1.11
  14  -4  -4    6.05    1.22
  14  -4  -4    8.14    1.96
 -13   4   4    1.67    0.64
 -13   4   4    3.23    0.93
  13  -4  -4    3.18    1.11
  13  -4  -4    5.69    1.76
 -12   4   4   23.22    1.41
 -12   4   4   19.32    1.39
  12  -4  -4   19.89    1.47
  12  -4  -4   23.27    1.87
 -11   4   4    0.57    0.50
 -11   4   4   -0.35    0.89
  11  -4  -4    0.79    1.22
  11  -4  -4   -0.04    0.74
 -10   4   4   27.49    1.62
  10  -4  -4   28.27    1.84
  10  -4  -4   28.62    1.97
  -9   4   4   16.61    1.19
  -9   4   4   18.61    1.13
   9  -4  -4   16.64    1.41
   9  -4  -4   17.75    1.25
   8  -4  -4    6.75    0.90
   8  -4  -4    6.38    0.64
  -7   4   4   72.44    3.93
  -7   4   4   70.22    3.86
   7  -4  -4   72.05    4.00
   7  -4  -4   67.88    3.70
   7  -4  -4   65.91    3.57
  -6   4   4    9.75    0.76
  -6   4   4   11.19    0.67
   6  -4  -4   11.64    0.68
   6  -4  -4   11.17    0.89
  -5   4   4   42.77    2.40
  -5   4   4   45.02    2.45
   5  -4  -4   43.88    2.44
   5  -4  -4   47.69    2.59
  -4   4   4   42.52    2.39
  -4   4   4   41.00    2.23
   4  -4  -4   42.90    2.38
   4  -4  -4   41.23    2.25
  -3   4   4    1.25    0.24
  -3   4   4    1.39    0.49
   3  -4  -4    0.88    0.32
   3  -4  -4    1.43    0.21
  -2   4   4  124.30    6.69
  -2   4   4  120.10    6.50
   2  -4  -4  135.60    7.31
   2  -4  -4  123.90    6.66
  -1   4   4   41.90    2.33
  -1   4   4   39.07    2.15
   1  -4  -4   43.51    2.37
   1  -4  -4   42.72    2.35
   0   4   4   15.35    0.93
   0   4   4   16.83    1.02
   0  -4  -4   16.82    0.97
   0  -4  -4   15.96    0.96
   1   4   4   26.15    1.49
   1   4   4   23.94    1.38
  -1  -4  -4   26.32    1.51
  -1  -4  -4   25.33    1.43
   2   4   4    8.82    0.66
   2   4   4    9.33    0.69
  -2  -4  -4    9.08    0.63
  -2  -4  -4    7.80    0.61
   3   4   4   78.88    4.34
  -3  -4  -4   80.42    4.39
   4   4   4   41.02    2.31
   4   4   4   45.16    2.60
   5   4   4    7.23    0.81
   5   4   4    5.49    0.58
  -5  -4  -4    7.11    0.58
  -5  -4  -4    6.81    0.73
   6   4   4   23.74    1.58
   6   4   4   24.69    1.49
  -6  -4  -4   26.25    1.61
  -6  -4  -4   21.69    1.30
   7   4   4   10.08    0.93
   7   4   4    8.13    0.75
  -7  -4  -4    7.72    0.65
  -7  -4  -4    9.49    0.92
   8   4   4   35.44    2.16
   8   4   4   34.70    2.04
  -8  -4  -4   31.46    1.83
  -8  -4  -4   34.46    2.07
   9   4   4   57.77    3.36
   9   4   4   51.38    2.92
  -9  -4  -4   47.04    2.77
  -9  -4  -4   43.46    2.45
  10   4   4    3.77    0.86
  10   4   4    3.26    1.05
 -10  -4  -4    2.14    0.58
 -10  -4  -4    2.82    0.99
 -15   4   3   28.46    1.73
 -15   4   3   29.24    2.12
 -14   4   3   66.82    3.84
 -14   4   3   72.65    3.99
  14  -4  -3   70.22    4.01
  14  -4  -3   68.61    4.17
 -13   4   3    0.10    0.63
 -13   4   3    1.35    0.98
  13  -4  -3   -0.47    1.50
  13  -4  -3    2.18    1.02
 -12   4   3  178.20    9.62
 -12   4   3  167.60    9.10
  12  -4  -3  170.30    9.31
  12  -4  -3  182.30    9.88
 -11   4   3   48.31    2.71
 -11   4   3   43.39    2.57
  11  -4  -3   40.70    2.39
  11  -4  -3   41.19    2.59
 -10   4   3   44.72    2.51
 -10   4   3   54.38    3.12
  10  -4  -3   48.91    2.91
  10  -4  -3   54.55    3.11
  -9   4   3  297.70   16.08
  -9   4   3  324.10   17.44
   9  -4  -3  217.70   11.81
   9  -4  -3  228.30   12.32
  -8   4   3    0.91    0.66
  -8   4   3    0.83    0.31
   8  -4  -3    0.42    0.78
   8  -4  -3    0.18    0.54
  -7   4   3  274.10   14.71
  -7   4   3  252.40   13.58
   7  -4  -3  241.60   12.97
   7  -4  -3  252.00   13.55
   7  -4  -3  260.80   14.06
  -6   4   3  165.70    8.95
  -6   4   3  165.80    8.91
   6  -4  -3  163.20    8.77
   6  -4  -3  154.90    8.39
  -5   4   3   44.62    2.50
  -5   4   3   44.84    2.44
   5  -4  -3   52.58    2.94
   5  -4  -3   44.27    2.41
  -4   4   3  360.40   19.31
  -4   4   3  365.20   19.61
   4  -4  -3  369.50   19.80
   4  -4  -3  366.70   19.68
  -3   4   3  154.60    8.31
  -3   4   3  151.40    8.18
   3  -4  -3  144.10    7.77
   3  -4  -3  147.30    7.91
  -2   4   3  403.90   21.68
  -2   4   3  421.90   22.60
   2  -4  -3  403.30   21.61
   2  -4  -3  412.50   22.12
  -1   4   3  500.10   26.80
  -1   4   3  487.90   26.16
   1  -4  -3  496.50   26.60
   1  -4  -3  522.40   27.99
   0   4   3    0.00    0.24
   0   4   3    0.67    0.36
   0  -4  -3    0.75    0.28
   0  -4  -3    0.75    0.20
   1   4   3  321.70   17.26
   1   4   3  331.10   17.77
  -1  -4  -3  323.30   17.35
  -1  -4  -3  349.30   18.72
   2   4   3  150.30    8.10
   2   4   3  139.00    7.50
  -2  -4  -3  154.10    8.31
  -2  -4  -3  131.10    7.06
   3   4   3   76.33    4.17
   3   4   3   68.83    3.76
  -3  -4  -3   68.86    3.77
  -3  -4  -3   76.89    4.18
   4   4   3  248.00   13.34
   4   4   3  249.80   13.46
  -4  -4  -3  251.50   13.53
  -4  -4  -3  245.00   13.17
   5   4   3   29.43    1.79
   5   4   3   27.53    1.60
   6   4   3   76.61    4.23
   6   4   3   65.99    3.63
  -6  -4  -3   63.12    3.47
  -6  -4  -3   72.85    4.03
   7   4   3  198.90   10.75
   7   4   3  192.60   10.39
   8   4   3   12.46    1.09
   8   4   3   11.17    0.90
  -8  -4  -3   11.03    0.83
  -8  -4  -3    9.87    0.96
   9   4   3  129.00    7.07
   9   4   3  121.90    6.63
  -9  -4  -3  109.00    5.99
  -9  -4  -3   97.76    5.33
  10   4   3   38.16    2.24
  10   4   3   38.29    2.41
 -10  -4  -3   33.77    2.14
 -10  -4  -3   31.92    1.86
  11   4   3   30.97    1.93
  11   4   3   29.11    2.03
 -11  -4  -3   28.33    1.69
 -11  -4  -3   27.15    1.97
 -14   4   2   19.01    1.57
 -14   4   2   22.70    1.39
  14  -4  -2   26.16    2.04
  14  -4  -2   21.11    2.29
 -13   4   2    1.89    0.51
 -13   4   2    2.44    0.92
  13  -4  -2   -0.37    1.47
  13  -4  -2    1.94    1.03
 -12   4   2    8.70    0.99
 -12   4   2    8.66    0.73
  12  -4  -2    8.61    1.00
  12  -4  -2   11.01    1.51
 -11   4   2   37.96    2.16
 -11   4   2   33.56    2.09
  11  -4  -2   37.03    2.43
  11  -4  -2   33.68    2.05
  10  -4  -2    1.08    0.74
  10  -4  -2   -0.49    1.11
  -9   4   2   38.09    2.16
  -9   4   2   32.85    2.03
   9  -4  -2   33.95    2.15
   9  -4  -2   29.80    1.82
  -8   4   2    7.41    0.61
  -8   4   2    8.06    0.83
   8  -4  -2    7.30    0.69
   8  -4  -2    7.14    0.96
   7  -4  -2    9.25    0.66
   7  -4  -2   10.21    0.98
  -6   4   2   43.41    2.38
  -6   4   2   40.51    2.30
   6  -4  -2   45.27    2.47
   6  -4  -2   41.73    2.43
  -5   4   2    3.57    0.31
  -5   4   2    2.60    0.48
   5  -4  -2    2.50    0.59
   5  -4  -2    3.72    0.31
  -4   4   2   84.85    4.58
  -4   4   2   83.71    4.57
   4  -4  -2   98.07    5.28
   4  -4  -2   87.62    4.79
  -3   4   2   33.94    1.94
  -3   4   2   33.83    1.85
   3  -4  -2   33.81    1.85
   3  -4  -2   35.35    2.01
  -2   4   2   31.11    1.77
  -2   4   2   29.95    1.65
   2  -4  -2   29.30    1.66
   2  -4  -2   30.20    1.66
  -1   4   2  172.10    9.27
  -1   4   2  181.90    9.77
   1  -4  -2  191.20   10.29
   1  -4  -2  169.50    9.10
   0   4   2   41.98    2.33
   0   4   2   42.39    2.32
   0  -4  -2   44.14    2.40
   0  -4  -2   43.59    2.40
   1   4   2   49.53    2.70
   1   4   2   58.48    3.21
  -1  -4  -2   55.18    2.99
  -1  -4  -2   52.25    2.86
   2   4   2  113.90    6.15
   2   4   2  114.40    6.18
  -2  -4  -2  101.30    5.47
  -2  -4  -2  100.30    5.43
   3   4   2    0.16    0.33
   3   4   2   -0.15    0.34
  -3  -4  -2   -0.02    0.27
  -3  -4  -2    0.15    0.36
   4   4   2   85.93    4.69
   4   4   2   89.22    4.84
  -4  -4  -2   90.84    4.93
  -4  -4  -2   94.94    5.16
   5   4   2   89.27    4.87
   5   4   2   97.75    5.33
  -5  -4  -2   88.90    4.84
  -5  -4  -2   99.68    5.43
   6   4   2    0.83    0.57
   6   4   2    0.70    0.45
  -6  -4  -2    1.21    0.38
  -6  -4  -2    0.78    0.53
   7   4   2   29.52    1.72
   7   4   2   29.78    1.80
  -7  -4  -2   29.49    1.70
  -7  -4  -2   30.44    1.81
   8   4   2    5.80    0.79
   8   4   2    7.48    0.73
  -8  -4  -2    7.42    0.83
  -8  -4  -2    5.75    0.58
   9   4   2   16.49    1.19
   9   4   2   16.85    1.16
  -9  -4  -2   14.35    0.96
  -9  -4  -2   16.15    1.22
  10   4   2   26.27    1.71
  10   4   2   28.47    1.74
 -10  -4  -2   26.52    1.74
 -10  -4  -2   27.28    1.61
  11   4   2    0.29    1.11
  11   4   2    0.75    0.70
 -11  -4  -2    0.85    1.03
 -11  -4  -2    1.69    0.58
  12   4   2   18.74    1.38
  12   4   2   22.98    1.88
 -12  -4  -2   18.62    1.59
 -12  -4  -2   18.83    1.24
 -14   4   1   53.07    3.15
 -14   4   1   47.59    2.67
  14  -4  -1   61.16    3.93
  14  -4  -1   65.28    3.87
 -13   4   1   61.71    3.40
 -13   4   1   64.49    3.67
  13  -4  -1   67.60    3.86
  13  -4  -1   75.15    4.42
 -12   4   1   13.50    1.19
 -12   4   1   12.68    0.90
  12  -4  -1   16.24    1.62
  12  -4  -1   17.89    1.40
 -11   4   1  173.80    9.44
 -11   4   1  165.40    8.94
  11  -4  -1  186.60   10.19
  11  -4  -1  189.70   10.29
 -10   4   1   36.55    2.07
 -10   4   1   30.31    1.94
  10  -4  -1   28.85    1.96
  10  -4  -1   27.01    1.72
  -9   4   1   47.26    2.63
  -9   4   1   57.22    3.24
   9  -4  -1   62.16    3.48
   9  -4  -1   58.70    3.35
  -8   4   1  189.70   10.28
  -8   4   1  165.00    8.90
   8  -4  -1  191.90   10.37
   8  -4  -1  197.10   10.68
   7  -4  -1    0.98    0.40
   7  -4  -1    0.70    0.83
  -6   4   1  352.40   18.90
  -6   4   1  345.50   18.56
   6  -4  -1  347.30   18.64
   6  -4  -1  351.80   18.93
   6  -4  -1  309.60   16.61
  -5   4   1  172.50    9.32
  -5   4   1  179.70    9.66
   5  -4  -1  188.20   10.11
   5  -4  -1  172.40    9.34
  -4   4   1   83.49    4.56
  -4   4   1   77.81    4.21
  -3   4   1  622.90   33.40
  -3   4   1  687.20   36.80
   3  -4  -1  624.00   33.46
  -2   4   1   14.87    0.85
  -2   4   1   16.19    1.03
   2  -4  -1   14.77    0.84
   2  -4  -1   17.68    1.10
  -1   4   1  621.70   33.29
  -1   4   1  650.60   34.87
   1  -4  -1  657.50   35.23
   0   4   1  174.70    9.42
   0   4   1  192.60   10.34
   0  -4  -1  189.10   10.17
   0  -4  -1  160.50    8.62
   1   4   1  100.30    5.41
   1   4   1   90.18    4.89
  -1  -4  -1  105.50    5.68
  -1  -4  -1   98.53    5.33
   2   4   1  858.00   45.94
   2   4   1  933.60   50.00
  -2  -4  -1  903.50   48.38
   3   4   1  262.50   14.09
   3   4   1  233.10   12.54
  -3  -4  -1  249.30   13.38
  -3  -4  -1  245.50   13.19
   4   4   1  145.00    7.81
   4   4   1  145.20    7.84
  -4  -4  -1  146.50    7.90
  -4  -4  -1  163.10    8.78
   5   4   1  322.90   17.33
   5   4   1  334.40   17.98
  -5  -4  -1  345.40   18.56
  -5  -4  -1  338.90   18.19
   6   4   1    2.29    0.48
   6   4   1    2.34    0.47
  -7  -4  -1  327.70   17.60
  -7  -4  -1  293.00   15.77
   8   4   1  202.80   10.96
   8   4   1  199.80   10.77
  -8  -4  -1  199.00   10.72
  -8  -4  -1  189.30   10.24
   9   4   1   21.06    1.34
   9   4   1   22.84    1.46
  -9  -4  -1   20.13    1.37
  -9  -4  -1   24.47    1.45
  10   4   1  119.90    6.56
  10   4   1  119.00    6.48
 -10  -4  -1  106.50    5.79
 -10  -4  -1  114.70    6.28
  11   4   1   33.36    2.00
  11   4   1   31.39    2.07
 -11  -4  -1   28.21    1.66
 -11  -4  -1   33.14    2.11
  12   4   1   46.89    2.92
  12   4   1   39.66    2.36
 -12  -4  -1   38.82    2.45
 -12  -4  -1   42.06    2.39
 -13   4   0   26.88    1.82
 -13   4   0   28.87    1.71
  13  -4   0   28.91    2.51
  13  -4   0   30.22    2.09
 -12   4   0    0.24    0.90
 -12   4   0    0.77    0.51
  12  -4   0    0.72    1.41
  12  -4   0    0.72    0.97
 -11   4   0   17.72    1.35
 -11   4   0   18.02    1.14
  11  -4   0   20.44    1.74
  11  -4   0   19.40    1.36
 -10   4   0   12.64    1.08
 -10   4   0   13.36    0.88
  10  -4   0   11.87    1.05
  10  -4   0   11.19    1.22
  -9   4   0    5.59    0.52
  -9   4   0    7.96    0.97
   9  -4   0    8.60    1.03
   9  -4   0    8.80    0.81
  -8   4   0   99.59    5.41
  -8   4   0   94.41    5.20
   8  -4   0   94.79    5.20
   8  -4   0   97.25    5.38
  -7   4   0   23.04    1.34
  -7   4   0   23.07    1.47
   7  -4   0   24.29    1.58
   7  -4   0   22.64    1.41
  -6   4   0   26.51    1.51
  -6   4   0   25.67    1.54
   6  -4   0   26.45    1.53
   6  -4   0   31.34    1.91
  -5   4   0   55.86    3.05
  -5   4   0   51.34    2.86
   5  -4   0   52.96    3.00
   5  -4   0   58.33    3.17
  -3   4   0  123.40    6.65
  -3   4   0  114.60    6.22
   3  -4   0  114.90    6.19
   3  -4   0  117.80    6.41
  -2   4   0   47.69    2.59
  -2   4   0   45.60    2.55
   2  -4   0   45.83    2.49
   2  -4   0   49.83    2.77
  -1   4   0   28.73    1.66
  -1   4   0   27.74    1.53
   1  -4   0   26.23    1.45
   1  -4   0   30.64    1.77
   0   4   0   74.11    4.05
   0   4   0   67.28    3.64
   0  -4   0   70.65    3.84
   0  -4   0   73.35    3.96
   1   4   0   26.56    1.47
   1   4   0   28.46    1.62
  -1  -4   0   28.23    1.56
  -1  -4   0   29.26    1.65
   2   4   0   49.33    2.69
   2   4   0   52.38    2.87
  -2  -4   0   55.40    3.01
  -2  -4   0   53.17    2.90
  -3  -4   0  101.10    5.45
  -3  -4   0  106.50    5.75
   4   4   0   16.40    1.01
   4   4   0   17.12    1.02
  -4  -4   0   18.15    1.05
  -4  -4   0   15.65    0.96
   5   4   0   54.21    2.99
   5   4   0   53.97    2.96
  -5  -4   0   49.08    2.70
  -5  -4   0   53.01    2.92
   6   4   0   29.38    1.68
  -6  -4   0   30.26    1.71
   7   4   0   25.58    1.54
   7   4   0   24.12    1.44
  -7  -4   0   24.85    1.45
  -7  -4   0   24.61    1.50
   8   4   0   89.85    4.90
   8   4   0   96.34    5.28
  -8  -4   0   89.02    4.84
  -8  -4   0   95.99    5.26
   9   4   0    6.52    0.66
   9   4   0    8.57    0.86
  -9  -4   0    8.14    0.78
  -9  -4   0    7.95    0.66
  10   4   0   10.29    0.86
  10   4   0   11.01    1.04
 -10  -4   0   10.77    0.81
 -10  -4   0   11.98    1.05
  11   4   0   17.45    1.21
  11   4   0   19.93    1.47
 -11  -4   0   19.25    1.48
 -11  -4   0   21.11    1.33
  12   4   0    0.70    0.97
  12   4   0    0.69    0.74
 -12  -4   0    1.24    0.57
 -12  -4   0    0.75    1.13
  13   4   0   29.59    2.03
  13   4   0   26.81    1.78
 -13  -4   0   26.86    2.12
 -13  -4   0   26.40    1.60
 -12   4  -1   43.10    2.57
 -12   4  -1   48.98    2.74
  12  -4   1   47.21    2.81
 -11   4  -1   24.18    1.44
 -11   4  -1   27.80    1.74
  11  -4   1   32.82    2.26
  11  -4   1   36.19    2.20
 -10   4  -1  103.20    5.61
 -10   4  -1  104.40    5.73
  10  -4   1  115.90    6.34
  10  -4   1  121.00    6.69
  -9   4  -1   22.22    1.49
  -9   4  -1   23.85    1.40
   9  -4   1   22.52    1.48
   9  -4   1   23.16    1.63
  -8   4  -1  172.70    9.32
  -8   4  -1  202.50   10.95
   8  -4   1  209.50   11.31
   8  -4   1  204.70   11.09
   7  -4   1  341.50   18.36
   7  -4   1  329.00   17.72
  -6   4  -1    0.75    0.32
  -6   4  -1    1.87    0.59
   6  -4   1    3.27    0.50
   6  -4   1    2.37    0.78
  -5   4  -1  330.20   17.72
  -5   4  -1  338.90   18.22
   5  -4   1  349.60   18.77
   5  -4   1  359.10   19.26
   5  -4   1  341.70   18.39
  -4   4  -1  144.60    7.83
  -4   4  -1  144.00    7.75
   4  -4   1  155.80    8.38
   4  -4   1  137.50    7.48
  -3   4  -1  242.60   13.06
  -3   4  -1  239.90   12.88
   3  -4   1  232.60   12.54
   3  -4   1  217.60   11.68
  -2   4  -1  821.60   44.02
   2  -4   1  828.30   44.38
  -1   4  -1   89.43    4.87
  -1   4  -1  100.60    5.42
   1  -4   1   89.64    4.88
   1  -4   1  104.70    5.65
   0   4  -1  173.50    9.35
   0   4  -1  176.20    9.46
   0  -4   1  173.00    9.32
   0  -4   1  175.10    9.40
   1   4  -1  681.00   36.47
   1   4  -1  675.30   36.19
  -1  -4   1  646.20   34.61
  -1  -4   1  661.60   35.43
   2   4  -1   15.14    0.88
   2   4  -1   17.22    1.05
  -2  -4   1   15.67    0.90
  -2  -4   1   17.62    1.04
   3   4  -1  681.20   36.49
   3   4  -1  615.40   32.97
  -3  -4   1  679.00   36.37
   4   4  -1   85.48    4.63
   4   4  -1   92.84    5.03
  -4  -4   1   85.01    4.60
  -4  -4   1   83.72    4.52
   5   4  -1  167.50    9.02
   5   4  -1  169.30    9.13
  -5  -4   1  192.00   10.32
  -5  -4   1  169.70    9.14
   6   4  -1  373.60   20.04
   6   4  -1  363.10   19.50
  -6  -4   1  371.40   19.93
  -6  -4   1  376.30   20.18
   7   4  -1    0.75    0.49
   7   4  -1   -0.03    0.49
  -7  -4   1    0.62    0.38
  -7  -4   1    0.81    0.47
   8   4  -1  196.80   10.61
   8   4  -1  195.50   10.56
  -8  -4   1  187.70   10.15
  -8  -4   1  194.70   10.49
   9   4  -1   57.02    3.20
   9   4  -1   58.97    3.30
  -9  -4   1   58.96    3.32
  -9  -4   1   48.55    2.70
  10   4  -1   32.97    1.96
  10   4  -1   31.91    1.95
 -10  -4   1   30.55    1.78
 -10  -4   1   26.37    1.68
  11   4  -1  179.50    9.72
  11   4  -1  179.90    9.76
  12   4  -1   17.15    1.51
  12   4  -1   17.50    1.33
 -12  -4   1   14.07    0.99
 -12  -4   1   14.51    1.37
  13   4  -1   72.90    4.22
  13   4  -1   75.07    4.22
 -13  -4   1   69.27    3.81
 -13  -4   1   69.30    3.99
  14   4  -1   60.90    3.54
  14   4  -1   60.00    3.60
 -12   4  -2   18.62    1.37
 -12   4  -2   20.07    1.25
  12  -4   2   23.04    1.76
  12  -4   2   20.18    2.27
 -11   4  -2    1.11    0.49
 -11   4  -2    0.85    0.76
  11  -4   2    2.14    1.43
  11  -4   2    0.49    0.85
 -10   4  -2   25.90    1.52
 -10   4  -2   24.85    1.59
  10  -4   2   28.16    2.03
  10  -4   2   26.53    1.71
  -9   4  -2   14.87    1.12
  -9   4  -2   17.58    1.09
   9  -4   2   16.51    1.23
   9  -4   2   15.72    1.35
  -8   4  -2    6.95    0.79
  -8   4  -2    4.76    0.49
   8  -4   2    7.82    0.84
   8  -4   2    8.31    1.01
  -7   4  -2   30.88    1.76
  -7   4  -2   31.59    1.92
   7  -4   2   30.06    1.79
   7  -4   2   30.12    1.92
  -6   4  -2    1.28    0.72
  -6   4  -2    0.73    0.32
   6  -4   2    1.69    0.78
   6  -4   2    2.00    0.67
  -5   4  -2   95.06    5.16
  -5   4  -2   96.45    5.29
   5  -4   2   92.25    5.03
   5  -4   2  102.70    5.64
  -4   4  -2   88.77    4.86
  -4   4  -2   92.94    5.03
   4  -4   2   88.21    4.80
   4  -4   2   91.32    5.03
   4  -4   2   83.85    4.54
  -3   4  -2   -0.05    0.24
  -3   4  -2    0.32    0.43
   3  -4   2   -0.61    0.55
   3  -4   2    0.09    0.21
  -2   4  -2  105.10    5.70
  -2   4  -2  118.40    6.39
   2  -4   2  106.80    5.81
   2  -4   2  118.00    6.37
  -1   4  -2   54.37    3.01
  -1   4  -2   52.23    2.85
   1  -4   2   51.61    2.81
   1  -4   2   53.60    2.98
   0   4  -2   42.83    2.34
   0   4  -2   41.59    2.33
   0  -4   2   41.70    2.28
   0  -4   2   42.12    2.36
   1   4  -2  176.40    9.51
   1   4  -2  150.50    8.09
  -1  -4   2  184.90    9.93
  -1  -4   2  175.60    9.46
   2   4  -2   32.43    1.78
   2   4  -2   30.49    1.74
  -2  -4   2   30.82    1.70
  -2  -4   2   32.45    1.82
   3   4  -2   35.63    1.96
   3   4  -2   35.63    2.01
  -3  -4   2   37.09    2.05
  -3  -4   2   33.12    1.82
   4   4  -2   86.30    4.67
   4   4  -2   89.56    4.84
  -4  -4   2   94.74    5.11
  -4  -4   2   82.18    4.45
   5   4  -2    3.62    0.40
   5   4  -2    2.78    0.42
  -5  -4   2    2.31    0.35
  -5  -4   2    2.86    0.29
   6   4  -2   43.88    2.44
   6   4  -2   40.07    2.24
  -6  -4   2   39.37    2.19
  -6  -4   2   46.08    2.52
   7   4  -2    8.61    0.71
   7   4  -2   10.93    0.77
  -7  -4   2    9.59    0.65
  -7  -4   2    9.63    0.72
   8   4  -2    7.59    0.75
   8   4  -2    9.95    0.82
  -8  -4   2    9.71    0.71
  -8  -4   2    8.51    0.81
   9   4  -2   35.82    2.09
   9   4  -2   36.50    2.11
  -9  -4   2   32.24    1.85
  -9  -4   2   33.22    1.97
  10   4  -2    0.03    0.70
  10   4  -2    0.65    0.68
 -10  -4   2   -0.08    0.71
 -10  -4   2    0.21    0.48
  11   4  -2   34.75    2.14
  11   4  -2   41.65    2.43
 -11  -4   2   35.14    2.20
 -11  -4   2   36.14    2.07
  12   4  -2    9.06    1.03
  12   4  -2   10.07    1.18
 -12  -4   2    8.68    1.18
 -12  -4   2   10.04    0.81
  13   4  -2    2.23    1.24
  13   4  -2    2.60    1.01
 -13  -4   2    1.64    0.61
 -13  -4   2    0.73    1.18
  14   4  -2   26.01    1.95
  14   4  -2   28.06    2.01
 -14  -4   2   18.60    1.24
 -14  -4   2   24.13    2.11
 -11   4  -3   33.37    1.91
 -11   4  -3   29.78    1.87
  11  -4   3   38.57    2.73
  11  -4   3   32.04    2.10
  10  -4   3   41.19    2.43
  10  -4   3   37.75    2.54
  -9   4  -3  117.60    6.37
  -9   4  -3  115.30    6.30
   9  -4   3  120.20    6.57
   9  -4   3  115.60    6.41
   8  -4   3    8.92    0.90
   8  -4   3   12.61    1.23
  -7   4  -3  197.40   10.63
  -7   4  -3  202.40   10.95
   7  -4   3  192.20   10.42
   7  -4   3  202.80   10.95
  -6   4  -3   72.57    3.97
  -6   4  -3   65.99    3.69
   6  -4   3   72.55    4.07
   6  -4   3   71.37    3.95
   5  -4   3   30.17    1.86
   5  -4   3   34.07    2.01
  -4   4  -3  244.30   13.17
  -4   4  -3  243.80   13.10
   4  -4   3  250.80   13.55
   4  -4   3  260.20   14.01
  -3   4  -3   74.02    4.07
  -3   4  -3   76.85    4.18
   3  -4   3   63.31    3.47
   3  -4   3   76.92    4.27
   3  -4   3   68.25    3.71
  -2   4  -3  148.80    8.05
  -2   4  -3  135.40    7.30
  -1   4  -3  310.60   16.66
  -1   4  -3  335.90   18.04
   1  -4   3  313.30   16.84
   1  -4   3  326.60   17.52
   0   4  -3    0.34    0.19
   0   4  -3    0.57    0.42
   0  -4   3    0.59    0.20
   0  -4   3    0.61    0.47
   1   4  -3  457.00   24.51
   1   4  -3  500.80   26.83
  -1  -4   3  511.90   27.45
  -1  -4   3  520.60   27.89
   2   4  -3  404.50   21.68
   2   4  -3  369.70   19.84
  -2  -4   3  374.50   20.09
  -2  -4   3  404.30   21.67
   3   4  -3  149.20    8.05
   3   4  -3  157.10    8.44
  -3  -4   3  154.20    8.28
  -3  -4   3  149.60    8.05
   4   4  -3  385.30   20.68
   4   4  -3  371.90   19.94
  -4  -4   3  337.90   18.11
  -4  -4   3  393.10   21.08
   5   4  -3   45.79    2.53
   5   4  -3   43.46    2.40
  -5  -4   3   39.11    2.14
  -5  -4   3   45.20    2.48
   6   4  -3  171.50    9.24
   6   4  -3  162.40    8.75
  -6  -4   3  164.70    8.86
  -6  -4   3  175.50    9.45
   7   4  -3  285.60   15.35
   7   4  -3  260.10   14.00
  -7  -4   3  256.90   13.81
  -7  -4   3  259.20   13.91
   8   4  -3    0.43    0.47
   8   4  -3    0.51    0.43
  -8  -4   3    1.35    0.51
  -8  -4   3    0.66    0.30
   9   4  -3  259.90   14.01
   9   4  -3  235.00   12.68
  -9  -4   3  215.10   11.63
  -9  -4   3  256.50   13.81
  10   4  -3   51.37    2.96
  10   4  -3   53.44    3.04
 -10  -4   3   56.06    3.22
 -10  -4   3   50.55    2.82
  11   4  -3   44.02    2.59
  11   4  -3   47.77    2.74
 -11  -4   3   42.07    2.37
 -11  -4   3   43.94    2.61
  12   4  -3  175.80    9.56
  12   4  -3  177.50    9.62
 -12  -4   3  173.90    9.39
 -12  -4   3  182.20    9.91
  13   4  -3    1.92    1.14
  13   4  -3    2.23    1.05
 -13  -4   3    0.72    0.59
 -13  -4   3    2.18    1.22
  14   4  -3   82.21    4.72
  14   4  -3   81.96    4.60
 -14  -4   3   69.81    4.11
 -14  -4   3   74.35    4.09
  15   4  -3   39.45    2.64
  15   4  -3   42.13    2.67
 -15  -4   3   34.96    2.83
 -15  -4   3   33.23    2.04
 -10   4  -4    2.36    0.49
 -10   4  -4    2.99    0.83
  10  -4   4    3.54    0.98
  10  -4   4    1.02    1.40
  -9   4  -4   45.42    2.64
  -9   4  -4   47.17    2.62
   9  -4   4   53.59    3.25
   9  -4   4   51.48    2.96
  -8   4  -4   36.11    2.04
  -8   4  -4   32.72    1.99
   8  -4   4   37.42    2.35
   8  -4   4   36.74    2.18
  -7   4  -4    8.93    0.85
  -7   4  -4    8.00    0.62
   7  -4   4    8.85    1.04
   7  -4   4   10.52    0.98
  -6   4  -4   23.99    1.51
  -6   4  -4   25.84    1.49
   6  -4   4   24.65    1.69
   6  -4   4   27.01    1.68
  -5   4  -4    7.53    0.74
  -5   4  -4    7.55    0.57
   5  -4   4    6.24    0.67
   5  -4   4    7.12    0.99
  -4   4  -4   41.94    2.45
  -4   4  -4   41.63    2.31
   4  -4   4   44.55    2.61
   4  -4   4   45.00    2.59
  -3   4  -4   80.33    4.37
  -3   4  -4   83.00    4.58
   3  -4   4   79.08    4.42
   3  -4   4   84.53    4.63
  -2   4  -4    9.32    0.61
  -2   4  -4    9.52    0.72
   2  -4   4    8.48    0.66
   2  -4   4    9.69    0.91
   2  -4   4    8.47    0.56
  -1   4  -4   22.26    1.28
  -1   4  -4   26.22    1.57
   0   4  -4   15.78    1.02
   0   4  -4   16.45    0.96
   0  -4   4   16.40    1.09
   0  -4   4   16.37    0.95
   1   4  -4   41.45    2.32
   1   4  -4   42.08    2.30
  -1  -4   4   43.39    2.43
  -1  -4   4   44.16    2.41
   2   4  -4  128.00    6.93
   2   4  -4  118.60    6.38
  -2  -4   4  131.90    7.10
  -2  -4   4  128.70    6.96
   3   4  -4    1.03    0.22
   3   4  -4    1.84    0.51
  -3  -4   4    1.70    0.23
  -3  -4   4    1.10    0.35
   4   4  -4   41.26    2.31
   4   4  -4   42.27    2.31
  -4  -4   4   40.71    2.25
  -4  -4   4   40.97    2.24
   5   4  -4   46.25    2.54
   5   4  -4   48.30    2.70
  -5  -4   4   42.60    2.32
  -5  -4   4   42.66    2.34
   6   4  -4   11.27    0.75
   6   4  -4   12.18    0.84
  -6  -4   4   12.55    0.75
  -6  -4   4   10.38    0.68
   7   4  -4   68.05    3.73
   7   4  -4   74.47    4.07
  -7  -4   4   73.48    4.01
  -7  -4   4   74.61    4.04
   8   4  -4    7.05    0.72
   8   4  -4    6.93    0.68
  -8  -4   4    6.81    0.52
  -8  -4   4    6.61    0.68
   9   4  -4   16.31    1.20
   9   4  -4   18.61    1.33
  -9  -4   4   18.01    1.10
  -9  -4   4   14.91    1.15
  10   4  -4   29.86    1.83
  10   4  -4   30.23    1.86
 -10  -4   4   30.05    1.87
 -10  -4   4   26.99    1.56
  11   4  -4    1.21    0.73
  11   4  -4    0.07    0.83
 -11  -4   4   -0.26    0.90
 -11  -4   4    0.05    0.41
  12   4  -4   24.15    1.67
  12   4  -4   26.81    1.76
 -12  -4   4   24.24    1.45
 -12  -4   4   20.45    1.55
  13   4  -4    3.64    0.99
  13   4  -4    2.84    1.12
 -13  -4   4    2.00    1.22
 -13  -4   4    3.39    0.57
  14   4  -4    8.37    1.29
  14   4  -4    9.40    1.29
  15   4  -4   13.57    1.53
  15   4  -4   11.47    1.62
 -15  -4   4   15.19    1.18
 -15  -4   4   12.96    2.13
  -9   4  -5   81.83    4.54
  -9   4  -5   69.58    3.81
   9  -4   5   97.74    5.40
   9  -4   5   95.15    5.40
  -8   4  -5  109.50    5.93
  -8   4  -5  104.40    5.72
   8  -4   5  115.20    6.41
   8  -4   5  103.60    5.69
  -7   4  -5    3.08    0.81
  -7   4  -5    1.03    0.39
   7  -4   5    2.95    1.10
   7  -4   5    2.06    0.83
  -6   4  -5  167.30    9.02
  -6   4  -5  181.40    9.82
   6  -4   5  180.50    9.83
   6  -4   5  199.30   10.77
  -5   4  -5  107.30    5.81
  -5   4  -5   97.92    5.37
   5  -4   5   94.61    5.19
   5  -4   5  103.40    5.73
  -4   4  -5   29.27    1.66
  -4   4  -5   35.84    2.09
   4  -4   5   38.87    2.23
   4  -4   5   36.37    2.23
  -3   4  -5  304.80   16.37
  -3   4  -5  302.00   16.26
   3  -4   5  299.60   16.13
   3  -4   5  294.20   15.88
  -2   4  -5   45.25    2.58
  -2   4  -5   41.19    2.28
   2  -4   5   35.55    2.05
   2  -4   5   41.33    2.47
  -1   4  -5  173.00    9.34
  -1   4  -5  155.40    8.38
   1  -4   5  143.80    7.75
   1  -4   5  151.80    8.24
   1  -4   5  171.90    9.27
   0   4  -5  275.40   14.79
   0   4  -5  261.50   14.07
   0  -4   5  248.60   13.40
   0  -4   5  255.40   13.71
  -1  -4   5   12.86    0.76
  -1  -4   5   16.07    1.10
   2   4  -5  210.90   11.33
   2   4  -5  209.30   11.27
  -2  -4   5  186.00   10.00
  -2  -4   5  202.30   10.90
   3   4  -5  140.60    7.56
   3   4  -5  138.70    7.51
  -3  -4   5  138.60    7.46
  -3  -4   5  135.10    7.30
   4   4  -5   67.40    3.65
   4   4  -5   62.85    3.46
  -4  -4   5   64.44    3.52
  -4  -4   5   60.02    3.26
   5   4  -5  143.50    7.75
   5   4  -5  139.70    7.52
  -5  -4   5  143.30    7.72
  -5  -4   5  124.90    6.72
   6   4  -5   20.87    1.21
   6   4  -5   22.98    1.41
  -6  -4   5   20.69    1.17
  -6  -4   5   20.60    1.20
   7   4  -5  211.30   11.38
   7   4  -5  204.20   11.01
  -7  -4   5  206.10   11.08
  -7  -4   5  236.40   12.72
   8   4  -5  159.60    8.66
   8   4  -5  167.90    9.07
  -8  -4   5  172.30    9.31
  -8  -4   5  165.60    8.92
   9   4  -5    8.33    0.93
   9   4  -5   11.30    0.90
  -9  -4   5   11.02    0.72
  -9  -4   5    9.79    0.83
  10   4  -5  123.30    6.75
  10   4  -5  116.90    6.40
 -10  -4   5  117.80    6.45
 -10  -4   5  109.30    5.92
  11   4  -5   17.65    1.33
  11   4  -5   21.02    1.55
 -11  -4   5   16.52    1.03
 -11  -4   5   20.28    1.51
  12   4  -5   60.68    3.51
  12   4  -5   58.91    3.41
 -12  -4   5   54.28    2.99
 -12  -4   5   52.35    3.08
  13   4  -5  101.60    5.65
  13   4  -5  110.50    6.13
 -13  -4   5   94.92    5.39
 -13  -4   5   97.57    5.30
  14   4  -5   -0.04    1.31
  14   4  -5   -0.66    1.20
 -14  -4   5    0.07    0.55
 -14  -4   5    0.71    1.58
  15   4  -5   52.86    3.34
  15   4  -5   55.76    3.49
 -15  -4   5   50.64    2.90
 -15  -4   5   46.14    3.27
  -8   4  -6   22.11    1.33
  -8   4  -6   23.17    1.54
   8  -4   6   29.37    2.19
   8  -4   6   24.36    1.65
  -7   4  -6    8.93    0.69
  -7   4  -6    7.52    0.82
   7  -4   6    8.32    1.31
   7  -4   6    7.45    0.90
  -6   4  -6   21.75    1.44
  -6   4  -6   22.22    1.31
   6  -4   6   25.56    1.67
   6  -4   6   26.20    1.88
  -5   4  -6   39.02    2.30
  -5   4  -6   41.28    2.30
   5  -4   6   43.64    2.54
   5  -4   6   41.75    2.56
  -4   4  -6    0.52    0.34
  -4   4  -6    0.58    0.62
   4  -4   6    0.27    0.66
   4  -4   6    1.56    0.96
  -3   4  -6   40.14    2.33
  -3   4  -6   38.87    2.17
   3  -4   6   39.00    2.27
   3  -4   6   39.74    2.41
  -2   4  -6   50.51    2.78
  -2   4  -6   53.93    3.05
   2  -4   6   53.56    3.04
   2  -4   6   49.11    2.88
  -1   4  -6   12.29    0.79
  -1   4  -6   11.57    0.89
   1  -4   6   12.04    0.99
   1  -4   6   11.29    1.06
   0   4  -6   45.99    2.59
   0   4  -6   49.66    2.74
   0  -4   6   45.64    2.55
   0  -4   6   43.59    2.53
   1   4  -6   18.89    1.16
   1   4  -6   21.07    1.22
  -1  -4   6   19.85    1.14
  -1  -4   6   19.93    1.32
   2   4  -6    1.73    0.51
   2   4  -6    1.57    0.31
  -2  -4   6    2.10    0.59
  -2  -4   6    2.61    0.29
   3   4  -6   34.55    1.97
   3   4  -6   33.62    1.86
  -3  -4   6   32.92    1.90
  -3  -4   6   34.94    1.93
   4   4  -6   14.17    0.96
   4   4  -6   14.74    0.87
   5   4  -6   59.78    3.31
   5   4  -6   62.63    3.40
  -5  -4   6   57.08    3.13
  -5  -4   6   54.96    2.99
  -6  -4   6   19.86    1.14
  -6  -4   6   18.03    1.13
   7   4  -6    1.21    0.45
   7   4  -6    0.27    0.86
  -7  -4   6    1.56    0.31
  -7  -4   6    1.08    0.55
   8   4  -6   27.40    1.62
   8   4  -6   28.43    1.84
  -8  -4   6   28.94    1.71
  -8  -4   6   26.47    1.49
   9   4  -6    5.24    0.68
   9   4  -6    4.88    1.05
  -9  -4   6    4.63    0.65
  -9  -4   6    4.62    0.45
  10   4  -6   49.56    2.81
  10   4  -6   48.61    2.93
 -10  -4   6   39.64    2.33
 -10  -4   6   44.78    2.48
  11   4  -6   25.45    1.79
  11   4  -6   24.10    1.63
 -11  -4   6   25.55    1.75
 -11  -4   6   21.53    1.28
  12   4  -6   -0.62    1.16
  12   4  -6    0.42    0.96
 -12  -4   6   -0.16    1.06
 -12  -4   6    0.17    0.52
  13   4  -6   25.25    1.87
  13   4  -6   23.79    1.74
 -13  -4   6   27.26    2.10
 -13  -4   6   23.43    1.41
  14   4  -6    3.40    1.46
  14   4  -6    4.14    1.22
 -14  -4   6    3.95    0.68
 -14  -4   6    3.26    1.61
  15   4  -6    7.94    1.75
  15   4  -6    6.08    1.95
 -15  -4   6    8.24    0.96
 -15  -4   6    7.79    2.48
  -7   4  -7   70.32    3.93
  -7   4  -7   76.35    4.17
   7  -4   7   80.87    4.51
   7  -4   7   85.83    4.92
  -6   4  -7    8.18    0.91
  -6   4  -7    7.74    0.64
   6  -4   7   13.58    1.16
   6  -4   7   11.67    1.41
  -5   4  -7  139.30    7.52
  -5   4  -7  129.70    7.08
   5  -4   7  136.10    7.43
   5  -4   7  144.40    7.94
  -4   4  -7   41.19    2.30
  -4   4  -7   35.70    2.14
   4  -4   7   39.52    2.45
   4  -4   7   35.58    2.11
  -3   4  -7   89.33    4.92
  -3   4  -7   76.53    4.17
   3  -4   7   89.68    5.04
   3  -4   7   95.85    5.27
  -2   4  -7  180.50    9.72
  -2   4  -7  205.30   11.11
   2  -4   7  179.20    9.71
   2  -4   7  196.10   10.66
  -1   4  -7    8.33    0.88
  -1   4  -7    7.33    0.57
   1  -4   7    8.41    1.06
   1  -4   7    9.65    0.92
   0  -4   7  135.10    7.36
   0  -4   7  125.40    6.90
   1   4  -7  106.70    5.82
   1   4  -7  104.30    5.65
  -1  -4   7   92.11    5.11
  -1  -4   7   99.99    5.46
   2   4  -7   38.11    2.19
   2   4  -7   34.87    1.95
  -2  -4   7   31.26    1.89
  -2  -4   7   34.22    1.97
   3   4  -7  251.30   13.50
   3   4  -7  225.60   12.16
  -3  -4   7  212.20   11.40
  -3  -4   7  212.50   11.48
   4   4  -7   21.16    1.24
  -4  -4   7   17.28    1.22
  -4  -4   7   14.53    0.87
   5   4  -7  113.20    6.20
   5   4  -7  111.60    6.02
  -5  -4   7  111.00    6.04
  -5  -4   7  103.30    5.58
   6   4  -7  171.00    9.27
   6   4  -7  170.80    9.20
  -6  -4   7  172.10    9.26
  -6  -4   7  195.00   10.51
   7   4  -7    1.35    0.67
   7   4  -7    1.68    0.46
  -7  -4   7    2.10    0.53
  -7  -4   7    2.67    0.33
   8   4  -7  169.60    9.20
   8   4  -7  176.90    9.54
  -8  -4   7  190.20   10.26
  -8  -4   7  174.70    9.40
   9   4  -7   21.84    1.34
   9   4  -7   24.90    1.65
  -9  -4   7   22.65    1.30
  -9  -4   7   23.28    1.44
  10   4  -7   39.71    2.41
  10   4  -7   40.49    2.34
 -10  -4   7   41.82    2.44
 -10  -4   7   43.18    2.39
  11   4  -7  137.60    7.60
  11   4  -7  139.50    7.60
 -11  -4   7  129.80    7.10
 -11  -4   7  127.40    6.88
  12   4  -7   16.50    1.49
  12   4  -7   16.55    1.81
 -12  -4   7   11.77    0.83
 -12  -4   7   14.98    1.40
  13   4  -7   61.51    3.86
  13   4  -7   58.17    3.43
 -13  -4   7   51.60    3.16
 -13  -4   7   55.08    3.04
  14   4  -7   55.86    3.40
  14   4  -7   54.11    3.69
 -14  -4   7   46.71    2.64
 -14  -4   7   50.89    3.43
  -6   4  -8    2.68    0.85
  -6   4  -8    2.54    0.54
   6  -4   8    1.40    1.42
   6  -4   8    1.61    0.91
  -5   4  -8   16.33    1.24
  -5   4  -8   14.93    0.98
   5  -4   8   19.48    1.80
   5  -4   8   18.74    1.35
  -4   4  -8   33.73    1.91
  -4   4  -8   30.55    1.93
   4  -4   8   29.57    1.92
   4  -4   8   30.01    2.11
  -3   4  -8    0.34    0.71
  -3   4  -8    0.26    0.42
   3  -4   8    0.58    0.83
   3  -4   8   -0.02    1.11
  -2   4  -8   10.74    0.96
  -2   4  -8   10.41    0.73
   2  -4   8   11.44    1.31
   2  -4   8   10.67    1.04
  -1   4  -8    2.16    0.46
  -1   4  -8    1.38    0.66
   1  -4   8    0.94    1.02
   1  -4   8    1.81    0.77
   0   4  -8   29.86    1.71
   0   4  -8   29.91    1.89
   0  -4   8   25.04    1.64
   0  -4   8   27.42    1.91
   1   4  -8   66.29    3.77
   1   4  -8   64.75    3.56
  -1  -4   8   61.87    3.65
  -1  -4   8   71.44    4.08
   2   4  -8    6.16    0.87
   2   4  -8    5.72    0.54
  -2  -4   8    5.94    0.80
  -2  -4   8    5.84    1.08
   3   4  -8   19.06    1.14
   3   4  -8   16.29    1.23
  -3  -4   8   15.90    1.29
  -3  -4   8   16.27    1.12
   4   4  -8   13.11    0.84
   4   4  -8   12.15    0.98
  -4  -4   8   13.48    0.82
  -4  -4   8   12.96    1.14
  -4  -4   8   12.94    0.98
   5   4  -8    5.38    0.77
   5   4  -8    5.26    0.47
  -5  -4   8    5.79    0.46
  -5  -4   8    4.81    0.79
   6   4  -8   52.54    2.88
   6   4  -8   49.51    2.81
  -6  -4   8   53.69    2.93
  -6  -4   8   57.63    3.19
   7   4  -8    4.73    0.71
   7   4  -8    5.56    0.52
   8   4  -8    8.75    0.81
   8   4  -8    8.24    0.65
  -8  -4   8    8.83    0.72
  -8  -4   8   11.32    0.70
   9   4  -8   22.43    1.50
   9   4  -8   22.17    1.35
  -9  -4   8   21.46    1.33
  -9  -4   8   21.36    1.21
  10   4  -8    0.58    0.97
  10   4  -8    0.12    0.63
 -10  -4   8    1.09    0.68
 -10  -4   8    0.63    0.35
  11   4  -8   12.40    1.26
  11   4  -8   11.29    1.06
 -11  -4   8   14.52    0.89
 -11  -4   8   15.83    1.24
  12   4  -8    2.61    1.26
  12   4  -8    2.55    1.08
 -12  -4   8    5.07    1.20
 -12  -4   8    2.71    0.47
  13   4  -8    9.72    1.49
  13   4  -8    6.47    1.65
 -13  -4   8    5.53    1.62
 -13  -4   8    8.72    0.68
  14   4  -8   17.39    2.46
  14   4  -8   12.64    2.29
 -14  -4   8   12.80    0.93
 -14  -4   8   14.42    1.10
  -5   4  -9   17.18    1.40
  -5   4  -9   14.65    0.99
   5  -4   9   20.21    1.63
   5  -4   9   19.70    2.17
  -4   4  -9  114.30    6.26
  -4   4  -9  109.90    5.96
   4  -4   9  116.60    6.60
   4  -4   9  118.70    6.53
  -3   4  -9   16.41    1.28
  -3   4  -9   20.52    1.26
   3  -4   9   14.43    1.22
   3  -4   9   18.85    1.85
  -2   4  -9   96.33    5.31
  -2   4  -9   83.77    4.57
   2  -4   9  100.10    5.70
   2  -4   9  102.80    5.67
  -1   4  -9  116.10    6.29
  -1   4  -9  108.40    5.94
   1  -4   9  116.70    6.39
   1  -4   9  115.70    6.46
   0   4  -9    0.20    0.46
   0   4  -9    0.69    0.77
   0  -4   9    0.57    1.18
   0  -4   9    0.83    0.77
   1   4  -9  132.10    7.20
   1   4  -9  132.10    7.15
  -1  -4   9  143.70    7.81
  -1  -4   9  133.70    7.41
   2   4  -9   66.91    3.66
  -2  -4   9   57.62    3.28
  -2  -4   9   64.60    3.77
   3   4  -9   61.66    3.39
   3   4  -9   64.96    3.67
  -3  -4   9   63.68    3.66
  -3  -4   9   70.16    3.92
   4   4  -9  196.30   10.57
   4   4  -9  186.70   10.10
  -4  -4   9  206.10   11.13
  -4  -4   9  193.70   10.52
   5   4  -9    3.19    0.70
   5   4  -9    3.63    0.46
  -5  -4   9    2.86    0.75
  -5  -4   9    3.03    0.87
   6   4  -9   93.58    5.07
   6   4  -9   95.52    5.22
  -6  -4   9   90.69    4.96
  -6  -4   9   95.82    5.23
   7   4  -9   78.51    4.27
   7   4  -9   81.92    4.49
  -7  -4   9   83.41    4.56
  -7  -4   9   87.40    4.76
  -8  -4   9    8.86    0.71
  -8  -4   9    8.27    0.70
  -9  -4   9   87.13    4.77
  -4   4 -10   10.16    0.82
  -4   4 -10   10.95    1.22
   4  -4  10   14.03    2.07
   4  -4  10   13.99    1.59
  -3   4 -10   21.16    1.31
  -3   4 -10   21.61    1.53
   3  -4  10   22.54    1.70
   3  -4  10   24.03    2.20
  -2   4 -10    1.30    0.82
  -2   4 -10    1.61    0.52
   2  -4  10    3.37    1.55
   2  -4  10    2.89    1.00
  -1   4 -10   16.95    1.26
  -1   4 -10   20.29    1.27
   1  -4  10   14.40    1.74
   1  -4  10   15.88    1.30
   0   4 -10    3.71    0.83
   0   4 -10    3.81    0.57
   0  -4  10    2.66    1.33
   0  -4  10    2.80    0.92
   1   4 -10    4.28    0.89
   1   4 -10    6.00    0.62
  -1  -4  10    5.54    1.53
  -1  -4  10    4.95    0.91
   2   4 -10   12.57    0.85
   2   4 -10   13.90    1.19
  -2  -4  10   13.24    1.59
  -2  -4  10   11.90    1.09
   3   4 -10    5.23    0.89
   3   4 -10    5.80    0.62
  -3  -4  10    6.05    1.30
   4   4 -10   39.91    2.38
   4   4 -10   40.89    2.29
  -4  -4  10   41.08    2.43
  -4  -4  10   42.20    2.71
   5   4 -10    8.10    0.65
   5   4 -10    7.77    0.89
  -5  -4  10    8.48    1.16
  -5  -4  10    7.87    0.86
   6   4 -10    1.10    0.65
   6   4 -10    1.42    0.40
  -6  -4  10    0.75    0.63
  -6  -4  10    0.06    0.71
  -7  -4  10   14.58    1.00
  -7  -4  10   14.78    0.98
  -3   4 -11   54.82    3.06
  -3   4 -11   62.01    3.56
   3  -4  11   74.93    4.38
   3  -4  11   74.38    4.64
  -2   4 -11    2.91    0.63
  -2   4 -11    1.28    1.00
   2  -4  11    1.61    1.25
   2  -4  11    0.43    1.90
  -1   4 -11   70.16    3.86
  -1   4 -11   79.33    4.44
   1  -4  11   82.13    4.82
   1  -4  11   73.79    4.20
   0   4 -11   57.17    3.31
   0   4 -11   63.89    3.52
   0  -4  11   59.99    3.48
   0  -4  11   57.77    3.70
   1   4 -11    6.67    1.02
   1   4 -11    6.41    0.67
  -1  -4  11    8.38    1.09
  -1  -4  11    6.97    1.90
   2   4 -11  125.20    6.77
   2   4 -11  141.40    7.71
  -2  -4  11  135.20    7.39
  -2  -4  11  144.70    8.07
   3   4 -11   11.86    0.86
   3   4 -11   11.99    1.19
  -3  -4  11    8.84    1.14
  -3  -4  11   11.30    1.64
   4   4 -11   54.97    3.20
   4   4 -11   52.02    2.89
  -4  -4  11   49.36    3.37
  -4  -4  11   43.07    2.58
   5   4 -11   70.25    3.85
   5   4 -11   73.95    4.13
  -5  -4  11   69.45    3.99
  -5  -4  11   72.41    4.06
   6   4 -11    0.30    0.63
   6   4 -11    0.98    0.44
  -6  -4  11   -1.12    0.92
  -6  -4  11    0.72    0.73
  -2   4 -12    3.28    1.12
   2  -4  12    4.02    1.95
  -1   4 -12    7.79    1.18
  -1   4 -12    9.75    0.81
   1  -4  12    7.20    2.06
   1  -4  12    9.16    1.83
   0   4 -12   25.46    1.50
   0   4 -12   26.01    1.79
   0  -4  12   28.74    2.28
   0  -4  12   27.07    2.82
   1   4 -12    1.78    0.60
   1   4 -12    1.73    1.06
  -1  -4  12    1.22    1.21
  -1  -4  12    0.60    2.16
   2   4 -12   10.33    1.19
   2   4 -12   11.88    0.92
  -2  -4  12    9.68    1.32
  -2  -4  12    8.42    1.94
   3   4 -12   12.03    0.91
   3   4 -12    9.76    1.15
  -3  -4  12   10.41    1.77
  -3  -4  12   12.50    1.40
   4   4 -12    0.51    0.56
   4   4 -12    0.07    1.04
  -4  -4  12   -0.09    1.08
  -4  -4  12   -0.50    1.97
   5   4 -12   17.89    1.18
   5   4 -12   22.16    1.54
  -5  -4  12   19.13    1.54
  -5  -4  12   18.48    1.95
   6   4 -12    2.41    0.51
   6   4 -12    3.06    0.64
  -6  -4  12    2.08    1.07
  -6  -4  12    3.97    0.94
   0   4 -13   47.24    2.90
   0   4 -13   54.29    3.05
   0  -4  13   62.60    4.14
   0  -4  13   67.24    4.62
   1   4 -13   23.29    1.42
   1   4 -13   21.71    1.70
  -1  -4  13   23.13    2.48
  -1  -4  13   22.22    2.83
   2   4 -13   10.45    0.97
   2   4 -13    6.30    1.36
  -2  -4  13   11.06    1.79
  -2  -4  13    8.63    2.54
   3   4 -13   77.00    4.23
   3   4 -13   78.62    4.46
  -3  -4  13  102.80    5.85
  -3  -4  13   88.74    5.56
   4   4 -13    3.53    1.17
   4   4 -13    5.35    0.89
  -4  -4  13    2.55    1.43
  -4  -4  13    5.85    2.73
   5   4 -13   28.83    1.77
   5   4 -13   30.29    2.00
  -5  -4  13   25.48    2.61
  -5  -4  13   28.16    2.13
  -3   5  13    1.11    2.06
  -3   5  13   -0.20    1.92
  -2   5  13    2.75    1.98
  -2   5  13    5.60    2.26
  -5   5  12    3.14    1.61
  -5   5  12    1.07    1.75
   5  -5 -12    2.66    0.56
   5  -5 -12    2.51    1.59
  -4   5  12   78.68    4.64
  -4   5  12   85.20    5.04
   4  -5 -12   84.30    4.80
   4  -5 -12   77.55    4.25
  -3   5  12   40.63    2.80
  -3   5  12   38.63    2.65
   3  -5 -12   37.76    2.52
   3  -5 -12   35.90    2.06
  -2   5  12   44.58    2.92
  -2   5  12   43.32    2.95
   2  -5 -12   36.33    2.52
   2  -5 -12   40.37    2.30
  -1   5  12   97.10    5.49
  -1   5  12   88.84    5.18
   1  -5 -12   96.08    5.45
   1  -5 -12   83.77    4.58
   0   5  12    6.88    1.81
   0   5  12    7.30    1.73
   0  -5 -12   10.59    1.64
   0  -5 -12    6.40    0.78
   1   5  12   62.56    3.77
   1   5  12   60.85    3.84
  -1  -5 -12   62.77    3.83
  -1  -5 -12   61.44    3.42
  -6   5  11    0.94    1.23
  -6   5  11    1.61    1.06
   6  -5 -11    1.68    0.41
   6  -5 -11    2.47    1.01
  -5   5  11    1.17    1.13
  -5   5  11    1.07    1.42
   5  -5 -11    0.07    0.49
   5  -5 -11   -0.23    1.12
  -4   5  11    3.98    1.20
  -4   5  11    2.96    1.32
   4  -5 -11    2.66    1.08
   4  -5 -11    2.70    0.60
  -3   5  11    0.62    1.22
  -3   5  11    1.55    1.17
   3  -5 -11   -0.19    1.16
   3  -5 -11    0.36    0.55
  -2   5  11    5.87    1.32
  -2   5  11    9.03    1.42
   2  -5 -11    6.90    1.24
   2  -5 -11    9.21    0.79
  -1   5  11    5.08    1.39
  -1   5  11    4.47    1.34
   1  -5 -11    3.31    1.27
   1  -5 -11    3.99    0.60
   0   5  11    3.22    1.72
   0   5  11    2.28    1.10
   0  -5 -11    3.73    0.61
   0  -5 -11    2.01    1.26
   1   5  11    0.49    1.21
   1   5  11    3.18    1.44
  -1  -5 -11    0.79    0.63
  -1  -5 -11   -0.35    1.48
   2   5  11    7.12    1.74
   2   5  11    3.87    1.19
  -2  -5 -11    5.65    1.64
  -2  -5 -11    5.22    0.78
  -7   5  10    1.08    0.96
  -7   5  10    1.06    0.75
   7  -5 -10    0.86    0.30
   7  -5 -10    0.74    0.69
  -6   5  10   79.96    4.54
  -6   5  10   89.34    4.92
   6  -5 -10   83.36    4.53
   6  -5 -10   95.98    5.27
  -5   5  10   71.89    4.02
  -5   5  10   75.62    4.36
   5  -5 -10   77.23    4.21
   5  -5 -10   72.16    4.05
  -4   5  10   12.55    1.18
  -4   5  10   15.38    1.59
   4  -5 -10   15.01    1.00
   4  -5 -10   11.71    1.17
  -3   5  10  165.90    9.05
  -3   5  10  150.60    8.22
   3  -5 -10  160.80    8.67
   3  -5 -10  172.10    9.34
  -2   5  10   33.38    2.23
  -2   5  10   40.18    2.46
   2  -5 -10   39.72    2.41
   2  -5 -10   33.76    1.93
  -1   5  10   61.86    3.62
  -1   5  10   68.80    3.91
   1  -5 -10   63.90    3.50
   1  -5 -10   62.02    3.53
   0   5  10   85.45    4.74
   0   5  10   77.75    4.46
   0  -5 -10   79.78    4.49
   0  -5 -10   72.67    3.98
   1   5  10    2.76    0.97
   1   5  10    2.04    1.31
  -1  -5 -10    3.04    0.62
  -1  -5 -10    1.31    1.07
   2   5  10  147.80    8.14
   2   5  10  141.80    7.75
  -2  -5 -10  139.00    7.65
  -2  -5 -10  140.60    7.61
   3   5  10   53.57    3.32
   3   5  10   61.75    3.55
  -3  -5 -10   49.94    2.82
  -3  -5 -10   55.75    3.40
   4   5  10   13.95    1.78
   4   5  10   15.81    1.51
  -4  -5 -10   14.69    1.10
  -4  -5 -10   15.74    1.95
  -8   5   9    5.28    0.88
  -8   5   9    6.16    0.67
   8  -5  -9    5.10    0.64
   8  -5  -9    4.37    0.70
  -7   5   9    2.99    0.93
  -7   5   9    2.77    0.64
   7  -5  -9    2.37    0.58
   7  -5  -9    3.24    0.38
  -6   5   9    6.76    1.18
  -6   5   9    7.29    0.77
  -5   5   9    6.99    0.88
  -5   5   9    6.63    1.20
  -4   5   9    4.59    1.11
  -4   5   9    3.05    0.84
   4  -5  -9    3.46    0.79
   4  -5  -9    4.34    0.55
  -3   5   9    0.37    0.96
  -3   5   9   -0.22    0.88
   3  -5  -9    1.00    0.73
   3  -5  -9    0.03    0.46
  -2   5   9   11.55    1.19
  -2   5   9   11.91    1.17
   2  -5  -9    8.75    1.00
   2  -5  -9   11.76    0.81
  -1   5   9   -0.01    0.88
  -1   5   9    0.00    0.95
   1  -5  -9   -0.47    0.78
   1  -5  -9    0.10    0.42
   0   5   9    1.74    0.99
   0   5   9    0.26    0.82
   0  -5  -9    2.49    0.54
   0  -5  -9    2.09    0.84
   1   5   9    3.96    1.07
   1   5   9    2.34    0.83
  -1  -5  -9    3.26    0.55
  -1  -5  -9    2.65    0.89
   2   5   9    1.57    0.98
   2   5   9    0.51    0.97
  -2  -5  -9    0.59    0.96
  -2  -5  -9    0.85    0.53
   3   5   9    9.10    1.09
   3   5   9   10.64    1.36
  -3  -5  -9    8.54    0.79
  -3  -5  -9    6.11    1.14
   4   5   9    0.18    1.01
   4   5   9    2.17    1.35
  -4  -5  -9   -0.55    1.27
  -4  -5  -9    0.74    0.60
   5   5   9    0.08    1.30
   5   5   9    0.02    1.16
  -5  -5  -9    0.70    1.42
  -5  -5  -9   -0.37    0.74
 -13   5   8   60.42    3.38
 -13   5   8   57.90    3.34
  13  -5  -8   70.16    4.14
  13  -5  -8   66.03    3.82
 -12   5   8   45.83    2.57
 -12   5   8   56.38    3.22
  12  -5  -8   55.88    3.24
  12  -5  -8   54.81    3.18
 -11   5   8   10.78    0.82
 -11   5   8   13.49    1.16
  11  -5  -8   11.70    1.06
  11  -5  -8   13.45    1.17
 -10   5   8   87.57    4.77
 -10   5   8   89.99    4.97
  10  -5  -8   88.26    4.87
  10  -5  -8   86.70    4.76
  -9   5   8   10.09    0.76
  -9   5   8    9.30    0.93
   9  -5  -8   10.11    0.97
   9  -5  -8    8.21    0.76
  -8   5   8  110.40    5.98
  -8   5   8  130.60    7.11
   8  -5  -8  123.70    6.71
   8  -5  -8  131.80    7.11
  -7   5   8  212.50   11.50
  -7   5   8  227.50   12.25
   7  -5  -8  234.40   12.61
   7  -5  -8  223.90   12.08
  -6   5   8    3.62    0.64
  -6   5   8    4.13    1.03
   6  -5  -8    4.16    0.46
   6  -5  -8    4.06    0.70
  -5   5   8  145.50    7.89
  -5   5   8  146.20    7.96
   5  -5  -8  135.30    7.30
   5  -5  -8  157.80    8.54
  -4   5   8   76.43    4.23
  -4   5   8   76.69    4.31
   4  -5  -8   78.29    4.33
   4  -5  -8   77.83    4.24
  -3   5   8   77.14    4.29
  -3   5   8   77.56    4.33
   3  -5  -8   66.68    3.71
   3  -5  -8   75.33    4.12
  -2   5   8  242.80   13.14
  -2   5   8  261.40   14.11
   2  -5  -8  260.20   14.00
   2  -5  -8  235.70   12.72
  -1   5   8   19.63    1.38
  -1   5   8   17.13    1.35
   1  -5  -8   17.95    1.31
   1  -5  -8   15.64    1.00
   0   5   8  118.00    6.51
   0   5   8  109.30    6.00
   0  -5  -8  121.80    6.61
   0  -5  -8  111.60    6.11
  -1  -5  -8  141.70    7.66
  -1  -5  -8  138.80    7.56
   2   5   8    3.78    0.98
   2   5   8    3.94    0.85
  -2  -5  -8    3.41    0.81
  -2  -5  -8    3.76    0.59
   3   5   8  172.90    9.38
   3   5   8  158.90    8.68
  -3  -5  -8  164.90    8.96
  -3  -5  -8  156.90    8.48
   4   5   8   45.86    2.68
   4   5   8   43.79    2.67
  -4  -5  -8   36.67    2.09
  -4  -5  -8   43.87    2.67
   5   5   8   60.43    3.44
   5   5   8   57.30    3.38
  -5  -5  -8   58.75    3.25
  -5  -5  -8   52.70    3.07
   6   5   8  123.80    6.87
   6   5   8  123.00    6.75
  -6  -5  -8  112.40    6.10
  -6  -5  -8  115.50    6.41
 -14   5   7    1.80    1.35
 -14   5   7    3.02    0.97
  14  -5  -7    0.48    1.83
  14  -5  -7   -0.59    2.21
 -13   5   7   -0.94    1.14
 -13   5   7    1.37    0.81
  13  -5  -7    0.77    1.79
  13  -5  -7   -1.87    1.55
 -12   5   7   -0.11    0.65
 -12   5   7   -0.51    0.94
  12  -5  -7   -0.16    1.54
  12  -5  -7    1.26    1.10
 -11   5   7    0.14    1.02
 -11   5   7   -0.39    0.56
  11  -5  -7   -0.23    0.99
  11  -5  -7   -0.63    1.20
 -10   5   7    4.99    0.58
 -10   5   7    3.75    0.94
  10  -5  -7    5.59    1.10
  10  -5  -7    3.37    0.95
  -9   5   7    2.34    0.49
  -9   5   7    1.12    0.81
   9  -5  -7    2.10    0.77
   9  -5  -7    1.81    0.82
  -8   5   7   -0.52    0.45
  -8   5   7   -0.66    0.89
   8  -5  -7    0.02    0.33
   8  -5  -7    0.23    0.68
  -7   5   7    0.87    0.48
  -7   5   7    1.00    0.82
   7  -5  -7    1.18    0.60
   7  -5  -7    0.40    0.35
  -6   5   7    1.24    0.97
  -6   5   7    1.33    0.43
   6  -5  -7    2.23    0.58
   6  -5  -7    1.98    0.37
  -5   5   7    1.99    0.90
  -5   5   7    2.92    0.55
   5  -5  -7    2.85    0.60
   5  -5  -7    2.91    0.39
  -4   5   7    5.43    0.69
  -4   5   7    6.46    0.94
   4  -5  -7    5.09    0.68
   4  -5  -7    5.46    0.50
  -3   5   7    0.98    0.81
  -3   5   7    0.20    0.58
  -2   5   7    7.50    0.91
  -2   5   7    6.87    0.81
   2  -5  -7    6.43    0.86
   2  -5  -7    8.18    0.59
   1  -5  -7    6.40    0.80
   1  -5  -7    7.34    0.59
   0   5   7    0.98    0.72
   0   5   7    1.53    0.63
   0  -5  -7    0.99    0.40
   0  -5  -7    1.04    0.61
   1   5   7   15.77    1.13
   1   5   7   15.51    1.21
  -1  -5  -7   16.34    1.05
  -1  -5  -7   14.13    1.00
   2   5   7    0.62    0.69
   2   5   7    2.21    0.75
  -2  -5  -7    0.81    0.72
  -2  -5  -7    1.71    0.48
   3   5   7    1.41    0.70
   3   5   7    1.06    0.88
  -3  -5  -7    0.84    0.48
  -3  -5  -7    0.19    0.64
   4   5   7    6.91    0.89
   4   5   7    5.84    0.86
  -4  -5  -7    6.45    0.65
  -4  -5  -7    5.90    0.86
   5   5   7    8.73    0.89
   5   5   7    7.14    0.95
  -5  -5  -7    7.74    0.71
  -5  -5  -7    7.57    1.01
   6   5   7    3.17    0.89
   6   5   7    3.24    1.10
  -6  -5  -7    1.30    1.02
  -6  -5  -7    2.84    0.54
   7   5   7    3.04    0.94
   7   5   7    3.99    1.24
  -7  -5  -7    2.67    1.06
  -7  -5  -7    2.04    0.59
 -14   5   6   69.85    3.87
 -14   5   6   60.55    3.61
  14  -5  -6   73.76    4.65
  14  -5  -6   69.13    4.11
 -13   5   6    2.00    1.03
 -13   5   6    1.75    0.62
  13  -5  -6    2.86    1.21
  13  -5  -6    3.33    1.80
 -12   5   6  103.60    5.64
 -12   5   6  105.00    5.81
  12  -5  -6   95.28    5.30
  12  -5  -6  108.20    6.10
 -11   5   6   64.64    3.58
  11  -5  -6   56.50    3.33
  11  -5  -6   58.42    3.51
 -10   5   6   28.90    1.84
 -10   5   6   29.34    1.71
  10  -5  -6   33.62    2.26
  10  -5  -6   32.94    2.04
  -9   5   6  158.20    8.53
  -9   5   6  162.10    8.82
   9  -5  -6  152.80    8.32
   9  -5  -6  155.50    8.46
  -8   5   6   27.61    1.58
  -8   5   6   31.17    2.02
   8  -5  -6   27.64    1.73
   8  -5  -6   30.23    1.71
  -7   5   6  146.60    7.98
  -7   5   6  145.10    7.83
   7  -5  -6  145.80    7.86
   7  -5  -6  158.30    8.58
  -6   5   6  116.50    6.30
  -6   5   6  117.60    6.45
   6  -5  -6  120.50    6.51
   6  -5  -6  122.30    6.64
  -5   5   6   22.65    1.57
  -5   5   6   18.46    1.13
   5  -5  -6   28.29    1.70
   5  -5  -6   22.79    1.32
  -4   5   6  268.90   14.44
  -4   5   6  255.00   13.74
   4  -5  -6  292.00   15.69
   4  -5  -6  313.70   16.83
  -3   5   6   92.18    5.06
  -3   5   6   91.09    4.95
   3  -5  -6   92.78    5.05
   3  -5  -6   94.48    5.10
  -2   5   6   74.91    4.10
  -2   5   6   64.95    3.59
   2  -5  -6   65.54    3.56
   2  -5  -6   70.55    3.88
  -1   5   6  154.40    8.35
  -1   5   6  165.80    8.96
   1  -5  -6  161.30    8.68
   1  -5  -6  166.40    9.00
   0   5   6    1.15    0.61
   0  -5  -6    0.20    0.50
   0  -5  -6    1.47    0.38
   1   5   6  220.20   11.88
   1   5   6  198.00   10.71
  -1  -5  -6  190.20   10.27
  -1  -5  -6  211.10   11.36
   2   5   6  208.60   11.25
   2   5   6  195.50   10.59
  -2  -5  -6  197.90   10.68
  -2  -5  -6  187.10   10.08
   3   5   6   49.72    2.81
   3   5   6   53.40    3.05
   4   5   6  168.40    9.15
   4   5   6  170.60    9.24
  -4  -5  -6  160.20    8.68
  -4  -5  -6  163.50    8.82
   5   5   6   19.38    1.35
   5   5   6   20.04    1.38
   6   5   6  106.70    5.89
   6   5   6  104.20    5.68
  -6  -5  -6  103.00    5.59
  -6  -5  -6  102.00    5.63
   7   5   6  119.30    6.50
   7   5   6  127.40    6.99
  -7  -5  -6  108.50    5.88
  -7  -5  -6  130.50    7.14
   8   5   6    2.49    1.05
   8   5   6    0.98    0.77
  -8  -5  -6    1.78    0.59
  -8  -5  -6    1.86    1.25
 -15   5   5    2.87    0.87
 -15   5   5   -0.55    1.56
  15  -5  -5    0.86    2.06
  15  -5  -5    0.10    2.06
 -14   5   5    5.62    1.20
 -14   5   5    5.75    0.84
  14  -5  -5    5.94    1.96
  14  -5  -5    6.17    1.56
 -13   5   5    3.94    0.70
 -13   5   5    3.24    1.03
  13  -5  -5    3.32    1.58
  13  -5  -5    3.02    1.19
  12  -5  -5    8.96    1.49
  12  -5  -5    8.27    1.20
 -11   5   5    0.24    0.57
 -11   5   5    1.09    1.03
  11  -5  -5    2.08    1.25
  11  -5  -5   -0.66    0.88
 -10   5   5    3.46    0.59
 -10   5   5    3.04    0.80
  10  -5  -5    2.71    0.87
  10  -5  -5    1.76    1.23
  -9   5   5    3.46    0.90
  -9   5   5    4.84    0.51
   9  -5  -5    4.53    0.82
   9  -5  -5    4.11    1.18
  -8   5   5   13.74    0.86
  -8   5   5   13.38    1.12
   8  -5  -5   15.63    0.96
   8  -5  -5   13.91    1.06
   8  -5  -5   15.41    1.31
  -7   5   5    7.85    0.99
  -7   5   5    8.40    0.63
   7  -5  -5   10.56    0.69
   7  -5  -5    7.92    0.90
  -6   5   5    4.57    0.87
  -6   5   5    5.40    0.47
   6  -5  -5    5.20    0.69
   6  -5  -5    5.54    0.43
  -5   5   5   16.47    1.14
  -5   5   5   17.25    1.01
   5  -5  -5   18.29    1.05
   5  -5  -5   16.72    1.09
  -4   5   5    1.24    0.59
  -4   5   5    1.89    0.30
   4  -5  -5    1.22    0.45
   4  -5  -5    1.89    0.26
  -3   5   5   13.57    0.82
  -3   5   5   13.18    1.01
   3  -5  -5   14.08    0.91
   3  -5  -5   14.67    0.86
  -2   5   5    5.22    0.59
  -2   5   5    3.84    0.38
   2  -5  -5    4.82    0.38
   2  -5  -5    4.40    0.47
  -1   5   5    0.34    0.33
  -1   5   5    0.36    0.52
   1  -5  -5    0.43    0.41
   1  -5  -5    0.13    0.26
   0   5   5    0.73    0.39
   0   5   5    1.61    0.54
   0  -5  -5    0.42    0.38
   0  -5  -5    1.25    0.29
   1   5   5    4.97    0.62
  -1  -5  -5    4.01    0.55
   2   5   5    0.64    0.57
   2   5   5    0.43    0.52
  -2  -5  -5   -0.13    0.58
  -2  -5  -5   -0.11    0.37
   3   5   5    0.11    0.66
   3   5   5   -0.05    0.57
  -3  -5  -5    0.20    0.50
  -3  -5  -5    0.16    0.39
   4   5   5    1.69    0.62
   4   5   5    1.45    0.70
  -4  -5  -5    1.55    0.43
  -4  -5  -5    0.73    0.63
   5   5   5    2.49    0.76
   5   5   5    1.59    0.62
  -5  -5  -5    2.46    0.72
  -5  -5  -5    2.48    0.47
   6   5   5    0.12    0.59
   6   5   5    1.24    0.75
  -6  -5  -5    0.65    0.48
  -6  -5  -5    0.03    0.74
   7   5   5    5.78    0.80
   7   5   5    6.40    0.89
  -7  -5  -5    5.47    0.59
  -7  -5  -5    4.53    0.82
   8   5   5   -0.56    0.75
   8   5   5   -1.02    1.02
  -8  -5  -5    0.23    0.99
  -8  -5  -5   -0.01    0.48
   9   5   5    2.41    0.77
   9   5   5    2.12    1.09
  -9  -5  -5    1.66    0.55
  -9  -5  -5    2.46    1.24
 -15   5   4    1.27    0.80
 -15   5   4   -0.26    1.41
  15  -5  -4    1.84    1.83
  15  -5  -4   -1.47    2.15
 -14   5   4   51.22    2.86
 -14   5   4   51.19    3.14
  14  -5  -4   64.29    3.80
  14  -5  -4   70.32    4.35
 -13   5   4   72.15    4.08
 -13   5   4   81.74    4.48
  13  -5  -4   84.25    4.97
  13  -5  -4   84.26    4.74
 -12   5   4   15.23    1.45
 -12   5   4   13.50    0.96
  12  -5  -4   15.35    1.35
  12  -5  -4   16.17    1.71
 -11   5   4  142.70    7.72
 -11   5   4  162.80    8.86
  11  -5  -4  150.50    8.19
  11  -5  -4  134.40    7.42
 -10   5   4   27.59    1.62
 -10   5   4   27.59    1.76
  10  -5  -4   27.71    1.74
  10  -5  -4   28.46    1.93
  -9   5   4  118.30    6.43
   9  -5  -4  108.00    5.98
   9  -5  -4  122.10    6.72
  -8   5   4  202.80   11.01
  -8   5   4  211.40   11.39
  -7   5   4    0.35    0.74
  -7   5   4    0.94    0.33
   7  -5  -4   -0.58    0.83
   7  -5  -4    0.78    0.27
  -6   5   4  311.70   16.72
  -6   5   4  281.10   15.13
   6  -5  -4  307.00   16.47
   6  -5  -4  294.50   15.85
  -5   5   4   77.94    4.21
  -5   5   4   82.20    4.52
   5  -5  -4   81.75    4.48
   5  -5  -4   78.50    4.25
  -4   5   4   47.78    2.61
  -4   5   4   53.29    2.99
   4  -5  -4   56.81    3.14
   4  -5  -4   55.86    3.03
  -3   5   4  464.10   24.91
  -3   5   4  549.70   29.45
   3  -5  -4  538.90   28.87
   3  -5  -4  532.00   28.53
  -2   5   4   33.99    1.88
  -2   5   4   38.81    2.21
   2  -5  -4   39.96    2.23
   2  -5  -4   38.41    2.10
  -1   5   4  212.20   11.40
  -1   5   4  190.30   10.25
   1  -5  -4  205.00   11.00
   1  -5  -4  212.90   11.45
   0   5   4  296.30   15.91
   0   5   4  281.70   15.14
   0  -5  -4  289.30   15.52
   0  -5  -4  301.00   16.17
   1   5   4    9.61    0.72
   1   5   4   10.08    0.71
  -1  -5  -4    9.68    0.70
  -1  -5  -4   11.32    0.71
   2   5   4  401.40   21.56
  -2  -5  -4  380.60   20.43
   3   5   4  187.60   10.12
   3   5   4  172.00    9.32
  -3  -5  -4  174.00    9.40
  -3  -5  -4  154.70    8.35
   4   5   4   86.40    4.76
   4   5   4   82.47    4.53
  -4  -5  -4   84.51    4.61
  -4  -5  -4   76.33    4.19
   5   5   4  191.40   10.36
   5   5   4  175.20    9.48
  -5  -5  -4  178.70    9.66
  -5  -5  -4  168.90    9.11
   6   5   4   21.79    1.39
   6   5   4   21.86    1.48
  -6  -5  -4   21.15    1.38
  -6  -5  -4   18.09    1.13
   7   5   4  150.10    8.13
   7   5   4  170.80    9.28
  -7  -5  -4  157.10    8.53
  -7  -5  -4  162.70    8.78
   8   5   4  138.10    7.53
   8   5   4  135.90    7.38
  -8  -5  -4  126.30    6.84
  -8  -5  -4  141.20    7.70
   9   5   4    1.77    0.72
   9   5   4    2.62    0.91
  -9  -5  -4    1.45    0.85
  -9  -5  -4    3.84    0.56
  10   5   4  108.50    5.96
  10   5   4  114.70    6.37
 -10  -5  -4   95.89    5.40
 -10  -5  -4   97.40    5.30
 -15   5   3    2.44    0.87
 -14   5   3   -0.77    0.63
 -14   5   3   -0.98    1.20
  14  -5  -3   -0.18    1.92
  14  -5  -3    0.91    1.39
 -13   5   3    1.43    0.99
 -13   5   3    2.80    0.61
  13  -5  -3    1.47    1.15
  13  -5  -3    2.86    1.74
 -12   5   3    0.44    1.01
 -12   5   3    0.79    0.60
  12  -5  -3    0.35    1.01
  12  -5  -3   -0.81    1.44
 -11   5   3    2.64    0.94
 -11   5   3    2.03    0.52
  11  -5  -3    4.82    1.44
  11  -5  -3    1.71    0.83
 -10   5   3    2.44    0.50
 -10   5   3    1.30    0.89
  10  -5  -3    2.21    0.76
  10  -5  -3    2.65    1.12
  -9   5   3   -0.51    0.98
  -9   5   3    0.20    0.45
  -8   5   3    1.40    0.40
  -8   5   3    2.61    0.94
   8  -5  -3    1.72    0.84
   8  -5  -3    1.25    0.73
  -7   5   3    3.24    0.40
  -7   5   3    2.46    0.85
   7  -5  -3    2.07    0.74
   7  -5  -3    2.82    0.34
  -6   5   3   14.99    0.90
  -6   5   3   13.30    0.97
   6  -5  -3   15.39    1.19
   6  -5  -3   16.34    0.95
  -5   5   3   14.89    1.05
  -5   5   3   16.22    0.94
   5  -5  -3   16.05    1.14
   5  -5  -3   17.26    0.99
  -4   5   3   15.26    0.88
  -4   5   3   14.42    1.01
   4  -5  -3   14.57    1.01
   4  -5  -3   15.26    0.88
  -3   5   3    7.50    0.49
  -3   5   3    5.90    0.65
   3  -5  -3    7.36    0.63
   3  -5  -3    6.81    0.44
  -2   5   3    6.26    0.69
  -2   5   3    6.20    0.44
   2  -5  -3    6.47    0.57
   2  -5  -3    6.76    0.45
  -1   5   3    1.07    0.47
  -1   5   3    1.19    0.27
   1  -5  -3    1.42    0.38
   1  -5  -3    1.55    0.26
   0   5   3   13.12    0.88
   0   5   3   12.67    0.79
   0  -5  -3   14.08    0.82
   0  -5  -3   13.43    0.84
   1   5   3    4.83    0.46
   1   5   3    5.17    0.57
  -1  -5  -3    4.14    0.34
  -1  -5  -3    3.73    0.44
   2   5   3    3.34    0.47
   2   5   3    2.64    0.45
  -2  -5  -3    3.34    0.34
  -2  -5  -3    2.78    0.42
   3   5   3    3.29    0.49
   3   5   3    4.24    0.56
  -3  -5  -3    3.39    0.45
  -3  -5  -3    4.30    0.46
   4   5   3    0.96    0.53
   4   5   3    0.60    0.47
  -4  -5  -3    0.99    0.35
  -4  -5  -3    0.71    0.51
   5   5   3    3.26    0.58
   5   5   3    3.39    0.62
  -5  -5  -3    2.87    0.56
  -5  -5  -3    3.20    0.41
   6   5   3    0.29    0.62
   6   5   3   -0.12    0.61
  -6  -5  -3    0.21    0.39
  -6  -5  -3    0.09    0.55
   7   5   3   -0.11    0.63
   7   5   3    0.80    0.74
  -7  -5  -3   -0.69    0.71
  -7  -5  -3    0.15    0.46
   8   5   3    0.25    0.67
   8   5   3    0.59    0.64
  -8  -5  -3   -0.12    0.50
  -8  -5  -3    0.21    0.82
   9   5   3   -0.19    0.80
   9   5   3    0.94    0.75
  -9  -5  -3    0.46    0.89
  -9  -5  -3    1.28    0.51
  10   5   3    0.67    0.95
  10   5   3    0.91    0.83
 -10  -5  -3    1.18    0.54
 -10  -5  -3    1.21    1.06
 -11  -5  -3    0.18    0.61
 -14   5   2    0.71    0.68
 -14   5   2    0.96    1.26
  14  -5  -2    0.68    1.98
  14  -5  -2    0.53    1.48
 -13   5   2   80.44    4.40
 -13   5   2   84.12    4.71
  13  -5  -2  103.10    5.75
  13  -5  -2   95.58    5.59
 -12   5   2   71.87    3.97
 -12   5   2   80.64    4.52
  12  -5  -2   80.67    4.54
  12  -5  -2   83.02    4.79
  11  -5  -2   36.72    2.47
  11  -5  -2   39.72    2.38
 -10   5   2  161.50    8.74
 -10   5   2  158.50    8.63
  10  -5  -2  159.90    8.75
  10  -5  -2  158.90    8.63
  -9   5   2   39.48    2.22
  -9   5   2   33.29    2.09
   9  -5  -2   30.56    1.94
   9  -5  -2   32.91    2.16
  -8   5   2  169.60    9.23
  -8   5   2  164.20    8.86
   8  -5  -2  162.30    8.80
   8  -5  -2  162.60    8.86
  -7   5   2  168.60    9.09
  -7   5   2  184.60   10.01
   7  -5  -2  187.10   10.10
   7  -5  -2  200.90   10.80
   7  -5  -2  198.20   10.75
  -5   5   2  323.50   17.35
  -5   5   2  311.90   16.77
   5  -5  -2  351.20   18.83
   5  -5  -2  303.60   16.34
  -4   5   2  159.60    8.64
  -4   5   2  163.70    8.80
   4  -5  -2  167.60    9.01
   4  -5  -2  159.90    8.66
  -3   5   2  126.60    6.81
  -3   5   2  135.10    7.33
   3  -5  -2  139.00    7.48
   3  -5  -2  137.90    7.47
  -2   5   2  483.30   25.89
  -2   5   2  457.50   24.55
   2  -5  -2  463.60   24.86
   2  -5  -2  458.80   24.58
  -1   5   2    0.25    0.22
  -1   5   2    0.75    0.51
   1  -5  -2    0.13    0.41
   1  -5  -2    0.49    0.20
   0   5   2  308.30   16.54
   0   5   2  285.40   15.34
   0  -5  -2  319.90   17.17
   0  -5  -2  305.30   16.37
   1   5   2  271.60   14.58
   1   5   2  294.40   15.81
  -1  -5  -2  259.30   13.93
  -1  -5  -2  276.60   14.83
   2   5   2   50.27    2.77
   2   5   2   52.66    2.91
  -2  -5  -2   44.18    2.45
  -2  -5  -2   51.25    2.79
   3   5   2  309.30   16.62
   3   5   2  327.40   17.58
  -3  -5  -2  317.80   17.07
  -3  -5  -2  361.50   19.39
   4   5   2   39.62    2.25
   4   5   2   42.46    2.41
  -4  -5  -2   42.67    2.40
  -4  -5  -2   41.58    2.32
   5   5   2  199.90   10.77
   5   5   2  189.50   10.24
  -5  -5  -2  183.00    9.88
  -5  -5  -2  182.30    9.82
   6   5   2  304.20   16.37
   6   5   2  283.50   15.24
  -6  -5  -2  283.10   15.24
  -6  -5  -2  271.30   14.58
   7   5   2    6.69    0.73
   7   5   2    6.01    0.73
  -7  -5  -2    6.22    0.80
  -7  -5  -2    4.61    0.50
   8   5   2  180.40    9.78
   8   5   2  163.10    8.82
  -8  -5  -2  171.90    9.31
  -8  -5  -2  170.30    9.19
   9   5   2   52.48    2.97
   9   5   2   45.19    2.61
  10   5   2   46.30    2.73
  10   5   2   45.45    2.65
 -10  -5  -2   40.90    2.44
 -10  -5  -2   43.09    2.43
  11   5   2  176.40    9.56
  11   5   2  163.10    8.90
 -11  -5  -2  161.60    8.82
 -11  -5  -2  145.10    7.84
 -13   5   1    1.87    0.93
 -13   5   1    2.71    0.63
  13  -5  -1    4.14    1.89
  13  -5  -1    2.56    1.28
 -12   5   1    6.18    0.70
 -12   5   1    5.23    1.01
  12  -5  -1    5.11    1.10
  12  -5  -1    7.70    1.70
 -11   5   1    1.08    0.93
 -11   5   1    2.23    0.57
  11  -5  -1    1.62    0.93
  11  -5  -1    1.55    1.26
 -10   5   1    3.28    0.53
 -10   5   1    2.99    0.95
  10  -5  -1    2.48    0.85
  10  -5  -1    2.44    0.99
  -9   5   1   21.86    1.32
  -9   5   1   24.52    1.67
   9  -5  -1   23.29    1.54
   9  -5  -1   25.56    1.78
  -8   5   1    0.22    0.38
  -8   5   1    0.46    0.87
   8  -5  -1    0.66    0.80
   8  -5  -1    0.96    0.74
  -7   5   1   18.03    1.09
  -7   5   1   16.74    1.23
   7  -5  -1   17.42    1.30
   7  -5  -1   18.28    1.08
   7  -5  -1   14.81    1.09
  -6   5   1   -0.57    0.57
  -6   5   1    0.29    0.32
   6  -5  -1    0.24    0.27
   6  -5  -1    1.32    0.82
  -5   5   1    0.61    0.54
  -5   5   1    0.47    0.24
   5  -5  -1    0.34    0.66
   5  -5  -1    0.34    0.23
  -4   5   1   20.52    1.17
  -4   5   1   20.46    1.30
   4  -5  -1   22.66    1.28
   4  -5  -1   21.93    1.40
  -3   5   1   21.62    1.22
  -3   5   1   19.41    1.25
   3  -5  -1   21.86    1.40
   3  -5  -1   17.87    1.03
  -2   5   1    1.15    0.54
  -2   5   1    1.44    0.26
   2  -5  -1    1.29    0.23
   2  -5  -1    2.40    0.56
  -1   5   1   11.15    0.82
  -1   5   1   11.87    0.71
   1  -5  -1   12.47    0.85
   1  -5  -1   12.65    0.74
   0   5   1    3.44    0.30
   0   5   1    4.56    0.58
   0  -5  -1    3.98    0.46
   0  -5  -1    2.84    0.26
   1   5   1   66.08    3.59
   1   5   1   58.04    3.20
  -1  -5  -1   62.69    3.43
  -1  -5  -1   65.57    3.55
   2   5   1    1.59    0.29
   2   5   1    2.08    0.47
  -2  -5  -1    1.81    0.25
  -2  -5  -1    1.16    0.32
   3   5   1   33.11    1.88
   3   5   1   33.51    1.88
  -3  -5  -1   26.51    1.51
  -3  -5  -1   31.20    1.73
   4   5   1    3.29    0.50
   4   5   1    4.40    0.52
  -4  -5  -1    3.55    0.46
  -4  -5  -1    4.03    0.39
   5   5   1    0.40    0.49
   5   5   1    0.61    0.39
  -5  -5  -1    0.54    0.41
  -5  -5  -1    0.65    0.35
   6   5   1    4.17    0.58
   6   5   1    2.90    0.59
  -6  -5  -1    3.27    0.44
  -6  -5  -1    3.23    0.63
   7   5   1    0.16    0.54
   7   5   1    0.17    0.56
  -7  -5  -1    0.17    0.61
  -7  -5  -1   -0.02    0.38
   8   5   1   10.18    0.91
   8   5   1    9.61    0.90
  -8  -5  -1    7.92    0.88
  -8  -5  -1   10.17    0.73
   9   5   1    0.76    0.71
   9   5   1    1.06    0.72
  -9  -5  -1    1.00    0.81
  -9  -5  -1    1.88    0.50
  10   5   1    2.00    0.84
  10   5   1    2.58    0.90
 -10  -5  -1    1.81    0.54
 -10  -5  -1    3.13    0.92
  11   5   1    0.41    0.92
  11   5   1    0.98    0.88
 -11  -5  -1    0.10    1.04
 -11  -5  -1   -0.21    0.52
 -12  -5  -1    0.04    1.34
 -13   5   0    0.90    0.64
 -13   5   0    1.50    1.06
  13  -5   0    2.54    1.44
  13  -5   0    1.08    1.99
 -12   5   0  100.50    5.47
 -12   5   0  101.60    5.60
  12  -5   0  113.80    6.45
  12  -5   0  118.60    6.53
 -11   5   0   27.46    1.91
 -11   5   0   32.22    1.87
  11  -5   0   27.82    1.87
  11  -5   0   24.70    1.96
 -10   5   0   66.11    3.77
 -10   5   0   58.80    3.25
  10  -5   0   68.19    3.94
  10  -5   0   68.50    3.86
  -9   5   0  215.30   11.60
  -9   5   0  196.80   10.66
   9  -5   0  202.20   10.93
   9  -5   0  204.20   11.09
   8  -5   0    5.53    0.78
   8  -5   0    5.30    0.94
  -7   5   0  264.80   14.29
  -7   5   0  244.00   13.13
   7  -5   0  266.30   14.35
   7  -5   0  253.30   13.68
  -6   5   0  209.20   11.26
  -6   5   0  190.80   10.33
   6  -5   0  191.70   10.39
   6  -5   0  178.20    9.63
   6  -5   0  194.90   10.49
  -5   5   0   43.35    2.48
   5  -5   0   37.87    2.09
  -4   5   0  516.90   27.70
  -4   5   0  499.60   26.81
   4  -5   0  503.20   27.03
   4  -5   0  531.20   28.47
  -3   5   0   91.38    5.00
  -3   5   0  102.20    5.52
   3  -5   0   97.57    5.27
   3  -5   0   95.31    5.23
  -2   5   0  359.50   19.32
  -2   5   0  380.80   20.41
   2  -5   0  397.30   21.34
   2  -5   0  355.50   19.06
  -1   5   0  513.20   27.53
  -1   5   0  497.50   26.65
   1  -5   0  504.00   27.03
   1  -5   0  514.50   27.56
   0   5   0   -0.22    0.50
   0   5   0    0.29    0.22
   0  -5   0    0.03    0.21
   0  -5   0    0.26    0.41
   1   5   0  528.00   28.29
   1   5   0  496.70   26.64
  -1  -5   0  552.20   29.58
  -1  -5   0  572.90   30.71
   2   5   0  391.70   21.00
   2   5   0  352.00   18.89
  -2  -5   0  390.50   20.93
  -2  -5   0  384.20   20.60
   3   5   0   87.70    4.77
   3   5   0   90.56    4.91
  -3  -5   0   90.45    4.90
  -3  -5   0   93.50    5.05
   4   5   0  537.40   28.82
   4   5   0  522.60   28.02
  -4  -5   0  588.30   31.51
  -4  -5   0  516.10   27.67
   5   5   0   56.99    3.16
   5   5   0   48.04    2.67
   6   5   0  204.20   11.01
   6   5   0  199.80   10.78
  -6  -5   0  184.00    9.92
  -6  -5   0  200.70   10.84
   7   5   0  259.40   13.96
   7   5   0  261.90   14.11
  -7  -5   0  259.80   13.97
  -7  -5   0  267.80   14.43
   8   5   0    7.72    0.77
   8   5   0    8.81    0.82
   9   5   0  211.60   11.43
   9   5   0  226.80   12.22
  -9  -5   0  198.20   10.72
  -9  -5   0  228.30   12.28
  10   5   0   64.98    3.64
  10   5   0   70.43    3.93
 -10  -5   0   61.57    3.40
 -10  -5   0   66.42    3.76
  11   5   0   27.00    1.86
  11   5   0   30.12    1.88
 -11  -5   0   25.79    1.79
 -11  -5   0   27.91    1.64
  12   5   0  127.40    6.97
  12   5   0  115.50    6.40
 -12  -5   0  115.10    6.40
 -12  -5   0  102.80    5.59
  13   5   0    2.01    1.18
  13   5   0    1.91    1.56
 -13  -5   0    1.22    0.56
 -13  -5   0    1.33    1.72
 -12   5  -1   -0.14    0.51
 -12   5  -1   -0.03    0.93
  12  -5   1    0.73    1.10
  12  -5   1    2.51    1.74
 -11   5  -1    0.39    0.49
 -11   5  -1   -0.14    0.92
  11  -5   1    1.16    0.90
  11  -5   1   -0.03    1.40
 -10   5  -1    3.24    0.82
 -10   5  -1    3.07    0.48
  10  -5   1    2.45    1.21
  10  -5   1    2.17    0.90
  -9   5  -1    1.41    0.82
  -9   5  -1    1.41    0.40
   9  -5   1    1.28    1.00
   9  -5   1    1.36    0.66
  -8   5  -1    8.83    0.92
  -8   5  -1    9.80    0.69
   8  -5   1    9.38    0.83
   8  -5   1    9.71    1.06
  -7   5  -1    0.70    0.75
  -7   5  -1    0.02    0.38
   7  -5   1   -0.22    0.60
   7  -5   1    0.52    0.78
  -6   5  -1    2.59    0.80
  -6   5  -1    4.30    0.47
   6  -5   1    3.33    0.75
   6  -5   1    2.61    0.60
  -5   5  -1    0.27    0.54
  -5   5  -1    0.76    0.33
   5  -5   1    0.58    0.73
   5  -5   1    1.49    0.33
  -4   5  -1    3.78    0.61
  -4   5  -1    4.06    0.40
   4  -5   1    3.89    0.36
   4  -5   1    4.22    0.85
  -3   5  -1   32.24    1.79
  -3   5  -1   28.84    1.70
   3  -5   1   26.60    1.49
   3  -5   1   31.76    1.90
  -2   5  -1    1.42    0.53
  -2   5  -1    2.28    0.27
   2  -5   1    1.62    0.57
   2  -5   1    1.94    0.25
   1  -5   1   62.96    3.42
   1  -5   1   63.51    3.51
   0   5  -1    4.29    0.55
   0   5  -1    2.81    0.29
   0  -5   1    4.19    0.56
   0  -5   1    3.26    0.30
   1   5  -1   12.76    0.76
   1   5  -1   11.85    0.87
  -1  -5   1   12.73    0.75
  -1  -5   1   11.50    0.80
   2   5  -1    0.99    0.26
   2   5  -1    1.33    0.49
  -2  -5   1    1.03    0.24
  -2  -5   1    1.81    0.40
   3   5  -1   19.34    1.12
   3   5  -1   17.66    1.09
  -3  -5   1   19.48    1.11
  -3  -5   1   19.60    1.15
   4   5  -1   19.36    1.14
   4   5  -1   23.23    1.38
  -4  -5   1   23.00    1.30
  -4  -5   1   19.12    1.13
   5   5  -1    0.38    0.46
   5   5  -1    0.57    0.40
  -5  -5   1    0.63    0.26
  -5  -5   1    0.85    0.37
   6   5  -1   -0.27    0.48
   6   5  -1    0.43    0.41
  -6  -5   1    0.68    0.32
  -6  -5   1    0.37    0.48
   7   5  -1   15.52    1.05
   7   5  -1   15.52    1.04
  -7  -5   1   15.82    0.97
  -7  -5   1   13.59    1.05
   8   5  -1    0.33    0.58
   8   5  -1    0.65    0.58
  -8  -5   1    0.89    0.40
  -8  -5   1    1.28    0.58
   9   5  -1   25.83    1.64
   9   5  -1   27.71    1.70
  -9  -5   1   24.90    1.46
  -9  -5   1   22.72    1.51
  10   5  -1    3.36    0.77
  10   5  -1    2.44    0.81
 -10  -5   1    2.67    0.53
 -10  -5   1    1.79    0.79
  11   5  -1    2.09    0.90
  11   5  -1    1.79    0.92
 -11  -5   1    2.18    0.51
 -11  -5   1    2.51    0.89
  12   5  -1    7.06    1.01
  12   5  -1    6.15    1.18
 -12  -5   1    6.46    0.69
 -12  -5   1    5.11    1.16
  13   5  -1    4.04    1.39
  13   5  -1    3.24    1.03
 -13  -5   1    3.78    0.65
 -13  -5   1    1.45    1.46
 -11   5  -2  125.40    6.78
 -11   5  -2  136.50    7.44
  11  -5   2  160.50    8.86
  11  -5   2  144.10    7.85
 -10   5  -2   46.18    2.58
 -10   5  -2   41.95    2.48
  10  -5   2   39.81    2.37
  10  -5   2   48.07    2.97
  -9   5  -2   48.59    2.81
  -9   5  -2   42.14    2.35
   9  -5   2   54.31    3.21
   9  -5   2   54.54    3.13
  -8   5  -2  173.50    9.35
  -8   5  -2  170.90    9.28
   8  -5   2  159.90    8.67
   8  -5   2  176.30    9.61
  -7   5  -2    3.01    0.41
  -7   5  -2    4.45    0.80
   7  -5   2    8.30    0.95
   7  -5   2    7.43    0.98
  -6   5  -2  289.60   15.61
  -6   5  -2  291.50   15.67
   6  -5   2  261.40   14.12
   6  -5   2  293.00   15.77
  -5   5  -2  195.80   10.55
  -5   5  -2  200.60   10.86
   5  -5   2  188.40   10.15
   5  -5   2  182.00    9.87
   5  -5   2  188.30   10.17
   4  -5   2   35.67    2.00
   4  -5   2   39.87    2.36
  -3   5  -2  302.30   16.23
  -3   5  -2  305.70   16.44
   3  -5   2  312.60   16.85
   3  -5   2  310.10   16.64
  -2   5  -2   45.71    2.58
  -2   5  -2   48.83    2.67
   2  -5   2   55.15    3.01
   2  -5   2   48.78    2.77
  -1   5  -2  271.70   14.62
  -1   5  -2  264.80   14.21
   1  -5   2  267.70   14.41
   1  -5   2  273.80   14.69
   0   5  -2  305.10   16.37
   0   5  -2  291.50   15.68
   1   5  -2    0.55    0.24
   1   5  -2    0.10    0.45
  -1  -5   2    0.13    0.49
  -1  -5   2    1.26    0.23
   2   5  -2  457.60   24.52
   2   5  -2  449.70   24.12
  -2  -5   2  515.90   27.64
  -2  -5   2  467.60   25.07
   3   5  -2  135.10    7.28
   3   5  -2  138.00    7.47
  -3  -5   2  143.20    7.72
  -3  -5   2  131.00    7.05
   4   5  -2  136.70    7.39
   4   5  -2  163.20    8.79
  -4  -5   2  153.60    8.28
  -4  -5   2  149.10    8.02
   5   5  -2  318.20   17.09
   5   5  -2  307.40   16.51
  -5  -5   2  339.30   18.19
  -5  -5   2  326.90   17.55
  -6  -5   2    4.79    0.41
  -6  -5   2    5.07    0.51
  -7  -5   2  183.90    9.95
   8   5  -2  161.50    8.73
   8   5  -2  174.90    9.46
  -8  -5   2  169.60    9.14
  -8  -5   2  178.80    9.68
   9   5  -2   35.19    2.09
   9   5  -2   34.20    2.02
  -9  -5   2   35.06    1.99
  -9  -5   2   31.51    1.93
  10   5  -2  177.80    9.63
  10   5  -2  165.00    8.96
 -10  -5   2  190.70   10.29
 -11  -5   2   34.22    1.96
 -11  -5   2   36.00    2.27
  12   5  -2   85.32    4.80
  12   5  -2   92.76    5.13
 -12  -5   2   83.16    4.54
 -12  -5   2   76.86    4.40
  13   5  -2  108.10    6.04
  13   5  -2  112.50    6.21
 -13  -5   2   86.58    4.94
 -13  -5   2   90.32    4.92
  14   5  -2    0.52    1.27
  14   5  -2   -1.05    1.68
 -14  -5   2    1.33    1.92
 -14  -5   2    1.60    0.70
 -11   5  -3    0.06    0.81
  11  -5   3    2.54    1.24
 -10   5  -3    0.34    0.88
 -10   5  -3    1.03    0.47
  10  -5   3    0.07    0.98
  10  -5   3   -0.81    1.42
  -9   5  -3    0.02    0.74
  -9   5  -3    0.67    0.42
   9  -5   3    0.58    0.88
   9  -5   3    0.79    1.23
  -8   5  -3    0.20    0.74
  -8   5  -3   -0.29    0.38
   8  -5   3    0.15    0.80
   8  -5   3    0.35    1.07
  -7   5  -3   -0.81    0.76
  -7   5  -3    0.61    0.38
   7  -5   3   -0.10    0.70
   7  -5   3    0.88    0.96
  -6   5  -3   -0.13    0.34
  -6   5  -3   -0.58    0.72
   6  -5   3    1.13    0.87
   6  -5   3    0.11    0.66
  -5   5  -3    4.77    0.46
  -5   5  -3    2.80    0.70
   5  -5   3    3.84    0.65
   5  -5   3    2.99    0.84
  -4   5  -3    0.76    0.74
  -4   5  -3    1.03    0.34
   4  -5   3    0.71    0.31
   4  -5   3    0.21    0.76
   4  -5   3    1.15    0.64
  -3   5  -3    3.91    0.66
  -3   5  -3    3.66    0.40
   3  -5   3    3.30    0.78
   3  -5   3    3.65    0.38
  -2   5  -3    2.96    0.37
  -2   5  -3    2.67    0.55
   2  -5   3    2.72    0.73
   2  -5   3    2.85    0.33
  -1   5  -3    4.50    0.56
  -1   5  -3    4.46    0.38
   1  -5   3    4.47    0.64
   1  -5   3    5.25    0.41
   0   5  -3   13.55    0.96
   0   5  -3   14.40    0.86
   0  -5   3   15.04    1.05
   0  -5   3   13.34    0.79
   1   5  -3    1.02    0.52
   1   5  -3    1.87    0.27
  -1  -5   3    1.41    0.26
  -1  -5   3    0.94    0.58
   2   5  -3    6.09    0.44
   2   5  -3    6.03    0.66
  -2  -5   3    5.99    0.42
  -2  -5   3    5.18    0.56
   3   5  -3    6.40    0.65
   3   5  -3    6.67    0.47
  -3  -5   3    7.39    0.60
  -3  -5   3    8.01    0.53
   4   5  -3   15.96    0.95
   4   5  -3   15.54    1.06
  -4  -5   3   16.19    0.98
  -4  -5   3   15.74    0.92
  -5  -5   3   14.73    0.90
  -5  -5   3   17.69    1.02
   6   5  -3   14.66    1.01
   6   5  -3   16.40    1.02
   7   5  -3    1.89    0.58
   7   5  -3    2.59    0.56
  -7  -5   3    2.53    0.36
  -7  -5   3    3.10    0.64
   8   5  -3    2.23    0.78
   8   5  -3    2.15    0.62
  -8  -5   3    1.90    0.39
  -8  -5   3    1.60    0.73
   9   5  -3   -0.20    0.66
   9   5  -3    0.11    0.83
  -9  -5   3    0.21    0.72
  -9  -5   3    0.09    0.40
  10   5  -3    2.30    0.73
  10   5  -3    3.72    0.82
 -10  -5   3    2.60    0.89
 -10  -5   3    3.05    0.46
  11   5  -3    1.55    0.89
  11   5  -3    1.73    0.81
 -11  -5   3    2.12    0.47
 -11  -5   3    2.02    0.97
  12   5  -3    1.55    0.91
  12   5  -3    0.48    0.98
 -12  -5   3   -0.01    1.08
 -12  -5   3   -0.10    0.48
  13   5  -3    0.69    1.26
  13   5  -3    3.63    1.02
 -13  -5   3    2.11    1.28
 -13  -5   3    3.29    0.58
  14   5  -3    0.60    1.31
  14   5  -3   -0.11    1.26
 -14  -5   3   -0.72    0.68
 -14  -5   3   -0.12    1.62
 -15  -5   3    3.13    0.95
 -10   5  -4   91.35    4.97
 -10   5  -4   95.04    5.23
  10  -5   4  114.80    6.33
  10  -5   4  115.00    6.50
  -9   5  -4    4.49    0.53
  -9   5  -4    2.53    0.82
   9  -5   4    4.22    1.34
   9  -5   4    2.43    1.00
  -8   5  -4  132.50    7.22
  -8   5  -4  123.10    6.66
   8  -5   4  143.70    7.82
   8  -5   4  139.40    7.68
  -7   5  -4  166.30    8.97
  -7   5  -4  151.80    8.25
   7  -5   4  157.00    8.53
   7  -5   4  155.30    8.50
   6  -5   4   20.86    1.56
   6  -5   4   24.68    1.55
  -5   5  -4  177.60    9.64
  -5   5  -4  183.10    9.86
   5  -5   4  189.10   10.24
   5  -5   4  180.20    9.81
  -4   5  -4   84.09    4.65
  -4   5  -4   92.03    5.00
   4  -5   4   76.96    4.27
   4  -5   4   83.81    4.69
  -3   5  -4  174.00    9.44
  -3   5  -4  156.20    8.42
   3  -5   4  152.50    8.23
   3  -5   4  163.40    8.90
   3  -5   4  176.60    9.56
  -2   5  -4  408.90   21.98
  -2   5  -4  423.10   22.69
   2  -5   4  408.20   21.96
   2  -5   4  401.60   21.54
   1  -5   4   10.12    0.96
   1  -5   4   11.72    0.73
   0   5  -4  291.20   15.66
   0   5  -4  277.50   14.90
   0  -5   4  286.20   15.40
   0  -5   4  305.40   16.39
   1   5  -4  228.70   12.33
   1   5  -4  231.40   12.43
  -1  -5   4  232.10   12.46
  -1  -5   4  217.10   11.70
   2   5  -4   36.15    2.10
   2   5  -4   36.97    2.04
  -2  -5   4   38.74    2.13
  -2  -5   4   39.11    2.22
   3   5  -4  528.50   28.32
   3   5  -4  498.30   26.74
  -3  -5   4  566.80   30.36
  -3  -5   4  497.00   26.65
   4   5  -4   52.70    2.94
   4   5  -4   49.82    2.73
  -4  -5   4   50.44    2.78
  -4  -5   4   49.91    2.73
   5   5  -4   89.05    4.87
   5   5  -4   85.31    4.63
  -5  -5   4   87.67    4.76
  -5  -5   4   83.26    4.50
   6   5  -4  281.60   15.14
   6   5  -4  301.10   16.19
  -6  -5   4  295.00   15.83
  -6  -5   4  301.30   16.18
   7   5  -4   -0.03    0.67
   7   5  -4    0.74    0.53
  -7  -5   4    0.32    0.31
  -7  -5   4    0.23    0.58
  -8  -5   4  208.10   11.21
   9   5  -4  103.00    5.68
   9   5  -4  106.70    5.84
  -9  -5   4  106.70    5.87
  -9  -5   4  109.40    5.93
  10   5  -4   29.88    1.86
  10   5  -4   30.11    1.88
 -10  -5   4   33.36    1.89
 -10  -5   4   28.94    1.85
  11   5  -4  151.20    8.24
  11   5  -4  148.30    8.08
 -11  -5   4  147.10    7.93
 -11  -5   4  142.60    7.80
  12   5  -4   18.58    1.47
  12   5  -4   17.07    1.40
 -12  -5   4   15.80    1.01
 -12  -5   4   17.58    1.61
  13   5  -4   99.47    5.57
  13   5  -4   89.06    5.02
 -13  -5   4   83.61    4.55
 -13  -5   4   78.95    4.58
  14   5  -4   65.25    3.85
  14   5  -4   62.30    3.68
 -14  -5   4   52.42    3.36
 -14  -5   4   56.42    3.15
  15   5  -4   -0.27    1.51
  15   5  -4    2.00    1.56
 -15  -5   4    0.64    0.79
 -15  -5   4    0.41    2.14
  -9   5  -5    2.53    0.83
  -9   5  -5    2.80    0.51
   9  -5   5    2.15    1.60
   9  -5   5    1.90    0.94
  -8   5  -5   -0.39    0.91
  -8   5  -5   -0.08    0.42
   8  -5   5    0.10    0.97
   8  -5   5   -0.66    1.26
  -7   5  -5    6.33    0.57
  -7   5  -5    6.91    0.85
   7  -5   5    6.11    1.22
   7  -5   5    5.66    0.85
  -6   5  -5    0.92    0.72
  -6   5  -5    1.60    0.40
   6  -5   5    0.59    1.06
   6  -5   5    0.39    0.70
  -5   5  -5    2.84    0.41
  -5   5  -5    2.26    0.66
   5  -5   5    1.63    0.99
   5  -5   5    1.44    0.65
  -4   5  -5    1.70    0.38
  -4   5  -5    1.78    0.73
   4  -5   5    1.84    0.83
   4  -5   5    1.80    0.88
  -3   5  -5    0.16    0.71
  -3   5  -5    0.05    0.36
   3  -5   5    0.71    0.61
   3  -5   5   -0.83    0.85
  -2   5  -5    0.10    0.34
  -2   5  -5    0.20    0.69
   2  -5   5    0.60    0.57
   2  -5   5    0.09    0.78
   2  -5   5    0.63    0.33
  -1   5  -5    4.44    0.44
  -1   5  -5    3.80    0.63
   1  -5   5    4.58    0.90
   1  -5   5    4.55    0.44
   0   5  -5    1.38    0.32
   0   5  -5    1.57    0.58
   0  -5   5    1.43    0.29
   0  -5   5    0.54    0.72
   1   5  -5   -0.08    0.29
   1   5  -5    0.54    0.52
  -1  -5   5    0.52    0.60
  -1  -5   5    0.53    0.25
   2   5  -5    5.17    0.67
   2   5  -5    4.41    0.39
  -2  -5   5    4.57    0.38
  -2  -5   5    4.46    0.72
   3   5  -5   13.68    1.01
   3   5  -5   14.43    0.87
   4   5  -5    2.05    0.32
   4   5  -5    0.90    0.57
  -4  -5   5    1.86    0.30
  -4  -5   5    1.54    0.51
   5   5  -5   17.88    1.05
   5   5  -5   15.99    1.11
  -5  -5   5   17.05    1.08
  -5  -5   5   15.00    0.88
   6   5  -5    4.07    0.80
   6   5  -5    4.94    0.53
  -6  -5   5    3.92    0.54
  -6  -5   5    4.66    0.42
   7   5  -5    7.31    0.70
   7   5  -5    9.04    1.05
  -7  -5   5   10.45    0.71
  -7  -5   5    8.47    0.83
   8   5  -5   13.52    1.03
   8   5  -5   14.38    1.33
  -8  -5   5   13.57    1.05
  -8  -5   5   12.96    0.83
   9   5  -5    3.73    1.12
  -9  -5   5    4.99    0.52
  -9  -5   5    4.81    0.94
  10   5  -5    2.10    0.90
  10   5  -5    2.58    0.83
 -10  -5   5    2.84    0.48
 -10  -5   5    3.25    0.88
  11   5  -5    0.23    0.91
  11   5  -5    0.05    0.95
 -11  -5   5    0.14    0.99
 -11  -5   5    0.07    0.45
  12   5  -5   10.62    1.33
  12   5  -5   11.38    1.25
 -12  -5   5   12.54    0.90
 -12  -5   5    9.88    1.26
  13   5  -5    3.69    1.17
  13   5  -5    4.82    1.38
  14   5  -5    7.79    1.64
  14   5  -5    6.76    1.46
 -14  -5   5    4.27    1.76
 -14  -5   5    6.80    0.76
  15   5  -5    2.36    1.54
  15   5  -5    2.57    1.77
 -15  -5   5    1.22    0.93
 -15  -5   5   -0.12    2.51
  -8   5  -6    3.10    0.52
  -8   5  -6    1.60    0.74
   8  -5   6   -0.82    0.88
   8  -5   6    0.30    1.48
  -7   5  -6  113.10    6.20
  -7   5  -6  113.10    6.13
   7  -5   6  129.00    7.06
   7  -5   6  126.20    7.02
  -6   5  -6  106.50    5.85
  -6   5  -6   98.43    5.35
   6  -5   6  107.00    5.98
   6  -5   6  112.40    6.15
   5  -5   6   24.59    1.58
   5  -5   6   23.90    1.80
  -4   5  -6  159.60    8.66
  -4   5  -6  162.60    8.76
   4  -5   6  163.50    8.94
   4  -5   6  169.70    9.20
  -3   5  -6   60.63    3.33
  -3   5  -6   53.37    3.06
   3  -5   6   49.58    2.88
   3  -5   6   51.31    3.02
  -2   5  -6  192.30   10.36
  -2   5  -6  198.80   10.76
   2  -5   6  193.30   10.51
   2  -5   6  199.70   10.80
  -1   5  -6  217.00   11.67
  -1   5  -6  198.80   10.75
   1  -5   6  193.20   10.45
   1  -5   6  203.70   11.06
   0   5  -6    1.64    0.35
   0   5  -6    0.74    0.70
   0  -5   6    1.63    0.34
   0  -5   6   -0.09    0.66
   0  -5   6    0.39    0.92
   1   5  -6  165.80    8.94
   1   5  -6  178.30    9.66
  -1  -5   6  150.60    8.12
  -1  -5   6  156.10    8.49
   2   5  -6   70.71    3.90
   2   5  -6   65.02    3.55
  -2  -5   6   65.78    3.68
  -2  -5   6   67.70    3.68
   3   5  -6   91.47    4.96
   3   5  -6   83.77    4.60
  -3  -5   6   88.35    4.85
  -3  -5   6   78.67    4.27
   4   5  -6  302.20   16.22
   4   5  -6  297.30   16.01
  -4  -5   6  274.50   14.74
  -4  -5   6  274.80   14.78
   5   5  -6   20.82    1.44
   5   5  -6   20.10    1.19
   6   5  -6  107.60    5.95
   6   5  -6  111.60    6.05
  -6  -5   6  116.10    6.32
  -6  -5   6  113.00    6.11
   7   5  -6  150.80    8.15
   7   5  -6  135.70    7.43
  -7  -5   6  149.00    8.03
  -7  -5   6  143.10    7.75
   8   5  -6   27.53    1.65
   8   5  -6   27.38    1.91
  -8  -5   6   27.51    1.70
  -8  -5   6   29.33    1.67
   9   5  -6  149.40    8.12
   9   5  -6  165.40    9.04
  -9  -5   6  157.20    8.47
  -9  -5   6  154.00    8.37
  10   5  -6   35.27    2.44
  11   5  -6   60.20    3.44
  11   5  -6   63.68    3.78
  12   5  -6  117.90    6.49
  12   5  -6  108.30    6.06
 -12  -5   6  108.50    5.88
 -12  -5   6  111.80    6.25
  13   5  -6    2.84    1.25
  13   5  -6    1.98    1.49
 -13  -5   6    1.82    1.43
 -13  -5   6    1.46    0.57
  14   5  -6   74.51    4.40
  14   5  -6   77.45    4.48
 -14  -5   6   64.48    3.56
 -14  -5   6   74.48    4.57
  -7   5  -7    3.39    0.85
  -7   5  -7    2.78    0.50
   7  -5   7    1.81    0.98
   7  -5   7    2.72    1.51
  -6   5  -7    2.54    0.80
  -6   5  -7    3.87    0.53
   6  -5   7    4.41    1.44
   6  -5   7    2.12    1.00
  -5   5  -7    8.87    0.70
  -5   5  -7    8.12    1.00
   5  -5   7    7.64    1.03
   5  -5   7    9.59    1.33
  -4   5  -7    5.46    0.94
  -4   5  -7    6.47    0.59
   4  -5   7    6.49    0.85
   4  -5   7    4.99    1.18
  -3   5  -7    2.35    0.46
  -3   5  -7    1.90    0.82
   3  -5   7    1.45    1.09
   3  -5   7    0.74    0.80
  -2   5  -7    1.90    0.44
  -2   5  -7    1.11    0.66
   2  -5   7    1.61    0.85
   2  -5   7    1.97    1.06
  -1   5  -7   18.13    1.10
  -1   5  -7   16.29    1.24
   1  -5   7   14.67    1.29
   1  -5   7   14.70    1.19
   0   5  -7    0.37    0.72
   0   5  -7    1.66    0.38
   0  -5   7    0.83    0.96
   0  -5   7    0.68    0.74
   1   5  -7    6.55    0.95
   1   5  -7    8.21    0.63
  -1  -5   7    8.09    0.63
  -1  -5   7    6.36    1.05
  -2  -5   7    9.19    1.23
  -2  -5   7    8.67    0.63
  -3  -5   7    2.37    1.02
  -3  -5   7    0.25    0.32
   4   5  -7    4.74    0.50
   4   5  -7    5.57    0.95
  -4  -5   7    5.26    0.48
  -4  -5   7    3.58    0.87
   5   5  -7    2.88    0.85
   5   5  -7    2.42    0.43
  -5  -5   7    2.54    0.78
  -5  -5   7    2.53    0.37
   6   5  -7    1.32    0.44
   6   5  -7    2.12    1.03
  -6  -5   7    1.35    0.36
  -6  -5   7    1.50    0.68
   7   5  -7    1.90    1.01
   7   5  -7    0.34    0.50
  -7  -5   7    1.04    0.35
  -7  -5   7    0.73    0.65
   8   5  -7    0.33    0.57
   8   5  -7   -1.64    1.21
  -8  -5   7    0.46    0.38
  -8  -5   7   -0.12    0.67
   9   5  -7    2.97    1.30
   9   5  -7    2.59    0.64
  -9  -5   7    1.92    0.85
  -9  -5   7    2.26    0.45
  10   5  -7    5.46    1.44
  10   5  -7    4.50    0.83
 -10  -5   7    4.45    0.95
 -10  -5   7    4.36    0.53
  11   5  -7   -0.71    1.01
  11   5  -7   -0.09    1.65
 -11  -5   7   -0.16    0.49
  12   5  -7    3.34    1.90
  12   5  -7    1.31    0.98
 -12  -5   7    0.87    0.51
 -12  -5   7    1.71    1.34
  13   5  -7    0.62    1.39
  13   5  -7    0.79    2.11
 -13  -5   7    0.53    0.57
 -13  -5   7   -0.50    1.54
  14   5  -7   -3.26    2.58
  14   5  -7    0.32    1.52
 -14  -5   7    0.41    2.14
 -14  -5   7    0.36    0.72
  -6   5  -8  107.40    5.89
  -6   5  -8   97.52    5.30
   6  -5   8  130.10    7.32
   6  -5   8  131.50    7.23
  -5   5  -8   62.16    3.42
  -5   5  -8   56.64    3.21
   5  -5   8   59.32    3.42
   5  -5   8   60.73    3.70
  -4   5  -8   42.27    2.49
  -4   5  -8   38.22    2.16
   4  -5   8   41.16    2.71
   4  -5   8   47.38    2.81
  -3   5  -8  164.40    8.94
  -3   5  -8  156.60    8.45
   3  -5   8  154.40    8.49
   3  -5   8  169.10    9.21
  -2   5  -8    5.71    0.56
  -2   5  -8    3.17    0.89
   2  -5   8    3.86    1.18
   2  -5   8    3.14    0.92
  -1   5  -8  141.30    7.70
  -1   5  -8  155.30    8.38
   1  -5   8  150.80    8.22
   1  -5   8  141.20    7.77
   0   5  -8  128.60    6.96
   0   5  -8  115.80    6.37
   1   5  -8   14.98    0.96
   1   5  -8   17.69    1.40
  -1  -5   8   19.45    1.68
  -1  -5   8   18.99    1.42
   2   5  -8  259.50   13.95
   2   5  -8  245.80   13.31
  -2  -5   8  221.20   12.02
  -2  -5   8  218.00   11.80
   3   5  -8   77.26    4.34
   3   5  -8   85.37    4.66
  -3  -5   8   77.16    4.52
  -3  -5   8   63.58    3.58
  -3  -5   8   69.63    3.81
   4   5  -8   74.01    4.04
   4   5  -8   73.77    4.15
  -4  -5   8   69.69    3.80
  -4  -5   8   71.94    4.06
   5   5  -8  137.40    7.41
   5   5  -8  148.00    8.09
  -5  -5   8  135.10    7.29
  -5  -5   8  140.30    7.64
   6   5  -8    4.06    0.56
   6   5  -8    4.15    1.01
  -6  -5   8    4.06    0.43
  -6  -5   8    3.51    0.81
   7   5  -8  214.50   11.56
   7   5  -8  210.10   11.40
  -7  -5   8  223.20   12.01
  -7  -5   8  217.70   11.74
   8   5  -8  141.10    7.65
   8   5  -8  135.00    7.41
  -8  -5   8  133.00    7.17
  -8  -5   8  144.80    7.87
   9   5  -8    7.70    0.76
   9   5  -8    8.60    1.24
  10   5  -8   91.99    5.07
  10   5  -8   85.17    4.84
 -10  -5   8   93.73    5.08
 -10  -5   8   79.49    4.43
  11   5  -8   14.00    1.30
  11   5  -8   12.06    1.60
 -11  -5   8   11.63    0.79
 -11  -5   8   13.75    1.39
  12   5  -8   63.88    3.77
  12   5  -8   62.09    3.78
 -12  -5   8   55.81    3.06
 -12  -5   8   47.54    3.02
  13   5  -8   95.26    5.50
  13   5  -8   78.54    4.68
  -5   5  -9    0.80    0.61
  -5   5  -9   -0.33    0.98
   5  -5   9   -0.63    1.84
   5  -5   9    0.41    1.23
  -4   5  -9    1.70    0.62
  -4   5  -9    0.09    0.95
   4  -5   9    1.35    1.57
   4  -5   9    1.22    1.06
  -3   5  -9    7.62    1.09
  -3   5  -9    9.46    0.80
   3  -5   9    6.97    1.62
   3  -5   9    9.35    1.23
  -2   5  -9    0.79    0.52
  -2   5  -9    0.82    0.93
   2  -5   9    0.11    1.50
   2  -5   9    2.15    0.99
  -1   5  -9    3.89    0.54
  -1   5  -9    2.61    0.79
   1  -5   9    2.10    1.30
   1  -5   9    1.60    0.94
   0   5  -9    2.96    0.50
   0   5  -9    2.07    0.85
   0  -5   9    3.52    1.50
   0  -5   9    0.04    0.86
   1   5  -9    0.89    0.82
   1   5  -9   -0.19    0.41
  -1  -5   9    1.37    1.34
  -1  -5   9    0.30    0.80
   2   5  -9   13.04    0.88
   2   5  -9   12.56    1.12
  -2  -5   9   12.66    1.43
  -2  -5   9    9.60    1.07
  -3  -5   9    0.62    1.37
  -3  -5   9    0.75    0.95
   4   5  -9    5.18    0.56
   4   5  -9    3.72    0.93
  -4  -5   9    4.55    1.29
  -4  -5   9    2.57    0.93
   5   5  -9    7.02    1.03
   5   5  -9    7.75    0.65
  -5  -5   9    7.12    1.14
  -5  -5   9    5.77    0.93
   6   5  -9    7.88    0.69
   6   5  -9    6.80    1.00
  -6  -5   9    9.69    0.67
  -6  -5   9    7.41    1.02
   7   5  -9    1.84    0.52
   7   5  -9    2.36    0.88
  -7  -5   9    3.52    0.41
  -7  -5   9    1.48    0.80
   8   5  -9    5.76    0.65
   8   5  -9    5.24    1.03
  -8  -5   9    7.53    0.54
  -8  -5   9    5.43    0.80
   9   5  -9   -0.11    0.94
   9   5  -9    0.04    0.62
  -9  -5   9    0.20    0.37
  -9  -5   9    0.09    0.79
  10   5  -9    1.22    0.73
  10   5  -9    0.58    0.87
 -10  -5   9   -0.95    0.88
 -10  -5   9    1.07    0.34
 -11  -5   9    1.67    0.36
 -11  -5   9    0.27    1.03
 -12  -5   9    0.17    0.41
 -12  -5   9   -1.24    1.38
 -13  -5   9   -0.85    1.93
 -13  -5   9   -0.17    0.52
  -4   5 -10   13.13    1.26
   4  -5  10   13.52    1.70
  -3   5 -10   44.81    2.66
  -3   5 -10   43.36    2.45
   3  -5  10   55.78    3.33
   3  -5  10   51.35    3.47
  -2   5 -10  145.30    7.85
  -2   5 -10  132.50    7.24
   2  -5  10  146.70    8.03
   2  -5  10  136.70    7.63
  -1   5 -10    3.26    0.57
  -1   5 -10    1.45    0.96
   1  -5  10    1.31    1.05
   1  -5  10    1.68    1.68
   0   5 -10   74.31    4.07
   0   5 -10   81.57    4.56
   0  -5  10   82.02    4.60
   0  -5  10   88.53    5.16
   1   5 -10   56.21    3.10
   1   5 -10   62.21    3.57
  -1  -5  10   63.10    3.65
  -1  -5  10   65.16    3.91
   2   5 -10   37.41    2.12
   2   5 -10   37.78    2.35
  -2  -5  10   35.80    2.22
  -2  -5  10   31.18    2.27
   3   5 -10  170.60    9.28
   3   5 -10  166.70    8.99
  -3  -5  10  157.60    8.59
  -3  -5  10  166.20    9.18
   4   5 -10   13.08    1.33
   4   5 -10   14.47    0.99
  -4  -5  10   12.32    1.65
   5   5 -10   76.24    4.17
   5   5 -10   70.89    4.02
  -5  -5  10   74.53    4.28
  -5  -5  10   84.32    4.73
   6   5 -10   87.06    4.85
   6   5 -10   96.72    5.26
  -6  -5  10   83.72    4.65
  -6  -5  10   90.98    5.07
   7   5 -10    0.81    0.47
   7   5 -10    0.54    0.88
  -7  -5  10    0.24    0.86
  -7  -5  10    1.52    0.85
   8   5 -10   94.02    5.14
   8   5 -10  101.00    5.53
  -8  -5  10  106.40    5.82
  -8  -5  10  101.50    5.56
  -2   5 -11    4.85    0.72
  -2   5 -11    5.41    1.14
   2  -5  11    4.60    2.19
   2  -5  11    3.32    1.49
  -1   5 -11   -0.70    0.96
  -1   5 -11    1.55    0.62
   1  -5  11    1.63    1.26
   1  -5  11   -1.53    2.16
   0   5 -11    4.00    0.64
   0   5 -11    2.92    1.00
   0  -5  11    2.81    1.27
   0  -5  11    4.08    1.99
   1   5 -11    5.32    0.65
   1   5 -11    4.83    1.10
  -1  -5  11    3.12    1.14
  -1  -5  11    4.20    1.87
   2   5 -11    8.80    0.79
   2   5 -11    5.92    1.19
  -2  -5  11    7.63    1.76
  -2  -5  11    6.12    1.18
   3   5 -11    1.42    0.99
   3   5 -11    1.11    0.60
  -3  -5  11    1.14    1.13
  -3  -5  11    0.88    1.84
   4   5 -11    2.27    0.63
   4   5 -11    2.59    1.07
  -4  -5  11    1.21    1.13
  -4  -5  11    3.23    1.69
   5   5 -11    0.41    0.59
   5   5 -11    0.30    1.10
  -5  -5  11    0.67    1.09
  -5  -5  11    2.12    1.70
   6   5 -11    1.11    0.61
   6   5 -11    1.28    0.97
  -6  -5  11    0.38    1.19
  -6  -5  11    1.53    1.01
   7   5 -11    0.77    0.80
   7   5 -11    0.87    0.58
  -7  -5  11    0.11    0.90
  -7  -5  11   -0.02    0.94
  -1   5 -12   54.71    3.03
  -1   5 -12   56.21    3.31
   1  -5  12   65.10    4.20
   1  -5  12   63.97    4.36
   0   5 -12    5.15    0.67
   0   5 -12    6.84    1.16
   0  -5  12    6.92    1.89
   0  -5  12   11.48    2.48
   1   5 -12   85.19    4.64
   1   5 -12   87.75    4.93
  -1  -5  12   89.77    5.38
  -1  -5  12   91.86    5.30
   2   5 -12   43.64    2.67
   2   5 -12   39.85    2.27
  -2  -5  12   36.09    2.47
  -2  -5  12   35.76    2.82
   3   5 -12   35.69    2.05
   3   5 -12   32.48    2.15
  -3  -5  12   34.65    2.39
  -3  -5  12   37.02    3.00
   4   5 -12   81.23    4.44
   4   5 -12   77.04    4.37
  -4  -5  12   64.86    3.80
  -4  -5  12   80.01    4.89
   5   5 -12    2.86    0.71
   5   5 -12    2.37    1.14
  -5  -5  12    2.62    1.30
  -5  -5  12    3.33    2.03
   6   5 -12   58.69    3.39
   6   5 -12   68.20    3.78
  -6  -5  12   66.56    3.99
  -6  -5  12   64.91    3.76
   1   5 -13    0.29    0.76
   1   5 -13   -0.88    1.34
  -1  -5  13    1.75    2.78
  -1  -5  13   -0.96    2.38
   2   5 -13    0.80    1.43
   2   5 -13    3.68    0.77
  -2  -5  13    1.84    2.26
  -2  -5  13    4.34    2.59
   3   5 -13   -0.58    1.40
   3   5 -13    0.44    0.76
  -3  -5  13    3.20    3.05
  -3  -5  13   -2.81    1.88
   4   5 -13    2.78    0.95
   4   5 -13    0.14    1.41
  -4  -5  13   -1.41    2.76
  -4  -5  13   -1.56    1.90
  -5  -5  13    0.85    1.97
  -6   6  12   -0.13    1.89
  -6   6  12   -1.53    2.02
   6  -6 -12    2.70    1.84
   6  -6 -12    0.60    0.55
  -5   6  12    3.58    1.84
  -5   6  12    4.60    2.15
   5  -6 -12    5.35    1.99
   5  -6 -12    3.18    0.74
  -4   6  12    2.47    2.15
  -4   6  12    0.69    1.66
   4  -6 -12    0.41    0.65
   4  -6 -12    0.43    1.53
  -3   6  12    0.26    1.81
  -3   6  12   -0.48    1.93
   3  -6 -12    0.01    0.67
   3  -6 -12   -1.91    1.62
  -2   6  12    1.39    1.54
  -2   6  12    0.95    1.75
   2  -6 -12    1.64    1.83
   2  -6 -12    1.73    0.71
  -1   6  12    0.42    1.87
  -1   6  12    1.75    1.76
   1  -6 -12   -1.54    1.89
   1  -6 -12    0.83    0.70
   0   6  12    2.47    2.19
   0   6  12    2.92    1.87
   0  -6 -12    2.73    0.77
   0  -6 -12    2.05    1.79
  -7   6  11   62.74    3.63
  -7   6  11   61.47    3.68
   7  -6 -11   68.07    3.91
   7  -6 -11   64.22    3.51
  -6   6  11   -0.83    1.26
  -6   6  11   -1.00    1.59
   6  -6 -11    0.00    0.51
   6  -6 -11   -0.23    1.41
  -5   6  11   93.14    5.37
  -5   6  11   92.24    5.20
   5  -6 -11   99.58    5.55
   5  -6 -11   84.52    4.61
  -4   6  11   48.23    3.15
  -4   6  11   44.96    2.80
   4  -6 -11   47.20    2.85
   4  -6 -11   46.85    2.61
  -3   6  11   24.49    1.89
  -3   6  11   26.31    2.13
   3  -6 -11   23.59    1.43
   3  -6 -11   24.34    1.83
  -2   6  11  108.90    6.06
  -2   6  11  108.00    6.03
  -1   6  11    7.85    1.49
  -1   6  11    6.04    1.58
   1  -6 -11    7.39    1.39
   1  -6 -11    6.41    0.70
   0   6  11   49.31    3.09
   0   6  11   50.14    3.18
   0  -6 -11   45.50    2.89
   0  -6 -11   44.64    2.50
   1   6  11   87.69    5.07
   1   6  11   80.20    4.64
  -1  -6 -11   80.99    4.42
  -1  -6 -11   79.88    4.68
   2   6  11    1.77    1.53
   2   6  11    1.67    1.59
  -2  -6 -11    1.90    0.71
  -2  -6 -11   -0.66    1.81
  -8   6  10    1.11    0.89
  -8   6  10   -0.69    1.08
   8  -6 -10    0.62    0.33
   8  -6 -10    0.16    0.92
  -7   6  10    1.35    0.92
  -7   6  10   -0.71    1.37
   7  -6 -10    0.23    0.39
   7  -6 -10   -0.04    0.96
  -6   6  10    1.76    1.02
  -6   6  10    0.78    1.43
   6  -6 -10    1.34    1.04
   6  -6 -10    1.27    0.48
  -5   6  10    2.07    1.51
  -5   6  10    2.17    1.06
   5  -6 -10    2.15    0.98
   5  -6 -10    1.63    0.61
  -4   6  10    0.41    1.10
  -4   6  10    1.18    1.47
   4  -6 -10    0.10    1.00
   4  -6 -10    1.42    0.53
  -3   6  10   -1.68    1.30
  -3   6  10   -0.01    1.16
   3  -6 -10    0.60    0.52
   3  -6 -10    0.05    0.93
  -2   6  10    0.31    1.20
  -2   6  10    0.31    1.24
   2  -6 -10    1.08    0.48
   2  -6 -10    1.74    1.04
  -1   6  10    5.69    1.30
  -1   6  10    6.83    1.27
   1  -6 -10    5.03    1.10
   1  -6 -10    6.16    0.65
   0   6  10    5.24    1.30
   0   6  10    2.57    1.23
   0  -6 -10    4.37    0.58
   0  -6 -10    2.87    1.26
   1   6  10    2.12    1.17
   1   6  10    1.18    1.26
  -1  -6 -10    1.37    0.57
  -1  -6 -10    2.79    1.27
   2   6  10   -0.72    1.37
   2   6  10    0.23    1.08
  -2  -6 -10    0.65    0.59
  -2  -6 -10   -0.09    1.43
   3   6  10   -2.10    1.64
   3   6  10    1.18    1.27
  -3  -6 -10    0.21    0.66
  -3  -6 -10    2.13    1.47
 -12   6   9   46.84    2.73
 -12   6   9   47.71    2.84
 -11   6   9   26.51    1.82
 -11   6   9   23.62    1.50
 -10   6   9   20.04    1.35
 -10   6   9   21.84    1.58
  10  -6  -9   20.94    1.57
  10  -6  -9   25.24    1.70
   9  -6  -9   81.87    4.55
   9  -6  -9   92.79    5.13
  -8   6   9    7.75    0.88
  -8   6   9    5.87    1.21
  -7   6   9  117.10    6.39
  -7   6   9  108.30    6.04
   7  -6  -9  114.70    6.21
   7  -6  -9  115.00    6.28
  -6   6   9   94.27    5.36
  -6   6   9   81.69    4.51
   6  -6  -9   82.21    4.48
   6  -6  -9   86.26    4.80
  -5   6   9   17.61    1.66
  -5   6   9   17.85    1.38
   5  -6  -9   17.65    1.11
   5  -6  -9   16.90    1.38
  -4   6   9  149.80    8.23
  -4   6   9  131.10    7.18
   4  -6  -9  136.90    7.46
  -3   6   9   50.64    3.02
  -3   6   9   49.49    2.91
   3  -6  -9   49.79    2.76
   3  -6  -9   48.76    2.84
  -2   6   9   82.89    4.67
  -2   6   9   75.12    4.22
   2  -6  -9   74.97    4.19
   2  -6  -9   66.00    3.61
  -1   6   9  139.80    7.67
  -1   6   9  144.40    7.90
   1  -6  -9  141.40    7.71
   1  -6  -9  138.30    7.46
   0   6   9   -0.01    0.99
   0   6   9    1.05    1.12
   0  -6  -9    0.29    0.44
   0  -6  -9   -0.21    0.95
   1   6   9  140.00    7.70
   1   6   9  137.20    7.48
  -1  -6  -9  139.70    7.65
  -1  -6  -9  137.70    7.44
   2   6   9  101.60    5.67
   2   6   9  110.90    6.11
  -2  -6  -9  114.60    6.21
  -2  -6  -9  120.90    6.68
  -3  -6  -9   18.57    1.22
  -3  -6  -9   15.24    1.55
   4   6   9  108.50    5.98
   4   6   9  113.00    6.31
  -4  -6  -9  102.80    5.60
  -4  -6  -9  110.70    6.21
 -13   6   8   -1.50    1.90
 -13   6   8   -0.44    0.97
  13  -6  -8    1.28    1.91
  13  -6  -8   -2.66    1.91
 -12   6   8    4.65    1.27
 -12   6   8    5.32    0.85
  12  -6  -8    8.64    1.57
  12  -6  -8    3.68    1.41
 -11   6   8    4.30    1.17
 -11   6   8    4.92    0.73
  11  -6  -8    6.16    1.31
  11  -6  -8    4.42    1.25
 -10   6   8   -0.25    0.94
 -10   6   8   -0.25    0.64
  10  -6  -8   -0.03    1.07
  10  -6  -8    0.02    0.96
  -9   6   8    4.00    1.03
  -9   6   8    5.70    0.76
   9  -6  -8    5.83    0.53
   9  -6  -8    5.04    0.87
   9  -6  -8    4.73    1.03
  -8   6   8    0.03    1.16
  -8   6   8    0.86    0.63
   8  -6  -8    0.79    0.83
   8  -6  -8    0.84    0.36
  -7   6   8   -0.45    1.26
  -7   6   8    0.02    0.67
   7  -6  -8    0.44    0.42
   7  -6  -8    0.19    0.81
  -6   6   8   10.10    0.97
  -6   6   8    9.53    1.41
   6  -6  -8    9.79    0.98
   6  -6  -8    9.09    0.70
  -5   6   8   -0.50    1.20
  -5   6   8    0.46    0.71
   5  -6  -8   -0.23    0.42
   5  -6  -8    0.28    0.83
  -4   6   8    9.38    1.31
  -4   6   8    7.47    0.94
   4  -6  -8    8.70    1.03
   4  -6  -8    7.99    0.68
  -3   6   8    7.79    1.26
  -3   6   8    7.10    0.91
   3  -6  -8    6.43    0.95
   3  -6  -8    8.23    0.68
  -2   6   8   -0.36    0.84
  -2   6   8   -0.16    0.93
   2  -6  -8    0.85    0.81
   2  -6  -8    0.31    0.42
  -1   6   8    0.42    0.86
  -1   6   8    0.22    0.94
   1  -6  -8    0.49    0.43
   1  -6  -8    0.08    0.72
   0   6   8   -1.02    0.92
   0   6   8   -1.37    0.99
   0  -6  -8   -0.19    0.42
   0  -6  -8    0.78    0.83
   1   6   8    7.56    0.95
   1   6   8    7.17    1.13
  -1  -6  -8    7.27    0.64
  -1  -6  -8    4.60    0.94
   2   6   8    3.13    0.90
   2   6   8    5.14    1.15
   3   6   8    0.15    1.01
   3   6   8    1.11    0.96
  -3  -6  -8    0.01    0.60
  -3  -6  -8    0.27    1.09
   4   6   8    3.51    1.12
   4   6   8    1.96    1.02
  -4  -6  -8    2.85    0.61
  -4  -6  -8    1.25    1.12
   5   6   8    5.01    1.30
   5   6   8    6.05    1.15
  -5  -6  -8    5.55    0.70
  -5  -6  -8    6.95    1.36
  13  -6  -7   42.16    2.92
  13  -6  -7   35.95    2.59
 -12   6   7    9.31    1.48
 -12   6   7    7.85    0.92
  12  -6  -7    9.77    1.54
  12  -6  -7    9.29    1.54
 -11   6   7  145.90    7.99
 -11   6   7  151.20    8.18
  11  -6  -7  145.10    7.97
  11  -6  -7  143.70    7.89
 -10   6   7   46.88    2.64
 -10   6   7   46.18    2.86
  10  -6  -7   45.37    2.84
  10  -6  -7   48.47    2.96
  -9   6   7   69.43    3.99
  -9   6   7   72.37    3.98
   9  -6  -7   71.45    3.90
   9  -6  -7   71.09    4.07
   9  -6  -7   70.56    3.99
  -8   6   7  179.40    9.78
  -8   6   7  190.50   10.28
   8  -6  -7  203.10   10.99
   8  -6  -7  208.60   11.23
  -7   6   7   -0.13    0.54
  -7   6   7    0.38    1.15
   7  -6  -7    0.77    0.40
   7  -6  -7    0.40    0.79
  -6   6   7  151.40    8.19
  -6   6   7  160.30    8.77
   6  -6  -7  155.40    8.42
   6  -6  -7  150.80    8.14
   5  -6  -7  177.80    9.59
   5  -6  -7  172.90    9.36
  -4   6   7   32.15    2.10
  -4   6   7   31.90    1.90
   4  -6  -7   28.89    1.79
   4  -6  -7   32.77    1.87
  -3   6   7  238.20   12.91
  -3   6   7  235.70   12.75
   3  -6  -7  252.50   13.63
   3  -6  -7  226.90   12.22
  -2   6   7   48.82    2.82
  -2   6   7   53.09    3.13
   2  -6  -7   53.62    2.98
   2  -6  -7   56.21    3.19
  -1   6   7   99.12    5.47
  -1   6   7   99.20    5.47
   1  -6  -7  103.50    5.67
   1  -6  -7  101.80    5.53
   0   6   7  202.80   10.98
   0   6   7  196.10   10.63
   0  -6  -7  212.30   11.47
   0  -6  -7  183.30    9.87
   1   6   7    0.58    0.78
   1   6   7    0.71    0.79
  -1  -6  -7    1.35    0.44
  -1  -6  -7    0.65    0.71
   2   6   7  161.60    8.80
   2   6   7  155.70    8.46
  -2  -6  -7  141.10    7.68
  -2  -6  -7  163.00    8.80
   3   6   7   70.45    3.93
   3   6   7   66.00    3.74
  -3  -6  -7   62.82    3.55
  -3  -6  -7   63.91    3.53
   5   6   7  139.10    7.61
   5   6   7  152.10    8.26
  -5  -6  -7  142.60    7.80
  -5  -6  -7  140.20    7.58
   6   6   7    9.32    1.12
   6   6   7    7.80    1.27
  -6  -6  -7    9.64    1.31
  -6  -6  -7    6.20    0.68
 -14   6   6    0.33    0.82
 -14   6   6    0.34    1.46
  14  -6  -6    2.65    2.41
  14  -6  -6   -0.03    2.00
 -13   6   6    1.74    1.33
 -13   6   6    0.91    0.67
  13  -6  -6    3.76    2.03
  13  -6  -6    0.36    1.47
 -12   6   6    2.92    0.65
 -12   6   6    2.59    1.23
  12  -6  -6    2.55    1.53
  12  -6  -6    1.46    1.21
 -11   6   6    0.82    0.67
 -11   6   6    1.62    1.16
  11  -6  -6    2.18    1.11
  11  -6  -6    1.30    1.37
 -10   6   6    3.47    1.09
 -10   6   6    3.01    0.66
  10  -6  -6    0.67    1.18
  10  -6  -6    4.42    1.20
  -9   6   6    0.40    0.52
  -9   6   6    0.07    1.14
   9  -6  -6   -0.13    0.41
   9  -6  -6    0.11    1.01
  -8   6   6    6.33    0.60
  -8   6   6    5.97    1.21
   8  -6  -6    6.04    1.02
   8  -6  -6    5.22    0.51
  -7   6   6    6.69    1.13
  -7   6   6    5.66    0.60
   7  -6  -6    5.81    0.54
   7  -6  -6    5.35    0.87
  -6   6   6    3.76    0.55
  -6   6   6    5.38    1.07
   6  -6  -6    2.89    0.46
   6  -6  -6    4.16    0.78
  -5   6   6   14.39    0.98
  -5   6   6   15.78    1.43
   5  -6  -6   15.19    0.97
   5  -6  -6   15.55    1.15
  -4   6   6    0.39    0.56
  -4   6   6    1.43    0.94
   4  -6  -6    1.02    0.63
   4  -6  -6    1.24    0.37
  -3   6   6    0.66    0.52
  -3   6   6   -0.39    0.96
   3  -6  -6    0.60    0.34
   3  -6  -6    1.12    0.63
  -2   6   6    2.18    0.66
  -2   6   6    0.52    0.83
   2  -6  -6    2.46    0.67
   2  -6  -6    1.44    0.34
  -1   6   6    0.07    0.56
  -1   6   6   -0.03    0.75
   1  -6  -6    0.04    0.38
   1  -6  -6   -0.11    0.62
   0   6   6   18.16    1.22
   0   6   6   19.84    1.37
   0  -6  -6   16.86    1.17
   0  -6  -6   18.68    1.13
   1   6   6    0.63    0.63
   1   6   6    1.14    0.68
  -1  -6  -6    1.22    0.70
  -1  -6  -6    0.80    0.38
   2   6   6    0.76    0.72
   2   6   6    1.34    0.68
  -2  -6  -6    0.82    0.41
  -2  -6  -6    0.82    0.65
   3   6   6    1.60    0.78
   3   6   6    0.94    0.69
  -3  -6  -6    1.16    0.64
  -3  -6  -6    1.30    0.46
   4   6   6    0.61    0.85
   4   6   6    0.73    0.75
  -4  -6  -6    0.72    0.46
  -4  -6  -6    1.08    0.70
   5   6   6   16.65    1.28
   5   6   6   16.75    1.34
  -5  -6  -6   17.16    1.11
  -5  -6  -6   13.60    1.22
   6   6   6    0.40    0.83
   6   6   6    0.62    0.83
  -6  -6  -6    0.57    0.98
  -6  -6  -6    1.25    0.55
   7   6   6    3.46    1.12
   7   6   6    2.10    1.03
  -7  -6  -6    1.96    0.58
  -7  -6  -6    1.15    0.96
 -14   6   5    2.29    1.48
 -14   6   5    3.76    0.74
  14  -6  -5   -0.84    1.71
  14  -6  -5    3.41    2.18
 -13   6   5   90.45    5.10
 -13   6   5   90.41    4.94
  13  -6  -5  107.70    6.19
  13  -6  -5  105.00    5.90
 -12   6   5   61.36    3.41
 -12   6   5   56.99    3.40
  12  -6  -5   62.11    3.64
  12  -6  -5   61.72    3.80
 -11   6   5    8.55    0.79
 -11   6   5   10.78    1.19
  11  -6  -5   12.75    1.65
  11  -6  -5   10.15    1.15
 -10   6   5  125.50    6.91
 -10   6   5  121.50    6.59
  10  -6  -5  126.10    6.90
  10  -6  -5  128.00    7.08
  -9   6   5   14.14    1.33
  -9   6   5   16.26    1.06
   9  -6  -5   18.22    1.11
   9  -6  -5   16.07    1.44
   9  -6  -5   13.46    1.26
  -8   6   5  105.40    5.89
  -8   6   5  103.60    5.65
   8  -6  -5   89.86    4.89
   8  -6  -5  101.60    5.63
  -7   6   5  172.60    9.32
  -7   6   5  192.10   10.44
   7  -6  -5  205.40   11.07
   7  -6  -5  181.40    9.85
  -6   6   5    2.02    0.50
  -6   6   5    0.82    1.14
   6  -6  -5    2.18    0.40
   6  -6  -5    3.14    0.83
  -5   6   5  192.60   10.45
  -5   6   5  181.40    9.77
   5  -6  -5  178.40    9.60
   5  -6  -5  204.90   11.06
  -4   6   5  140.20    7.57
  -4   6   5  121.00    6.62
   4  -6  -5  142.60    7.73
   4  -6  -5  142.20    7.66
  -3   6   5  112.70    6.17
  -3   6   5  116.70    6.31
   3  -6  -5  118.00    6.41
   3  -6  -5  120.70    6.51
  -2   6   5  358.40   19.27
  -2   6   5  345.40   18.54
   2  -6  -5  373.30   20.05
   2  -6  -5  373.10   20.01
  -1   6   5   10.38    0.89
  -1   6   5    9.80    0.82
   1  -6  -5    8.14    0.58
   1  -6  -5   10.64    0.86
   0   6   5  205.40   11.09
   0   6   5  193.90   10.48
   0  -6  -5  195.50   10.54
   0  -6  -5  193.50   10.41
   1   6   5  204.00   11.02
   1   6   5  217.80   11.76
  -1  -6  -5  208.60   11.25
  -1  -6  -5  198.30   10.67
   2   6   5    2.45    0.65
   2   6   5    2.54    0.67
  -2  -6  -5    3.55    0.44
  -2  -6  -5    2.75    0.72
   3   6   5  297.60   16.03
   3   6   5  337.30   18.13
  -3  -6  -5  321.90   17.31
  -3  -6  -5  331.70   17.81
   4   6   5   56.49    3.18
   4   6   5   51.32    2.95
  -4  -6  -5   54.54    3.09
  -4  -6  -5   53.25    2.95
   5   6   5   53.36    3.06
   5   6   5   54.08    3.07
   6   6   5  186.30   10.08
   6   6   5  158.10    8.61
  -6  -6  -5  171.60    9.32
  -6  -6  -5  162.40    8.77
   7   6   5    0.39    0.91
   7   6   5   -0.21    0.80
  -7  -6  -5   -0.10    0.53
  -7  -6  -5    0.27    0.82
   8   6   5  108.90    6.02
   8   6   5  127.60    6.97
  -8  -6  -5  114.80    6.33
  -8  -6  -5   95.56    5.20
 -14   6   4   -0.71    0.74
 -14   6   4    1.05    1.39
  14  -6  -4    3.13    1.88
  14  -6  -4    2.09    1.57
 -13   6   4    0.36    0.63
 -13   6   4    1.95    1.37
  13  -6  -4   -1.37    1.60
  13  -6  -4    1.49    1.35
 -12   6   4    1.76    1.13
 -12   6   4    1.83    0.66
  12  -6  -4    1.11    1.51
  12  -6  -4    2.42    1.22
 -11   6   4    2.98    1.08
 -11   6   4    3.99    0.61
  11  -6  -4    3.85    1.07
  11  -6  -4    3.71    1.26
 -10   6   4    5.18    1.14
 -10   6   4    3.14    0.58
  10  -6  -4    5.41    0.99
  10  -6  -4    3.69    1.31
  -9   6   4    4.57    0.58
  -9   6   4    3.58    1.02
   9  -6  -4    3.77    0.87
   9  -6  -4    2.76    1.18
  -8   6   4    5.21    1.22
  -8   6   4    4.98    0.59
   8  -6  -4    5.68    1.24
   8  -6  -4    4.40    0.50
  -7   6   4    1.65    0.46
  -7   6   4    2.01    1.00
   7  -6  -4    3.42    0.95
   7  -6  -4    2.58    0.37
  -6   6   4    7.60    1.02
  -6   6   4    7.58    0.62
   6  -6  -4    6.74    0.92
   6  -6  -4    7.26    0.54
  -5   6   4    1.52    0.93
  -5   6   4    1.05    0.35
   5  -6  -4    1.38    0.31
   5  -6  -4    1.85    0.69
  -4   6   4    1.12    0.73
  -4   6   4    2.51    0.39
   4  -6  -4    1.88    0.64
   4  -6  -4    1.83    0.30
  -3   6   4    9.23    0.61
  -3   6   4    7.55    0.79
   3  -6  -4    8.38    0.74
   3  -6  -4    8.48    0.56
  -2   6   4    9.42    0.64
  -2   6   4   10.67    0.95
   2  -6  -4   10.26    0.65
   2  -6  -4   10.74    0.81
  -1   6   4   51.11    2.88
  -1   6   4   48.23    2.65
   1  -6  -4   53.34    2.91
   1  -6  -4   46.52    2.60
   0   6   4    3.00    0.66
   0   6   4    3.81    0.52
   0  -6  -4    2.78    0.49
   0  -6  -4    3.86    0.39
   1   6   4   25.76    1.60
   1   6   4   24.59    1.48
  -1  -6  -4   24.82    1.48
  -1  -6  -4   24.43    1.41
   2   6   4    6.63    0.70
   2   6   4    6.27    0.76
  -2  -6  -4    5.52    0.66
  -2  -6  -4    6.20    0.50
   3   6   4   11.96    0.96
   3   6   4   13.40    0.98
  -3  -6  -4   12.83    1.01
  -3  -6  -4   12.61    0.81
   4   6   4   32.12    1.93
   4   6   4   34.88    2.04
  -4  -6  -4   33.10    1.88
  -4  -6  -4   35.51    2.10
   5   6   4    1.56    0.68
   5   6   4    2.53    0.74
  -5  -6  -4    2.15    0.45
  -5  -6  -4    2.21    0.65
   6   6   4    9.52    0.96
   6   6   4    9.30    1.04
  -6  -6  -4    9.28    0.72
  -6  -6  -4    9.09    0.95
   7   6   4    2.75    0.80
   7   6   4    2.77    0.82
  -7  -6  -4    2.77    0.53
  -7  -6  -4    1.77    0.81
   8   6   4    1.11    0.91
   8   6   4    0.47    0.83
  -8  -6  -4    0.56    0.50
  -8  -6  -4    1.51    0.84
   9   6   4    3.84    0.97
   9   6   4    4.65    1.05
  -9  -6  -4    6.36    1.04
  -9  -6  -4    4.27    0.63
 -14   6   3   32.16    2.29
 -14   6   3   39.91    2.29
  14  -6  -3   42.25    3.06
  14  -6  -3   39.96    2.77
 -13   6   3    3.07    1.27
 -13   6   3    2.08    0.61
  13  -6  -3    4.98    2.08
  13  -6  -3    4.73    1.45
 -12   6   3  124.60    6.87
 -12   6   3  117.40    6.37
  12  -6  -3  136.00    7.54
  12  -6  -3  143.00    7.83
 -11   6   3   59.91    3.46
 -11   6   3   63.24    3.49
  11  -6  -3   55.07    3.35
  11  -6  -3   50.06    2.94
  10  -6  -3   48.10    2.84
  10  -6  -3   43.39    2.70
  -9   6   3  168.30    9.09
  -9   6   3  191.60   10.41
   9  -6  -3  174.40    9.51
   9  -6  -3  177.10    9.62
   8  -6  -3   12.82    1.14
   8  -6  -3   15.36    1.29
  -7   6   3  169.10    9.25
  -7   6   3  164.60    8.89
   7  -6  -3  170.30    9.26
   7  -6  -3  166.50    8.99
   6  -6  -3  311.40   16.83
   6  -6  -3  296.30   15.90
  -5   6   3    4.73    0.47
  -5   6   3    5.73    0.82
   5  -6  -3    4.02    0.36
   5  -6  -3    6.29    0.83
  -4   6   3  225.10   12.09
  -4   6   3  221.40   11.95
   4  -6  -3  215.40   11.57
   4  -6  -3  226.70   12.22
  -3   6   3  104.10    5.62
  -3   6   3  117.10    6.37
   3  -6  -3  114.60    6.18
   3  -6  -3  107.90    5.88
  -2   6   3  126.90    6.89
  -2   6   3  141.70    7.63
   2  -6  -3  137.80    7.46
   2  -6  -3  141.40    7.61
  -1   6   3  316.50   17.02
  -1   6   3  314.10   16.86
   1  -6  -3  311.80   16.75
   1  -6  -3  318.70   17.09
   0   6   3   25.25    1.53
   0   6   3   26.72    1.53
   0  -6  -3   29.24    1.63
   0  -6  -3   24.76    1.45
   1   6   3  185.60   10.01
   1   6   3  193.60   10.44
  -1  -6  -3  210.70   11.32
  -1  -6  -3  209.30   11.27
   2   6   3  154.10    8.36
   2   6   3  158.90    8.60
  -2  -6  -3  148.40    8.02
  -2  -6  -3  150.50    8.11
   3   6   3   31.94    1.89
   3   6   3   30.06    1.80
  -3  -6  -3   31.84    1.88
  -3  -6  -3   30.70    1.74
   4   6   3  326.80   17.58
   4   6   3  331.40   17.82
  -4  -6  -3  338.60   18.20
  -4  -6  -3  361.80   19.41
   5   6   3   24.69    1.56
   5   6   3   28.06    1.70
  -5  -6  -3   22.28    1.33
  -5  -6  -3   26.12    1.65
   6   6   3  121.80    6.66
   6   6   3  121.10    6.60
  -6  -6  -3  118.00    6.40
  -6  -6  -3  109.20    5.98
   7   6   3  166.70    9.02
   7   6   3  153.30    8.33
  -7  -6  -3  159.20    8.60
  -7  -6  -3  146.40    7.97
   8   6   3    0.95    0.75
   8   6   3    0.82    0.92
  -8  -6  -3   -0.02    0.91
  -8  -6  -3    0.03    0.51
   9   6   3  122.60    6.69
   9   6   3  103.40    5.73
  -9  -6  -3  101.40    5.51
  -9  -6  -3  109.00    6.01
 -14   6   2    0.05    1.36
  14  -6  -2   -1.56    1.82
 -13   6   2    0.99    1.14
 -13   6   2    0.26    0.63
  13  -6  -2    1.63    2.04
  13  -6  -2    0.65    1.43
 -12   6   2    1.81    0.59
 -12   6   2    3.73    1.15
  12  -6  -2    2.84    1.67
  12  -6  -2    2.27    1.15
 -11   6   2    6.56    1.03
 -11   6   2    9.83    0.81
  11  -6  -2    8.50    1.13
  11  -6  -2    8.29    1.52
 -10   6   2   -0.05    0.99
 -10   6   2   -0.12    0.53
  10  -6  -2    0.23    0.92
  10  -6  -2   -1.99    1.31
  -9   6   2    1.54    0.46
  -9   6   2    1.51    1.03
   9  -6  -2    1.39    0.89
   9  -6  -2    1.94    1.03
  -8   6   2    0.24    0.40
  -8   6   2    0.09    0.99
   8  -6  -2   -0.23    0.80
   8  -6  -2    0.49    0.91
   8  -6  -2    0.01    0.35
  -7   6   2    0.59    0.43
  -7   6   2    0.14    0.96
   7  -6  -2    0.40    0.34
   7  -6  -2   -0.01    0.78
   6  -6  -2    9.95    0.69
   6  -6  -2    8.92    0.98
  -5   6   2    5.66    0.78
   5  -6  -2    6.98    0.50
  -4   6   2   -0.08    0.65
  -4   6   2   -0.16    0.28
   4  -6  -2    0.11    0.24
   4  -6  -2    0.37    0.68
  -3   6   2    4.99    0.41
  -3   6   2    6.08    0.79
   3  -6  -2    7.25    0.74
   3  -6  -2    6.21    0.46
  -2   6   2   11.22    0.68
  -2   6   2   10.15    0.83
   2  -6  -2   10.70    0.83
   2  -6  -2   12.19    0.74
  -1   6   2    8.42    0.82
  -1   6   2    8.08    0.54
   1  -6  -2    8.87    0.71
   1  -6  -2    7.18    0.49
   0   6   2    0.06    0.59
   0   6   2    0.59    0.30
   0  -6  -2    1.05    0.44
   0  -6  -2    0.82    0.27
   1   6   2    5.24    0.61
   1   6   2    4.20    0.43
  -1  -6  -2    5.35    0.41
  -1  -6  -2    5.08    0.54
   2   6   2    3.03    0.58
   2   6   2    3.26    0.46
  -2  -6  -2    2.91    0.47
  -2  -6  -2    2.95    0.35
   3   6   2    6.26    0.68
   3   6   2    6.84    0.74
  -3  -6  -2    5.14    0.45
  -3  -6  -2    6.57    0.70
   4   6   2    0.50    0.52
   4   6   2    0.77    0.60
  -4  -6  -2    0.51    0.63
  -4  -6  -2    0.21    0.32
   5   6   2    1.49    0.64
   5   6   2    1.96    0.57
  -5  -6  -2    2.66    0.73
  -5  -6  -2    2.20    0.41
   6   6   2    8.41    0.80
   6   6   2    7.63    0.75
  -6  -6  -2    9.78    0.72
  -6  -6  -2    7.40    0.80
   7   6   2   22.41    1.47
   7   6   2   22.82    1.48
   8   6   2    5.14    0.80
   8   6   2    5.06    0.82
  -8  -6  -2    5.68    0.60
  -8  -6  -2    5.28    0.92
   9   6   2    5.50    1.02
   9   6   2    6.51    0.91
  -9  -6  -2    6.27    0.64
  -9  -6  -2    4.79    0.99
  10   6   2    5.04    0.97
  10   6   2    4.69    0.97
 -10  -6  -2    4.14    1.08
 -10  -6  -2    5.91    0.65
  11   6   2   -0.94    1.07
  11   6   2   -0.43    1.00
 -11  -6  -2    0.09    0.63
 -11  -6  -2   -0.27    1.38
 -13   6   1   44.66    2.76
 -13   6   1   52.88    2.96
  13  -6  -1   46.59    2.97
  13  -6  -1   58.16    3.99
 -12   6   1    8.89    0.78
 -12   6   1   10.36    1.32
  12  -6  -1   12.44    1.87
  12  -6  -1   13.17    1.42
 -11   6   1  117.30    6.36
 -11   6   1  108.40    5.99
  11  -6  -1  117.60    6.61
  11  -6  -1  108.10    5.97
 -10   6   1   38.87    2.43
 -10   6   1   45.83    2.58
  10  -6  -1   37.92    2.50
  10  -6  -1   34.14    2.14
  -9   6   1   60.58    3.34
  -9   6   1   69.34    3.98
   9  -6  -1   68.45    3.94
   9  -6  -1   77.20    4.30
  -8   6   1  166.20    9.06
  -8   6   1  181.10    9.77
   8  -6  -1  167.20    9.11
   8  -6  -1  175.00    9.49
  -7   6   1    7.36    0.57
  -7   6   1    9.14    1.01
   7  -6  -1    9.43    1.07
   7  -6  -1   10.76    0.89
   7  -6  -1    9.59    0.67
  -6   6   1  209.00   11.34
  -6   6   1  192.20   10.35
   6  -6  -1  197.60   10.70
   6  -6  -1  204.90   11.03
  -5   6   1  128.40    6.94
   5  -6  -1  121.40    6.63
  -4   6   1   45.67    2.52
  -4   6   1   50.79    2.88
   4  -6  -1   52.16    3.00
   4  -6  -1   50.15    2.75
  -3   6   1  385.50   20.67
  -3   6   1  357.70   19.24
   3  -6  -1  354.90   19.09
   3  -6  -1  345.40   18.53
  -2   6   1   48.14    2.63
  -2   6   1   51.47    2.91
   2  -6  -1   47.16    2.58
   2  -6  -1   44.01    2.50
  -1   6   1  132.70    7.21
  -1   6   1  130.00    7.01
   1  -6  -1  134.50    7.24
   1  -6  -1  129.90    7.04
   0   6   1  214.00   11.55
   0   6   1  206.80   11.11
   0  -6  -1  227.20   12.23
   0  -6  -1  206.60   11.10
   1   6   1    5.13    0.43
   1   6   1    4.49    0.63
  -1  -6  -1    5.33    0.54
  -1  -6  -1    5.62    0.43
   2   6   1  488.70   26.21
   2   6   1  466.90   25.05
  -2  -6  -1  432.70   23.19
  -2  -6  -1  506.10   27.14
   3   6   1  125.00    6.79
   3   6   1  105.20    5.71
  -3  -6  -1  121.20    6.58
  -3  -6  -1  126.50    6.83
   4   6   1   46.24    2.60
   4   6   1   47.25    2.68
  -4  -6  -1   44.72    2.54
  -4  -6  -1   44.62    2.47
   5   6   1  151.70    8.21
   5   6   1  152.40    8.25
  -5  -6  -1  161.60    8.75
  -5  -6  -1  156.20    8.42
   6   6   1    0.80    0.58
   6   6   1    0.78    0.66
  -6  -6  -1    1.63    0.74
  -6  -6  -1    0.96    0.37
   7   6   1  224.60   12.11
   7   6   1  212.90   11.50
   8   6   1  155.50    8.45
   8   6   1  153.80    8.33
  -8  -6  -1  144.60    7.86
  -8  -6  -1  132.00    7.14
   9   6   1   12.85    1.14
   9   6   1   10.96    1.07
  10   6   1  139.90    7.65
  10   6   1  144.50    7.86
 -10  -6  -1  142.00    7.78
 -10  -6  -1  139.00    7.52
  11   6   1   35.24    2.31
  11   6   1   40.19    2.44
 -11  -6  -1   34.52    2.31
 -11  -6  -1   30.92    1.81
 -12   6   0    0.10    1.13
 -12   6   0    0.16    0.57
  12  -6   0    0.16    1.37
  12  -6   0   -1.88    1.62
 -11   6   0    1.06    1.00
 -11   6   0    1.12    0.61
  11  -6   0    1.64    1.09
  11  -6   0    1.75    1.42
 -10   6   0    1.50    0.91
 -10   6   0    0.39    0.52
  10  -6   0    0.69    0.96
  10  -6   0    0.44    1.14
  -9   6   0    7.41    1.01
  -9   6   0    7.46    0.64
   9  -6   0    5.97    1.21
   9  -6   0    7.98    1.06
  -8   6   0    0.01    0.43
  -8   6   0    0.33    0.91
   8  -6   0    0.19    0.85
   8  -6   0    0.07    1.04
  -7   6   0    1.89    0.76
  -7   6   0    2.47    0.42
   7  -6   0    1.90    0.93
   7  -6   0    0.97    0.76
   7  -6   0    2.66    0.39
  -6   6   0    6.10    0.53
  -6   6   0    7.15    1.04
   6  -6   0    6.73    0.53
   6  -6   0    7.70    1.04
  -5   6   0    7.89    0.87
  -5   6   0    6.28    0.52
   5  -6   0    6.12    0.48
   5  -6   0    6.46    0.86
  -4   6   0   24.57    1.55
  -4   6   0   23.65    1.38
   4  -6   0   25.95    1.65
   4  -6   0   26.33    1.50
  -3   6   0   26.99    1.68
  -3   6   0   26.04    1.48
   3  -6   0   28.94    1.62
   3  -6   0   31.39    1.95
  -2   6   0    6.60    0.48
  -2   6   0    6.34    0.74
   2  -6   0    7.77    0.52
   2  -6   0    7.23    0.79
  -1   6   0    0.37    0.59
  -1   6   0    0.72    0.25
   1  -6   0    0.85    0.52
   1  -6   0    0.75    0.23
   0   6   0   19.28    1.10
   0   6   0   19.46    1.26
   0  -6   0   20.27    1.27
   0  -6   0   19.22    1.10
   1   6   0    0.39    0.58
   1   6   0    0.34    0.26
  -1  -6   0    0.71    0.26
  -1  -6   0    0.73    0.41
   2   6   0    6.79    0.52
   2   6   0    8.18    0.75
  -2  -6   0    7.91    0.54
  -2  -6   0    7.62    0.60
   3   6   0   29.77    1.70
   3   6   0   29.88    1.75
  -3  -6   0   27.96    1.62
  -3  -6   0   22.96    1.30
   4   6   0   24.13    1.41
  -4  -6   0   24.39    1.45
   5   6   0    7.45    0.78
   5   6   0    6.76    0.69
  -5  -6   0    8.71    0.82
  -5  -6   0    7.08    0.54
   6   6   0    6.59    0.71
   6   6   0    5.59    0.70
  -6  -6   0    7.13    0.55
  -6  -6   0    6.33    0.70
   7   6   0    1.82    0.64
   7   6   0    2.49    0.63
  -7  -6   0    1.21    0.68
  -7  -6   0    2.67    0.42
   8   6   0   -0.18    0.65
   8   6   0    0.27    0.66
  -8  -6   0    0.14    0.43
  -8  -6   0    0.53    0.70
   9   6   0    8.45    0.91
   9   6   0    7.69    0.93
  -9  -6   0    6.21    0.85
  -9  -6   0    8.32    0.69
  10   6   0    1.20    0.88
  10   6   0    1.49    0.92
 -10  -6   0    0.90    0.53
 -10  -6   0    1.11    0.89
  11   6   0    1.78    0.95
  11   6   0    0.46    0.94
 -11  -6   0    0.09    1.11
 -11  -6   0    1.30    0.55
  12   6   0    0.69    1.26
  12   6   0    0.10    1.07
 -12  -6   0    0.13    1.44
 -12  -6   0   -0.50    0.60
 -12   6  -1   53.45    3.20
  12  -6   1   60.89    3.66
 -11   6  -1   30.30    1.92
 -11   6  -1   26.91    1.59
  11  -6   1   33.26    2.40
  11  -6   1   37.53    2.40
 -10   6  -1  135.80    7.41
 -10   6  -1  140.20    7.58
  10  -6   1  132.50    7.33
  10  -6   1  141.40    7.73
  -9   6  -1    9.93    1.03
  -9   6  -1   13.20    0.91
   9  -6   1    8.64    1.03
   9  -6   1   10.96    1.32
  -8   6  -1  128.30    6.95
  -8   6  -1  144.80    7.91
   8  -6   1  133.00    7.29
   8  -6   1  144.50    7.88
  -7   6  -1  210.00   11.37
  -7   6  -1  238.40   12.83
   7  -6   1  201.00   10.91
   7  -6   1  211.90   11.45
  -6   6  -1    0.27    0.40
  -6   6  -1    0.81    0.74
   6  -6   1    0.11    0.32
   6  -6   1    0.53    0.88
   6  -6   1    2.04    0.73
  -5   6  -1  164.20    8.86
  -5   6  -1  168.50    9.17
   5  -6   1  153.70    8.37
   5  -6   1  130.70    7.06
  -4   6  -1   42.90    2.50
  -4   6  -1   37.46    2.09
   4  -6   1   41.85    2.45
   4  -6   1   47.27    2.61
  -3   6  -1  114.10    6.18
  -3   6  -1  117.00    6.40
   3  -6   1  130.40    7.12
   3  -6   1  115.40    6.24
  -2   6  -1  474.20   25.46
  -2   6  -1  481.90   25.83
   2  -6   1  490.30   26.28
   2  -6   1  475.80   25.56
  -1   6  -1    6.06    0.72
  -1   6  -1    5.81    0.43
   1  -6   1    4.42    0.39
   1  -6   1    5.13    0.74
   0   6  -1  213.80   11.49
   0   6  -1  215.00   11.60
   0  -6   1  203.90   10.96
   0  -6   1  199.50   10.75
   1   6  -1  125.90    6.78
   1   6  -1  125.50    6.82
  -1  -6   1  124.30    6.73
  -1  -6   1  124.20    6.70
   2   6  -1   50.60    2.86
   2   6  -1   48.91    2.69
  -2  -6   1   49.45    2.71
  -2  -6   1   45.91    2.56
   3   6  -1  323.90   17.39
   3   6  -1  346.30   18.61
  -3  -6   1  329.50   17.68
  -3  -6   1  369.80   19.85
   4   6  -1   48.14    2.70
  -4  -6   1   46.72    2.57
   5   6  -1  119.40    6.50
   5   6  -1  131.60    7.12
  -5  -6   1  128.10    6.95
  -5  -6   1  140.60    7.59
   6   6  -1  199.10   10.76
   6   6  -1  212.10   11.44
  -6  -6   1  200.30   10.81
  -6  -6   1  220.40   11.86
   7   6  -1   11.47    0.97
   7   6  -1   10.02    0.88
  -7  -6   1   10.71    0.92
  -7  -6   1    8.97    0.64
   8   6  -1  172.80    9.35
   8   6  -1  169.40    9.17
  -8  -6   1  182.70    9.90
  -8  -6   1  185.30    9.98
   9   6  -1   73.85    4.11
   9   6  -1   65.65    3.68
  -9  -6   1   73.53    4.12
  -9  -6   1   63.72    3.50
  10   6  -1   41.90    2.47
  10   6  -1   39.98    2.38
  11   6  -1  117.30    6.43
  11   6  -1  115.70    6.39
 -11  -6   1  110.80    6.16
 -11  -6   1  107.30    5.83
  12   6  -1   10.89    1.37
  12   6  -1   12.59    1.29
 -12  -6   1    9.93    0.80
 -12  -6   1   11.44    1.48
  13   6  -1   55.74    3.45
  13   6  -1   57.09    3.35
 -13  -6   1   46.91    3.17
 -13  -6   1   53.57    2.99
 -11   6  -2    0.09    0.57
 -11   6  -2   -0.55    1.07
  11  -6   2    0.36    1.62
  11  -6   2    0.40    1.11
 -10   6  -2    3.76    0.58
 -10   6  -2    4.66    1.04
  10  -6   2    4.32    1.45
  10  -6   2    4.41    1.05
  -9   6  -2    6.12    0.60
  -9   6  -2    4.93    0.86
   9  -6   2    6.40    1.03
   9  -6   2    5.24    1.29
  -8   6  -2    4.33    0.81
  -8   6  -2    5.36    0.58
   8  -6   2    5.07    0.95
   8  -6   2    6.22    1.14
  -7   6  -2   19.62    1.45
  -7   6  -2   19.10    1.17
   7  -6   2   21.04    1.57
   7  -6   2   22.87    1.56
  -6   6  -2    9.06    0.69
  -6   6  -2    9.77    1.04
   6  -6   2    7.89    0.94
   6  -6   2    8.91    1.01
  -5   6  -2    2.60    0.89
  -5   6  -2    2.15    0.40
   5  -6   2    2.01    0.90
   5  -6   2    2.59    0.62
   5  -6   2    2.97    0.37
  -4   6  -2   -1.64    0.91
  -4   6  -2    0.01    0.33
   4  -6   2    0.55    0.30
   4  -6   2    0.70    0.85
  -3   6  -2    5.47    0.47
  -3   6  -2    4.77    0.74
   3  -6   2    5.13    0.47
   3  -6   2    5.24    0.88
  -2   6  -2    2.09    0.32
  -2   6  -2    2.99    0.69
  -1   6  -2    4.52    0.70
  -1   6  -2    5.21    0.45
   1  -6   2    4.55    0.39
   1  -6   2    5.43    0.77
   0   6  -2    0.93    0.30
   0   6  -2    0.41    0.59
   0  -6   2    1.12    0.28
   0  -6   2    0.05    0.63
  -1  -6   2    7.04    0.49
  -1  -6   2    8.39    0.71
  -2  -6   2   11.02    0.69
  -2  -6   2    9.47    0.75
   3   6  -2    6.22    0.51
   3   6  -2    7.61    0.78
  -3  -6   2    6.56    0.48
  -3  -6   2    6.78    0.59
   4   6  -2   -0.01    0.33
   4   6  -2   -0.18    0.63
  -4  -6   2    0.53    0.28
  -4  -6   2    0.07    0.39
   5   6  -2    7.42    0.73
   5   6  -2    5.78    0.53
  -5  -6   2    6.83    0.66
  -5  -6   2    7.09    0.52
   6   6  -2   12.55    0.90
   6   6  -2    9.74    0.86
  -6  -6   2   11.02    0.95
  -6  -6   2    9.76    0.67
   7   6  -2    1.00    0.67
   7   6  -2    0.48    0.57
  -7  -6   2    0.31    0.62
  -7  -6   2    0.86    0.38
   8   6  -2   -0.02    0.77
   8   6  -2   -0.49    0.63
  -8  -6   2    0.19    0.36
  -8  -6   2    0.77    0.80
   9   6  -2    1.15    0.70
   9   6  -2    0.98    0.87
  -9  -6   2    0.83    0.68
  -9  -6   2    0.45    0.41
  10   6  -2    0.54    0.92
  10   6  -2   -0.66    0.83
 -10  -6   2    0.02    0.99
 -10  -6   2   -0.01    0.43
  11   6  -2    8.97    1.02
  11   6  -2    8.90    1.04
 -11  -6   2    9.25    0.75
 -11  -6   2    7.11    1.21
  12   6  -2    4.40    1.17
  12   6  -2    3.12    1.05
 -12  -6   2    1.83    1.20
 -12  -6   2    1.84    0.52
  13   6  -2   -1.12    1.19
  13   6  -2   -0.92    1.17
 -13  -6   2    0.68    0.55
 -13  -6   2   -1.47    1.59
 -10   6  -3   36.03    2.05
 -10   6  -3   41.79    2.50
  10  -6   3   49.42    3.00
  10  -6   3   42.15    2.79
  -9   6  -3  101.70    5.60
  -9   6  -3  112.20    6.08
   9  -6   3  107.30    6.01
   9  -6   3  113.00    6.21
  -8   6  -3    0.76    0.49
  -8   6  -3   -0.09    0.88
   8  -6   3   -0.03    0.77
   8  -6   3   -0.98    1.15
  -7   6  -3  163.20    8.89
  -7   6  -3  144.10    7.79
   7  -6   3  167.30    9.08
   7  -6   3  151.90    8.31
  -6   6  -3  110.20    5.98
  -6   6  -3  117.00    6.41
   6  -6   3  116.00    6.35
   6  -6   3  109.10    6.03
   5  -6   3   24.99    1.70
   5  -6   3   30.99    1.91
  -4   6  -3  355.30   19.07
  -4   6  -3  328.50   17.69
   4  -6   3  374.70   20.11
   4  -6   3  321.90   17.36
  -3   6  -3   32.53    1.83
  -3   6  -3   32.02    2.00
   3  -6   3   31.07    1.99
   3  -6   3   32.26    1.82
  -2   6  -3  154.80    8.42
  -2   6  -3  136.60    7.37
   2  -6   3  140.90    7.69
   2  -6   3  143.80    7.76
  -1   6  -3  208.40   11.21
  -1   6  -3  210.40   11.38
   1  -6   3  223.10   12.00
   1  -6   3  200.90   10.88
   0   6  -3   28.52    1.73
   0   6  -3   28.92    1.63
   0  -6   3   27.79    1.57
   0  -6   3   30.01    1.87
   1   6  -3  311.20   16.70
   1   6  -3  295.20   15.89
  -1  -6   3  254.20   13.65
  -1  -6   3  298.30   16.04
   2   6  -3  131.70    7.16
   2   6  -3  132.60    7.15
  -2  -6   3  122.30    6.62
  -2  -6   3  132.80    7.16
   3   6  -3  107.40    5.87
   3   6  -3  114.20    6.17
  -3  -6   3  112.20    6.06
  -3  -6   3  120.60    6.53
   4   6  -3  240.60   12.97
   4   6  -3  244.50   13.14
  -4  -6   3  221.70   11.91
  -4  -6   3  248.90   13.38
   5   6  -3    5.08    0.48
   5   6  -3    5.46    0.75
   6   6  -3  281.10   15.15
   6   6  -3  276.90   14.89
  -6  -6   3  295.40   15.86
  -6  -6   3  280.50   15.10
   7   6  -3  170.10    9.20
   7   6  -3  167.20    9.07
   8   6  -3   17.02    1.16
   8   6  -3   19.04    1.37
  -8  -6   3   19.81    1.20
  -8  -6   3   16.90    1.27
   9   6  -3  203.90   11.06
   9   6  -3  206.70   11.17
  -9  -6   3  190.90   10.36
  -9  -6   3  180.00    9.70
  10   6  -3   45.58    2.70
  10   6  -3   42.49    2.51
 -10  -6   3   39.92    2.24
 -10  -6   3   44.14    2.65
  11   6  -3   60.93    3.49
  11   6  -3   62.81    3.60
 -11  -6   3   55.85    3.30
 -11  -6   3   62.91    3.45
  12   6  -3  147.70    8.08
  12   6  -3  130.00    7.14
 -12  -6   3  120.40    6.51
 -12  -6   3  131.50    7.28
  13   6  -3    3.82    1.33
  13   6  -3    4.16    1.41
 -13  -6   3    3.84    1.68
 -13  -6   3    2.46    0.57
  14   6  -3   45.46    2.89
  14   6  -3   42.53    2.78
  -9   6  -4    3.87    0.59
  -9   6  -4    4.14    0.91
   9  -6   4    4.57    1.18
   9  -6   4    2.41    1.47
  -8   6  -4    0.53    0.84
  -8   6  -4    0.46    0.49
   8  -6   4    0.35    1.26
   8  -6   4    0.24    0.93
  -7   6  -4    2.65    0.51
  -7   6  -4    0.97    0.79
   7  -6   4    2.80    1.15
   7  -6   4    3.23    0.77
  -6   6  -4    8.31    0.68
  -6   6  -4   10.45    1.12
  -5   6  -4    1.66    0.42
  -5   6  -4    2.86    0.77
   5  -6   4    1.91    0.97
   5  -6   4    3.17    0.79
  -4   6  -4   34.83    1.97
  -4   6  -4   36.69    2.21
   4  -6   4   31.56    1.92
   4  -6   4   30.14    1.71
   4  -6   4   34.18    2.16
  -3   6  -4   11.38    0.76
  -3   6  -4   11.74    1.04
   3  -6   4   12.57    1.22
   3  -6   4   10.91    0.73
  -2   6  -4    7.27    0.55
  -2   6  -4    6.16    1.00
   2  -6   4    7.38    0.56
   2  -6   4    5.63    0.95
  -1   6  -4   25.90    1.63
  -1   6  -4   23.20    1.35
   1  -6   4   25.39    1.67
   1  -6   4   24.88    1.44
   0   6  -4    3.78    0.68
   0   6  -4    4.60    0.43
   0  -6   4    2.84    0.82
   0  -6   4    3.43    0.39
   1   6  -4   53.67    2.95
   1   6  -4   50.51    2.87
  -1  -6   4   52.98    2.90
  -1  -6   4   56.01    3.18
   2   6  -4    9.74    0.65
   2   6  -4   10.99    0.94
  -2  -6   4   10.33    0.67
  -2  -6   4   10.37    0.88
   3   6  -4    9.45    0.63
   3   6  -4    8.85    0.92
  -3  -6   4    9.86    0.64
  -3  -6   4    9.59    0.79
   4   6  -4    1.79    0.36
   4   6  -4    1.13    0.67
  -4  -6   4    1.93    0.32
  -4  -6   4    1.48    0.60
   5   6  -4    1.28    0.41
   5   6  -4    1.81    0.73
  -5  -6   4    2.18    0.61
  -5  -6   4    1.60    0.34
   6   6  -4    7.40    0.96
  -6  -6   4    7.16    0.56
   7   6  -4    3.89    0.61
  -7  -6   4    3.47    0.76
  -7  -6   4    2.13    0.44
  -8  -6   4    5.36    0.89
  -8  -6   4    5.25    0.55
   9   6  -4    3.95    0.85
   9   6  -4    3.78    0.76
  -9  -6   4    3.15    0.93
  -9  -6   4    4.33    0.53
  10   6  -4    2.84    1.01
  10   6  -4    2.62    0.81
 -10  -6   4    3.77    0.95
 -10  -6   4    3.95    0.52
  11   6  -4    3.55    1.05
  11   6  -4    4.47    0.95
 -11  -6   4    4.56    0.55
 -11  -6   4    2.85    1.10
  12   6  -4    2.48    1.16
  12   6  -4    1.50    1.00
 -12  -6   4    0.77    0.52
 -12  -6   4    0.60    1.26
  13   6  -4    2.36    1.29
  13   6  -4    2.07    1.36
 -13  -6   4    0.01    1.44
 -13  -6   4    1.18    0.59
  14   6  -4   -1.12    1.59
  14   6  -4    0.02    1.40
 -14  -6   4    0.18    1.96
 -14  -6   4    0.28    0.77
  -8   6  -5  100.30    5.54
  -8   6  -5  100.90    5.48
   8  -6   5  110.50    6.22
   8  -6   5  116.20    6.40
  -7   6  -5    0.26    0.93
  -7   6  -5    0.41    0.49
   7  -6   5    0.20    1.21
   7  -6   5    1.62    0.98
  -6   6  -5  159.80    8.69
  -6   6  -5  168.00    9.06
   6  -6   5  170.10    9.24
   6  -6   5  174.60    9.55
  -5   6  -5   56.64    3.12
  -5   6  -5   50.84    2.95
   5  -6   5   54.22    3.21
   5  -6   5   51.07    3.00
  -4   6  -5   59.47    3.38
  -4   6  -5   49.43    2.73
   4  -6   5   54.01    3.20
   4  -6   5   60.21    3.42
  -3   6  -5  317.90   17.07
  -3   6  -5  320.40   17.26
   3  -6   5  310.30   16.71
   3  -6   5  298.80   16.16
  -2   6  -5    3.14    0.90
  -2   6  -5    4.09    0.46
   2  -6   5    1.68    0.73
   2  -6   5    2.98    0.96
  -1   6  -5  225.20   12.19
  -1   6  -5  190.40   10.25
   1  -6   5  188.00   10.13
   1  -6   5  200.90   10.90
   0   6  -5  209.00   11.24
   0   6  -5  198.60   10.77
   0  -6   5  183.60    9.97
   0  -6   5  197.70   10.65
   1   6  -5   10.60    0.97
   1   6  -5    9.89    0.68
  -1  -6   5   11.11    1.19
   2   6  -5  371.70   19.99
  -2  -6   5  381.30   20.45
   3   6  -5  111.00    6.00
   3   6  -5  121.70    6.66
  -3  -6   5  113.20    6.12
  -3  -6   5  108.30    5.91
   4   6  -5  139.90    7.55
   4   6  -5  137.00    7.47
  -4  -6   5  134.20    7.29
  -4  -6   5  143.70    7.75
   5   6  -5  202.90   10.99
   5   6  -5  178.50    9.63
  -5  -6   5  203.80   10.99
  -5  -6   5  181.80    9.79
   6   6  -5    2.59    0.95
   6   6  -5    2.64    0.51
  -6  -6   5    1.26    0.40
  -6  -6   5    1.68    0.73
  -7  -6   5  194.50   10.49
  -7  -6   5  192.50   10.44
   8   6  -5  110.50    6.19
   8   6  -5  111.10    6.07
  -8  -6   5  107.00    5.90
  -8  -6   5   90.89    4.95
   9   6  -5   15.38    1.14
   9   6  -5   14.93    1.48
  -9  -6   5   16.46    1.03
  -9  -6   5   15.43    1.27
  10   6  -5  124.00    6.85
  10   6  -5  127.30    6.95
 -10  -6   5  124.90    6.75
 -10  -6   5  123.60    6.80
  11   6  -5   11.58    1.14
  11   6  -5   11.23    1.35
 -11  -6   5   12.72    1.34
 -11  -6   5    9.48    0.73
  12   6  -5   60.36    3.56
  12   6  -5   65.28    3.76
 -12  -6   5   61.34    3.70
 -12  -6   5   55.05    3.05
  13   6  -5  100.60    5.63
  13   6  -5  105.70    5.91
 -13  -6   5   86.39    4.70
 -13  -6   5  100.10    5.69
  14   6  -5    1.69    1.52
  14   6  -5    4.42    1.45
 -14  -6   5    5.34    0.88
 -14  -6   5    0.07    1.89
  -7   6  -6    0.78    0.98
  -7   6  -6    2.56    0.55
   7  -6   6    1.48    1.12
   7  -6   6    2.11    1.42
  -6   6  -6    2.32    0.54
  -6   6  -6    0.57    0.96
   6  -6   6   -0.21    1.20
   6  -6   6    0.60    0.96
  -5   6  -6   15.18    1.19
  -5   6  -6   16.85    1.08
   5  -6   6   16.68    1.52
   5  -6   6   15.20    1.29
  -4   6  -6    1.39    0.45
  -4   6  -6    0.66    0.78
   4  -6   6    1.26    0.86
   4  -6   6   -0.01    1.07
  -3   6  -6    1.05    0.79
  -3   6  -6    1.40    0.45
   3  -6   6    3.44    0.95
   3  -6   6    1.51    1.12
  -2   6  -6   -0.41    0.88
  -2   6  -6    0.53    0.37
   2  -6   6    1.19    0.71
   2  -6   6    0.51    1.13
  -1   6  -6    0.86    0.37
  -1   6  -6    1.36    0.75
   1  -6   6    0.91    0.95
   1  -6   6    0.64    0.34
   1  -6   6    0.50    0.77
   0   6  -6   18.17    1.10
   0   6  -6   19.63    1.47
   0  -6   6   18.06    1.41
   0  -6   6   15.75    0.97
   1   6  -6    0.06    0.35
   1   6  -6   -0.27    0.87
  -1  -6   6    0.25    1.02
  -1  -6   6    0.29    0.33
   2   6  -6    2.07    0.41
  -2  -6   6    1.85    0.41
  -2  -6   6    2.06    1.06
   3   6  -6    1.21    0.45
   3   6  -6    1.63    0.94
  -3  -6   6    0.11    1.00
  -3  -6   6    0.24    0.33
   4   6  -6    1.11    0.97
   4   6  -6    1.10    0.45
  -4  -6   6    0.41    0.93
  -4  -6   6    0.92    0.36
   5   6  -6   16.76    1.47
   5   6  -6   14.59    1.00
  -5  -6   6   13.10    0.88
  -5  -6   6   15.70    1.25
   6   6  -6    3.39    1.24
   6   6  -6    3.64    0.63
  -6  -6   6    3.44    0.44
  -6  -6   6    2.88    0.80
   7   6  -6    3.71    1.26
   7   6  -6    4.43    0.67
  -7  -6   6    5.77    0.90
  -7  -6   6    4.60    0.48
   8   6  -6    6.85    0.80
   8   6  -6    9.23    1.37
  -8  -6   6    6.06    0.58
  -8  -6   6    6.83    1.00
   9   6  -6    0.36    1.40
   9   6  -6   -0.77    0.72
  -9  -6   6    0.25    0.42
  -9  -6   6    0.19    1.08
  10   6  -6    3.97    0.78
  10   6  -6    1.17    1.43
 -10  -6   6    2.46    1.16
 -10  -6   6    2.97    0.52
  11   6  -6    0.48    1.56
  11   6  -6    1.98    0.90
 -11  -6   6    1.78    1.12
 -11  -6   6    1.28    0.52
  12   6  -6   -0.30    1.61
  12   6  -6    2.07    1.03
 -12  -6   6    2.12    0.57
 -12  -6   6    0.73    1.40
  13   6  -6    1.18    1.95
  13   6  -6    0.59    1.17
 -13  -6   6    1.02    0.57
 -13  -6   6   -0.21    1.69
  14   6  -6    0.44    2.32
  14   6  -6    0.55    1.59
 -14  -6   6   -0.33    2.27
 -14  -6   6    0.27    0.69
   6  -6   7    8.73    1.58
   6  -6   7    9.31    1.25
  -5   6  -7  151.90    8.27
  -5   6  -7  141.40    7.65
   5  -6   7  150.50    8.30
   5  -6   7  157.60    8.58
  -4   6  -7   41.03    2.31
  -4   6  -7   34.53    2.16
  -3   6  -7   61.74    3.50
  -3   6  -7   57.09    3.14
   3  -6   7   72.17    4.09
   3  -6   7   63.18    3.74
  -2   6  -7  150.80    8.21
  -2   6  -7  158.40    8.54
   2  -6   7  150.10    8.18
   2  -6   7  145.30    8.00
  -1   6  -7    1.03    0.79
  -1   6  -7    1.58    0.41
   1  -6   7    0.93    1.10
   1  -6   7    1.06    0.89
   0   6  -7  205.20   11.12
   0   6  -7  213.50   11.49
   0  -6   7  185.90   10.13
   0  -6   7  177.70    9.58
   0  -6   7  193.40   10.48
   1   6  -7  107.50    5.94
   1   6  -7  108.90    5.90
  -1  -6   7  106.90    5.80
  -1  -6   7   94.07    5.25
   2   6  -7   54.87    3.02
   2   6  -7   55.33    3.29
  -2  -6   7   50.13    2.78
  -2  -6   7   56.73    3.38
   3   6  -7  274.70   14.78
  -3  -6   7  229.60   12.47
  -3  -6   7  232.00   12.51
   4   6  -7   27.82    1.99
   4   6  -7   33.27    1.90
  -4  -6   7   31.56    2.13
  -4  -6   7   28.07    1.63
   5   6  -7  167.30    9.17
   5   6  -7  172.40    9.30
  -5  -6   7  179.60    9.68
  -5  -6   7  181.40    9.87
   6   6  -7  160.60    8.81
   6   6  -7  159.20    8.60
  -6  -6   7  163.00    8.85
  -6  -6   7  146.30    7.89
   7   6  -7   -0.28    0.58
   7   6  -7   -1.01    1.38
  -7  -6   7    0.27    0.42
  -7  -6   7    0.85    0.83
   8   6  -7  190.90   10.32
   8   6  -7  184.20   10.10
  -8  -6   7  203.40   11.02
  -8  -6   7  192.40   10.36
   9   6  -7   76.12    4.48
   9   6  -7   80.46    4.46
  10   6  -7   48.97    2.81
  10   6  -7   52.02    3.37
 -10  -6   7   53.88    2.99
 -10  -6   7   50.73    3.09
  11   6  -7  156.00    8.49
  11   6  -7  146.80    8.14
 -11  -6   7  166.50    9.12
 -11  -6   7  147.10    7.94
  12   6  -7    8.95    1.98
  12   6  -7    9.08    1.23
 -12  -6   7    6.14    1.48
 -12  -6   7    9.00    0.75
  13   6  -7   52.54    3.68
  13   6  -7   47.36    2.95
  14   6  -7   43.64    3.53
  14   6  -7   43.84    3.14
 -14  -6   7   31.01    3.41
 -14  -6   7   37.70    2.21
  -5   6  -8    4.93    0.64
  -5   6  -8    5.62    1.13
   5  -6   8    5.73    1.55
   5  -6   8    6.24    1.24
  -4   6  -8    2.74    0.60
  -4   6  -8    2.20    1.00
   4  -6   8    3.04    0.93
   4  -6   8    3.30    1.37
  -3   6  -8   -0.55    0.83
  -3   6  -8    0.28    0.49
   3  -6   8    0.58    1.44
   3  -6   8    0.96    1.02
  -2   6  -8    3.44    0.53
  -2   6  -8    4.49    1.00
   2  -6   8    3.65    1.45
   2  -6   8    4.40    1.05
  -1   6  -8    6.89    0.61
  -1   6  -8    6.87    1.12
   1  -6   8    8.31    1.29
   0   6  -8   -0.03    0.47
   0   6  -8    0.09    0.92
   0  -6   8   -0.23    0.79
   0  -6   8    0.44    1.32
   1   6  -8    0.57    0.95
   1   6  -8    0.72    0.47
  -1  -6   8    1.00    0.76
  -1  -6   8    0.21    1.13
   2   6  -8    0.14    0.44
   2   6  -8    0.82    0.94
  -2  -6   8    0.54    0.40
  -2  -6   8   -0.01    0.82
  -2  -6   8    0.34    1.19
   3   6  -8    7.58    0.64
   3   6  -8    6.24    1.06
  -3  -6   8    7.30    1.32
  -3  -6   8    6.53    0.56
   4   6  -8    6.65    0.63
  -4  -6   8    8.49    1.25
  -4  -6   8    7.54    0.60
   5   6  -8    0.61    1.18
   5   6  -8    0.42    0.52
  -5  -6   8    0.46    0.44
  -5  -6   8   -0.18    1.09
   6   6  -8    8.49    0.79
   6   6  -8    6.71    1.29
  -6  -6   8    8.25    0.64
  -6  -6   8    9.85    1.17
   7   6  -8   -0.12    0.66
   7   6  -8    0.47    1.44
  -7  -6   8    0.42    0.90
  -7  -6   8    0.33    0.40
   8   6  -8    1.53    0.81
   8   6  -8    1.03    1.59
  -8  -6   8    0.15    0.42
  -8  -6   8   -0.27    0.99
   9   6  -8    5.68    1.70
   9   6  -8    5.01    0.88
  -9  -6   8    5.72    1.16
  -9  -6   8    5.72    0.59
  10   6  -8   -3.10    1.89
  10   6  -8    0.29    0.90
 -10  -6   8   -0.02    0.49
  11   6  -8    5.23    1.21
  11   6  -8    8.34    2.06
 -11  -6   8    7.86    1.59
  12   6  -8    3.91    1.99
  12   6  -8    6.62    1.30
 -12  -6   8    3.49    1.89
 -12  -6   8    4.97    0.63
  13   6  -8   -0.59    1.74
  13   6  -8    1.25    2.64
 -13  -6   8   -0.60    2.22
 -13  -6   8    0.25    0.66
  -4   6  -9  105.00    5.80
  -4   6  -9  110.30    5.99
   4  -6   9  121.50    6.73
   4  -6   9  115.40    6.60
  -3   6  -9   14.28    1.27
  -3   6  -9   17.18    1.12
   3  -6   9   14.13    1.49
   3  -6   9   16.22    1.91
  -2   6  -9  103.80    5.64
  -2   6  -9  113.90    6.27
   2  -6   9  110.20    6.25
   2  -6   9  116.40    6.44
  -1   6  -9  137.70    7.44
  -1   6  -9  145.40    7.94
   1  -6   9  133.40    7.46
   1  -6   9  129.60    7.11
   0   6  -9    0.60    0.43
   0   6  -9    0.34    0.77
   0  -6   9    0.11    1.33
   0  -6   9    0.41    1.11
   1   6  -9  148.70    8.12
   1   6  -9  142.30    7.69
  -1  -6   9  156.40    8.53
  -1  -6   9  136.50    7.56
   2   6  -9   80.81    4.41
   2   6  -9   78.01    4.38
  -2  -6   9   77.27    4.53
  -2  -6   9   73.67    4.16
   3   6  -9   52.93    3.10
   3   6  -9   51.32    2.84
  -3  -6   9   46.96    2.82
  -3  -6   9   51.05    3.24
   4   6  -9  135.60    7.33
   4   6  -9  144.70    7.91
  -4  -6   9  133.40    7.21
  -4  -6   9  129.30    7.16
  -4  -6   9  122.30    6.71
   5   6  -9   16.83    1.08
   5   6  -9   17.29    1.52
  -5  -6   9   15.80    1.65
  -5  -6   9   17.22    1.06
   6   6  -9   91.61    5.22
   6   6  -9   89.40    4.89
  -6  -6   9   81.65    4.44
   7   6  -9  124.20    6.91
   7   6  -9  111.30    6.05
  -7  -6   9  122.30    6.71
  -7  -6   9  118.40    6.41
   8   6  -9    8.18    1.30
   8   6  -9    8.84    0.99
  -8  -6   9    9.35    1.20
  -8  -6   9   10.20    0.74
   9   6  -9   84.97    4.70
   9   6  -9   78.07    4.44
  -9  -6   9   93.24    5.05
  -9  -6   9  101.60    5.66
  10   6  -9   20.98    1.56
  10   6  -9   20.29    1.82
 -10  -6   9   21.78    1.70
 -10  -6   9   25.28    1.46
  11   6  -9   27.08    2.29
  11   6  -9   26.68    1.96
 -11  -6   9   30.98    1.76
 -11  -6   9   27.05    2.20
  12   6  -9   55.06    3.45
  12   6  -9   53.51    3.69
 -12  -6   9   57.48    3.17
 -12  -6   9   51.55    3.48
  -3   6 -10    0.55    0.59
  -3   6 -10   -0.14    1.13
   3  -6  10    0.59    1.54
   3  -6  10    0.02    2.44
  -2   6 -10   -0.22    1.09
  -2   6 -10    0.71    0.56
   2  -6  10    0.68    1.29
   2  -6  10   -2.02    1.92
  -1   6 -10    1.01    1.12
  -1   6 -10    1.09    0.56
   1  -6  10    0.11    1.75
   1  -6  10    1.23    1.22
   0   6 -10    4.76    1.09
   0   6 -10    3.66    0.63
   0  -6  10    2.23    1.17
   0  -6  10    4.98    1.81
   1   6 -10    6.27    0.71
   1   6 -10    4.85    1.09
  -1  -6  10    6.68    1.71
  -1  -6  10    6.48    1.17
   2   6 -10    1.33    0.57
   2   6 -10    1.40    1.14
  -2  -6  10    1.34    1.12
  -2  -6  10   -0.64    1.80
   3   6 -10    1.37    1.01
   3   6 -10    1.04    0.49
  -3  -6  10    0.79    1.70
  -3  -6  10   -0.58    1.26
   4   6 -10    0.64    0.57
   4   6 -10    1.30    1.11
  -4  -6  10    1.12    1.49
  -4  -6  10    2.17    1.09
   5   6 -10    2.27    0.58
   5   6 -10    1.15    1.15
  -5  -6  10    2.12    1.45
  -5  -6  10    0.91    1.26
   6   6 -10    1.19    1.31
  -6  -6  10    3.27    1.42
  -6  -6  10    3.25    1.26
   7   6 -10   -0.33    0.72
   7   6 -10   -0.16    1.17
  -7  -6  10    0.18    1.23
  -7  -6  10    0.17    0.40
  -7  -6  10    0.27    1.28
   8   6 -10    1.12    1.09
   8   6 -10    0.32    0.73
  -8  -6  10    0.10    1.07
  -8  -6  10    0.69    0.40
  -8  -6  10    0.37    1.07
   9   6 -10    0.36    1.14
   9   6 -10   -0.06    0.80
  -9  -6  10    0.01    0.42
  -9  -6  10   -0.30    1.18
 -10  -6  10    3.84    0.46
 -10  -6  10    3.68    1.25
 -11  -6  10    0.14    0.39
 -11  -6  10   -0.36    1.62
  -2   6 -11    1.30    1.20
  -2   6 -11    1.71    0.60
   2  -6  11    1.34    1.90
  -1   6 -11   72.42    3.98
  -1   6 -11   80.06    4.57
   1  -6  11   88.86    5.13
   1  -6  11   85.60    5.23
   0   6 -11   46.66    2.85
   0   6 -11   48.57    2.74
   0  -6  11   46.69    2.99
   0  -6  11   43.37    3.12
   1   6 -11    8.09    1.27
   1   6 -11    7.86    0.80
  -1  -6  11    5.30    1.74
  -1  -6  11    7.54    1.54
   2   6 -11  106.00    5.76
   2   6 -11  106.40    5.94
  -2  -6  11  110.60    6.36
  -2  -6  11  111.70    6.25
   3   6 -11   27.34    1.60
   3   6 -11   24.99    1.80
  -3  -6  11   22.54    2.32
  -3  -6  11   23.70    1.93
   4   6 -11   43.79    2.72
   4   6 -11   47.86    2.67
  -4  -6  11   45.19    3.02
  -4  -6  11   40.38    2.59
   5   6 -11  104.70    5.83
   5   6 -11   97.18    5.28
   6   6 -11   -0.08    0.70
   6   6 -11   -0.84    1.32
  -6  -6  11    0.90    1.69
   7   6 -11   51.36    2.92
   7   6 -11   50.16    3.03
  -7  -6  11   58.73    3.50
  -7  -6  11   66.70    3.95
   8   6 -11   38.63    2.47
   8   6 -11   39.41    2.34
  -8  -6  11   34.33    2.29
  -8  -6  11   33.31    2.32
   0   6 -12    2.29    0.63
   0   6 -12    2.70    1.23
   0  -6  12    4.31    2.37
   0  -6  12    4.05    2.27
   1   6 -12    0.40    0.64
   1   6 -12    1.30    1.20
  -1  -6  12    0.01    2.10
  -1  -6  12    0.30    2.11
   2   6 -12    1.61    1.42
   2   6 -12    2.77    0.67
  -2  -6  12    0.32    2.49
  -2  -6  12    2.90    1.75
   3   6 -12   -0.07    0.67
   3   6 -12    1.06    1.32
  -3  -6  12    0.38    1.73
  -3  -6  12    1.23    2.52
   4   6 -12    0.82    1.35
   4   6 -12    1.11    0.76
  -4  -6  12    0.63    1.65
  -4  -6  12    1.58    2.22
   5   6 -12    3.89    0.76
   5   6 -12    1.32    1.37
  -5  -6  12    5.01    2.12
  -5  -6  12    5.19    1.82
   6   6 -12    1.12    1.31
   6   6 -12    0.42    0.77
  -6  -6  12    2.15    1.62
  -6  -6  12    2.08    1.80
   7   6 -12   -0.35    1.27
   7   6 -12    0.36    0.89
  -7  -6  12   -1.46    1.65
  -7  -6  12   -0.71    1.58
  -5   7  12    0.27    1.84
  -5   7  12    3.09    2.73
   5  -7 -12    0.58    0.75
   5  -7 -12    0.22    2.12
  -4   7  12   59.67    4.17
  -4   7  12   56.84    3.71
   4  -7 -12   57.73    3.87
   4  -7 -12   51.33    2.90
  -3   7  12   14.64    2.18
  -3   7  12   15.63    2.60
   3  -7 -12   19.10    1.31
   3  -7 -12   18.67    2.36
  -2   7  12   12.43    2.44
  -2   7  12   13.66    2.02
   2  -7 -12   14.23    2.18
   2  -7 -12   14.57    1.14
  -1   7  12   43.77    3.37
  -1   7  12   38.72    3.08
   1  -7 -12   38.63    2.28
   1  -7 -12   41.30    3.06
  -8   7  11    3.70    1.78
  -8   7  11    4.66    1.52
   8  -7 -11    5.43    1.85
   8  -7 -11    4.90    0.56
  -7   7  11    2.97    1.57
  -7   7  11    0.01    2.16
   7  -7 -11    1.59    0.57
   7  -7 -11    1.91    1.80
  -6   7  11   18.77    2.50
  -6   7  11   16.43    1.84
   6  -7 -11   15.90    1.89
   6  -7 -11   19.57    1.25
  -5   7  11    1.59    1.43
  -5   7  11    4.76    2.01
   5  -7 -11    2.68    0.60
   5  -7 -11    3.12    1.56
  -4   7  11   20.07    2.28
  -4   7  11   14.60    1.67
   4  -7 -11   16.92    1.13
   4  -7 -11   14.44    1.71
  -3   7  11   13.76    1.63
  -3   7  11   12.83    2.03
   3  -7 -11   13.80    0.98
   3  -7 -11   15.54    1.81
  -2   7  11   -0.10    1.52
  -2   7  11   -0.49    1.37
   2  -7 -11    0.29    0.61
   2  -7 -11   -2.49    1.54
  -1   7  11   12.98    1.86
  -1   7  11   11.30    1.57
   1  -7 -11   14.47    1.68
   1  -7 -11   10.77    0.87
   0   7  11    3.13    1.63
   0   7  11    6.35    1.59
   0  -7 -11    6.75    1.58
   0  -7 -11    5.07    0.72
   1   7  11    7.64    1.88
   1   7  11    7.47    1.74
  -1  -7 -11    8.69    1.82
  -1  -7 -11    8.75    0.85
 -10   7  10    8.72    1.45
 -10   7  10   10.90    1.29
  -9   7  10   11.95    1.38
  -9   7  10   15.08    1.78
   9  -7 -10   11.44    1.52
   9  -7 -10   14.76    0.94
   9  -7 -10   13.70    1.75
  -8   7  10   52.44    3.21
  -8   7  10   57.67    3.37
   8  -7 -10   69.36    4.09
   8  -7 -10   64.65    3.55
  -7   7  10    1.24    1.96
  -7   7  10    1.50    1.21
   7  -7 -10    0.52    1.30
   7  -7 -10    0.18    0.49
  -6   7  10   63.96    3.92
  -6   7  10   58.49    3.44
   6  -7 -10   65.38    3.78
   6  -7 -10   70.66    3.88
  -5   7  10   38.88    2.70
  -5   7  10   38.53    2.45
   5  -7 -10   37.11    2.43
   5  -7 -10   36.35    2.06
  -4   7  10   21.86    1.98
  -4   7  10   19.93    1.69
   4  -7 -10   20.60    1.69
   4  -7 -10   22.63    1.38
  -3   7  10   97.09    5.52
  -3   7  10  103.70    5.81
   3  -7 -10   83.97    4.77
   3  -7 -10  100.30    5.44
  -2   7  10   17.01    1.66
  -2   7  10   19.49    1.68
   2  -7 -10   21.05    1.68
   2  -7 -10   18.69    1.17
  -1   7  10   35.26    2.31
  -1   7  10   41.77    2.73
   1  -7 -10   36.68    2.42
   1  -7 -10   32.82    1.88
   0   7  10   56.70    3.38
   0   7  10   52.42    3.20
   0  -7 -10   53.54    2.97
   0  -7 -10   54.49    3.33
   1   7  10    0.91    1.32
   1   7  10    0.88    1.14
  -1  -7 -10    0.41    1.50
  -1  -7 -10   -0.17    0.61
   2   7  10   83.41    4.78
   2   7  10   78.61    4.58
 -11   7   9    2.00    1.50
 -11   7   9    3.06    1.00
  11  -7  -9    4.48    1.44
  11  -7  -9    3.74    1.77
 -10   7   9    7.96    1.48
 -10   7   9    6.79    1.01
  10  -7  -9    6.76    1.54
  10  -7  -9    6.58    1.34
  -9   7   9    5.39    1.41
  -9   7   9    4.18    1.10
   9  -7  -9    5.86    0.60
   9  -7  -9    5.96    1.23
  -8   7   9   16.74    1.86
  -8   7   9   19.71    1.49
   8  -7  -9   17.30    1.09
   8  -7  -9   19.14    1.73
  -7   7   9    4.28    1.79
  -7   7   9    8.58    1.12
   7  -7  -9    9.46    0.79
  -6   7   9    6.81    1.10
  -6   7   9    6.29    1.75
   6  -7  -9    6.39    1.14
   6  -7  -9    6.13    0.69
  -5   7   9   22.08    2.02
  -5   7   9   22.87    1.65
   5  -7  -9   22.38    1.35
   5  -7  -9   20.96    1.54
  -4   7   9    0.05    1.37
  -4   7   9    1.36    1.05
   4  -7  -9    1.77    0.52
   4  -7  -9    1.48    0.95
  -3   7   9   35.64    2.48
  -3   7   9   35.32    2.24
   3  -7  -9   30.02    1.74
   3  -7  -9   32.21    2.06
  -2   7   9   23.63    1.85
  -2   7   9   26.65    1.85
   2  -7  -9   25.25    1.48
   2  -7  -9   23.76    1.65
  -1   7   9    0.12    1.06
  -1   7   9   -2.08    1.19
   1  -7  -9    0.51    0.48
   1  -7  -9   -1.39    1.04
   0   7   9   47.18    2.84
   0   7   9   48.17    2.96
   0  -7  -9   47.62    2.65
   0  -7  -9   46.13    2.82
   1   7   9    3.15    1.23
   1   7   9    2.89    1.16
  -1  -7  -9    2.01    1.02
  -1  -7  -9    2.46    0.53
   2   7   9   12.80    1.46
   2   7   9    8.72    1.45
  -2  -7  -9   10.02    0.78
  -2  -7  -9    9.48    1.28
   3   7   9   27.88    1.90
   3   7   9   27.50    2.11
  -3  -7  -9   29.12    1.72
  -3  -7  -9   28.61    2.24
 -12   7   8   36.70    2.73
 -12   7   8   42.12    2.60
  12  -7  -8   38.09    2.88
  12  -7  -8   39.10    2.72
 -11   7   8   13.81    1.85
 -11   7   8    9.36    1.09
  11  -7  -8    8.08    2.03
  11  -7  -8    9.29    1.57
 -10   7   8   99.78    5.65
 -10   7   8   93.29    5.15
  10  -7  -8   98.72    5.60
  10  -7  -8  104.90    5.84
  -9   7   8    7.52    1.00
   9  -7  -8   10.22    0.79
  -8   7   8   64.28    3.60
  -8   7   8   72.45    4.29
   8  -7  -8   71.95    4.13
   8  -7  -8   70.68    3.88
  -7   7   8  124.00    6.78
   7  -7  -8  128.80    7.05
   7  -7  -8  138.10    7.48
  -6   7   8    0.58    1.51
  -6   7   8    1.31    0.81
   6  -7  -8    1.24    0.90
  -5   7   8  109.20    6.02
  -5   7   8  105.60    5.95
   5  -7  -8  105.60    5.72
   5  -7  -8  111.10    6.12
  -4   7   8   31.75    2.26
  -4   7   8   30.39    1.96
   4  -7  -8   30.16    1.73
   4  -7  -8   31.35    1.96
  -3   7   8   30.97    2.13
  -3   7   8   27.63    1.78
   3  -7  -8   29.93    1.90
   3  -7  -8   31.78    1.81
  -2   7   8  142.30    7.79
  -2   7   8  135.30    7.40
   2  -7  -8  143.90    7.77
   2  -7  -8  131.60    7.19
  -1   7   8    4.92    1.07
  -1   7   8    7.00    0.97
   1  -7  -8    5.96    0.93
   1  -7  -8    6.16    0.59
   0   7   8  103.40    5.75
   0   7   8  110.20    6.07
   0  -7  -8   95.22    5.27
   0  -7  -8  108.70    5.89
   1   7   8   82.04    4.60
   1   7   8   90.72    5.10
  -1  -7  -8   88.40    4.80
  -1  -7  -8   84.54    4.71
   2   7   8    7.65    1.26
   2   7   8    9.37    1.30
  -2  -7  -8    9.75    0.74
  -2  -7  -8    7.38    1.22
   3   7   8   89.44    5.01
   3   7   8   89.08    5.06
  -3  -7  -8   84.23    4.78
  -3  -7  -8   80.97    4.42
   4   7   8   20.39    1.65
   4   7   8   16.72    1.66
  -4  -7  -8   17.64    1.54
  -4  -7  -8   18.27    1.18
   5   7   8   42.66    2.79
  -5  -7  -8   44.80    2.58
 -13   7   7    7.05    1.07
 -13   7   7    9.02    1.86
  13  -7  -7    5.89    2.01
  13  -7  -7   10.53    2.39
 -12   7   7   16.03    1.79
 -12   7   7   19.51    1.37
  12  -7  -7   20.67    2.08
  12  -7  -7   20.24    2.13
 -11   7   7    0.33    1.37
 -11   7   7    1.86    0.72
  11  -7  -7    2.75    1.45
  11  -7  -7    2.21    1.46
 -10   7   7   22.80    1.87
 -10   7   7   23.27    1.50
  10  -7  -7   26.42    1.96
  10  -7  -7   23.98    1.93
  -9   7   7   13.68    1.63
  -9   7   7   11.10    0.95
   9  -7  -7   12.53    0.86
   9  -7  -7   11.21    1.30
  -8   7   7    8.19    1.45
  -8   7   7    7.89    0.88
   8  -7  -7    8.21    0.66
   8  -7  -7    9.31    1.12
  -7   7   7   36.90    2.51
  -7   7   7   35.35    2.10
   7  -7  -7   41.51    2.49
  -6   7   7   28.71    1.76
  -6   7   7   28.31    2.17
   6  -7  -7   26.58    1.70
  -5   7   7   16.55    1.17
  -5   7   7   17.14    1.64
   5  -7  -7   17.89    1.30
   5  -7  -7   18.42    1.14
  -4   7   7   24.11    1.56
  -4   7   7   24.47    1.84
   4  -7  -7   27.13    1.72
   4  -7  -7   28.18    1.63
  -3   7   7    1.83    1.23
  -3   7   7    0.72    0.79
   3  -7  -7   -0.08    0.79
   3  -7  -7    1.14    0.47
  -2   7   7   35.63    2.30
  -2   7   7   34.04    2.08
   2  -7  -7   34.01    1.93
   2  -7  -7   34.37    2.09
  -1   7   7   30.04    1.91
  -1   7   7   28.28    1.91
   1  -7  -7   28.98    1.68
   1  -7  -7   30.42    1.92
   0   7   7    2.31    0.73
   0   7   7    1.32    0.94
   0  -7  -7    2.10    0.87
   0  -7  -7    1.99    0.45
   1   7   7   38.33    2.32
   1   7   7   39.23    2.42
  -1  -7  -7   38.33    2.15
  -1  -7  -7   39.38    2.30
   2   7   7    4.13    1.05
   2   7   7    4.73    0.98
  -2  -7  -7    3.79    0.50
  -2  -7  -7    3.16    0.90
   3   7   7    5.67    0.96
   3   7   7    5.59    1.02
  -3  -7  -7    5.75    0.60
  -3  -7  -7    4.80    0.99
   4   7   7   23.75    1.74
   4   7   7   22.05    1.57
  -4  -7  -7   22.53    1.36
  -4  -7  -7   22.05    1.63
   5   7   7    0.76    0.96
   5   7   7    1.17    1.05
  -5  -7  -7   -0.30    1.20
  -5  -7  -7   -0.13    0.52
   6   7   7   18.63    1.67
   6   7   7   22.00    1.61
  -6  -7  -7   20.33    1.30
  -6  -7  -7   16.90    1.58
 -13   7   6    1.50    0.93
 -13   7   6    0.37    1.46
  13  -7  -6    0.17    2.09
  13  -7  -6    0.18    1.94
 -12   7   6   78.93    4.58
 -12   7   6   76.91    4.24
  12  -7  -6   78.95    4.59
  12  -7  -6   75.46    4.47
 -11   7   6   45.03    2.88
 -11   7   6   48.29    2.75
  11  -7  -6   39.39    2.69
  11  -7  -6   46.78    2.99
 -10   7   6   18.61    1.28
 -10   7   6   19.63    1.65
  10  -7  -6   21.26    1.72
  10  -7  -6   21.22    1.70
  -9   7   6  102.20    5.57
  -9   7   6  115.50    6.46
   9  -7  -6  114.70    6.21
   9  -7  -6  106.00    5.88
  -8   7   6    3.88    0.63
  -8   7   6    1.95    1.24
   8  -7  -6    3.87    0.49
   8  -7  -6    3.33    1.04
  -7   7   6  121.10    6.73
  -7   7   6  124.10    6.74
   7  -7  -6  126.90    6.95
   7  -7  -6  123.50    6.68
  -6   7   6   85.72    4.71
  -6   7   6   88.53    5.06
   6  -7  -6   93.82    5.18
   6  -7  -6   88.58    4.83
  -5   7   6    3.03    0.63
  -5   7   6    0.72    1.34
   5  -7  -6    2.75    0.51
   5  -7  -6    3.05    0.81
  -4   7   6  209.60   11.32
  -4   7   6  210.40   11.48
   4  -7  -6  232.10   12.49
   4  -7  -6  232.50   12.56
  -3   7   6   53.36    3.02
  -3   7   6   61.64    3.63
   3  -7  -6   57.76    3.20
   3  -7  -6   57.19    3.21
  -2   7   6   72.28    4.13
  -2   7   6   73.59    4.08
   2  -7  -6   74.52    4.13
   2  -7  -6   78.31    4.28
  -1   7   6  170.70    9.25
  -1   7   6  154.10    8.39
   1  -7  -6  169.30    9.16
   1  -7  -6  170.90    9.21
   0   7   6    0.79    0.84
   0   7   6    1.05    0.70
   0  -7  -6    0.52    0.42
   0  -7  -6    0.23    0.62
   1   7   6  148.70    8.08
   1   7   6  148.00    8.05
  -1  -7  -6  146.30    7.95
  -1  -7  -6  154.30    8.32
   2   7   6   88.23    4.90
   2   7   6   74.97    4.19
  -2  -7  -6   76.63    4.25
  -2  -7  -6   74.05    4.04
   3   7   6   22.66    1.53
   3   7   6   23.89    1.62
  -3  -7  -6   23.20    1.37
  -3  -7  -6   19.26    1.32
   4   7   6   89.99    4.98
   4   7   6   98.22    5.44
  -4  -7  -6   92.58    5.03
  -4  -7  -6   85.54    4.74
   5   7   6   22.27    1.52
   5   7   6   20.96    1.59
  -5  -7  -6   22.67    1.37
  -5  -7  -6   19.96    1.47
   6   7   6   66.54    3.81
   6   7   6   71.31    3.99
  -6  -7  -6   60.04    3.53
  -6  -7  -6   70.94    3.89
  -7  -7  -6   59.14    3.55
  -7  -7  -6   63.96    3.53
 -14   7   5    7.91    0.96
 -14   7   5    9.91    1.88
  14  -7  -5    6.67    2.29
  14  -7  -5    9.96    2.38
 -13   7   5    0.36    0.69
 -13   7   5   -0.09    1.72
  13  -7  -5    5.17    2.01
  13  -7  -5   -0.62    1.83
 -12   7   5    6.50    1.51
 -12   7   5    6.69    0.73
  12  -7  -5    8.69    1.82
  12  -7  -5    9.10    1.53
 -11   7   5   21.58    1.39
 -11   7   5   21.04    1.80
  11  -7  -5   21.41    2.02
  11  -7  -5   20.52    1.73
 -10   7   5    2.06    0.71
 -10   7   5    2.33    1.22
  10  -7  -5    1.31    1.37
  10  -7  -5    1.21    1.09
  -9   7   5   31.90    2.17
  -9   7   5   29.53    1.77
   9  -7  -5   25.19    1.47
   9  -7  -5   28.15    2.01
   9  -7  -5   27.68    1.85
  -8   7   5   16.59    1.56
  -8   7   5   14.73    1.03
   8  -7  -5   15.37    1.37
   8  -7  -5   15.90    0.98
  -7   7   5    3.03    0.55
  -7   7   5    2.54    1.18
   7  -7  -5    2.81    0.95
   7  -7  -5    1.91    0.45
  -6   7   5   27.06    2.10
  -6   7   5   25.87    1.56
   6  -7  -5   23.61    1.41
   6  -7  -5   25.80    1.76
  -5   7   5   -2.02    1.28
  -5   7   5   -0.13    0.54
   5  -7  -5   -0.14    0.47
   5  -7  -5    1.03    0.73
  -4   7   5   70.93    3.91
  -4   7   5   70.25    4.05
   4  -7  -5   72.13    3.95
   4  -7  -5   78.35    4.32
  -3   7   5   50.75    2.84
  -3   7   5   47.64    2.87
   3  -7  -5   53.17    2.99
   3  -7  -5   48.86    2.72
  -2   7   5    1.50    0.98
  -2   7   5    0.28    0.47
   2  -7  -5    0.56    0.61
   2  -7  -5    1.03    0.40
  -1   7   5   26.08    1.60
  -1   7   5   28.37    1.86
   1  -7  -5   24.74    1.44
   1  -7  -5   28.47    1.72
   0   7   5    8.36    0.95
   0   7   5    9.66    0.86
   0  -7  -5    8.45    0.83
   0  -7  -5    6.87    0.57
   1   7   5   39.63    2.31
   1   7   5   36.29    2.17
  -1  -7  -5   38.67    2.17
  -1  -7  -5   35.75    2.10
   2   7   5   59.05    3.35
   2   7   5   58.79    3.31
  -2  -7  -5   57.78    3.24
  -2  -7  -5   59.60    3.27
   3   7   5   11.05    0.99
   3   7   5   12.04    1.06
  -3  -7  -5   10.59    1.04
  -3  -7  -5   10.57    0.74
   4   7   5   16.64    1.28
   4   7   5   16.21    1.22
  -4  -7  -5   15.49    1.13
  -4  -7  -5   16.19    1.03
   5   7   5   23.34    1.56
   5   7   5   22.96    1.56
  -5  -7  -5   21.52    1.31
  -5  -7  -5   21.73    1.48
   6   7   5    7.40    0.97
   6   7   5    7.26    1.05
  -6  -7  -5    7.11    0.64
  -6  -7  -5    5.11    1.02
   7   7   5   26.05    1.77
   7   7   5   28.90    1.94
  -7  -7  -5   24.78    1.48
  -7  -7  -5   20.76    1.58
   8   7   5    9.63    1.13
  -8  -7  -5    8.09    0.75
 -14   7   4   30.97    2.56
 -14   7   4   28.41    1.76
  14  -7  -4   34.36    2.87
  14  -7  -4   32.62    2.80
 -13   7   4   48.62    3.17
 -13   7   4   54.68    3.06
  13  -7  -4   62.43    3.78
  13  -7  -4   58.67    3.79
 -12   7   4    6.76    0.79
 -12   7   4    7.87    1.37
  12  -7  -4    9.86    1.79
  12  -7  -4    8.14    1.55
 -11   7   4   99.48    5.58
 -11   7   4   89.43    4.90
  11  -7  -4   96.54    5.40
  11  -7  -4   90.02    5.17
 -10   7   4   31.25    1.84
 -10   7   4   25.23    1.89
  10  -7  -4   27.04    2.07
  10  -7  -4   26.75    1.87
  -9   7   4   42.17    2.39
  -9   7   4   45.68    2.78
   9  -7  -4   38.24    2.15
   9  -7  -4   44.53    2.67
   9  -7  -4   48.93    2.99
  -8   7   4  126.00    6.96
  -8   7   4  124.20    6.73
   8  -7  -4  131.10    7.08
   8  -7  -4  132.70    7.29
  -7   7   4   14.07    0.99
  -7   7   4   12.45    1.47
  -6   7   4  134.60    7.28
  -6   7   4  153.00    8.43
   6  -7  -4  178.50    9.63
   6  -7  -4  151.00    8.21
  -5   7   4   83.28    4.54
  -5   7   4   78.69    4.52
   5  -7  -4   89.48    4.88
   5  -7  -4   86.18    4.76
  -4   7   4   35.61    2.34
  -4   7   4   30.94    1.78
   4  -7  -4   36.59    2.16
   4  -7  -4   33.35    1.89
  -3   7   4  241.10   13.06
  -3   7   4  263.30   14.16
   3  -7  -4  257.90   13.89
   3  -7  -4  290.70   15.62
  -2   7   4   27.49    1.85
  -2   7   4   23.44    1.41
   2  -7  -4   26.82    1.55
   2  -7  -4   27.78    1.67
  -1   7   4  163.30    8.90
  -1   7   4  151.80    8.20
   1  -7  -4  149.90    8.11
   1  -7  -4  174.30    9.39
   0   7   4  162.80    8.81
   0   7   4  165.30    8.97
   0  -7  -4  182.20    9.84
   0  -7  -4  187.30   10.08
   1   7   4    6.86    0.74
   1   7   4    5.42    0.81
  -1  -7  -4    6.80    0.54
  -1  -7  -4    5.90    0.71
   2   7   4  215.60   11.65
   2   7   4  193.80   10.48
  -2  -7  -4  210.80   11.34
  -2  -7  -4  211.20   11.39
   3   7   4  161.30    8.75
   3   7   4  147.10    7.99
  -3  -7  -4  155.40    8.42
  -3  -7  -4  141.10    7.61
   4   7   4   58.15    3.31
   4   7   4   58.13    3.28
  -4  -7  -4   52.63    2.98
  -4  -7  -4   58.99    3.24
   5   7   4  165.90    8.99
   5   7   4  159.60    8.68
  -5  -7  -4  160.20    8.69
  -5  -7  -4  160.70    8.66
   6   7   4    8.74    0.97
   6   7   4    9.83    1.01
  -6  -7  -4    7.38    0.88
  -6  -7  -4    8.51    0.69
   7   7   4  114.50    6.30
   7   7   4  112.00    6.15
  -7  -7  -4   98.93    5.47
  -7  -7  -4  107.10    5.81
   8   7   4   94.64    5.23
   8   7   4   82.91    4.64
  -8  -7  -4   84.97    4.63
  -8  -7  -4   81.84    4.64
  -9  -7  -4    5.25    0.70
 -13   7   3   21.56    2.01
 -13   7   3   20.84    1.35
  13  -7  -3   28.38    2.28
  13  -7  -3   20.95    2.15
 -12   7   3    5.24    0.74
 -12   7   3    3.43    1.27
  12  -7  -3    1.53    1.71
  12  -7  -3    2.65    1.46
 -11   7   3   16.79    1.55
 -11   7   3   15.30    1.11
  11  -7  -3   15.55    1.43
  11  -7  -3   15.21    1.61
 -10   7   3   31.28    2.14
 -10   7   3   32.83    1.92
  10  -7  -3   30.51    2.03
  10  -7  -3   28.76    2.12
  -9   7   3    3.85    0.62
  -9   7   3    2.78    1.00
   9  -7  -3    3.88    1.34
   9  -7  -3    3.13    0.83
   9  -7  -3    3.33    0.44
  -8   7   3   45.47    2.56
   8  -7  -3   50.03    3.05
   8  -7  -3   45.48    2.54
  -7   7   3   23.94    1.41
  -7   7   3   20.69    1.65
   7  -7  -3   26.10    1.80
   7  -7  -3   27.76    1.60
  -6   7   3   10.81    1.25
  -6   7   3   10.16    0.75
   6  -7  -3   11.10    1.09
   6  -7  -3    8.39    0.64
  -5   7   3  102.40    5.71
  -5   7   3   96.21    5.23
   5  -7  -3   96.47    5.24
   5  -7  -3   97.38    5.35
  -4   7   3    1.26    0.40
  -4   7   3    1.96    1.04
   4  -7  -3    1.27    0.72
   4  -7  -3    1.86    0.41
  -3   7   3   23.12    1.38
   3  -7  -3   22.19    1.45
  -2   7   3   38.65    2.33
  -2   7   3   32.51    1.84
  -1   7   3    1.10    0.39
  -1   7   3    2.19    0.83
   1  -7  -3    1.36    0.53
   1  -7  -3    1.76    0.37
   0   7   3   69.86    3.84
   0   7   3   74.00    4.13
   0  -7  -3   80.66    4.43
   0  -7  -3   66.72    3.64
   1   7   3   16.91    1.22
   1   7   3   18.88    1.20
  -1  -7  -3   18.00    1.08
  -1  -7  -3   18.63    1.24
   2   7   3    9.57    0.82
   2   7   3    8.79    0.91
  -2  -7  -3   10.00    0.87
  -2  -7  -3    9.30    0.66
   3   7   3   22.98    1.45
   3   7   3   24.79    1.60
  -3  -7  -3   23.29    1.47
  -3  -7  -3   22.58    1.32
   4   7   3    0.31    0.65
   4   7   3    0.66    0.82
  -4  -7  -3    0.10    0.34
  -4  -7  -3    0.62    0.74
   5   7   3   38.56    2.30
   5   7   3   42.85    2.48
  -5  -7  -3   42.38    2.37
  -5  -7  -3   38.74    2.32
   6   7   3   11.15    1.02
   6   7   3   11.51    1.03
  -6  -7  -3   11.33    1.05
  -6  -7  -3   10.17    0.76
   7   7   3    3.75    0.88
   7   7   3    2.72    0.80
  -7  -7  -3    2.17    0.82
  -7  -7  -3    4.08    0.54
   8   7   3   11.95    1.15
   8   7   3   13.68    1.21
  -8  -7  -3   12.68    1.29
  -8  -7  -3   12.96    0.91
   9   7   3    2.07    0.93
   9   7   3    2.17    1.02
  -9  -7  -3    1.00    0.56
  -9  -7  -3    0.70    1.01
 -13   7   2   45.10    2.91
 -13   7   2   42.88    2.44
  13  -7  -2   48.22    3.48
  13  -7  -2   55.14    3.57
  12  -7  -2   28.41    2.44
  12  -7  -2   29.55    2.18
 -11   7   2   12.08    1.35
 -11   7   2    9.65    0.76
  11  -7  -2   13.12    1.66
  11  -7  -2   18.07    1.56
 -10   7   2  123.00    6.79
 -10   7   2  114.10    6.20
  10  -7  -2  118.30    6.53
  10  -7  -2  106.90    5.98
   9  -7  -2   13.45    1.34
   9  -7  -2   18.10    1.67
  -8   7   2  103.70    5.64
  -8   7   2  104.50    5.80
   8  -7  -2   98.69    5.48
   8  -7  -2   98.25    5.42
  -7   7   2  140.80    7.74
  -7   7   2  148.50    8.02
   7  -7  -2  136.90    7.40
   7  -7  -2  136.20    7.46
  -6   7   2    1.12    1.03
  -6   7   2    0.18    0.42
   6  -7  -2    0.44    0.37
   6  -7  -2    0.44    0.91
  -5   7   2  244.40   13.25
  -5   7   2  261.50   14.05
   5  -7  -2  242.40   13.09
   5  -7  -2  241.50   12.98
  -4   7   2   54.15    3.15
  -4   7   2   58.75    3.23
   4  -7  -2   56.19    3.09
   4  -7  -2   54.12    3.07
  -3   7   2   51.67    3.03
  -3   7   2   49.22    2.72
   3  -7  -2   54.46    2.99
   3  -7  -2   48.32    2.74
  -2   7   2  207.00   11.14
   2  -7  -2  224.10   12.08
  -1   7   2   61.43    3.36
   1  -7  -2   58.08    3.23
   0   7   2  115.30    6.25
   0   7   2  109.20    6.00
   0  -7  -2  114.20    6.20
   0  -7  -2  115.70    6.26
   1   7   2  136.30    7.38
   1   7   2  135.10    7.36
  -1  -7  -2  134.80    7.27
  -1  -7  -2  136.60    7.41
   2   7   2   33.87    1.95
   2   7   2   29.18    1.81
  -2  -7  -2   29.15    1.72
  -2  -7  -2   31.34    1.77
   3   7   2  205.50   11.11
   3   7   2  227.20   12.25
  -3  -7  -2  216.80   11.69
  -3  -7  -2  216.50   11.64
   4   7   2   60.72    3.41
   4   7   2   56.51    3.17
  -4  -7  -2   54.03    3.05
  -4  -7  -2   56.25    3.09
   5   7   2  107.80    5.91
   5   7   2  100.10    5.47
  -5  -7  -2  101.00    5.47
  -5  -7  -2   99.16    5.44
   6   7   2  134.80    7.33
   6   7   2  141.40    7.69
  -6  -7  -2  133.70    7.23
  -6  -7  -2  132.50    7.22
   7   7   2   -0.34    0.70
   7   7   2    0.30    0.75
  -7  -7  -2   -0.10    0.73
  -7  -7  -2   -0.26    0.45
   8   7   2  115.70    6.36
   8   7   2  119.50    6.53
  -8  -7  -2  104.80    5.78
  -8  -7  -2  120.20    6.51
   9   7   2   63.71    3.61
   9   7   2   61.44    3.51
  -9  -7  -2   52.55    2.91
  -9  -7  -2   51.85    3.08
  10   7   2   18.43    1.45
  10   7   2   16.09    1.44
 -10  -7  -2   17.60    1.15
 -10  -7  -2   16.34    1.46
 -12   7   1    6.50    0.73
 -12   7   1    5.46    1.33
  12  -7  -1    7.13    1.48
  12  -7  -1    5.88    2.02
 -11   7   1    1.18    0.56
 -11   7   1    0.36    1.20
  11  -7  -1    0.56    1.66
  11  -7  -1    0.29    1.16
 -10   7   1   36.94    2.41
 -10   7   1   33.80    1.97
  10  -7  -1   38.77    2.46
  10  -7  -1   40.64    2.70
  -9   7   1   15.84    1.03
  -9   7   1   19.32    1.54
   9  -7  -1   17.81    1.39
   9  -7  -1   19.91    1.68
  -8   7   1    1.29    0.48
  -8   7   1    2.10    1.10
   8  -7  -1    1.31    0.80
   8  -7  -1    0.38    1.05
   8  -7  -1    0.22    0.37
  -7   7   1   30.54    1.77
  -7   7   1   30.34    2.03
   7  -7  -1   28.41    1.63
   7  -7  -1   29.94    1.93
  -6   7   1    6.78    1.19
  -6   7   1    6.65    0.60
   6  -7  -1    5.87    1.01
   6  -7  -1    7.86    0.60
  -5   7   1   27.90    1.87
  -5   7   1   22.05    1.31
   5  -7  -1   27.81    1.84
   5  -7  -1   23.59    1.37
  -4   7   1   42.76    2.56
  -4   7   1   41.55    2.32
   4  -7  -1   49.03    2.70
   4  -7  -1   45.61    2.68
  -3   7   1    6.57    0.53
  -3   7   1    5.26    0.89
   3  -7  -1    6.37    0.52
   3  -7  -1    5.29    0.79
   2  -7  -1   31.09    1.75
   2  -7  -1   33.17    1.96
  -1   7   1   40.28    2.24
   1  -7  -1   46.53    2.64
   0   7   1   24.65    1.42
   0  -7  -1   23.60    1.43
   0  -7  -1   28.73    1.63
   1   7   1   55.69    3.07
   1   7   1   55.93    3.20
  -1  -7  -1   48.86    2.69
  -1  -7  -1   54.43    3.02
   2   7   1    0.01    0.69
   2   7   1    0.19    0.45
  -2  -7  -1    0.03    0.31
  -2  -7  -1   -0.06    0.56
   3   7   1   34.23    2.01
   3   7   1   29.89    1.74
  -3  -7  -1   33.72    1.98
  -3  -7  -1   29.67    1.69
   4   7   1   35.99    2.08
   4   7   1   31.71    1.91
  -4  -7  -1   33.42    1.99
  -4  -7  -1   30.64    1.74
   5   7   1    8.81    0.92
   5   7   1   10.76    0.86
  -5  -7  -1    9.93    0.70
  -5  -7  -1    7.82    0.80
   6   7   1   70.31    3.94
   6   7   1   64.20    3.57
  -6  -7  -1   58.22    3.20
  -6  -7  -1   59.44    3.38
   7   7   1    7.19    0.96
   7   7   1    5.44    0.83
  -7  -7  -1    7.10    0.91
  -7  -7  -1    5.17    0.53
   8   7   1    4.63    0.83
   8   7   1    4.04    0.85
  -8  -7  -1    3.83    0.88
  -8  -7  -1    4.39    0.55
   9   7   1   31.53    1.95
   9   7   1   31.92    2.05
  -9  -7  -1   26.45    1.56
  -9  -7  -1   28.18    1.87
  10   7   1   -0.26    1.02
  10   7   1    1.45    0.98
 -10  -7  -1    0.68    0.54
 -10  -7  -1   -0.28    1.03
  11   7   1   23.25    1.76
  11   7   1   27.78    1.94
 -11  -7  -1   26.25    1.56
 -11  -7  -1   23.58    1.96
 -12   7   0   72.37    4.20
  12  -7   0   92.45    5.34
 -11   7   0   32.95    1.91
 -11   7   0   31.18    2.09
  11  -7   0   30.32    2.14
  11  -7   0   34.48    2.61
 -10   7   0   29.65    1.95
 -10   7   0   28.26    1.67
  10  -7   0   29.91    1.99
  10  -7   0   30.96    2.30
  -9   7   0   94.10    5.26
  -9   7   0  102.10    5.55
   9  -7   0  103.10    5.79
   9  -7   0  104.10    5.78
  -8   7   0    0.67    0.43
  -8   7   0    0.17    1.02
   8  -7   0    0.83    0.94
   8  -7   0    0.15    1.05
  -7   7   0  181.10    9.84
  -7   7   0  165.50    8.93
   7  -7   0  163.90    8.90
   7  -7   0  155.60    8.39
   7  -7   0  164.90    8.98
  -6   7   0   91.72    4.99
  -6   7   0   99.43    5.52
   6  -7   0   81.05    4.41
   6  -7   0   89.27    4.98
  -5   7   0   20.79    1.25
  -5   7   0   24.26    1.72
   5  -7   0   20.02    1.18
   5  -7   0   18.91    1.36
  -4   7   0  147.40    7.96
  -4   7   0  146.80    8.03
   4  -7   0  156.20    8.51
   4  -7   0  147.80    7.98
  -3   7   0   43.50    2.42
  -3   7   0   38.38    2.32
   3  -7   0   40.10    2.38
   3  -7   0   44.73    2.47
  -2   7   0  172.90    9.32
  -2   7   0  163.90    8.93
   2  -7   0  176.70    9.57
   2  -7   0  177.90    9.59
   0   7   0   -0.01    0.31
   0  -7   0    0.41    0.57
   1   7   0  278.10   14.94
   1   7   0  294.40   15.88
  -1  -7   0  283.30   15.21
  -1  -7   0  278.50   14.99
   2   7   0  177.60    9.57
   2   7   0  184.00    9.97
  -2  -7   0  198.40   10.70
  -2  -7   0  194.60   10.47
   3   7   0   39.98    2.25
   3   7   0   36.80    2.19
  -3  -7   0   40.66    2.35
  -3  -7   0   44.68    2.47
   4   7   0  135.60    7.37
   4   7   0  129.80    7.03
  -4  -7   0  127.60    6.89
  -4  -7   0  145.30    7.88
   5   7   0   23.54    1.46
   5   7   0   20.21    1.36
  -5  -7   0   19.73    1.30
  -5  -7   0   21.41    1.25
   6   7   0   92.41    5.10
   6   7   0   96.57    5.29
  -6  -7   0   92.10    5.07
  -6  -7   0   90.10    4.89
   7   7   0  182.10    9.86
   7   7   0  168.00    9.09
  -7  -7   0  174.50    9.40
  -7  -7   0  174.80    9.47
   8   7   0   -0.09    0.67
   8   7   0   -0.43    0.92
  -8  -7   0    0.28    0.39
  -8  -7   0    0.70    0.93
   9   7   0   99.24    5.47
   9   7   0  106.40    5.87
  -9  -7   0   95.25    5.27
  -9  -7   0   97.39    5.29
  10   7   0   32.97    2.07
  10   7   0   31.47    2.09
 -10  -7   0   28.29    1.91
 -10  -7   0   29.20    1.69
  11   7   0   32.40    2.20
  11   7   0   31.60    2.22
  12   7   0   73.78    4.19
 -12  -7   0   71.14    3.91
  11  -7   1   19.78    2.59
 -10   7  -1    0.85    0.52
 -10   7  -1    1.04    1.04
  10  -7   1    1.53    1.10
  10  -7   1    2.31    1.62
  -9   7  -1   26.74    1.57
  -9   7  -1   30.97    1.99
   9  -7   1   31.07    2.26
   9  -7   1   30.45    2.02
  -8   7  -1    5.08    0.56
  -8   7  -1    4.75    0.99
   8  -7   1    5.59    1.08
   8  -7   1    4.51    1.25
  -7   7  -1    5.83    0.56
  -7   7  -1    5.69    1.07
   7  -7   1    8.00    0.90
   7  -7   1    8.98    1.28
  -6   7  -1   62.52    3.58
  -6   7  -1   54.39    3.00
   6  -7   1   55.03    3.02
   6  -7   1   63.17    3.62
  -5   7  -1   11.05    0.78
  -5   7  -1    9.98    1.22
  -4   7  -1   31.71    2.03
  -4   7  -1   34.44    1.95
   4  -7   1   32.64    1.85
   4  -7   1   31.41    1.96
  -3   7  -1   32.56    1.84
  -3   7  -1   34.99    2.24
   3  -7   1   34.80    1.95
   3  -7   1   35.40    2.17
  -2   7  -1    0.04    0.35
  -2   7  -1    0.47    0.76
   2  -7   1   -0.04    0.29
   2  -7   1    1.05    0.79
  -1   7  -1   54.35    3.14
  -1   7  -1   53.43    2.93
   0   7  -1   23.16    1.58
   0   7  -1   24.29    1.38
   0  -7   1   22.19    1.41
   0  -7   1   26.12    1.49
   1   7  -1   50.05    2.92
   1   7  -1   49.94    2.74
  -1  -7   1   46.53    2.65
  -1  -7   1   48.18    2.66
   2   7  -1   32.33    1.82
   2   7  -1   34.14    2.09
  -2  -7   1   35.84    2.08
  -2  -7   1   32.30    1.81
   3   7  -1    6.76    0.91
   3   7  -1    7.01    0.60
  -3  -7   1    6.92    0.54
  -3  -7   1    5.33    0.69
   4   7  -1   44.62    2.58
   4   7  -1   47.72    2.66
  -4  -7   1   45.90    2.54
  -4  -7   1   41.01    2.35
   5   7  -1   26.21    1.65
   5   7  -1   23.12    1.41
  -5  -7   1   26.80    1.54
  -5  -7   1   27.98    1.70
   6   7  -1    7.38    0.91
   6   7  -1    7.43    0.76
  -6  -7   1    7.45    0.84
  -6  -7   1    9.01    0.67
   7   7  -1   27.77    1.71
   7   7  -1   30.15    1.89
  -7  -7   1   26.39    1.52
  -7  -7   1   29.20    1.80
   8   7  -1    1.08    0.88
   8   7  -1    2.15    0.66
  -8  -7   1    2.66    0.86
  -8  -7   1    0.77    0.41
   9   7  -1   21.08    1.45
   9   7  -1   21.39    1.56
  -9  -7   1   19.61    1.41
  -9  -7   1   18.78    1.16
  10   7  -1   38.00    2.36
  10   7  -1   36.97    2.27
 -10  -7   1   36.13    2.33
 -10  -7   1   32.17    1.84
  11   7  -1    0.41    1.13
  11   7  -1    0.81    0.99
 -11  -7   1    2.33    1.28
 -11  -7   1    1.10    0.42
  12   7  -1    6.23    1.17
  12   7  -1    7.37    1.33
 -12  -7   1    4.46    1.62
 -12  -7   1    7.05    0.66
 -10   7  -2   17.90    1.51
 -10   7  -2   20.03    1.24
  10  -7   2   16.68    1.99
  10  -7   2   16.85    1.42
  -9   7  -2   51.04    2.96
  -9   7  -2   44.88    2.51
   9  -7   2   58.15    3.58
   9  -7   2   57.45    3.31
  -8   7  -2  104.90    5.70
  -8   7  -2  116.60    6.41
   8  -7   2  114.70    6.41
   8  -7   2  111.70    6.14
  -7   7  -2   -0.39    1.04
  -7   7  -2    0.15    0.43
   7  -7   2    0.30    0.77
   7  -7   2   -1.62    1.15
  -6   7  -2  141.40    7.73
  -6   7  -2  153.70    8.30
   6  -7   2  143.90    7.84
   6  -7   2  122.50    6.62
   6  -7   2  145.40    7.97
  -5   7  -2  100.70    5.59
  -5   7  -2  104.90    5.69
   5  -7   2  102.60    5.68
   5  -7   2  115.30    6.24
  -4   7  -2   59.74    3.29
  -4   7  -2   57.94    3.35
   4  -7   2   51.05    2.81
   4  -7   2   53.21    3.07
  -3   7  -2  222.50   12.05
  -3   7  -2  243.10   13.07
   3  -7   2  203.40   11.02
   3  -7   2  224.00   12.05
  -2   7  -2   34.34    2.18
  -2   7  -2   36.34    2.04
   2  -7   2   34.24    2.14
   2  -7   2   35.58    2.00
  -1   7  -2  137.00    7.48
  -1   7  -2  140.00    7.55
   1  -7   2  136.20    7.43
   1  -7   2  131.20    7.09
   0   7  -2  111.50    6.02
   0   7  -2  102.60    5.67
   0  -7   2  115.80    6.27
   0  -7   2  102.30    5.62
   1   7  -2   62.37    3.41
   1   7  -2   56.64    3.25
  -1  -7   2   65.24    3.57
  -1  -7   2   58.13    3.27
   2   7  -2  224.90   12.09
   2   7  -2  213.40   11.54
  -2  -7   2  207.00   11.14
  -2  -7   2  219.90   11.87
   3   7  -2   51.70    2.84
   3   7  -2   45.91    2.70
  -3  -7   2   48.87    2.71
  -3  -7   2   52.57    2.95
   4   7  -2   62.16    3.42
   4   7  -2   59.53    3.39
  -4  -7   2   59.97    3.28
  -4  -7   2   60.79    3.40
   5   7  -2  217.80   11.72
   5   7  -2  246.50   13.32
  -5  -7   2  260.60   14.01
  -5  -7   2  234.10   12.62
   6   7  -2    0.33    0.54
   6   7  -2   -0.44    0.79
  -6  -7   2   -0.13    0.37
  -6  -7   2    0.57    0.69
   7   7  -2  143.70    7.79
   7   7  -2  128.00    6.99
  -7  -7   2  131.90    7.13
  -7  -7   2  131.70    7.18
   8   7  -2   98.16    5.38
   8   7  -2  100.40    5.53
  -8  -7   2  101.30    5.50
  -8  -7   2  105.70    5.83
   9   7  -2   15.53    1.31
   9   7  -2   13.04    1.09
  -9  -7   2   15.60    1.02
  -9  -7   2   14.17    1.26
  10   7  -2  110.40    6.09
  10   7  -2  109.90    6.07
 -10  -7   2  100.20    5.44
 -10  -7   2  116.10    6.42
  11   7  -2   15.22    1.44
  11   7  -2   15.03    1.32
 -11  -7   2   11.40    0.81
 -11  -7   2   11.31    1.31
  12   7  -2   28.04    1.96
  12   7  -2   28.19    2.01
 -12  -7   2   30.01    1.73
 -12  -7   2   26.81    2.19
  13   7  -2   50.16    3.09
  13   7  -2   49.25    3.03
 -13  -7   2   46.92    2.63
 -13  -7   2   50.65    3.45
  -9   7  -3    1.06    0.52
  -9   7  -3    0.94    0.93
   9  -7   3    0.69    1.15
   9  -7   3    1.37    1.49
  -8   7  -3   11.06    1.10
  -8   7  -3   11.67    0.82
   8  -7   3   14.09    1.70
   8  -7   3   13.14    1.16
  -7   7  -3    3.36    0.50
  -7   7  -3    3.36    1.00
   7  -7   3    2.30    1.36
   7  -7   3    3.18    1.08
  -6   7  -3   10.26    0.76
  -6   7  -3   11.51    1.26
   6  -7   3   10.56    1.32
   6  -7   3   12.10    1.18
  -5   7  -3   37.40    2.11
  -5   7  -3   43.39    2.62
   5  -7   3   38.07    2.32
   5  -7   3   43.89    2.71
  -4   7  -3    1.71    1.00
  -4   7  -3    0.08    0.37
   4  -7   3    0.37    0.34
   4  -7   3   -0.15    0.91
  -3   7  -3   25.20    1.73
  -3   7  -3   22.87    1.34
   3  -7   3   23.78    1.66
   3  -7   3   23.16    1.35
  -2   7  -3    9.53    0.69
  -2   7  -3    9.63    1.09
   2  -7   3    8.54    1.01
   2  -7   3    8.13    0.62
  -1   7  -3   19.22    1.14
  -1   7  -3   19.73    1.51
   1  -7   3   21.25    1.25
   1  -7   3   20.01    1.50
   0   7  -3   75.55    4.23
   0   7  -3   68.58    3.74
   0  -7   3   76.60    4.30
   0  -7   3   63.92    3.50
   1   7  -3    1.03    0.82
   1   7  -3    1.66    0.37
  -1  -7   3    1.60    0.69
  -1  -7   3    0.86    0.34
   2   7  -3   34.39    1.92
   2   7  -3   34.95    2.17
  -2  -7   3   34.34    1.93
  -2  -7   3   29.78    1.81
   3   7  -3   19.38    1.42
   3   7  -3   19.57    1.15
  -3  -7   3   20.09    1.19
  -3  -7   3   24.61    1.62
   4   7  -3    1.12    0.95
   4   7  -3    1.73    0.42
  -4  -7   3    1.72    0.72
  -4  -7   3    1.91    0.37
   5   7  -3   93.72    5.10
   5   7  -3  100.50    5.58
  -5  -7   3  103.40    5.61
  -5  -7   3   98.92    5.42
   6   7  -3   12.25    1.23
   6   7  -3   10.29    0.78
  -6  -7   3   10.29    0.72
  -6  -7   3   10.73    0.94
   7   7  -3   25.53    1.56
   7   7  -3   22.66    1.64
  -7  -7   3   23.16    1.58
  -7  -7   3   25.35    1.47
   8   7  -3   43.87    2.50
   8   7  -3   46.59    2.73
  -8  -7   3   45.23    2.67
  -8  -7   3   39.68    2.23
   9   7  -3    3.97    0.96
   9   7  -3    3.86    0.76
  -9  -7   3    2.02    0.95
  -9  -7   3    3.86    0.49
  10   7  -3   30.74    1.91
  10   7  -3   26.49    1.79
 -10  -7   3   32.20    1.84
 -10  -7   3   26.90    1.84
  11   7  -3   17.76    1.40
  11   7  -3   15.76    1.46
 -11  -7   3   16.35    1.51
 -11  -7   3   16.76    1.07
  12   7  -3    4.96    1.37
  12   7  -3    4.96    1.28
 -12  -7   3    5.19    0.60
 -12  -7   3    4.15    1.41
  13   7  -3   22.66    1.94
  13   7  -3   22.17    1.96
  -9   7  -4    4.14    1.15
   9  -7   4    4.36    1.32
  -8   7  -4   82.39    4.50
  -8   7  -4   81.77    4.58
   8  -7   4   83.90    4.88
   8  -7   4   81.19    4.56
  -7   7  -4  100.10    5.53
  -7   7  -4  113.90    6.17
   7  -7   4  110.50    6.20
   7  -7   4  107.70    5.97
  -6   7  -4    7.38    0.65
  -6   7  -4    9.50    1.06
   6  -7   4    8.56    1.36
   6  -7   4    9.59    1.07
  -5   7  -4  160.60    8.66
  -5   7  -4  162.10    8.82
   5  -7   4  167.40    9.17
   5  -7   4  158.80    8.63
  -4   7  -4   63.68    3.49
  -4   7  -4   56.80    3.28
   4  -7   4   57.62    3.40
   4  -7   4   50.94    2.97
   4  -7   4   63.25    3.47
  -3   7  -4  156.90    8.56
  -3   7  -4  141.60    7.64
   3  -7   4  141.70    7.65
   3  -7   4  136.80    7.50
  -2   7  -4  215.90   11.61
  -2   7  -4  222.20   12.04
   2  -7   4  205.30   11.05
   2  -7   4  193.30   10.50
  -1   7  -4    6.64    1.05
  -1   7  -4    8.28    0.63
   1  -7   4    4.56    0.99
   1  -7   4    7.04    0.56
   0   7  -4  197.20   10.61
   0   7  -4  177.30    9.65
   0  -7   4  190.40   10.35
   0  -7   4  184.50    9.94
   1   7  -4  158.60    8.64
   1   7  -4  168.30    9.06
  -1  -7   4  157.70    8.51
  -1  -7   4  164.80    8.97
   2   7  -4   23.23    1.34
   2   7  -4   25.75    1.81
  -2  -7   4   23.85    1.59
  -2  -7   4   27.16    1.56
   3   7  -4  247.10   13.27
   3   7  -4  240.50   13.04
  -3  -7   4  258.80   13.92
  -3  -7   4  233.50   12.60
   4   7  -4   34.37    1.95
   4   7  -4   33.01    2.15
  -4  -7   4   37.75    2.24
  -4  -7   4   31.89    1.82
   5   7  -4   83.00    4.68
   5   7  -4   81.43    4.44
  -5  -7   4   96.01    5.27
  -5  -7   4   96.61    5.25
   6   7  -4  165.20    9.03
   6   7  -4  155.40    8.39
  -6  -7   4  167.40    9.03
  -6  -7   4  159.50    8.65
   7   7  -4   13.39    1.04
   7   7  -4   12.40    1.39
  -7  -7   4   13.32    1.12
  -7  -7   4   14.27    0.94
   8   7  -4  138.70    7.62
   8   7  -4  130.60    7.11
  -8  -7   4  126.10    6.82
  -8  -7   4  128.00    7.02
   9   7  -4   43.75    2.55
   9   7  -4   50.39    3.01
  -9  -7   4   42.22    2.36
  -9  -7   4   47.81    2.88
  10   7  -4   28.07    1.76
  10   7  -4   24.06    1.82
 -10  -7   4   28.67    1.66
 -10  -7   4   27.79    1.98
  11   7  -4   93.26    5.22
  11   7  -4  102.20    5.67
 -11  -7   4   76.86    4.19
 -11  -7   4   91.86    5.19
  12   7  -4    9.29    1.22
  12   7  -4    8.58    1.49
 -12  -7   4    8.44    0.75
 -12  -7   4    9.93    1.60
  13   7  -4   59.10    3.45
  13   7  -4   53.38    3.26
 -13  -7   4   47.82    3.16
 -13  -7   4   57.14    3.19
  14   7  -4   32.28    2.50
  14   7  -4   34.99    2.41
 -14  -7   4   24.56    3.04
 -14  -7   4   33.12    2.04
  -8   7  -5    6.85    1.07
   8  -7   5    8.74    1.23
  -7   7  -5   25.51    1.52
  -7   7  -5   27.94    1.81
   7  -7   5   26.75    2.13
   7  -7   5   23.21    1.64
  -6   7  -5    8.52    0.71
  -6   7  -5    7.39    0.96
   6  -7   5    5.77    1.45
   6  -7   5    6.66    1.03
  -5   7  -5   21.61    1.30
  -5   7  -5   23.40    1.73
   5  -7   5   23.09    1.72
   5  -7   5   22.56    1.90
  -4   7  -5   17.99    1.39
  -4   7  -5   16.81    1.04
   4  -7   5   18.61    1.62
   4  -7   5   16.57    1.30
  -3   7  -5    9.00    1.11
  -3   7  -5    9.31    0.69
   3  -7   5   10.03    1.23
   3  -7   5    9.28    0.67
   3  -7   5    9.47    1.07
  -2   7  -5   61.76    3.56
  -2   7  -5   62.36    3.42
   2  -7   5   60.64    3.52
   2  -7   5   53.84    2.96
  -1   7  -5   38.13    2.38
  -1   7  -5   41.24    2.30
   1  -7   5   39.04    2.39
   1  -7   5   37.92    2.12
   0  -7   5   10.23    1.21
   0  -7   5    8.06    0.61
   1   7  -5   29.18    1.66
   1   7  -5   28.40    1.86
  -1  -7   5   26.79    1.85
  -1  -7   5   26.78    1.54
   2   7  -5    0.67    1.10
   2   7  -5    1.31    0.40
  -2  -7   5    0.66    0.37
  -2  -7   5    1.21    0.86
   3   7  -5   49.64    2.74
   3   7  -5   53.10    3.17
  -3  -7   5   46.43    2.59
  -3  -7   5   50.93    2.96
   4   7  -5   78.09    4.26
   4   7  -5   77.91    4.45
  -4  -7   5   76.66    4.19
  -4  -7   5   85.83    4.78
   5   7  -5    0.83    0.47
   5   7  -5    1.10    1.16
  -5  -7   5   -0.05    0.41
  -5  -7   5    0.36    0.78
   6   7  -5   27.11    2.02
   6   7  -5   24.79    1.50
   7   7  -5    3.63    0.67
   7   7  -5    3.29    1.14
  -7  -7   5    3.50    0.92
  -7  -7   5    2.48    0.46
   8   7  -5   14.71    1.51
   8   7  -5   16.21    1.19
  -8  -7   5   16.56    1.42
  -8  -7   5   14.93    0.98
   9   7  -5   32.73    2.21
   9   7  -5   30.78    1.87
  10   7  -5    1.60    1.42
  10   7  -5    1.21    0.84
 -10  -7   5    1.45    0.49
 -10  -7   5    2.53    1.22
  11   7  -5   25.92    1.78
  11   7  -5   26.42    2.15
 -11  -7   5   20.36    1.25
 -11  -7   5   21.02    1.80
  12   7  -5    7.42    1.83
  12   7  -5    9.44    1.32
 -12  -7   5    9.06    1.65
 -12  -7   5    7.62    0.69
  13   7  -5    1.32    1.21
  13   7  -5   -0.47    1.58
 -13  -7   5    1.78    0.72
 -13  -7   5   -1.74    1.92
  14   7  -5    6.00    1.72
  14   7  -5    8.80    2.24
 -14  -7   5    6.87    2.49
 -14  -7   5    9.96    1.08
  -7   7  -6   63.31    3.61
   7  -7   6   71.38    4.13
  -6   7  -6   78.87    4.31
  -6   7  -6   74.10    4.16
   6  -7   6   61.49    3.53
   6  -7   6   72.97    4.33
  -5   7  -6   19.33    1.43
  -5   7  -6   20.97    1.29
   5  -7   6   22.22    1.92
   5  -7   6   26.38    1.81
  -4   7  -6   94.59    5.14
  -4   7  -6   93.43    5.20
   4  -7   6   97.92    5.52
   4  -7   6   95.43    5.29
  -3   7  -6   22.80    1.59
  -3   7  -6   26.57    1.54
   3  -7   6   24.32    1.92
   3  -7   6   20.07    1.55
  -2   7  -6   85.23    4.77
  -2   7  -6   72.30    3.95
   2  -7   6   81.81    4.57
   2  -7   6   73.59    4.20
   2  -7   6   66.80    3.66
  -1   7  -6  156.80    8.55
  -1   7  -6  166.10    8.95
   1  -7   6  141.30    7.76
   1  -7   6  158.50    8.55
   0   7  -6    0.88    0.42
   0   7  -6    3.40    1.06
   0  -7   6    2.00    1.15
   0  -7   6    0.59    0.37
   1   7  -6  169.10    9.22
   1   7  -6  180.10    9.70
  -1  -7   6  163.50    8.94
  -1  -7   6  169.80    9.16
   2   7  -6   74.84    4.26
   2   7  -6   72.70    3.97
  -2  -7   6   78.32    4.28
  -2  -7   6   75.76    4.29
   3   7  -6   58.13    3.19
   3   7  -6   69.43    4.01
  -3  -7   6   64.10    3.53
  -3  -7   6   61.07    3.51
   4   7  -6  226.90   12.36
   4   7  -6  264.90   14.24
  -4  -7   6  229.90   12.46
  -4  -7   6  223.90   12.06
   5   7  -6    3.08    1.32
   5   7  -6    4.44    0.58
  -5  -7   6    2.38    0.90
  -5  -7   6    2.76    0.49
   6   7  -6   88.77    4.85
   6   7  -6   90.21    5.10
  -6  -7   6   95.30    5.29
  -6  -7   6   88.55    4.83
   7   7  -6  124.00    6.73
   7   7  -6  132.40    7.31
  -7  -7   6  122.90    6.65
  -7  -7   6  121.80    6.67
   8   7  -6    3.96    0.69
   8   7  -6    3.52    1.33
  -8  -7   6    3.33    0.52
  -8  -7   6    4.91    1.11
   9   7  -6   97.21    5.34
   9   7  -6  103.50    5.83
  -9  -7   6  110.30    6.11
  -9  -7   6   95.73    5.20
  10   7  -6   23.44    1.61
  10   7  -6   19.03    2.00
 -10  -7   6   21.28    1.29
 -10  -7   6   18.49    1.62
  11   7  -6   45.94    2.80
  11   7  -6   49.12    3.23
 -11  -7   6   49.06    2.72
 -11  -7   6   39.53    2.60
  12   7  -6   88.19    5.16
  12   7  -6   87.35    4.89
 -12  -7   6   71.40    3.91
 -12  -7   6   73.27    4.36
  13   7  -6    3.07    2.36
  13   7  -6   -0.80    1.48
 -13  -7   6    0.81    2.12
 -13  -7   6    0.72    0.63
  14   7  -6   40.68    3.53
  14   7  -6   45.14    2.96
 -14  -7   6   40.30    2.41
 -14  -7   6   32.88    3.53
  -6   7  -7   20.16    1.56
   6  -7   7   19.68    1.64
  -5   7  -7    0.56    0.54
  -5   7  -7    1.76    1.04
   5  -7   7    1.04    1.16
   5  -7   7    2.62    1.57
  -4   7  -7   21.51    1.50
  -4   7  -7   23.63    1.42
   4  -7   7   21.35    1.67
   4  -7   7   26.40    2.15
  -3   7  -7    6.76    1.10
  -3   7  -7    5.67    0.61
   3  -7   7    7.98    1.12
   3  -7   7    6.88    1.42
   2  -7   7    5.22    0.97
   2  -7   7    6.97    1.42
  -1   7  -7   42.35    2.55
  -1   7  -7   37.78    2.12
   1  -7   7   39.15    2.41
   1  -7   7   37.66    2.44
   1  -7   7   40.23    2.25
   0   7  -7    2.20    0.50
   0   7  -7    3.35    0.96
   0  -7   7    2.90    0.93
   0  -7   7    0.72    1.05
   0  -7   7    1.83    0.41
   1   7  -7   27.93    1.61
   1   7  -7   32.46    2.16
   2   7  -7   34.52    1.97
   2   7  -7   36.99    2.37
   3   7  -7    1.68    1.08
   3   7  -7    0.93    0.45
  -3  -7   7    0.64    0.40
  -3  -7   7   -0.33    1.08
   4   7  -7   26.51    1.55
   4   7  -7   24.06    1.80
  -4  -7   7   25.21    1.85
  -4  -7   7   24.64    1.44
   5   7  -7   17.77    1.12
   5   7  -7   17.73    1.68
  -5  -7   7   19.23    1.58
  -5  -7   7   16.56    1.03
   6   7  -7   30.19    1.77
   6   7  -7   31.98    2.28
  -6  -7   7   31.85    1.83
  -6  -7   7   31.72    2.10
   7   7  -7   35.76    2.09
   7   7  -7   38.52    2.63
  -7  -7   7   28.94    1.68
  -7  -7   7   34.91    2.21
   8   7  -7    8.76    1.58
   8   7  -7    8.42    0.94
  -8  -7   7    8.63    1.21
  -8  -7   7    7.73    0.69
   9   7  -7    7.56    1.68
   9   7  -7   11.51    1.08
  -9  -7   7   10.22    1.41
  -9  -7   7   12.53    0.88
  10   7  -7   25.65    1.72
  10   7  -7   25.03    2.26
 -10  -7   7   23.43    1.40
 -10  -7   7   24.00    2.02
  11   7  -7    1.81    0.96
  11   7  -7    2.38    1.69
 -11  -7   7    2.37    1.30
 -11  -7   7    2.81    0.57
  12   7  -7   21.68    1.77
  12   7  -7   21.46    2.44
  13   7  -7    6.26    1.58
  13   7  -7    9.45    2.62
 -13  -7   7    5.16    2.30
 -13  -7   7    5.77    0.78
  -5   7  -8   38.45    2.45
   5  -7   8   38.45    2.67
  -4   7  -8   18.08    1.57
  -4   7  -8   17.16    1.13
   4  -7   8   21.00    1.76
   4  -7   8   23.77    2.23
  -3   7  -8   86.45    4.72
  -3   7  -8   90.33    5.05
   3  -7   8   97.83    5.62
   3  -7   8   90.28    5.09
  -2   7  -8   10.11    1.34
  -2   7  -8    8.33    0.73
  -1   7  -8   80.68    4.41
  -1   7  -8   81.69    4.60
   1  -7   8   80.99    4.69
   1  -7   8   89.17    5.03
   0   7  -8  105.00    5.81
   0   7  -8  112.00    6.08
   0  -7   8   96.34    5.36
   0  -7   8   98.66    5.58
   1   7  -8    6.34    0.61
   1   7  -8    6.44    1.09
  -1  -7   8    7.71    1.12
  -1  -7   8    6.38    1.63
  -1  -7   8    5.04    0.54
   2   7  -8  139.30    7.53
   2   7  -8  135.00    7.40
  -2  -7   8  142.60    7.90
  -2  -7   8  144.20    7.78
   3   7  -8   32.95    2.22
   3   7  -8   29.49    1.70
  -3  -7   8   27.50    1.59
  -3  -7   8   31.56    2.20
   4   7  -8   28.14    2.01
   4   7  -8   31.91    1.84
  -4  -7   8   27.62    1.59
  -4  -7   8   29.00    2.10
   5   7  -8  100.20    5.62
   5   7  -8  102.30    5.55
  -5  -7   8  111.70    6.22
  -5  -7   8  103.50    5.61
   6   7  -8    0.82    0.62
   6   7  -8   -1.00    1.21
  -6  -7   8    0.20    0.42
  -6  -7   8   -0.05    1.11
   7   7  -8  141.40    7.82
   7   7  -8  128.60    6.98
  -7  -7   8  136.00    7.35
  -7  -7   8  137.80    7.57
   8   7  -8   75.08    4.16
   8   7  -8   76.60    4.57
  -8  -7   8   67.78    3.71
  -8  -7   8   69.69    4.01
   9   7  -8    8.01    1.00
   9   7  -8    8.92    1.90
  -9  -7   8    9.41    0.76
  -9  -7   8    5.84    1.35
  10   7  -8  100.50    5.89
  10   7  -8   97.05    5.35
 -10  -7   8  100.00    5.43
 -10  -7   8  111.70    6.24
  11   7  -8   12.94    2.40
  11   7  -8    9.60    1.29
 -11  -7   8   10.24    0.82
 -11  -7   8    8.07    1.58
  12   7  -8   49.45    3.80
  12   7  -8   43.75    2.80
  -3   7  -9   32.61    2.23
  -3   7  -9   28.20    1.66
   3  -7   9   36.65    2.95
   3  -7   9   30.76    2.24
  -2   7  -9    9.89    1.15
  -2   7  -9    8.64    0.76
   2  -7   9    8.46    1.79
   2  -7   9    9.55    1.40
  -1   7  -9    3.01    0.61
  -1   7  -9    1.68    0.94
   1  -7   9    1.94    1.51
   1  -7   9    2.74    1.32
   0   7  -9   48.90    2.73
   0   7  -9   47.93    2.92
   0  -7   9   43.13    2.89
   0  -7   9   49.68    2.96
   1   7  -9    0.06    0.55
   1   7  -9    0.97    1.09
  -1  -7   9   -0.91    1.66
  -1  -7   9    0.02    1.17
   2   7  -9   25.02    1.49
   2   7  -9   26.89    1.83
  -2  -7   9   22.37    1.73
  -2  -7   9   27.80    2.29
   3   7  -9   34.66    1.98
   3   7  -9   35.30    2.28
  -3  -7   9   31.72    2.37
  -3  -7   9   27.62    1.95
  -3  -7   9   30.32    1.74
   4   7  -9    0.84    0.52
   4   7  -9    1.16    1.19
  -4  -7   9    0.70    0.43
  -4  -7   9    0.05    1.50
   5   7  -9   23.80    1.96
   5   7  -9   24.50    1.47
  -5  -7   9   22.33    1.32
  -5  -7   9   24.04    1.98
   6   7  -9    7.45    0.80
   6   7  -9    7.46    1.51
  -6  -7   9    6.33    0.57
  -6  -7   9    7.13    1.31
   7   7  -9   11.04    1.68
   7   7  -9   10.10    0.91
  -7  -7   9    9.40    0.74
  -7  -7   9    9.36    1.47
   8   7  -9   18.21    1.29
   8   7  -9   18.64    2.05
  -8  -7   9   18.74    1.17
  -8  -7   9   16.75    1.57
   9   7  -9    5.06    1.82
   9   7  -9    5.76    0.93
  -9  -7   9    4.55    0.57
  -9  -7   9    4.61    1.56
  10   7  -9   10.07    1.29
  10   7  -9    6.86    2.35
 -10  -7   9   10.31    0.80
 -10  -7   9    8.35    1.69
  11   7  -9    3.90    2.33
  11   7  -9    1.56    1.37
 -11  -7   9    1.67    1.93
 -11  -7   9    2.60    0.62
 -12  -7   9    1.12    0.76
 -12  -7   9    0.89    2.36
  -2   7 -10   70.10    3.85
  -2   7 -10   71.86    4.15
   2  -7  10   81.41    4.76
   2  -7  10   75.65    4.66
  -1   7 -10   -0.02    0.63
  -1   7 -10    0.09    1.20
   1  -7  10    0.64    1.91
   1  -7  10   -1.04    1.39
   0   7 -10   52.68    2.95
   0   7 -10   55.11    3.28
   0  -7  10   47.85    3.17
   0  -7  10   52.98    3.23
   1   7 -10   39.09    2.23
   1   7 -10   34.59    2.30
  -1  -7  10   36.77    2.91
  -1  -7  10   39.67    2.69
   2   7 -10   18.89    1.21
   2   7 -10   20.65    1.73
  -2  -7  10   21.44    2.31
  -2  -7  10   20.96    1.81
   3   7 -10   97.99    5.33
   3   7 -10   98.56    5.52
  -3  -7  10   95.27    5.54
  -3  -7  10   94.03    5.32
   4   7 -10   19.47    1.24
   4   7 -10   20.87    1.77
  -4  -7  10   19.76    2.11
  -4  -7  10   18.66    1.82
   5   7 -10   43.74    2.48
   5   7 -10   39.50    2.58
  -5  -7  10   36.92    2.70
  -5  -7  10   37.10    2.53
  -5  -7  10   37.87    2.13
   6   7 -10   70.73    3.90
   6   7 -10   63.70    3.79
  -6  -7  10   71.13    4.19
  -6  -7  10   73.02    3.99
   7   7 -10    0.74    0.74
   7   7 -10    0.80    1.56
  -7  -7  10   -1.02    1.55
  -7  -7  10    0.52    0.48
   8   7 -10   57.58    3.30
   8   7 -10   65.47    4.16
  -8  -7  10   70.38    4.15
  -8  -7  10   61.84    3.40
   9   7 -10   12.36    1.39
   9   7 -10   11.98    1.87
  -9  -7  10   15.12    1.95
  10   7 -10    8.47    1.42
  10   7 -10   12.18    2.04
 -10  -7  10   10.53    0.81
  -1   7 -11    6.58    1.37
  -1   7 -11    9.01    0.81
   1  -7  11    8.47    2.29
   1  -7  11    7.36    2.16
   0  -7  11    8.80    2.04
   0  -7  11    3.84    2.09
   1   7 -11   13.13    0.96
   1   7 -11   12.86    1.49
  -1  -7  11   15.11    2.19
  -1  -7  11   11.60    1.94
   2   7 -11    1.20    0.59
   2   7 -11    0.35    1.26
  -2  -7  11   -0.16    2.21
  -2  -7  11    2.29    1.65
   3   7 -11   13.94    1.63
   3   7 -11   13.70    1.04
  -3  -7  11   13.19    1.65
  -3  -7  11   14.37    2.15
   4   7 -11   16.72    1.75
   4   7 -11   15.85    1.10
  -4  -7  11   13.15    2.02
  -4  -7  11   19.03    1.95
   5   7 -11    1.19    1.51
   5   7 -11    2.13    0.71
  -5  -7  11    4.85    1.86
  -5  -7  11    3.70    1.91
   6   7 -11   18.97    1.97
   6   7 -11   21.56    1.44
  -6  -7  11   20.21    2.13
  -6  -7  11   15.72    2.02
   7   7 -11    4.44    1.73
   7   7 -11    3.40    0.94
  -7  -7  11    0.30    2.10
  -7  -7  11    0.18    1.80
   8   7 -11    3.52    1.75
   8   7 -11    6.85    1.35
  -8  -7  11    5.13    1.67
  -8  -7  11    6.26    2.30
   9   7 -11    6.15    1.35
   9   7 -11    4.39    1.77
  -9  -7  11    5.40    1.94
  -9  -7  11   -1.04    2.06
   1   7 -12   36.06    2.63
   1   7 -12   40.62    2.32
  -1  -7  12   44.87    3.55
  -1  -7  12   43.46    3.45
   2   7 -12   14.28    1.70
   2   7 -12   13.51    1.02
  -2  -7  12   13.68    2.64
  -2  -7  12   19.49    2.87
   3   7 -12   16.20    1.79
   3   7 -12   20.25    1.38
  -3  -7  12   13.35    2.44
  -3  -7  12   15.31    2.60
   4   7 -12   55.94    3.54
   4   7 -12   57.28    3.23
  -4  -7  12   49.55    3.50
  -4  -7  12   59.62    4.11
   5   7 -12    0.76    1.72
   5   7 -12    1.84    0.91
  -5  -7  12   -0.26    2.12
  -5  -7  12   -0.58    2.27
   6   7 -12   45.68    2.71
   6   7 -12   45.89    3.25
  -7   8  11   28.12    3.48
  -7   8  11   28.75    2.49
   7  -8 -11   27.43    1.68
   7  -8 -11   22.25    2.65
  -6   8  11    1.55    1.81
  -6   8  11   -3.73    3.10
   6  -8 -11    0.88    1.86
   6  -8 -11    0.05    0.69
  -5   8  11   30.36    2.45
  -5   8  11   28.56    2.99
   5  -8 -11   32.53    1.91
   5  -8 -11   30.17    2.58
  -4   8  11   16.05    2.50
  -4   8  11   18.84    2.04
   4  -8 -11   19.82    2.29
   4  -8 -11   16.48    1.13
  -3   8  11   12.02    1.84
  -3   8  11   10.04    2.18
   3  -8 -11   10.63    1.90
   3  -8 -11   12.56    0.98
  -2   8  11   48.96    3.15
  -2   8  11   49.55    3.63
   2  -8 -11   43.37    2.45
   2  -8 -11   49.85    3.25
  -1   8  11   10.04    1.77
  -1   8  11    7.46    2.16
   1  -8 -11    8.96    1.77
   1  -8 -11    9.61    0.89
   0   8  11   10.10    2.02
   0   8  11    9.91    1.78
   0  -8 -11   11.79    1.06
   0  -8 -11   13.99    2.11
  -9   8  10   15.82    1.70
  -9   8  10   16.45    2.54
   9  -8 -10   16.94    2.24
   9  -8 -10   20.36    1.33
  -8   8  10    2.65    2.23
  -8   8  10    1.30    1.46
   8  -8 -10    0.60    1.72
   8  -8 -10    0.09    0.56
  -7   8  10   41.01    2.62
  -7   8  10   43.54    3.33
   7  -8 -10   44.12    2.49
   7  -8 -10   44.06    2.94
  -6   8  10    9.43    2.35
  -6   8  10    7.65    1.38
   6  -8 -10    9.04    1.40
   6  -8 -10    8.01    0.79
  -5   8  10   11.39    1.91
  -5   8  10   11.12    1.44
   5  -8 -10   10.73    1.53
   5  -8 -10   11.69    0.88
  -4   8  10   37.21    2.42
  -4   8  10   36.48    2.79
   4  -8 -10   33.01    1.90
   4  -8 -10   33.16    2.31
  -3   8  10    0.67    1.60
  -3   8  10   -0.09    1.25
   3  -8 -10    0.77    1.27
   3  -8 -10    0.32    0.56
  -2   8  10   25.57    2.35
  -2   8  10   28.14    2.11
   2  -8 -10   24.87    1.49
   2  -8 -10   26.79    2.10
  -1   8  10   23.12    1.93
  -1   8  10   19.05    1.93
   1  -8 -10   20.69    2.04
   1  -8 -10   21.34    1.31
   0   8  10    5.58    1.44
   0   8  10    6.07    1.59
   0  -8 -10    4.70    1.78
   0  -8 -10    5.43    0.70
   1   8  10   33.27    2.33
   1   8  10   33.39    2.47
  -1  -8 -10   38.62    2.88
  -1  -8 -10   34.20    1.99
 -10   8   9    3.23    2.06
 -10   8   9    2.26    1.23
  10  -8  -9    2.78    1.62
  10  -8  -9    1.20    2.05
  -9   8   9   26.77    2.64
  -9   8   9   26.48    1.91
   9  -8  -9   24.50    2.04
   9  -8  -9   23.67    1.43
  -8   8   9    1.91    1.12
  -8   8   9    1.27    1.82
   8  -8  -9    1.95    0.60
   8  -8  -9    2.01    1.35
  -7   8   9   37.68    2.39
  -7   8   9   39.11    2.89
   7  -8  -9   38.97    2.48
   7  -8  -9   41.47    2.32
  -6   8   9   46.32    3.12
  -6   8   9   48.58    2.90
   6  -8  -9   49.27    3.03
   6  -8  -9   46.62    2.61
  -5   8   9   -0.16    1.10
  -5   8   9    3.24    1.61
   5  -8  -9    1.19    0.53
   5  -8  -9    2.18    1.15
  -4   8   9   44.34    2.92
  -4   8   9   43.39    2.64
   4  -8  -9   46.97    2.62
   4  -8  -9   42.09    2.61
  -3   8   9   10.35    1.26
  -3   8   9   12.05    1.70
   3  -8  -9   12.04    1.52
   3  -8  -9   13.00    0.93
  -2   8   9   13.89    1.53
  -2   8   9   15.09    1.63
   2  -8  -9   12.60    1.31
   2  -8  -9   14.93    1.00
  -1   8   9   41.60    2.66
  -1   8   9   47.01    2.87
   1  -8  -9   45.60    2.54
   1  -8  -9   46.53    2.86
   0   8   9   -0.81    1.23
   0   8   9   -0.09    1.21
   0  -8  -9    0.83    1.27
   0  -8  -9    0.17    0.51
   1   8   9   43.09    2.72
   1   8   9   49.88    3.10
  -1  -8  -9   45.88    2.56
  -1  -8  -9   43.76    2.86
   2   8   9   38.47    2.52
   2   8   9   43.79    2.89
  -2  -8  -9   38.54    2.19
  -2  -8  -9   36.68    2.66
  -3  -8  -9    1.06    0.65
 -11   8   8   32.61    2.78
 -11   8   8   31.23    2.08
  11  -8  -8   30.72    2.79
  11  -8  -8   33.06    2.51
 -10   8   8    1.26    1.03
 -10   8   8    1.31    1.79
  10  -8  -8    1.52    1.81
  10  -8  -8    1.45    0.53
  10  -8  -8    2.49    1.45
  -9   8   8   47.76    3.29
  -9   8   8   49.37    2.89
   9  -8  -8   44.96    2.80
   9  -8  -8   44.24    2.47
  -8   8   8    9.16    1.08
  -8   8   8   10.55    1.74
   8  -8  -8   12.05    0.87
   8  -8  -8    8.36    1.26
  -7   8   8    6.00    0.95
  -7   8   8    9.04    1.83
   7  -8  -8    7.52    0.69
   7  -8  -8    7.61    1.13
  -6   8   8   65.59    3.98
  -6   8   8   60.72    3.47
   6  -8  -8   63.53    3.65
   6  -8  -8   64.60    3.55
  -5   8   8    2.68    1.62
  -5   8   8    3.55    1.00
   5  -8  -8    3.00    1.08
   5  -8  -8    3.14    0.52
  -4   8   8   44.46    2.66
  -4   8   8   43.47    2.82
   4  -8  -8   42.55    2.38
   4  -8  -8   46.23    2.81
  -3   8   8   55.21    3.21
  -3   8   8   60.16    3.60
   3  -8  -8   56.19    3.26
   3  -8  -8   57.41    3.16
  -2   8   8    1.13    0.99
  -2   8   8    1.60    1.29
   2  -8  -8    1.20    0.49
   2  -8  -8    1.36    1.03
  -1   8   8   62.70    3.61
  -1   8   8   59.39    3.51
   1  -8  -8   64.26    3.52
   1  -8  -8   57.64    3.35
   0   8   8   35.44    2.32
   0   8   8   32.87    2.13
   0  -8  -8   35.03    2.15
   0  -8  -8   34.54    1.95
   1   8   8   27.68    1.97
   1   8   8   32.66    2.19
  -1  -8  -8   30.31    1.74
  -1  -8  -8   25.08    1.86
   2   8   8   43.30    2.70
   2   8   8   43.47    2.73
  -2  -8  -8   37.51    2.12
  -2  -8  -8   41.68    2.67
   3   8   8    8.19    1.46
   3   8   8    9.93    1.33
  -3  -8  -8    9.23    1.56
  -3  -8  -8    8.87    0.75
   4   8   8   32.26    2.27
   4   8   8   27.37    2.15
  -4  -8  -8   28.67    1.67
  -4  -8  -8   24.59    2.29
 -12   8   7    1.17    0.99
 -12   8   7   -1.70    1.89
  12  -8  -7    1.32    1.83
  12  -8  -7    1.46    2.15
 -11   8   7   44.10    2.94
 -11   8   7   46.22    2.65
  11  -8  -7   48.25    3.29
  11  -8  -7   49.13    3.19
 -10   8   7   14.74    1.15
 -10   8   7   13.01    1.86
  10  -8  -7   12.45    1.52
  10  -8  -7   10.53    1.70
  -9   8   7   47.48    3.14
  -9   8   7   44.52    2.60
   9  -8  -7   38.26    2.16
   9  -8  -7   46.83    2.90
  -8   8   7   78.42    4.35
  -8   8   7   68.20    4.05
   8  -8  -7   69.59    3.81
   8  -8  -7   77.74    4.41
  -7   8   7    6.88    0.91
  -7   8   7    7.43    1.61
   7  -8  -7    7.99    1.17
   7  -8  -7    8.83    0.72
  -6   8   7   45.16    2.99
  -6   8   7   41.57    2.44
   6  -8  -7   39.75    2.23
   6  -8  -7   39.56    2.40
  -5   8   7   34.51    2.46
  -5   8   7   32.52    1.99
   5  -8  -7   30.93    1.95
   5  -8  -7   32.46    1.85
  -4   8   7   29.94    2.12
  -4   8   7   27.74    1.75
   4  -8  -7   30.69    1.95
   4  -8  -7   31.63    1.81
  -3   8   7   91.36    5.15
  -3   8   7  101.00    5.56
   3  -8  -7   92.61    5.13
   3  -8  -7   97.22    5.28
  -2   8   7   30.85    1.96
  -2   8   7   30.34    2.16
   2  -8  -7   31.71    1.81
   2  -8  -7   28.45    1.86
  -1   8   7   23.17    1.63
  -1   8   7   23.22    1.75
   1  -8  -7   23.23    1.66
   1  -8  -7   23.19    1.37
   0   8   7   40.95    2.56
   0   8   7   40.64    2.51
   1   8   7    6.24    1.16
   1   8   7    4.93    0.96
  -1  -8  -7    6.95    0.62
  -1  -8  -7    4.60    1.10
   2   8   7   67.54    3.90
   2   8   7   70.30    4.00
  -2  -8  -7   69.08    3.78
  -2  -8  -7   67.85    3.88
   3   8   7   17.77    1.52
   3   8   7   18.79    1.53
  -3  -8  -7   19.66    1.19
  -3  -8  -7   15.79    1.42
   4   8   7   17.59    1.57
   4   8   7   17.06    1.50
   5   8   7   57.10    3.38
   5   8   7   60.15    3.51
  -5  -8  -7   52.98    3.30
  -5  -8  -7   52.18    2.88
 -13   8   6   28.81    1.87
 -13   8   6   23.05    2.67
  13  -8  -6   26.19    2.94
  13  -8  -6   25.56    2.38
 -12   8   6    2.82    1.55
 -12   8   6    3.95    0.92
  12  -8  -6    3.82    1.80
  12  -8  -6    0.87    1.74
 -11   8   6   23.68    1.53
 -11   8   6   30.72    2.32
  11  -8  -6   24.93    2.07
  11  -8  -6   26.85    2.21
 -10   8   6   38.91    2.26
 -10   8   6   38.55    2.62
  10  -8  -6   43.50    2.42
  10  -8  -6   40.08    2.65
  10  -8  -6   35.57    2.43
  -9   8   6    5.32    1.57
  -9   8   6    3.13    0.71
   9  -8  -6    2.21    0.48
   9  -8  -6    1.00    1.33
  -8   8   6   49.87    3.15
  -8   8   6   46.40    2.64
   8  -8  -6   54.49    3.21
   8  -8  -6   45.85    2.55
  -7   8   6   13.00    1.02
  -7   8   6   13.13    1.70
   7  -8  -6   12.84    1.23
   7  -8  -6   12.96    0.89
  -6   8   6    7.47    0.84
  -6   8   6    8.71    1.56
   6  -8  -6    9.10    1.13
   6  -8  -6    6.42    0.59
  -5   8   6   69.58    3.87
  -5   8   6   73.56    4.31
   5  -8  -6   75.32    4.11
   5  -8  -6   75.15    4.20
  -4   8   6    1.24    0.63
  -4   8   6    1.89    1.31
   4  -8  -6    2.67    0.72
   4  -8  -6    2.23    0.46
  -3   8   6   33.69    2.33
  -3   8   6   36.33    2.14
   3  -8  -6   42.03    2.39
  -2   8   6   32.48    1.94
  -2   8   6   31.98    2.22
   2  -8  -6   37.22    2.10
   2  -8  -6   32.52    2.00
  -1   8   6   14.51    1.44
  -1   8   6   13.21    1.12
   1  -8  -6   15.93    1.02
   1  -8  -6   14.02    1.17
   0   8   6   71.20    4.05
   0   8   6   78.74    4.38
   0  -8  -6   76.06    4.15
   0  -8  -6   82.49    4.56
   1   8   6   11.26    1.21
   1   8   6   10.56    0.97
  -1  -8  -6   11.85    1.14
  -1  -8  -6   10.11    0.73
   2   8   6   29.29    2.01
   2   8   6   26.36    1.71
  -2  -8  -6   30.76    1.76
  -2  -8  -6   25.03    1.73
   3   8   6   36.75    2.29
   3   8   6   32.16    2.00
  -3  -8  -6   33.26    2.13
  -3  -8  -6   34.14    1.93
   4   8   6    0.70    0.95
   4   8   6    0.64    1.00
  -4  -8  -6   -0.14    1.06
  -4  -8  -6    0.41    0.45
   5   8   6   60.37    3.48
   5   8   6   53.06    3.10
  -5  -8  -6   50.37    2.78
  -5  -8  -6   49.40    2.98
   6   8   6   26.90    1.95
   6   8   6   26.61    1.82
  -6  -8  -6   23.07    1.37
  -6  -8  -6   25.51    2.04
 -13   8   5   31.52    1.94
 -13   8   5   34.80    2.93
  13  -8  -5   40.19    3.13
  13  -8  -5   38.45    3.03
 -12   8   5   27.01    2.44
 -12   8   5   34.29    2.05
  12  -8  -5   32.27    2.58
  12  -8  -5   30.57    2.39
 -11   8   5    2.46    0.80
 -11   8   5    3.23    1.54
  11  -8  -5    2.42    1.68
  11  -8  -5    5.68    1.58
 -10   8   5   50.48    2.87
 -10   8   5   50.00    3.04
  10  -8  -5   41.86    2.75
  10  -8  -5   44.79    2.81
  -9   8   5    3.63    0.70
  -9   8   5    2.92    1.30
   9  -8  -5    5.12    0.53
   9  -8  -5    4.52    1.32
  -8   8   5   46.37    2.62
  -8   8   5   51.05    3.18
   8  -8  -5   52.44    3.13
   8  -8  -5   46.65    2.59
  -7   8   5   68.68    3.79
  -7   8   5   67.77    3.94
   7  -8  -5   72.93    4.14
   7  -8  -5   80.11    4.37
  -6   8   5    2.75    1.43
  -6   8   5    2.28    0.57
   6  -8  -5    4.45    0.95
   6  -8  -5    2.69    0.47
  -5   8   5   78.78    4.35
  -5   8   5   74.68    4.38
   5  -8  -5   89.79    4.90
   5  -8  -5   79.05    4.46
  -4   8   5   44.06    2.50
  -4   8   5   37.86    2.50
   4  -8  -5   45.80    2.56
   4  -8  -5   39.22    2.32
  -3   8   5   52.71    2.97
  -3   8   5   47.83    2.94
   3  -8  -5   52.14    2.96
   3  -8  -5   49.35    2.74
  -2   8   5  103.50    5.65
  -2   8   5  114.90    6.36
   2  -8  -5  114.00    6.17
   2  -8  -5  108.20    5.90
  -1   8   5    2.06    1.10
  -1   8   5    0.63    0.65
   1  -8  -5    1.30    0.45
   1  -8  -5    1.40    0.72
   0   8   5  104.80    5.75
   0   8   5   98.54    5.46
   0  -8  -5   96.24    5.28
   0  -8  -5  101.90    5.52
   1   8   5   66.42    3.76
   1   8   5   75.16    4.19
  -1  -8  -5   73.34    4.08
  -1  -8  -5   73.63    4.02
   2   8   5    6.34    1.02
   2   8   5    6.26    0.85
  -2  -8  -5    5.08    0.83
  -2  -8  -5    6.82    0.61
   3   8   5  102.90    5.66
   3   8   5   98.60    5.46
  -3  -8  -5  104.10    5.74
  -3  -8  -5  103.00    5.58
   4   8   5   18.73    1.46
   4   8   5   16.81    1.33
  -4  -8  -5   17.80    1.35
  -4  -8  -5   17.08    1.05
   5   8   5   32.08    2.00
   5   8   5   32.93    2.10
  -5  -8  -5   26.91    1.80
  -5  -8  -5   28.08    1.62
   6   8   5   64.00    3.67
   6   8   5   66.20    3.77
  -6  -8  -5   62.22    3.59
  -6  -8  -5   53.64    2.97
   7   8   5    0.12    1.04
   7   8   5    0.78    1.07
  -7  -8  -5    0.62    0.52
  -7  -8  -5   -0.61    1.25
 -13   8   4   12.69    1.04
 -13   8   4   12.55    2.00
  13  -8  -4   15.92    2.45
  13  -8  -4   13.80    2.06
 -12   8   4   32.07    2.43
 -12   8   4   34.22    1.98
 -11   8   4    0.04    1.44
 -11   8   4    0.92    0.69
  11  -8  -4    1.00    1.84
  11  -8  -4   -0.10    1.49
 -10   8   4   55.12    3.10
 -10   8   4   52.29    3.20
  10  -8  -4   58.25    3.52
  10  -8  -4   50.84    3.11
  -9   8   4   18.93    1.26
  -9   8   4   19.23    1.61
   9  -8  -4   20.38    1.64
   9  -8  -4   19.21    1.78
   9  -8  -4   21.50    1.28
  -8   8   4   16.26    1.13
  -8   8   4   16.17    1.59
   8  -8  -4   14.13    0.90
   8  -8  -4   15.81    1.56
  -7   8   4   99.30    5.57
  -7   8   4   92.50    5.06
   7  -8  -4   97.89    5.44
   7  -8  -4   87.93    4.79
  -6   8   4   20.14    1.30
  -6   8   4   20.00    1.78
   6  -8  -4   19.93    1.21
   6  -8  -4   20.07    1.55
  -5   8   4   72.23    3.96
  -5   8   4   72.39    4.22
   5  -8  -4   76.53    4.27
   5  -8  -4   71.68    3.93
  -4   8   4   72.45    3.98
  -4   8   4   76.65    4.42
   4  -8  -4   80.85    4.41
   4  -8  -4   79.73    4.41
  -3   8   4    5.94    0.66
  -3   8   4    5.62    1.21
   3  -8  -4    5.51    0.55
   3  -8  -4    7.14    0.81
  -2   8   4  131.10    7.11
  -2   8   4  115.40    6.37
   2  -8  -4  141.10    7.62
   2  -8  -4  132.60    7.20
  -1   8   4   66.69    3.82
  -1   8   4   59.41    3.30
   1  -8  -4   61.14    3.35
   1  -8  -4   60.21    3.35
   0   8   4   16.70    1.13
   0   8   4   17.58    1.49
   0  -8  -4   16.80    1.21
   0  -8  -4   19.04    1.16
   1   8   4   58.13    3.27
   1   8   4   54.77    3.16
  -1  -8  -4   63.48    3.55
  -1  -8  -4   58.15    3.19
   2   8   4    6.58    0.94
   2   8   4    5.30    0.83
  -2  -8  -4    6.24    0.81
  -2  -8  -4    6.25    0.54
   3   8   4   54.66    3.13
   3   8   4   54.19    3.09
  -3  -8  -4   51.94    2.97
  -3  -8  -4   57.29    3.15
   4   8   4   82.35    4.57
   4   8   4   86.47    4.82
  -4  -8  -4   75.41    4.12
  -4  -8  -4   85.94    4.78
   5   8   4    2.70    0.98
   5   8   4    2.89    0.85
  -5  -8  -4    2.19    0.99
  -5  -8  -4    2.45    0.43
   6   8   4   58.68    3.39
   6   8   4   62.11    3.57
  -6  -8  -4   56.05    3.26
  -6  -8  -4   54.09    2.98
   7   8   4   13.69    1.26
   7   8   4   14.41    1.31
  -7  -8  -4   11.52    0.81
  -7  -8  -4   12.23    1.26
   8   8   4   12.78    1.29
   8   8   4   11.86    1.34
  -8  -8  -4   12.02    1.51
  -8  -8  -4   12.97    0.90
 -13   8   3   -0.88    1.81
 -13   8   3    0.93    0.76
  13  -8  -3    2.92    2.07
  13  -8  -3   -1.43    2.16
 -12   8   3   45.23    2.58
 -12   8   3   45.38    2.84
  12  -8  -3   45.71    3.08
  12  -8  -3   49.35    3.56
 -11   8   3   23.77    1.98
 -11   8   3   23.51    1.45
  11  -8  -3   24.29    2.21
  11  -8  -3   24.86    2.10
 -10   8   3   25.57    1.57
 -10   8   3   25.62    1.95
  10  -8  -3   26.60    2.22
  10  -8  -3   24.81    1.90
  -9   8   3   81.37    4.66
  -9   8   3   82.67    4.53
   9  -8  -3   77.17    4.20
   9  -8  -3   76.67    4.45
   9  -8  -3   67.87    3.88
  -8   8   3    4.46    0.65
  -8   8   3    4.06    1.25
   8  -8  -3    3.23    1.35
   8  -8  -3    4.02    0.45
  -7   8   3   53.54    3.24
  -7   8   3   45.92    2.58
   7  -8  -3   47.90    2.65
   7  -8  -3   49.81    2.98
  -6   8   3   89.22    4.87
  -6   8   3   85.63    4.87
   6  -8  -3   89.35    4.86
   6  -8  -3   75.58    4.26
  -5   8   3   11.84    0.84
  -5   8   3   13.94    1.45
   5  -8  -3   13.27    1.18
   5  -8  -3   13.72    0.89
  -4   8   3  117.50    6.54
  -4   8   3  125.00    6.77
   4  -8  -3  115.90    6.34
   4  -8  -3  132.00    7.14
  -3   8   3   22.26    1.33
  -3   8   3   21.66    1.67
   3  -8  -3   24.85    1.45
   3  -8  -3   23.42    1.54
  -2   8   3   60.56    3.35
  -2   8   3   56.87    3.32
   2  -8  -3   62.10    3.49
   2  -8  -3   61.87    3.40
  -1   8   3  103.70    5.75
  -1   8   3  110.20    5.99
   1  -8  -3  111.80    6.05
   1  -8  -3  113.40    6.18
   0   8   3    1.89    0.99
   0   8   3    2.62    0.55
   0  -8  -3    2.10    0.67
   0  -8  -3    2.94    0.42
   1   8   3  144.80    7.84
   1   8   3  149.60    8.16
  -1  -8  -3  150.00    8.12
  -1  -8  -3  139.90    7.55
   2   8   3   55.70    3.19
   2   8   3   58.15    3.26
  -2  -8  -3   61.53    3.44
  -2  -8  -3   58.23    3.20
   3   8   3   16.91    1.21
   3   8   3   15.38    1.23
  -3  -8  -3   16.93    1.30
  -3  -8  -3   16.38    1.01
   4   8   3  136.20    7.44
   4   8   3  136.60    7.43
  -4  -8  -3  140.90    7.67
  -4  -8  -3  138.60    7.48
   5   8   3    4.94    0.95
   5   8   3    4.19    0.87
  -5  -8  -3    4.88    1.01
  -5  -8  -3    3.51    0.48
   6   8   3   97.47    5.39
   6   8   3   87.77    4.86
  -6  -8  -3   82.66    4.62
  -6  -8  -3   86.20    4.69
   7   8   3   92.17    5.11
   7   8   3   95.03    5.29
  -7  -8  -3   88.18    4.91
  -7  -8  -3   83.99    4.57
   8   8   3    0.44    1.07
   8   8   3    0.48    1.08
  -8  -8  -3    1.25    1.14
  -8  -8  -3    1.59    0.50
   9   8   3   40.81    2.49
  -9  -8  -3   43.57    2.44
 -12   8   2   16.88    1.18
 -12   8   2   16.06    1.77
  12  -8  -2   15.69    2.13
  12  -8  -2   18.35    2.02
 -11   8   2   64.27    3.55
 -11   8   2   58.55    3.55
  11  -8  -2   54.47    3.42
  11  -8  -2   60.25    3.60
 -10   8   2    0.68    0.58
 -10   8   2    0.81    1.17
  10  -8  -2   -1.25    1.48
  10  -8  -2    2.31    1.29
  -9   8   2   62.20    3.62
  -9   8   2   61.30    3.42
   9  -8  -2   58.46    3.39
   9  -8  -2   62.52    3.71
   9  -8  -2   50.27    2.78
  -8   8   2   32.84    1.90
  -8   8   2   37.60    2.50
   8  -8  -2   41.43    2.32
   8  -8  -2   38.23    2.47
  -7   8   2   25.66    1.87
  -7   8   2   21.85    1.34
   7  -8  -2   24.43    1.79
   7  -8  -2   20.71    1.23
  -6   8   2   98.62    5.51
  -6   8   2   95.68    5.21
   6  -8  -2  103.60    5.74
   6  -8  -2   99.52    5.40
  -5   8   2    6.65    1.25
  -5   8   2    8.66    0.70
   5  -8  -2    8.53    0.66
   5  -8  -2    8.69    1.03
  -4   8   2  101.40    5.51
  -4   8   2  115.90    6.43
   4  -8  -2  111.70    6.12
   4  -8  -2  113.20    6.13
  -3   8   2   47.32    2.90
  -3   8   2   45.42    2.53
   3  -8  -2   49.12    2.72
   3  -8  -2   48.21    2.78
  -2   8   2    5.19    0.55
  -2   8   2    5.09    1.09
   2  -8  -2    5.14    0.82
   2  -8  -2    4.86    0.47
  -1   8   2  100.90    5.61
  -1   8   2  108.80    5.91
   1  -8  -2   99.29    5.38
   1  -8  -2  111.10    6.06
   0   8   2   34.74    2.26
   0   8   2   30.57    1.77
   0  -8  -2   35.70    2.10
   0  -8  -2   34.92    1.96
   1   8   2   84.37    4.62
   1   8   2   82.92    4.65
  -1  -8  -2   84.29    4.63
  -1  -8  -2   91.84    4.99
   2   8   2  128.20    7.02
   2   8   2  115.80    6.30
  -2  -8  -2  112.30    6.07
  -2  -8  -2  119.50    6.50
   3   8   2   -0.02    0.85
   3   8   2   -0.21    0.59
  -3  -8  -2    0.41    0.37
  -3  -8  -2    0.02    0.66
   4   8   2   60.55    3.44
   4   8   2   64.80    3.63
  -4  -8  -2   64.41    3.62
  -4  -8  -2   60.22    3.30
   5   8   2   44.08    2.53
   5   8   2   48.76    2.83
  -5  -8  -2   43.78    2.44
  -5  -8  -2   44.18    2.58
   6   8   2   40.33    2.45
   6   8   2   39.15    2.31
  -6  -8  -2   37.75    2.30
  -6  -8  -2   40.37    2.26
   7   8   2   46.69    2.75
   7   8   2   44.95    2.64
  -7  -8  -2   43.48    2.60
  -7  -8  -2   44.15    2.45
   8   8   2   10.60    1.26
   8   8   2    9.11    1.06
  -8  -8  -2    7.96    0.64
  -8  -8  -2   10.12    1.21
   9   8   2   22.88    1.74
   9   8   2   23.93    1.84
  -9  -8  -2   19.49    1.70
  -9  -8  -2   20.71    1.26
 -12   8   1    3.10    1.58
  12  -8  -1    5.04    1.88
 -11   8   1   42.53    2.43
 -11   8   1   42.38    2.69
  11  -8  -1   42.54    2.78
  11  -8  -1   44.03    2.99
 -10   8   1   13.06    0.97
 -10   8   1   10.06    1.35
  10  -8  -1   11.90    1.35
  10  -8  -1    9.10    1.59
  -9   8   1   43.73    2.49
  -9   8   1   38.88    2.49
   9  -8  -1   39.76    2.54
   9  -8  -1   42.74    2.71
  -8   8   1   73.08    4.02
  -8   8   1   66.08    3.82
   8  -8  -1   75.20    4.10
   8  -8  -1   62.38    3.64
   8  -8  -1   60.72    3.47
  -7   8   1    5.23    1.23
  -7   8   1    3.25    0.55
   7  -8  -1    3.70    1.16
   7  -8  -1    3.30    0.47
  -6   8   1  105.90    5.75
  -6   8   1  110.50    6.13
   6  -8  -1  108.80    6.02
   6  -8  -1  114.10    6.17
  -5   8   1   71.30    3.90
  -5   8   1   68.26    3.93
   5  -8  -1   76.43    4.16
   5  -8  -1   79.24    4.47
  -4   8   1   39.11    2.47
  -4   8   1   42.22    2.37
   4  -8  -1   40.77    2.45
   4  -8  -1   37.77    2.12
  -3   8   1  188.30   10.26
  -3   8   1  190.80   10.28
   3  -8  -1  178.90    9.69
   3  -8  -1  186.20   10.03
  -2   8   1   14.37    1.37
  -2   8   1   15.00    0.95
   2  -8  -1   14.07    0.89
   2  -8  -1   14.50    1.14
  -1   8   1   82.93    4.51
  -1   8   1   80.54    4.54
   0   8   1  154.50    8.34
   0   8   1  144.90    7.92
   0  -8  -1  152.50    8.27
   0  -8  -1  165.10    8.89
   1   8   1    2.79    0.52
   1   8   1    3.01    1.08
  -1  -8  -1    3.21    0.42
  -1  -8  -1    3.10    0.69
   2   8   1  184.40    9.94
   2   8   1  180.50    9.81
  -2  -8  -1  177.30    9.59
  -2  -8  -1  191.50   10.31
   3   8   1   51.97    2.90
   3   8   1   51.76    3.03
  -3  -8  -1   55.69    3.07
  -3  -8  -1   53.47    3.02
   4   8   1   26.88    1.64
   4   8   1   23.70    1.58
  -4  -8  -1   25.94    1.67
  -4  -8  -1   25.22    1.46
   5   8   1  114.90    6.26
   5   8   1  112.10    6.14
  -5  -8  -1  111.80    6.06
  -5  -8  -1  117.00    6.40
   6   8   1    2.48    0.85
   6   8   1    0.60    0.65
  -6  -8  -1    1.94    0.45
  -6  -8  -1    2.00    0.80
   7   8   1   62.23    3.50
   7   8   1   64.17    3.64
  -7  -8  -1   60.14    3.44
  -7  -8  -1   57.00    3.14
   8   8   1   42.09    2.55
   8   8   1   40.29    2.41
  -8  -8  -1   38.25    2.31
  -8  -8  -1   37.46    2.10
   9   8   1   10.36    1.18
   9   8   1    9.71    1.26
  -9  -8  -1    6.42    1.12
  -9  -8  -1    9.53    0.72
  10   8   1   76.01    4.33
  10   8   1   81.52    4.62
 -10  -8  -1   72.43    4.25
 -10  -8  -1   67.75    3.70
 -11   8   0   16.57    1.13
 -11   8   0   22.08    1.92
  11  -8   0   24.71    2.12
  11  -8   0   25.18    2.33
 -10   8   0   42.59    2.43
  10  -8   0   41.91    3.01
  -9   8   0    9.95    0.81
  -9   8   0   10.66    1.22
   9  -8   0   11.93    1.41
   9  -8   0    9.66    1.44
  -8   8   0   88.73    4.84
  -8   8   0   88.72    5.02
   8  -8   0   79.30    4.50
   8  -8   0   83.43    4.67
   8  -8   0   80.98    4.40
  -7   8   0   27.15    1.60
  -7   8   0   25.09    1.81
   7  -8   0   25.12    1.78
   7  -8   0   29.23    1.66
  -6   8   0   48.17    2.91
  -6   8   0   50.44    2.80
   6  -8   0   42.39    2.36
   6  -8   0   48.30    2.89
  -5   8   0  102.80    5.58
  -5   8   0   96.91    5.41
   5  -8   0   96.40    5.23
   5  -8   0  108.50    6.01
  -4   8   0    3.33    0.48
  -4   8   0    1.91    1.05
   4  -8   0    3.81    0.44
   4  -8   0    2.44    0.94
  -3   8   0  140.90    7.75
  -3   8   0  124.30    6.73
   3  -8   0  132.90    7.26
   3  -8   0  135.00    7.29
  -2   8   0  106.00    5.89
  -2   8   0  107.90    5.85
   2  -8   0  114.50    6.20
   2  -8   0  101.10    5.55
  -1   8   0    7.79    0.62
  -1   8   0   10.00    1.25
   1  -8   0    8.38    0.63
   1  -8   0    8.36    0.91
   0   8   0  206.80   11.22
   0   8   0  227.00   12.21
   0  -8   0  219.50   11.85
   0  -8   0  200.70   10.80
   1   8   0    8.25    1.07
   1   8   0    9.11    0.69
  -1  -8   0    7.65    0.60
  -1  -8   0    8.92    0.89
   2   8   0   95.26    5.18
   2   8   0  107.10    5.93
  -2  -8   0  108.20    5.92
  -2  -8   0  112.30    6.08
   3   8   0  131.30    7.10
   3   8   0  138.10    7.55
  -3  -8   0  117.40    6.36
  -3  -8   0  134.30    7.31
   4   8   0    2.50    0.92
   4   8   0    2.09    0.56
  -4  -8   0    3.63    0.45
  -4  -8   0    2.11    0.72
  -5  -8   0  106.40    5.83
  -5  -8   0   94.92    5.15
   6   8   0   48.22    2.73
   6   8   0   46.92    2.74
  -6  -8   0   46.52    2.73
  -6  -8   0   45.58    2.54
   7   8   0   27.02    1.70
   7   8   0   25.22    1.70
  -7  -8   0   24.92    1.68
  -7  -8   0   27.90    1.62
   8   8   0   85.76    4.74
   8   8   0   88.01    4.90
  -8  -8   0   85.57    4.80
  -8  -8   0   83.56    4.55
   9   8   0   10.42    1.12
   9   8   0   11.03    1.25
  -9  -8   0    9.54    0.74
  -9  -8   0   12.15    1.28
  10   8   0   48.18    2.90
  10   8   0   41.57    2.64
 -10  -8   0   39.65    2.23
 -10  -8   0   38.91    2.54
  11   8   0   21.02    1.85
  11   8   0   20.95    1.83
 -11  -8   0   21.78    2.20
 -11  -8   0   21.84    1.34
 -10   8  -1   69.97    3.84
 -10   8  -1   71.63    4.09
  10  -8   1   72.79    4.17
  10  -8   1   79.56    4.70
  -9   8  -1    8.20    1.18
  -9   8  -1    8.48    0.70
   9  -8   1   10.09    1.74
   9  -8   1    7.35    1.36
  -8   8  -1   37.52    2.11
  -8   8  -1   39.92    2.44
   8  -8   1   40.69    2.61
   8  -8   1   39.96    2.45
  -7   8  -1   67.47    3.70
  -7   8  -1   66.44    3.85
   7  -8   1   69.27    3.79
   7  -8   1   63.25    3.67
   7  -8   1   61.32    3.49
  -6   8  -1    2.44    1.15
  -6   8  -1    1.18    0.46
   6  -8   1    0.90    0.37
   6  -8   1    1.74    1.00
  -5   8  -1  114.10    6.34
  -5   8  -1  126.00    6.82
   5  -8   1  121.10    6.55
   5  -8   1  114.60    6.32
  -4   8  -1   24.56    1.79
  -4   8  -1   25.44    1.49
   4  -8   1   25.91    1.80
   4  -8   1   27.69    1.59
  -3   8  -1   55.02    3.27
  -3   8  -1   55.46    3.06
   3  -8   1   50.06    2.77
   3  -8   1   53.95    3.13
  -2   8  -1  168.50    9.08
  -2   8  -1  184.40   10.04
   2  -8   1  178.10    9.60
   2  -8   1  175.20    9.51
  -1   8  -1    2.91    0.44
  -1   8  -1    2.64    1.04
   1  -8   1    2.97    0.42
   1  -8   1    3.07    0.83
   0   8  -1  154.90    8.35
   0   8  -1  147.30    8.06
   0  -8   1  134.50    7.33
   0  -8   1  151.80    8.19
   1   8  -1   86.13    4.82
   1   8  -1   81.83    4.45
  -1  -8   1   79.73    4.35
  -1  -8   1   89.11    4.93
   2   8  -1   15.98    1.00
   2   8  -1   13.22    1.29
  -2  -8   1   14.21    0.91
  -2  -8   1   16.48    1.22
   3   8  -1  181.40    9.77
   3   8  -1  192.40   10.45
  -3  -8   1  204.70   11.02
  -3  -8   1  209.40   11.30
   4   8  -1   39.70    2.24
   4   8  -1   40.95    2.50
  -4  -8   1   36.17    2.14
  -4  -8   1   40.35    2.25
   5   8  -1   70.17    3.87
   5   8  -1   74.68    4.22
  -5  -8   1   75.82    4.13
  -5  -8   1   75.49    4.19
   6   8  -1  100.50    5.55
   6   8  -1  111.70    6.09
  -6  -8   1  110.70    5.99
  -6  -8   1  108.20    5.94
   7   8  -1    4.40    0.98
   7   8  -1    4.77    0.70
  -7  -8   1    6.04    1.00
  -7  -8   1    3.46    0.50
   8   8  -1   66.69    3.80
   8   8  -1   67.21    3.76
  -8  -8   1   66.46    3.77
  -8  -8   1   72.70    3.97
   9   8  -1   40.96    2.50
   9   8  -1   39.87    2.39
  -9  -8   1   44.14    2.72
  -9  -8   1   42.74    2.39
  10   8  -1   11.12    1.37
  10   8  -1    9.68    1.24
 -10  -8   1   10.34    1.33
 -10  -8   1   12.27    0.91
  11   8  -1   41.20    2.61
  11   8  -1   43.63    2.72
 -11  -8   1   39.78    2.69
 -11  -8   1   41.52    2.34
  -9   8  -2   19.64    1.50
  -9   8  -2   21.61    1.31
   9  -8   2   24.83    2.13
   9  -8   2   18.42    1.69
  -8   8  -2    7.55    0.65
  -8   8  -2    9.51    1.29
   8  -8   2    9.49    1.36
   8  -8   2    7.98    1.54
   7  -8   2   47.03    2.91
   7  -8   2   41.36    2.57
  -6   8  -2   40.24    2.50
  -6   8  -2   46.74    2.61
   6  -8   2   35.82    2.32
   6  -8   2   30.41    1.99
  -5   8  -2   42.97    2.41
  -5   8  -2   50.29    3.02
  -4   8  -2   66.11    3.64
  -4   8  -2   64.82    3.76
   4  -8   2   62.19    3.59
   4  -8   2   59.75    3.28
  -3   8  -2    0.96    1.00
  -3   8  -2    0.60    0.42
   3  -8   2    0.59    1.09
   3  -8   2    0.79    0.37
  -2   8  -2  115.60    6.26
  -2   8  -2  132.20    7.26
   2  -8   2  134.10    7.36
   2  -8   2  125.60    6.79
  -1   8  -2   89.82    4.88
  -1   8  -2   87.41    4.91
   1  -8   2   84.78    4.75
   1  -8   2   91.23    4.96
   0   8  -2   31.26    1.77
   0   8  -2   32.81    2.17
   0  -8   2   29.70    1.70
   0  -8   2   29.97    1.88
   1   8  -2  104.50    5.66
   1   8  -2  115.30    6.39
  -1  -8   2  100.50    5.45
  -1  -8   2  105.80    5.81
   2   8  -2    5.18    0.55
   2   8  -2    4.34    1.07
  -2  -8   2    4.57    0.46
  -2  -8   2    5.12    0.86
   3   8  -2   48.73    2.71
   3   8  -2   46.62    2.78
  -3  -8   2   47.54    2.64
  -3  -8   2   50.65    2.89
   4   8  -2  106.70    5.80
   4   8  -2  110.00    6.09
  -4  -8   2  115.20    6.24
  -4  -8   2  120.90    6.60
   5   8  -2    7.54    0.69
   5   8  -2    8.14    1.20
  -5  -8   2    8.34    0.64
  -5  -8   2    6.96    0.88
   6   8  -2  108.70    5.92
   6   8  -2  106.30    5.88
  -6  -8   2   98.99    5.45
  -6  -8   2   93.39    5.07
   7   8  -2   23.17    1.71
   7   8  -2   24.32    1.53
  -7  -8   2   23.31    1.60
  -7  -8   2   23.01    1.37
   8   8  -2   30.02    1.96
   8   8  -2   33.17    1.98
  -8  -8   2   35.21    2.00
  -8  -8   2   35.66    2.27
   9   8  -2   53.47    3.14
   9   8  -2   56.75    3.24
  -9  -8   2   53.69    3.00
  10   8  -2    0.08    1.12
  10   8  -2    1.92    0.90
 -10  -8   2   -1.44    1.12
 -10  -8   2    1.16    0.49
  11   8  -2   60.08    3.54
  11   8  -2   65.21    3.80
 -11  -8   2   55.22    3.36
 -11  -8   2   59.81    3.28
  12   8  -2   14.87    1.64
  12   8  -2   16.83    1.73
 -12  -8   2   14.69    2.14
 -12  -8   2   16.01    1.08
  -9   8  -3   39.04    2.42
   9  -8   3   39.42    2.63
  -8   8  -3    0.78    1.18
  -8   8  -3    1.18    0.50
   8  -8   3    2.91    1.16
   8  -8   3    1.47    1.50
  -7   8  -3   97.91    5.45
  -7   8  -3   80.10    4.37
   7  -8   3   91.21    5.19
   7  -8   3   95.30    5.32
  -6   8  -3   93.62    5.09
  -6   8  -3   92.65    5.17
   6  -8   3   87.50    4.89
   6  -8   3   87.35    4.95
  -5   8  -3    4.16    0.56
  -5   8  -3    4.79    1.14
   5  -8   3    4.65    1.16
   5  -8   3    5.11    0.88
   5  -8   3    3.87    0.44
  -4   8  -3  149.40    8.18
  -4   8  -3  140.60    7.59
   4  -8   3  127.40    7.01
   4  -8   3  137.00    7.40
  -3   8  -3   17.67    1.43
  -3   8  -3   17.49    1.08
   3  -8   3   15.84    1.47
   3  -8   3   17.76    1.07
  -2   8  -3   63.65    3.49
  -2   8  -3   61.29    3.55
   2  -8   3   60.47    3.32
   2  -8   3   60.81    3.53
  -1   8  -3  161.90    8.84
  -1   8  -3  167.80    9.04
   1  -8   3  149.00    8.15
   1  -8   3  159.10    8.59
   0   8  -3    2.30    0.43
   0   8  -3    3.03    1.09
   0  -8   3    2.52    0.41
   0  -8   3    1.82    0.90
   1   8  -3  105.20    5.69
   1   8  -3  115.10    6.38
  -1  -8   3  102.40    5.64
  -1  -8   3  103.00    5.59
   2   8  -3   56.37    3.10
   2   8  -3   58.56    3.46
  -2  -8   3   57.53    3.27
  -2  -8   3   56.55    3.12
   3   8  -3   22.42    1.69
   3   8  -3   23.77    1.40
  -3  -8   3   23.03    1.54
  -3  -8   3   20.03    1.20
   4   8  -3  122.60    6.76
   4   8  -3  116.70    6.32
  -4  -8   3  115.50    6.32
  -4  -8   3  131.70    7.12
   5   8  -3   13.84    0.93
   5   8  -3   15.53    1.43
  -5  -8   3   13.82    0.91
  -5  -8   3   13.54    1.15
   6   8  -3   79.04    4.49
   6   8  -3   77.11    4.23
  -6  -8   3  101.30    5.50
  -6  -8   3   85.76    4.75
   7   8  -3   53.66    3.04
   7   8  -3   50.87    3.11
  -7  -8   3   52.36    3.03
  -7  -8   3   44.97    2.52
   8   8  -3    3.94    0.75
   8   8  -3    3.55    1.21
  -8  -8   3    4.77    0.58
   9   8  -3   72.33    4.16
   9   8  -3   78.39    4.37
  -9  -8   3   78.76    4.29
  -9  -8   3   83.89    4.76
  10   8  -3   23.02    1.78
  10   8  -3   22.02    1.56
 -10  -8   3   24.71    1.98
 -10  -8   3   20.18    1.23
  11   8  -3   22.05    1.83
  11   8  -3   24.36    1.83
 -11  -8   3   21.55    1.83
 -11  -8   3   20.90    1.27
  12   8  -3   50.41    3.13
  12   8  -3   44.55    2.85
 -12  -8   3   44.50    2.50
 -12  -8   3   54.72    3.60
  -8   8  -4   14.28    0.98
  -8   8  -4   12.37    1.27
   8  -8   4   14.22    1.96
   8  -8   4   11.29    1.45
  -7   8  -4   12.43    0.88
  -7   8  -4   15.60    1.39
   7  -8   4   16.01    1.45
   7  -8   4   12.05    1.62
  -6   8  -4   60.09    3.51
  -6   8  -4   56.32    3.10
   6  -8   4   55.01    3.28
   6  -8   4   60.26    3.61
  -5   8  -4    3.06    0.50
  -5   8  -4    2.46    0.96
   5  -8   4    1.71    1.22
   5  -8   4    1.79    0.90
   5  -8   4    4.03    0.41
  -4   8  -4   83.33    4.69
  -4   8  -4   82.43    4.49
   4  -8   4   97.05    5.37
   4  -8   4   80.14    4.56
   4  -8   4   78.80    4.30
  -3   8  -4   59.62    3.28
  -3   8  -4   64.06    3.70
   3  -8   4   50.36    2.79
   3  -8   4   54.45    3.21
  -2   8  -4    5.52    0.56
  -2   8  -4    6.50    1.15
   2  -8   4    5.58    0.52
   2  -8   4    6.54    1.21
  -1   8  -4   61.85    3.39
  -1   8  -4   65.63    3.77
   1  -8   4   57.70    3.17
   1  -8   4   62.22    3.61
   0   8  -4   21.57    1.30
   0   8  -4   20.55    1.66
   0  -8   4   15.73    1.43
   0  -8   4   17.79    1.08
   1   8  -4   67.47    3.69
   1   8  -4   65.62    3.81
  -1  -8   4   56.95    3.27
  -1  -8   4   57.15    3.15
   2   8  -4  136.00    7.51
   2   8  -4  133.10    7.19
  -2  -8   4  131.40    7.21
  -2  -8   4  118.00    6.39
   3   8  -4    7.78    1.34
   3   8  -4    6.44    0.57
  -3  -8   4    6.45    0.55
  -3  -8   4    5.62    0.98
   4   8  -4   76.58    4.18
   4   8  -4   82.12    4.68
  -4  -8   4   72.92    3.99
  -4  -8   4   85.98    4.77
   5   8  -4   75.87    4.34
   5   8  -4   68.68    3.77
  -5  -8   4   69.49    3.81
  -5  -8   4   81.46    4.53
   6   8  -4   16.88    1.56
   6   8  -4   20.37    1.28
  -6  -8   4   21.61    1.31
  -6  -8   4   18.51    1.39
   7   8  -4  106.80    5.99
   7   8  -4  105.60    5.77
  -7  -8   4  109.60    6.08
  -7  -8   4  119.60    6.50
   8   8  -4   17.95    1.62
   8   8  -4   17.49    1.26
  -8  -8   4   17.11    1.08
  -8  -8   4   17.60    1.56
   9   8  -4   18.95    1.79
   9   8  -4   17.98    1.30
  -9  -8   4   16.34    1.04
  -9  -8   4   17.60    1.48
  10   8  -4   51.35    3.00
  10   8  -4   56.18    3.41
 -10  -8   4   47.03    2.61
 -10  -8   4   53.68    3.28
  11   8  -4    1.45    1.66
  11   8  -4   -0.12    1.12
 -11  -8   4    0.88    0.53
 -11  -8   4   -0.98    1.31
  12   8  -4   34.17    2.54
  12   8  -4   37.38    2.53
 -12  -8   4   32.11    1.85
 -12  -8   4   26.60    2.36
  13   8  -4   10.69    2.00
  13   8  -4   13.13    1.35
 -13  -8   4   10.46    2.56
 -13  -8   4   16.61    1.26
  -7   8  -5   -0.95    0.95
  -7   8  -5    0.01    0.48
   7  -8   5    1.87    1.71
   7  -8   5    0.32    1.25
  -6   8  -5   62.04    3.42
  -6   8  -5   66.60    3.88
   6  -8   5   66.09    3.95
   6  -8   5   66.18    3.86
  -5   8  -5   31.92    2.14
  -5   8  -5   31.28    1.80
   5  -8   5   30.66    2.23
   5  -8   5   27.80    1.97
  -4   8  -5   19.68    1.57
  -4   8  -5   18.90    1.20
   4  -8   5   18.31    1.41
   4  -8   5   15.68    0.97
   4  -8   5   19.80    1.72
  -3   8  -5  104.10    5.80
  -3   8  -5  112.20    6.08
   3  -8   5   95.49    5.36
   3  -8   5  106.50    5.88
   3  -8   5  102.70    5.57
  -2   8  -5    6.61    0.62
  -2   8  -5    6.24    1.20
   2  -8   5    7.27    1.12
   2  -8   5    6.22    0.54
  -1   8  -5   75.99    4.14
  -1   8  -5   77.50    4.40
   1  -8   5   78.78    4.30
   1  -8   5   77.89    4.43
   0   8  -5  100.80    5.46
   0   8  -5  102.70    5.71
   0  -8   5  100.70    5.46
   0  -8   5  106.40    5.91
   1   8  -5    1.02    1.03
   1   8  -5    1.60    0.43
  -1  -8   5    1.45    1.03
  -1  -8   5    2.06    0.41
   2   8  -5   98.94    5.36
   2   8  -5  110.90    6.17
  -2  -8   5  108.80    6.01
  -2  -8   5  114.80    6.22
   3   8  -5   46.64    2.59
   3   8  -5   50.69    3.13
  -3  -8   5   48.78    2.90
  -3  -8   5   52.59    2.91
   4   8  -5   43.74    2.44
   4   8  -5   40.84    2.65
  -4  -8   5   41.94    2.55
  -4  -8   5   46.24    2.57
   5   8  -5   82.35    4.74
   5   8  -5   81.69    4.48
  -5  -8   5   81.17    4.43
  -5  -8   5   84.66    4.73
   6   8  -5    3.63    0.62
   6   8  -5    2.14    1.24
  -6  -8   5    2.66    0.48
  -6  -8   5    3.20    1.00
   7   8  -5   66.21    3.87
   7   8  -5   65.58    3.64
  -7  -8   5   70.73    3.87
  -7  -8   5   68.79    3.94
   8   8  -5   44.08    2.78
   8   8  -5   50.07    2.88
  -8  -8   5   47.60    2.64
  -8  -8   5   49.54    3.00
   9   8  -5    1.75    1.49
   9   8  -5    4.49    0.91
  -9  -8   5    3.56    1.23
  -9  -8   5    5.07    0.59
  10   8  -5   49.21    3.11
  10   8  -5   42.10    2.52
 -10  -8   5   51.28    2.84
 -10  -8   5   43.21    2.79
  11   8  -5    1.91    1.64
  11   8  -5    3.96    0.96
 -11  -8   5    3.15    0.56
 -11  -8   5    2.12    1.43
  12   8  -5   32.98    2.69
  12   8  -5   35.66    2.30
 -12  -8   5   32.15    1.89
 -12  -8   5   28.05    2.39
  13   8  -5   35.61    2.40
  13   8  -5   33.72    3.00
 -13  -8   5   35.45    3.10
 -13  -8   5   33.23    1.97
  -6   8  -6   23.73    1.71
  -6   8  -6   22.56    1.37
   6  -8   6   27.66    2.32
   6  -8   6   27.23    2.03
  -5   8  -6   60.49    3.52
  -5   8  -6   53.39    2.95
   5  -8   6   56.69    3.33
   5  -8   6   59.99    3.66
  -4   8  -6   -0.41    1.01
  -4   8  -6    0.48    0.49
   4  -8   6    1.27    1.20
   4  -8   6    1.10    1.25
  -3   8  -6   39.14    2.42
  -3   8  -6   34.00    1.95
   3  -8   6   34.97    2.33
   3  -8   6   38.52    2.45
  -2   8  -6   31.23    1.79
  -2   8  -6   30.14    2.08
   2  -8   6   26.32    1.92
   2  -8   6   24.77    1.71
  -1   8  -6   12.77    1.43
  -1   8  -6    9.32    0.73
   1  -8   6    7.87    0.63
   1  -8   6   10.38    1.37
   0   8  -6   80.32    4.57
   0   8  -6   79.95    4.36
   0  -8   6   78.03    4.48
   0  -8   6   77.78    4.24
   1   8  -6   15.97    1.43
   1   8  -6   18.53    1.16
  -1  -8   6   15.43    0.99
  -1  -8   6   14.60    1.56
   2   8  -6   37.79    2.13
   2   8  -6   35.91    2.33
  -2  -8   6   34.19    2.23
  -2  -8   6   33.01    1.89
   3   8  -6   40.83    2.60
   3   8  -6   37.85    2.13
  -3  -8   6   38.19    2.16
  -3  -8   6   38.53    2.40
  -4  -8   6    1.64    0.46
  -4  -8   6    2.39    1.14
   5   8  -6   72.41    3.99
   5   8  -6   74.92    4.37
  -5  -8   6   72.78    3.99
  -5  -8   6   76.56    4.35
   6   8  -6    8.05    0.77
   6   8  -6    8.13    1.39
   7   8  -6   12.11    1.60
   7   8  -6   10.76    0.95
  -7  -8   6   11.35    1.28
  -7  -8   6   12.34    0.88
   8   8  -6   46.50    2.98
   8   8  -6   50.41    2.88
  -8  -8   6   42.81    2.40
  -8  -8   6   49.09    2.95
   9   8  -6    3.65    0.90
   9   8  -6    2.16    1.51
  -9  -8   6    2.98    1.23
  -9  -8   6    2.53    0.53
  10   8  -6   36.59    2.67
  10   8  -6   35.46    2.24
 -10  -8   6   35.40    2.01
 -10  -8   6   38.18    2.62
  11   8  -6   25.74    1.82
  11   8  -6   23.27    2.25
 -11  -8   6   21.86    1.96
 -11  -8   6   22.36    1.36
  12   8  -6    4.65    2.17
  12   8  -6    5.29    1.28
 -12  -8   6    3.73    0.67
 -12  -8   6    0.85    1.94
  13   8  -6   34.11    3.26
  13   8  -6   27.45    2.16
 -13  -8   6   25.46    1.62
 -13  -8   6   21.62    2.82
  -5   8  -7   51.17    3.12
  -5   8  -7   53.57    2.97
   5  -8   7   57.16    3.37
   5  -8   7   60.78    3.83
  -4   8  -7   18.08    1.65
  -4   8  -7   17.01    1.08
   4  -8   7   18.08    1.88
   4  -8   7   13.57    1.68
  -3   8  -7   20.07    1.27
  -3   8  -7   20.63    1.61
   3  -8   7   19.14    1.76
   3  -8   7   20.94    1.73
  -2   8  -7   69.48    3.97
  -2   8  -7   75.94    4.16
   2  -8   7   62.41    3.64
   2  -8   7   69.72    4.06
  -1   8  -7    7.12    0.66
  -1   8  -7    6.16    1.08
   1  -8   7    5.90    1.40
   1  -8   7    6.55    1.23
   1  -8   7    7.11    0.60
   0   8  -7   47.51    2.88
   0   8  -7   47.87    2.67
   0  -8   7   44.39    2.48
   0  -8   7   49.88    3.14
   1   8  -7   26.18    2.02
   1   8  -7   26.16    1.53
   2   8  -7   31.05    2.15
   2   8  -7   33.94    1.95
  -2  -8   7   31.07    1.78
  -2  -8   7   29.27    2.20
   3   8  -7   85.68    4.85
   3   8  -7   86.68    4.72
  -3  -8   7   93.18    5.30
  -3  -8   7   95.43    5.19
   4   8  -7   33.22    1.91
   4   8  -7   29.61    2.14
  -4  -8   7   32.23    1.84
  -4  -8   7   31.88    2.27
   5   8  -7   35.16    2.03
   5   8  -7   34.76    2.37
  -5  -8   7   35.44    2.01
  -5  -8   7   36.37    2.44
   6   8  -7   41.35    2.83
   6   8  -7   42.13    2.42
  -6  -8   7   40.82    2.54
  -6  -8   7   42.96    2.41
   7   8  -7    6.15    1.61
   7   8  -7    7.33    0.79
  -7  -8   7    6.74    0.63
  -7  -8   7    5.56    1.18
   8   8  -7   71.78    4.33
   8   8  -7   75.25    4.18
  -8  -8   7   67.00    3.67
  -8  -8   7   76.41    4.35
   9   8  -7   48.14    3.26
   9   8  -7   44.77    2.63
  -9  -8   7   49.29    3.11
  -9  -8   7   45.11    2.52
  10   8  -7   14.74    2.20
  10   8  -7   12.43    1.27
 -10  -8   7    9.92    1.54
 -10  -8   7   13.73    0.95
  11   8  -7   43.88    2.66
  11   8  -7   46.67    3.27
 -11  -8   7   52.23    3.37
 -11  -8   7   43.30    2.43
  12   8  -7    1.47    1.37
  12   8  -7   -0.56    2.51
 -12  -8   7    1.20    2.04
 -12  -8   7    0.67    0.65
 -13  -8   7    7.93    0.84
  -3   8  -8    8.63    0.81
  -3   8  -8    7.88    1.17
   3  -8   8   10.53    1.69
   3  -8   8    8.72    1.79
  -2   8  -8   39.29    2.24
  -2   8  -8   43.44    2.73
   2  -8   8   44.10    2.78
   2  -8   8   39.23    2.74
  -1   8  -8   34.02    1.97
  -1   8  -8   29.49    2.06
   1  -8   8   26.49    2.23
   1  -8   8   25.65    2.00
   0   8  -8   38.72    2.44
   0   8  -8   36.31    2.08
   0  -8   8   35.30    2.35
   0  -8   8   30.87    1.76
   0  -8   8   35.56    2.61
   1   8  -8   68.14    3.91
   1   8  -8   60.43    3.34
  -1  -8   8   66.25    3.97
  -1  -8   8   61.24    3.54
  -1  -8   8   61.77    3.39
   2   8  -8    0.78    0.53
   2   8  -8    0.83    1.28
  -2  -8   8    1.88    1.44
  -2  -8   8    1.38    0.44
   3   8  -8   55.97    3.10
   3   8  -8   61.40    3.67
  -3  -8   8   58.56    3.22
  -3  -8   8   55.14    3.41
   4   8  -8   42.17    2.38
   4   8  -8   47.84    2.99
  -4  -8   8   47.20    2.99
  -4  -8   8   49.26    2.74
   5   8  -8    3.34    0.66
   5   8  -8    0.78    1.35
  -5  -8   8    3.65    0.53
  -5  -8   8    3.48    1.36
   6   8  -8   60.96    3.70
   6   8  -8   66.91    3.71
  -6  -8   8   59.81    3.29
  -6  -8   8   73.36    4.23
   7   8  -8    6.40    1.74
   7   8  -8    7.53    0.88
  -7  -8   8    6.79    1.38
  -7  -8   8    6.72    0.62
   8   8  -8    9.54    1.03
   8   8  -8    9.02    1.89
  -8  -8   8    8.56    1.45
  -8  -8   8   10.69    0.80
   9   8  -8   44.96    3.10
   9   8  -8   46.05    2.73
  -9  -8   8   46.51    2.61
  -9  -8   8   48.47    3.06
  10   8  -8    0.98    2.28
  10   8  -8   -0.53    1.01
 -10  -8   8    0.74    1.53
 -10  -8   8    0.31    0.57
  11   8  -8   28.47    1.98
  11   8  -8   32.43    3.27
 -11  -8   8   29.05    2.68
 -11  -8   8   27.21    1.63
  12   8  -8   10.06    1.70
  12   8  -8    9.34    3.28
 -12  -8   8   11.69    2.67
 -12  -8   8    9.91    0.90
  -2   8  -9   39.45    2.56
  -2   8  -9   40.23    2.29
   2  -8   9   40.98    2.75
   2  -8   9   37.99    2.86
  -1   8  -9   52.91    2.96
  -1   8  -9   52.24    3.18
   1  -8   9   40.84    2.83
   1  -8   9   50.84    3.23
   0   8  -9   -0.58    1.21
   0   8  -9    1.72    0.63
   0  -8   9    1.21    1.40
   0  -8   9    1.70    1.82
   1   8  -9   52.04    2.90
   1   8  -9   52.19    3.16
  -1  -8   9   50.36    3.40
  -1  -8   9   44.35    2.74
   2   8  -9   17.04    1.12
   2   8  -9   18.02    1.66
  -2  -8   9   14.67    1.56
  -2  -8   9   17.64    1.11
  -2  -8   9   16.44    1.89
   3   8  -9   12.94    1.58
   3   8  -9   12.24    0.92
  -3  -8   9   13.80    0.92
  -3  -8   9   15.98    2.02
   4   8  -9   46.78    3.02
   4   8  -9   48.43    2.70
  -4  -8   9   43.10    2.41
  -4  -8   9   44.10    2.93
   5   8  -9    2.93    1.60
   5   8  -9    1.87    0.60
  -5  -8   9    1.64    0.48
  -5  -8   9    2.00    1.59
   6   8  -9   48.52    3.17
   6   8  -9   59.25    3.30
  -6  -8   9   56.55    3.12
  -6  -8   9   52.02    3.28
   7   8  -9   40.14    2.83
   7   8  -9   39.59    2.29
  -7  -8   9   39.56    2.23
  -7  -8   9   40.61    2.73
   8   8  -9    3.81    1.83
   8   8  -9    1.97    0.88
  -8  -8   9    2.45    0.55
  -8  -8   9    2.52    1.39
   9   8  -9   28.68    2.66
   9   8  -9   30.21    1.99
  -9  -8   9   29.75    1.73
  -9  -8   9   29.03    2.35
  10   8  -9    3.71    2.58
  10   8  -9    3.17    1.16
 -10  -8   9    2.46    0.65
 -10  -8   9    2.49    1.96
  11   8  -9   20.36    3.53
  11   8  -9   17.16    1.77
 -11  -8   9   18.30    2.54
 -11  -8   9   20.86    1.36
  -1   8 -10   37.10    2.17
  -1   8 -10   37.95    2.49
   1  -8  10   36.23    2.98
   1  -8  10   34.27    2.69
   0   8 -10    5.57    0.72
   0   8 -10    7.22    1.50
   0  -8  10    5.35    1.84
   0  -8  10    9.56    2.34
   1   8 -10   20.52    1.87
   1   8 -10   21.90    1.39
  -1  -8  10   18.93    2.44
  -1  -8  10   23.85    2.20
   2   8 -10   30.04    2.25
   2   8 -10   26.44    1.61
  -2  -8  10   26.13    2.46
  -2  -8  10   29.06    2.33
   3   8 -10    1.53    1.45
   3   8 -10   -0.26    0.61
  -3  -8  10   -1.77    1.93
  -3  -8  10   -0.56    1.58
   4   8 -10   38.99    2.62
   4   8 -10   37.77    2.18
  -4  -8  10   35.68    2.02
  -4  -8  10   35.49    2.53
  -4  -8  10   37.55    2.82
   5   8 -10   11.63    0.95
   5   8 -10   12.75    1.71
  -5  -8  10   14.00    0.93
  -5  -8  10   13.10    1.99
  -5  -8  10    9.20    1.63
   6   8 -10   10.35    0.99
   6   8 -10   10.44    1.70
  -6  -8  10   14.25    1.85
  -6  -8  10   10.90    0.80
   7   8 -10   45.60    2.64
   7   8 -10   51.94    3.51
  -7  -8  10   46.04    3.07
  -7  -8  10   38.81    2.19
   8   8 -10   -0.08    1.02
   8   8 -10   -0.68    2.18
  -8  -8  10    0.03    1.65
  -8  -8  10    0.77    0.53
   9   8 -10   18.50    1.67
   9   8 -10   24.33    2.90
  -9  -8  10   23.93    2.56
  -9  -8  10   21.45    1.35
   0   8 -11    9.71    1.65
   0  -8  11    7.84    2.51
   1   8 -11    8.78    0.80
   1   8 -11    8.71    1.64
  -1  -8  11   11.44    2.50
  -1  -8  11    9.68    2.27
   2   8 -11   48.31    2.70
   2   8 -11   50.50    3.18
  -2  -8  11   47.33    3.50
  -2  -8  11   39.99    3.18
  -3  -8  11   12.29    2.48
  -3  -8  11    8.71    2.08
   4   8 -11   20.71    1.38
   4   8 -11   20.95    2.09
  -4  -8  11   16.74    2.46
  -4  -8  11   23.27    2.50
   5   8 -11   34.79    2.08
   5   8 -11   31.64    2.59
  -5  -8  11   28.45    2.63
  -5  -8  11   26.55    2.60
   6   8 -11    1.20    0.96
   6   8 -11   -0.06    2.00
  -6  -8  11    0.21    2.39
  -6  -8  11    0.75    1.95
   7   8 -11   31.33    2.83
   7   8 -11   29.21    1.90
  -7  -8  11   28.48    3.00
  -7  -8  11   33.34    2.88
   8   8 -11   14.32    2.22
  -8  -8  11   12.11    3.11
  -8  -8  11   13.29    2.42
  -8  -8  11   18.09    1.23
   3   8 -12   18.06    2.33
   3   8 -12   19.16    1.40
  -3  -8  12   20.62    3.19
  -3  -8  12   17.46    3.17
  -4  -8  12   -1.36    1.95
  -4  -8  12   -1.97    3.14
  -5   9  11    9.52    3.09
  -5   9  11    7.76    1.98
   5  -9 -11    8.61    2.54
   5  -9 -11   10.69    1.02
  -4   9  11   29.32    3.24
  -4   9  11   29.34    2.36
   4  -9 -11   33.95    2.01
   4  -9 -11   27.24    2.73
  -3   9  11   28.38    3.21
  -3   9  11   28.42    2.51
   3  -9 -11   31.22    1.86
   3  -9 -11   27.59    2.92
  -2   9  11   -0.67    2.58
  -2   9  11   -0.86    1.78
   2  -9 -11    0.67    0.77
   2  -9 -11    0.49    2.54
  -8   9  10   12.34    2.98
  -8   9  10    9.13    1.77
   8  -9 -10   14.77    2.46
   8  -9 -10   16.44    1.23
  -7   9  10    2.32    1.48
  -7   9  10   -0.49    2.81
   7  -9 -10    0.65    0.64
   7  -9 -10    1.00    1.87
  -6   9  10   12.23    1.64
  -6   9  10   15.62    2.75
   6  -9 -10   14.00    1.04
   6  -9 -10   13.34    2.02
  -5   9  10   16.81    2.63
  -5   9  10   13.53    1.65
   5  -9 -10   14.00    0.99
   5  -9 -10   14.79    1.86
  -4   9  10    1.14    1.43
  -4   9  10    5.19    2.03
   4  -9 -10    2.60    1.55
   4  -9 -10    4.56    0.66
  -3   9  10   33.63    2.93
  -3   9  10   31.13    2.29
   3  -9 -10   28.96    2.21
   3  -9 -10   30.24    1.76
  -2   9  10    4.37    2.33
  -2   9  10   10.07    1.68
   2  -9 -10    6.86    1.77
   2  -9 -10    7.52    0.72
  -1   9  10   10.76    1.65
  -1   9  10    6.85    2.32
   1  -9 -10    9.66    0.84
   1  -9 -10    6.75    1.68
   0   9  10   17.21    1.84
   0   9  10   14.31    2.33
   0  -9 -10   20.22    1.30
   0  -9 -10   18.82    2.10
  -9   9   9    3.22    1.30
  -9   9   9    2.57    2.49
   9  -9  -9    0.26    1.80
   9  -9  -9    1.44    0.63
  -8   9   9   41.92    2.67
  -8   9   9   43.15    3.30
   8  -9  -9   45.73    2.99
   8  -9  -9   42.88    2.42
  -7   9   9   34.94    3.03
  -7   9   9   35.32    2.34
   7  -9  -9   30.66    1.78
   7  -9  -9   30.27    2.21
  -6   9   9   34.00    2.26
  -6   9   9   32.51    2.77
   6  -9  -9   30.46    1.78
   6  -9  -9   33.13    2.28
  -5   9   9   56.44    3.67
  -5   9   9   55.88    3.26
   5  -9  -9   55.50    3.07
   5  -9  -9   60.71    3.59
  -4   9   9    3.68    1.24
  -4   9   9    4.25    1.93
   4  -9  -9    4.05    1.37
   4  -9  -9    4.24    0.62
  -3   9   9   41.34    2.65
  -3   9   9   42.47    3.00
   3  -9  -9   38.32    2.18
   3  -9  -9   39.93    2.62
  -2   9   9   38.49    2.44
  -2   9   9   39.82    2.86
   2  -9  -9   36.93    2.11
   2  -9  -9   39.88    2.56
  -1   9   9    5.76    1.74
  -1   9   9    3.47    1.20
   1  -9  -9    4.59    0.65
   1  -9  -9    3.07    1.40
   0   9   9   64.84    3.91
   0   9   9   65.93    3.91
   0  -9  -9   64.11    3.88
   0  -9  -9   63.15    3.47
   1   9   9   13.11    1.72
   1   9   9    9.62    1.59
  -1  -9  -9   10.90    0.85
  -1  -9  -9   12.34    1.99
 -11   9   8    2.90    1.41
 -11   9   8    4.32    2.59
  11  -9  -8    3.13    2.63
 -10   9   8   14.36    2.32
 -10   9   8   17.95    1.56
  10  -9  -8   15.57    2.59
  10  -9  -8   20.01    2.04
  10  -9  -8   21.43    1.35
  -9   9   8    4.72    1.09
  -9   9   8    1.34    2.08
   9  -9  -8    4.98    0.61
   9  -9  -8    7.10    1.62
  -8   9   8    8.93    1.99
  -8   9   8    6.71    0.99
   8  -9  -8    5.36    1.36
   8  -9  -8    8.77    0.75
  -7   9   8   19.80    2.35
  -7   9   8   21.69    1.56
   7  -9  -8   25.67    1.53
   7  -9  -8   21.79    1.78
  -6   9   8    2.58    0.95
  -6   9   8    2.55    1.87
   6  -9  -8    1.60    0.56
   6  -9  -8    0.48    1.24
  -5   9   8   27.99    1.94
  -5   9   8   26.12    2.34
   5  -9  -8   27.54    1.98
   5  -9  -8   26.73    1.58
  -4   9   8    9.97    1.22
  -4   9   8    9.79    1.73
   4  -9  -8   11.86    0.84
   4  -9  -8   10.59    1.29
  -3   9   8    5.51    1.11
  -3   9   8    5.97    1.57
   3  -9  -8    4.82    1.24
   3  -9  -8    6.99    0.70
  -2   9   8   23.52    1.72
  -2   9   8   22.81    1.97
   2  -9  -8   24.65    1.75
   2  -9  -8   25.41    1.50
  -1   9   8    3.08    1.12
  -1   9   8    1.82    1.53
   1  -9  -8    2.44    1.33
   1  -9  -8    2.68    0.52
   0   9   8   24.21    1.78
   0   9   8   24.72    2.05
   0  -9  -8   23.41    1.81
   0  -9  -8   25.42    1.50
   1   9   8   15.52    1.60
   1   9   8   19.83    1.59
  -1  -9  -8   18.28    1.15
  -1  -9  -8   16.90    1.65
   2   9   8   -1.54    1.39
   2   9   8   -1.76    1.28
  -2  -9  -8   -0.21    1.24
  -2  -9  -8   -0.08    0.52
   3   9   8   13.15    1.55
  -3  -9  -8   18.83    1.23
 -11   9   7    2.88    1.05
 -11   9   7    0.69    2.28
  11  -9  -7    3.58    2.55
  11  -9  -7    1.95    1.70
 -10   9   7   42.11    2.93
 -10   9   7   37.58    2.28
  10  -9  -7   43.64    2.93
  10  -9  -7   38.02    2.15
  10  -9  -7   37.06    2.77
  -9   9   7   49.42    2.86
  -9   9   7   50.75    3.38
   9  -9  -7   50.62    2.80
   9  -9  -7   54.10    3.32
  -8   9   7    8.60    1.04
  -8   9   7    5.18    1.92
   8  -9  -7    8.35    1.42
   8  -9  -7    8.00    0.74
  -7   9   7   50.35    2.92
  -7   9   7   56.55    3.56
   7  -9  -7   57.15    3.15
   7  -9  -7   59.03    3.46
  -6   9   7   25.74    2.31
  -6   9   7   25.52    1.67
   6  -9  -7   25.55    1.80
   6  -9  -7   29.07    1.69
  -5   9   7   39.21    2.34
  -5   9   7   40.74    2.88
   5  -9  -7   39.63    2.24
   5  -9  -7   42.02    2.53
  -4   9   7   63.39    3.82
  -4   9   7   57.98    3.30
   4  -9  -7   69.28    3.93
   4  -9  -7   68.26    3.74
  -3   9   7    0.58    0.85
  -3   9   7    0.60    1.42
   3  -9  -7    0.20    0.46
   3  -9  -7   -0.50    0.99
  -2   9   7   74.12    4.32
  -2   9   7   76.18    4.30
   2  -9  -7   65.91    3.61
   2  -9  -7   72.50    4.08
  -1   9   7   55.37    3.22
  -1   9   7   55.31    3.36
   1  -9  -7   52.31    2.90
   1  -9  -7   57.45    3.31
   0   9   7   12.86    1.56
   0   9   7   11.43    1.19
   0  -9  -7   13.13    0.90
   0  -9  -7   13.38    1.30
   1   9   7   99.04    5.51
   1   9   7  102.90    5.72
  -1  -9  -7   93.34    5.28
  -1  -9  -7  100.70    5.46
   2   9   7    2.10    1.04
   2   9   7    1.82    1.43
   3   9   7   29.21    2.00
   3   9   7   26.48    2.00
  -3  -9  -7   25.00    1.93
  -3  -9  -7   26.42    1.55
   4   9   7   55.79    3.39
   4   9   7   51.38    3.14
  -4  -9  -7   50.28    3.23
  -4  -9  -7   51.01    2.83
 -12   9   6   17.39    1.43
 -12   9   6   13.25    2.82
  12  -9  -6   11.60    2.00
  12  -9  -6   19.59    2.88
 -11   9   6   15.13    1.14
 -11   9   6   12.46    2.16
  11  -9  -6   16.97    1.87
  11  -9  -6   13.34    2.41
 -10   9   6    2.71    0.80
 -10   9   6    1.51    1.65
  10  -9  -6    2.99    1.56
  10  -9  -6    2.73    0.48
  10  -9  -6    3.01    1.63
  -9   9   6   18.94    2.10
  -9   9   6   19.40    1.31
   9  -9  -6   20.32    1.23
   9  -9  -6   23.79    2.02
  -8   9   6    0.25    0.76
  -8   9   6    0.66    1.64
   8  -9  -6    0.20    0.50
   8  -9  -6    0.67    1.32
  -7   9   6   34.98    2.54
  -7   9   6   37.50    2.20
   7  -9  -6   36.51    2.30
   7  -9  -6   39.19    2.20
  -6   9   6   41.69    2.85
  -6   9   6   37.82    2.25
   6  -9  -6   41.43    2.54
   6  -9  -6   41.70    2.34
  -5   9   6    2.38    0.75
  -5   9   6    2.79    1.43
   5  -9  -6    2.14    0.94
   5  -9  -6    3.01    0.53
  -4   9   6   39.02    2.64
  -4   9   6   37.64    2.22
  -3   9   6    6.65    0.81
  -3   9   6    5.82    1.38
   3  -9  -6    7.55    0.66
   3  -9  -6    6.68    1.04
  -2   9   6    6.42    0.95
  -2   9   6    7.65    1.42
   2  -9  -6    8.27    0.68
   2  -9  -6    6.48    0.97
  -1   9   6   44.72    2.65
  -1   9   6   40.59    2.70
   1  -9  -6   41.36    2.47
   1  -9  -6   46.42    2.59
   0   9   6    2.29    0.79
   0   9   6    0.66    1.29
   0  -9  -6    1.84    0.50
   0  -9  -6    2.50    1.02
   1   9   6   27.23    1.77
   1   9   6   26.52    1.95
  -1  -9  -6   24.81    1.66
  -1  -9  -6   28.67    1.67
   2   9   6   17.74    1.42
   2   9   6   20.81    1.65
  -2  -9  -6   18.68    1.15
  -2  -9  -6   20.67    1.61
   3   9   6    1.41    1.14
   3   9   6    0.46    1.03
  -3  -9  -6    1.30    1.19
  -3  -9  -6    1.11    0.49
   4   9   6   26.76    1.89
   4   9   6   26.39    1.98
  -4  -9  -6   22.81    1.73
  -4  -9  -6   28.47    1.64
   5   9   6    5.58    1.37
   5   9   6    3.99    1.28
  -5  -9  -6    4.57    0.61
  -5  -9  -6    5.07    1.26
 -12   9   5   30.20    2.79
 -12   9   5   32.23    1.98
  12  -9  -5   31.18    3.15
  12  -9  -5   27.69    2.39
 -11   9   5   45.04    2.60
 -11   9   5   39.41    3.00
  11  -9  -5   45.45    3.00
  11  -9  -5   42.63    3.00
 -10   9   5    0.29    0.82
 -10   9   5    0.02    1.41
  10  -9  -5    0.12    0.47
  10  -9  -5   -0.14    1.71
  10  -9  -5    0.94    1.56
  -9   9   5   56.97    3.19
  -9   9   5   67.21    4.10
   9  -9  -5   57.97    3.46
   9  -9  -5   54.40    3.00
  -8   9   5   31.82    1.88
  -8   9   5   32.62    2.45
   8  -9  -5   33.53    1.90
   8  -9  -5   29.53    2.07
  -7   9   5   23.62    1.99
  -7   9   5   23.41    1.47
   7  -9  -5   27.23    1.99
   7  -9  -5   21.71    1.32
  -6   9   5   84.64    4.92
  -6   9   5   85.81    4.71
   6  -9  -5   93.71    5.22
   6  -9  -5   91.18    4.95
  -5   9   5    9.03    1.52
  -5   9   5   10.70    0.97
   5  -9  -5    9.73    1.19
   5  -9  -5   10.87    0.79
  -4   9   5   75.20    4.40
  -4   9   5   69.58    3.88
  -3   9   5   75.14    4.38
  -3   9   5   75.12    4.15
   3  -9  -5   76.39    4.17
   3  -9  -5   79.68    4.43
  -2   9   5    7.49    1.42
  -2   9   5    6.22    0.75
   2  -9  -5    7.31    0.64
   2  -9  -5    7.70    0.90
  -1   9   5  104.90    5.87
  -1   9   5   92.10    5.05
   1  -9  -5  104.90    5.69
   1  -9  -5  103.80    5.70
   0   9   5   19.33    1.33
   0   9   5   16.56    1.57
   0  -9  -5   19.45    1.45
   0  -9  -5   19.94    1.20
   1   9   5   50.24    2.91
   1   9   5   49.40    2.99
  -1  -9  -5   45.96    2.56
  -1  -9  -5   49.30    2.86
   2   9   5   98.83    5.45
   2   9   5   86.69    4.85
  -2  -9  -5  104.10    5.74
  -2  -9  -5   92.80    5.04
   3   9   5    0.22    0.92
   3   9   5   -1.01    1.03
  -3  -9  -5   -0.49    0.92
  -3  -9  -5    0.08    0.43
   4   9   5   67.16    3.83
   4   9   5   75.16    4.21
  -4  -9  -5   72.19    4.12
  -4  -9  -5   76.63    4.18
   5   9   5   52.72    3.14
   5   9   5   55.22    3.22
  -5  -9  -5   54.25    3.20
  -5  -9  -5   52.70    2.91
   6   9   5   11.24    1.30
   6   9   5    7.73    1.36
  -6  -9  -5   11.49    0.85
  -6  -9  -5    9.22    1.53
 -12   9   4   -0.46    0.81
 -12   9   4    0.55    2.06
  12  -9  -4   -2.43    2.00
  12  -9  -4    0.22    2.14
 -11   9   4   26.10    1.62
 -11   9   4   26.30    2.28
  11  -9  -4   26.45    2.53
  11  -9  -4   28.27    2.52
 -10   9   4    9.39    1.63
 -10   9   4    9.73    0.91
  10  -9  -4   11.12    1.95
  10  -9  -4   11.25    0.79
  10  -9  -4    9.57    1.66
  -9   9   4   22.89    1.45
  -9   9   4   22.70    2.11
   9  -9  -4   20.81    1.26
   9  -9  -4   20.64    1.89
  -8   9   4   32.51    2.34
  -8   9   4   33.00    1.95
   8  -9  -4   36.68    2.06
   8  -9  -4   31.76    2.22
  -7   9   4    0.45    1.44
  -7   9   4    1.45    0.61
   7  -9  -4    0.32    1.19
   7  -9  -4    1.08    0.43
  -6   9   4   29.48    1.76
  -6   9   4   29.59    2.22
   6  -9  -4   34.35    1.95
   6  -9  -4   28.98    2.05
  -5   9   4   13.48    0.98
  -5   9   4   14.66    1.71
   5  -9  -4   16.64    1.45
   5  -9  -4   16.79    1.06
  -4   9   4    8.69    0.77
  -4   9   4    8.55    1.60
   4  -9  -4   10.36    1.11
   4  -9  -4    9.52    0.72
  -3   9   4   35.75    2.39
  -3   9   4   37.18    2.15
   3  -9  -4   36.94    2.08
   3  -9  -4   36.18    2.19
  -2   9   4    6.84    0.73
  -2   9   4    8.39    1.30
   2  -9  -4    8.61    0.95
   2  -9  -4    8.06    0.67
  -1   9   4   34.65    2.31
  -1   9   4   33.90    1.99
   1  -9  -4   35.17    1.98
   1  -9  -4   32.35    1.99
   0   9   4   41.33    2.38
   0   9   4   44.10    2.76
   0  -9  -4   41.82    2.47
   0  -9  -4   46.72    2.59
   1   9   4    2.37    1.17
   1   9   4    4.76    0.77
  -1  -9  -4    4.47    0.50
  -1  -9  -4    4.34    0.83
   2   9   4   32.79    2.15
   2   9   4   34.61    2.11
  -2  -9  -4   37.81    2.30
  -2  -9  -4   39.00    2.18
   3   9   4   11.36    1.21
   3   9   4   11.77    1.08
  -3  -9  -4   12.60    1.23
  -3  -9  -4   12.77    0.85
   4   9   4    8.79    1.15
   4   9   4    8.91    0.95
  -4  -9  -4    9.75    1.20
  -4  -9  -4    9.40    0.71
   5   9   4   25.50    1.75
   5   9   4   25.67    1.83
  -5  -9  -4   25.85    1.51
  -5  -9  -4   26.84    1.84
   6   9   4    0.17    0.89
   6   9   4    0.36    1.11
  -6  -9  -4    0.43    0.48
  -6  -9  -4    1.13    1.00
   7   9   4   19.83    1.65
   7   9   4   17.91    1.52
  -7  -9  -4   16.06    1.68
  -7  -9  -4   17.08    1.08
 -12   9   3    4.07    2.03
 -12   9   3    5.08    0.75
  12  -9  -3    4.32    1.84
  12  -9  -3    3.97    2.16
 -11   9   3   43.00    2.93
 -11   9   3   36.32    2.10
  11  -9  -3   46.41    3.27
  11  -9  -3   44.41    3.14
 -10   9   3   49.83    3.15
 -10   9   3   48.69    2.73
  10  -9  -3   46.65    3.15
  10  -9  -3   42.05    2.84
  -9   9   3    5.48    1.34
  -9   9   3    5.08    0.71
   9  -9  -3    5.77    0.59
   9  -9  -3    6.03    1.59
   9  -9  -3    6.31    1.17
  -8   9   3   86.80    4.95
  -8   9   3   76.21    4.19
   8  -9  -3   81.77    4.70
   8  -9  -3   69.67    3.81
  -7   9   3   31.44    1.86
  -7   9   3   29.43    2.27
   7  -9  -3   26.83    2.09
   7  -9  -3   31.85    1.83
  -6   9   3   51.02    3.18
  -6   9   3   44.09    2.48
   6  -9  -3   48.86    2.71
   6  -9  -3   53.17    3.12
  -5   9   3  161.50    8.72
  -5   9   3  166.20    9.13
   5  -9  -3  167.90    9.05
   5  -9  -3  166.70    9.07
  -4   9   3    2.36    0.54
  -4   9   3    1.62    1.27
   4  -9  -3    2.32    0.46
   4  -9  -3    1.53    0.88
  -3   9   3  104.20    5.67
  -3   9   3  107.50    6.03
   3  -9  -3  120.00    6.57
   3  -9  -3  112.90    6.12
  -2   9   3   97.57    5.32
  -2   9   3   90.58    5.09
  -1   9   3   16.47    1.11
  -1   9   3   16.96    1.57
   1  -9  -3   21.31    1.45
   1  -9  -3   19.69    1.19
   0   9   3  178.00    9.70
   0   9   3  174.90    9.45
   0  -9  -3  177.10    9.54
   0  -9  -3  192.00   10.38
   1   9   3   20.05    1.66
   1   9   3   21.23    1.35
  -1  -9  -3   19.31    1.16
  -1  -9  -3   20.92    1.45
   2   9   3   58.09    3.26
   2   9   3   51.77    3.09
  -2  -9  -3   55.54    3.18
  -2  -9  -3   53.32    2.94
   3   9   3   98.28    5.45
   3   9   3  108.00    5.92
  -3  -9  -3  117.30    6.43
  -3  -9  -3  108.40    5.86
   4   9   3    1.70    0.79
   4   9   3    0.56    1.00
  -4  -9  -3    0.94    0.44
  -4  -9  -3    1.61    0.97
   5   9   3  100.50    5.53
   5   9   3   99.70    5.50
  -5  -9  -3  104.30    5.76
  -5  -9  -3  100.50    5.44
   6   9   3   26.82    1.88
   6   9   3   22.04    1.53
  -6  -9  -3   23.07    1.37
  -6  -9  -3   24.68    1.74
   7   9   3   13.30    1.24
   7   9   3   14.42    1.44
  -7  -9  -3   14.31    0.95
  -7  -9  -3   12.10    1.32
   8   9   3   61.07    3.59
  -8  -9  -3   59.61    3.28
 -11   9   2    4.63    0.75
 -11   9   2    4.19    1.80
  11  -9  -2    5.33    2.13
  11  -9  -2    5.72    1.99
 -10   9   2   37.19    2.15
 -10   9   2   36.27    2.44
  10  -9  -2   34.83    2.50
  10  -9  -2   36.64    2.69
  -9   9   2    2.07    0.57
  -9   9   2    1.67    1.48
   9  -9  -2    1.49    1.50
   9  -9  -2   -0.09    1.28
   9  -9  -2    2.27    0.47
  -8   9   2   22.09    2.08
  -8   9   2   22.12    1.42
   8  -9  -2   24.37    2.14
   8  -9  -2   27.39    1.59
  -7   9   2   34.43    2.47
  -7   9   2   38.81    2.23
   7  -9  -2   36.62    2.06
   7  -9  -2   36.51    2.40
  -6   9   2    0.89    0.53
  -6   9   2   -1.02    1.32
   6  -9  -2   -1.16    1.09
   6  -9  -2    0.07    0.42
  -5   9   2   58.78    3.55
  -5   9   2   56.17    3.11
   5  -9  -2   56.57    3.28
   5  -9  -2   58.34    3.21
  -4   9   2   15.97    1.03
  -4   9   2   15.08    1.52
   4  -9  -2   17.76    1.38
   4  -9  -2   15.42    0.97
  -3   9   2   29.84    2.15
  -3   9   2   28.27    1.64
   3  -9  -2   30.27    1.73
   3  -9  -2   30.67    1.95
  -2   9   2   88.32    4.98
  -2   9   2  100.60    5.47
   2  -9  -2   96.11    5.30
   2  -9  -2   94.31    5.12
  -1   9   2   12.68    0.92
  -1   9   2   11.65    1.36
   1  -9  -2   13.24    0.86
   1  -9  -2   10.56    1.02
   0   9   2   33.06    1.93
   0   9   2   31.40    2.13
   0  -9  -2   34.66    2.09
   0  -9  -2   33.53    1.90
   1   9   2   11.04    0.87
   1   9   2    8.58    1.28
  -1  -9  -2   12.70    0.85
  -1  -9  -2   11.46    1.05
   2   9   2   22.88    1.75
   2   9   2   21.83    1.38
  -2  -9  -2   25.73    1.48
  -2  -9  -2   23.02    1.50
   3   9   2   56.76    3.32
   3   9   2   57.08    3.21
  -3  -9  -2   54.08    2.98
  -3  -9  -2   55.81    3.18
   4   9   2   25.52    1.78
   4   9   2   28.05    1.77
  -4  -9  -2   27.91    1.80
  -4  -9  -2   26.58    1.54
   5   9   2   10.59    1.23
   5   9   2   12.59    1.04
  -5  -9  -2   10.68    0.77
  -5  -9  -2   11.26    1.24
   6   9   2   23.15    1.62
   6   9   2   21.86    1.48
  -6  -9  -2   23.45    1.74
  -6  -9  -2   25.41    1.48
   7   9   2    1.33    1.10
   7   9   2    1.91    1.01
  -7  -9  -2    2.36    1.22
  -7  -9  -2    2.20    0.50
   8   9   2   23.86    1.85
   8   9   2   27.60    1.87
  -8  -9  -2   23.01    1.72
  -8  -9  -2   26.22    1.52
 -11   9   1    2.22    1.66
  11  -9  -1   -1.34    1.96
 -10   9   1   58.88    3.26
 -10   9   1   65.14    3.91
  10  -9  -1   62.62    3.97
  10  -9  -1   66.19    3.93
  -9   9   1   46.19    2.92
  -9   9   1   44.83    2.55
   9  -9  -1   49.51    3.20
   9  -9  -1   41.11    2.71
  -8   9   1   14.59    1.68
  -8   9   1   15.83    1.08
   8  -9  -1   17.88    1.55
   8  -9  -1   15.77    1.00
   8  -9  -1   17.20    1.74
  -7   9   1  120.00    6.50
  -7   9   1  121.90    6.78
   7  -9  -1  106.40    5.76
   7  -9  -1  122.50    6.78
  -6   9   1   14.92    1.54
  -6   9   1   17.82    1.13
   6  -9  -1   16.59    1.51
   6  -9  -1   18.18    1.10
  -5   9   1   49.82    3.05
  -5   9   1   53.53    2.97
   5  -9  -1   57.19    3.15
   5  -9  -1   58.57    3.40
  -4   9   1  101.50    5.69
  -4   9   1  105.60    5.73
   4  -9  -1  103.10    5.70
   4  -9  -1  101.10    5.48
  -3   9   1   13.13    1.43
  -3   9   1   15.64    1.02
   3  -9  -1   14.81    1.25
   3  -9  -1   15.49    0.98
  -2   9   1  142.50    7.70
  -2   9   1  147.60    8.12
   2  -9  -1  144.10    7.78
   2  -9  -1  149.10    8.11
  -1   9   1   81.79    4.47
  -1   9   1   80.06    4.57
   1  -9  -1   90.14    4.98
   1  -9  -1   85.17    4.63
   0  -9  -1   63.12    3.54
   0  -9  -1   59.57    3.26
   1   9   1  176.40    9.53
   1   9   1  182.40    9.94
  -1  -9  -1  180.70    9.74
  -1  -9  -1  187.80   10.16
   2   9   1    1.91    1.12
   2   9   1    2.30    0.58
  -2  -9  -1    2.44    0.76
  -2  -9  -1    1.91    0.43
   3   9   1  160.10    8.65
   3   9   1  171.80    9.36
  -3  -9  -1  169.50    9.20
  -3  -9  -1  161.90    8.73
   4   9   1   96.65    5.28
   4   9   1  100.00    5.55
  -4  -9  -1   89.55    4.87
  -4  -9  -1   99.99    5.50
   5   9   1    4.27    0.78
   5   9   1    1.62    1.02
  -5  -9  -1    3.38    1.02
  -5  -9  -1    4.30    0.52
   6   9   1  153.10    8.31
   6   9   1  150.80    8.21
   7   9   1   30.57    1.89
   7   9   1   28.82    1.96
  -7  -9  -1   30.08    1.73
  -7  -9  -1   32.14    2.14
   8   9   1   21.99    1.72
   8   9   1   24.70    1.66
   9   9   1   66.30    3.83
   9   9   1   72.12    4.16
  -9  -9  -1   63.93    3.50
  -9  -9  -1   63.41    3.72
 -10   9   0    1.31    0.66
 -10   9   0    2.22    1.44
  10  -9   0    1.51    1.82
  10  -9   0    2.84    1.69
  -9   9   0   15.14    1.05
  -9   9   0   15.35    1.54
   9  -9   0   18.09    1.80
   9  -9   0   16.90    1.92
  -8   9   0    0.00    0.56
  -8   9   0    0.81    1.08
   8  -9   0   -1.03    1.23
   8  -9   0    0.41    0.40
   8  -9   0   -1.47    1.59
  -7   9   0   40.42    2.67
  -7   9   0   39.08    2.21
   7  -9   0   30.67    1.74
   7  -9   0   38.00    2.50
  -6   9   0   67.96    3.73
  -6   9   0   62.72    3.71
   6  -9   0   66.91    3.66
   6  -9   0   61.46    3.61
  -5   9   0    0.19    0.44
  -5   9   0   -0.80    1.20
   5  -9   0    0.06    0.40
   5  -9   0    0.36    1.11
  -4   9   0   43.21    2.76
  -4   9   0   42.11    2.37
   4  -9   0   47.00    2.80
   4  -9   0   50.94    2.81
  -3   9   0    2.54    1.29
  -3   9   0    2.27    0.49
   3  -9   0    2.15    0.41
   3  -9   0    1.04    0.93
  -2   9   0   33.62    2.27
  -2   9   0   32.67    1.87
   2  -9   0   35.51    2.00
   2  -9   0   33.62    2.10
  -1   9   0   69.14    4.01
  -1   9   0   70.71    3.87
   1  -9   0   70.44    3.85
   1  -9   0   66.34    3.75
   0   9   0   -0.42    0.45
   0   9   0   -0.12    1.12
   0  -9   0   -0.52    0.84
   0  -9   0   -0.05    0.38
   1   9   0   68.80    3.94
   1   9   0   73.25    4.02
  -1  -9   0   73.69    4.02
  -1  -9   0   72.55    4.05
   2   9   0   33.48    1.92
   2   9   0   32.76    2.16
  -2  -9   0   38.06    2.14
  -2  -9   0   35.77    2.18
   3   9   0    0.89    0.55
   3   9   0    1.70    1.07
  -3  -9   0    2.21    0.84
  -3  -9   0    0.93    0.43
  -4  -9   0   46.43    2.69
  -4  -9   0   39.98    2.25
   5   9   0   -0.97    1.20
   5   9   0    0.68    0.66
  -5  -9   0    0.31    0.42
  -5  -9   0    0.34    0.82
   6   9   0   60.80    3.40
   6   9   0   54.58    3.19
  -6  -9   0   51.73    3.04
  -6  -9   0   62.57    3.43
   7   9   0   35.84    2.26
   7   9   0   35.79    2.16
  -7  -9   0   36.35    2.23
  -7  -9   0   35.99    2.03
   8   9   0    0.66    0.92
   8   9   0    0.56    1.05
  -8  -9   0    0.14    1.10
  -8  -9   0    0.21    0.48
   9   9   0   18.46    1.49
   9   9   0   16.02    1.52
  -9  -9   0   13.34    1.36
  -9  -9   0   17.51    1.11
  10   9   0    1.40    1.42
  10   9   0    2.97    1.46
 -10  -9   0   -0.24    1.54
 -10  -9   0    1.43    0.58
  -9   9  -1   64.85    3.57
  -9   9  -1   64.44    3.76
   9  -9   1   63.04    3.86
   9  -9   1   73.23    4.32
  -8   9  -1   28.66    1.69
  -8   9  -1   23.80    1.83
   8  -9   1   25.41    2.06
   8  -9   1   21.78    1.81
  -7   9  -1   31.09    1.80
  -7   9  -1   30.23    2.10
   7  -9   1   29.50    2.13
   7  -9   1   28.37    1.98
   7  -9   1   23.62    1.37
  -6   9  -1  171.60    9.40
  -6   9  -1  159.60    8.61
   6  -9   1  122.90    6.64
   6  -9   1  149.10    8.20
  -5   9  -1    4.05    0.56
  -5   9  -1    2.90    1.31
   5  -9   1    3.55    1.22
   5  -9   1    5.14    0.47
  -4   9  -1   95.23    5.18
  -4   9  -1   94.40    5.30
   4  -9   1   97.98    5.46
   4  -9   1   88.54    4.81
  -3   9  -1  176.60    9.66
  -3   9  -1  160.30    8.65
   3  -9   1  174.00    9.47
   3  -9   1  203.30   10.94
  -2   9  -1    2.04    1.18
  -2   9  -1    1.63    0.45
   2  -9   1    1.63    0.38
   2  -9   1    2.07    0.92
  -1   9  -1  180.60    9.73
  -1   9  -1  187.10   10.19
   1  -9   1  169.20    9.12
   1  -9   1  171.40    9.32
   0   9  -1   55.98    3.08
   0   9  -1   60.56    3.58
   0  -9   1   62.36    3.42
   0  -9   1   57.14    3.27
   1   9  -1   85.32    4.82
   1   9  -1   83.94    4.58
  -1  -9   1   86.77    4.84
  -1  -9   1   85.35    4.64
   2   9  -1  137.90    7.58
   2   9  -1  150.60    8.14
  -2  -9   1  161.20    8.70
  -2  -9   1  158.80    8.62
   3   9  -1   15.30    1.46
   3   9  -1   14.26    0.98
  -3  -9   1   15.56    0.99
  -3  -9   1   17.87    1.35
   4   9  -1  106.30    5.90
   4   9  -1   98.10    5.34
  -4  -9   1  106.20    5.76
  -4  -9   1   98.92    5.43
   5   9  -1   52.19    2.93
   5   9  -1   57.87    3.40
  -5  -9   1   57.12    3.25
  -5  -9   1   59.99    3.30
   6   9  -1   16.45    1.63
   6   9  -1   17.70    1.24
  -6  -9   1   17.35    1.10
  -6  -9   1   14.19    1.31
   7   9  -1  111.80    6.21
   7   9  -1  119.60    6.53
  -7  -9   1  112.00    6.07
  -7  -9   1  114.60    6.31
   8   9  -1   14.52    1.22
   8   9  -1   16.80    1.46
  -8  -9   1   15.72    1.00
  -8  -9   1   15.87    1.52
   9   9  -1   42.41    2.62
   9   9  -1   45.02    2.77
  -9  -9   1   41.50    2.62
  -9  -9   1   39.99    2.25
  10   9  -1   61.05    3.59
  10   9  -1   49.45    3.02
 -10  -9   1   45.45    2.53
 -10  -9   1   56.32    3.42
  -8   9  -2   27.90    2.10
  -8   9  -2   28.59    1.68
   8  -9   2   24.63    2.00
   8  -9   2   25.24    1.89
  -7   9  -2    1.92    0.56
  -7   9  -2    2.04    1.09
   7  -9   2    2.04    0.34
   7  -9   2    1.61    1.04
   7  -9   2    2.46    1.31
  -6   9  -2   24.59    1.47
  -6   9  -2   21.94    1.65
  -5   9  -2   14.24    0.97
  -5   9  -2   13.12    1.53
   5  -9   2   13.13    0.86
   5  -9   2   11.94    1.46
  -4   9  -2   25.76    2.00
  -4   9  -2   31.19    1.80
   4  -9   2   30.88    1.75
   4  -9   2   29.94    2.07
  -3   9  -2   52.69    2.92
  -3   9  -2   54.41    3.24
   3  -9   2   52.48    3.16
   3  -9   2   60.82    3.34
  -2   9  -2   24.19    1.43
  -2   9  -2   23.63    1.86
   2  -9   2   25.70    1.49
   2  -9   2   21.89    1.71
  -1   9  -2   11.31    1.41
  -1   9  -2   11.30    0.79
   1  -9   2   10.94    0.76
   1  -9   2    9.30    1.16
   0   9  -2   35.77    2.01
   0   9  -2   33.98    2.28
   0  -9   2   39.88    2.23
   0  -9   2   32.33    2.06
   1   9  -2   10.77    1.46
   1   9  -2   13.27    0.87
  -1  -9   2   11.54    0.80
  -1  -9   2   12.46    1.21
   2   9  -2   86.57    4.90
   2   9  -2   95.10    5.17
  -2  -9   2   94.42    5.22
  -2  -9   2   88.39    4.81
   3   9  -2   29.85    1.74
   3   9  -2   27.73    2.02
  -3  -9   2   30.55    1.75
  -3  -9   2   32.67    2.02
   4   9  -2   15.94    1.06
   4   9  -2   14.57    1.46
  -4  -9   2   18.30    1.12
  -4  -9   2   17.29    1.34
   5   9  -2   61.10    3.58
   5   9  -2   53.33    2.97
  -5  -9   2   61.02    3.35
  -5  -9   2   53.37    3.07
   6   9  -2    1.84    1.21
   6   9  -2   -0.48    0.63
  -6  -9   2    0.42    0.87
  -6  -9   2   -0.17    0.46
   7   9  -2   34.10    2.03
   7   9  -2   35.03    2.33
  -7  -9   2   37.61    2.33
  -7  -9   2   34.67    1.99
   8   9  -2   24.41    1.88
   8   9  -2   23.18    1.53
  -8  -9   2   23.78    1.81
  -8  -9   2   22.24    1.34
   9   9  -2    1.05    1.00
   9   9  -2    0.32    1.42
  -9  -9   2    2.35    1.29
  -9  -9   2    1.57    0.49
  10   9  -2   34.47    2.17
  10   9  -2   30.32    2.13
 -10  -9   2   30.64    2.24
 -10  -9   2   36.12    2.05
  11   9  -2    3.54    1.37
  11   9  -2    5.10    1.41
 -11  -9   2    3.85    0.61
 -11  -9   2    4.98    1.81
  -8   9  -3   62.43    3.65
   8  -9   3   65.15    3.85
   7  -9   3   12.02    1.59
   7  -9   3   13.62    1.59
  -6   9  -3   27.99    1.95
  -6   9  -3   23.33    1.41
   6  -9   3   25.29    1.75
   6  -9   3   20.59    1.22
   6  -9   3   22.42    1.79
  -5   9  -3  104.50    5.81
  -5   9  -3  101.50    5.51
   5  -9   3  104.50    5.65
   5  -9   3   91.25    5.15
  -4   9  -3    0.77    0.50
  -4   9  -3    1.26    1.30
   4  -9   3    0.62    1.23
   4  -9   3    0.85    0.39
  -3   9  -3  115.40    6.24
  -3   9  -3  111.50    6.19
   3  -9   3  109.10    5.92
   3  -9   3  108.50    6.07
  -2   9  -3   61.15    3.35
  -2   9  -3   50.93    3.03
   2  -9   3   58.92    3.24
   2  -9   3   54.72    3.26
  -1   9  -3   23.48    1.85
  -1   9  -3   22.71    1.35
   1  -9   3   22.22    1.32
   1  -9   3   24.06    1.73
   0   9  -3  177.80    9.57
   0   9  -3  191.80   10.46
   0  -9   3  178.60    9.72
   0  -9   3  175.50    9.46
   1   9  -3   19.11    1.16
   1   9  -3   16.62    1.59
  -1  -9   3   15.66    0.99
  -1  -9   3   14.84    1.35
   2   9  -3   96.53    5.24
   2   9  -3   96.03    5.39
  -2  -9   3   99.97    5.53
  -2  -9   3   90.54    4.92
   3   9  -3  109.30    6.09
   3   9  -3  109.10    5.91
  -3  -9   3  111.90    6.15
  -3  -9   3  111.10    6.02
   4   9  -3    2.41    0.56
   4   9  -3    1.74    1.26
  -4  -9   3    2.88    0.95
  -4  -9   3    2.25    0.45
   5   9  -3  150.70    8.27
   5   9  -3  153.30    8.29
  -5  -9   3  170.40    9.26
  -5  -9   3  157.80    8.51
   6   9  -3   43.45    2.48
   6   9  -3   50.89    3.16
  -6  -9   3   50.06    2.78
  -6  -9   3   54.72    3.16
   7   9  -3   29.66    2.27
   7   9  -3   32.99    1.97
  -7  -9   3   28.87    1.95
  -7  -9   3   30.64    1.76
   8   9  -3   81.39    4.52
   8   9  -3   78.50    4.55
  -8  -9   3   73.49    4.24
  -8  -9   3   74.98    4.10
   9   9  -3    8.44    1.48
   9   9  -3    7.44    0.96
  -9  -9   3    7.59    1.40
  -9  -9   3    5.56    0.57
  10   9  -3   46.92    2.83
  10   9  -3   43.60    2.95
 -10  -9   3   43.13    2.79
 -10  -9   3   41.85    2.34
  11   9  -3   38.58    2.54
  11   9  -3   42.30    2.90
 -11  -9   3   37.88    2.73
 -11  -9   3   38.52    2.18
  -7   9  -4   18.67    1.20
  -7   9  -4   17.77    1.65
   7  -9   4   20.51    2.00
  -6   9  -4    0.45    1.08
  -6   9  -4   -0.04    0.50
   6  -9   4    1.62    1.15
   6  -9   4    1.10    1.39
  -5   9  -4   26.13    1.91
  -5   9  -4   31.31    1.82
   5  -9   4   22.26    1.75
   5  -9   4   24.84    1.91
   5  -9   4   26.81    1.54
  -4   9  -4    9.04    1.29
  -4   9  -4   10.66    0.82
   4  -9   4    7.65    1.35
   4  -9   4   10.74    0.73
  -3   9  -4   13.92    0.92
  -3   9  -4   14.33    1.50
   3  -9   4   13.34    0.87
   3  -9   4   14.82    1.61
  -2   9  -4   42.05    2.35
  -2   9  -4   35.44    2.35
   2  -9   4   36.33    2.45
   2  -9   4   38.91    2.18
  -1   9  -4    4.03    1.18
  -1   9  -4    4.85    0.56
   1  -9   4    4.81    0.52
   1  -9   4    5.55    1.15
   0   9  -4   45.12    2.51
   0   9  -4   42.52    2.72
   0  -9   4   47.02    2.61
   0  -9   4   38.38    2.41
   1   9  -4   38.04    2.53
   1   9  -4   34.72    1.96
  -1  -9   4   33.45    1.90
  -1  -9   4   32.23    2.10
   2   9  -4    5.48    1.35
   2   9  -4    8.57    0.68
  -2  -9   4    7.50    1.14
  -2  -9   4    9.72    0.73
   3   9  -4   36.78    2.08
   3   9  -4   36.20    2.43
  -3  -9   4   38.53    2.18
  -3  -9   4   37.30    2.35
   4   9  -4   12.18    1.54
   4   9  -4   10.05    0.79
  -4  -9   4    9.17    1.11
  -4  -9   4    9.40    0.74
   5   9  -4   14.43    1.01
   5   9  -4   12.22    1.49
  -5  -9   4   13.30    0.90
  -5  -9   4   14.44    1.29
   6   9  -4   31.64    1.87
   6   9  -4   31.54    2.23
  -6  -9   4   27.24    1.88
  -6  -9   4   28.61    1.68
   7   9  -4    0.12    1.35
   7   9  -4    0.94    0.70
  -7  -9   4    1.22    0.47
  -7  -9   4   -0.71    1.05
   8   9  -4   30.40    1.89
   8   9  -4   30.65    2.22
  -8  -9   4   33.60    2.28
  -8  -9   4   33.48    1.91
   9   9  -4   18.54    1.96
   9   9  -4   20.25    1.49
  -9  -9   4   21.46    1.29
  -9  -9   4   17.20    1.74
  10   9  -4   10.32    1.77
  10   9  -4    7.59    1.20
 -10  -9   4    8.88    0.71
 -10  -9   4    9.86    1.61
  11   9  -4   25.99    2.60
  11   9  -4   26.38    1.96
 -11  -9   4   23.31    1.42
 -11  -9   4   19.59    1.92
  12   9  -4    0.70    1.27
  12   9  -4   -2.76    2.09
 -12  -9   4   -0.52    1.91
 -12  -9   4   -0.45    0.69
  -6   9  -5    8.47    1.28
  -6   9  -5   12.39    0.89
   6  -9   5    8.67    1.44
   6  -9   5   10.04    1.72
  -5   9  -5   52.75    2.93
  -5   9  -5   61.43    3.57
   5  -9   5   55.50    3.27
   5  -9   5   56.42    3.42
  -4   9  -5   84.73    4.79
  -4   9  -5   77.42    4.24
   4  -9   5   73.29    4.21
   4  -9   5   74.43    4.05
   4  -9   5   72.00    4.15
  -3   9  -5    0.44    0.49
  -3   9  -5    1.32    1.13
   3  -9   5    0.35    1.35
   3  -9   5    0.45    0.37
  -2   9  -5  101.60    5.51
  -2   9  -5  105.80    5.93
   2  -9   5  102.90    5.77
   2  -9   5   88.05    4.78
  -1   9  -5   46.61    2.58
  -1   9  -5   52.86    3.19
   1  -9   5   52.02    3.17
   1  -9   5   48.45    2.68
   0   9  -5   20.23    1.71
   0   9  -5   19.36    1.20
   0  -9   5   19.65    1.66
   0  -9   5   16.78    1.06
   1   9  -5  104.30    5.82
   1   9  -5  103.90    5.63
  -1  -9   5  107.10    5.81
  -1  -9   5  104.50    5.81
   2   9  -5    6.90    0.62
   2   9  -5    6.70    1.36
  -2  -9   5    6.31    1.19
  -2  -9   5    7.92    0.63
   3   9  -5   82.03    4.73
   3   9  -5   78.47    4.28
  -3  -9   5   80.91    4.58
  -3  -9   5   72.20    3.95
   4   9  -5   71.31    3.91
   4   9  -5   65.71    3.98
  -4  -9   5   80.40    4.53
  -4  -9   5   68.48    3.77
  -5  -9   5   11.05    0.85
  -5  -9   5   11.10    1.35
   6   9  -5   84.83    4.66
   6   9  -5   88.57    5.07
  -6  -9   5   82.36    4.49
  -6  -9   5   86.23    4.87
   7   9  -5   25.32    2.04
   7   9  -5   21.18    1.38
  -7  -9   5   24.92    1.48
  -7  -9   5   23.36    1.79
   8   9  -5   30.62    2.25
   8   9  -5   33.64    2.08
  -8  -9   5   33.01    1.89
  -8  -9   5   31.86    2.19
   9   9  -5   55.78    3.21
   9   9  -5   57.92    3.59
  -9  -9   5   59.78    3.63
  -9  -9   5   58.42    3.22
  10   9  -5    0.55    1.07
  10   9  -5    2.25    1.91
 -10  -9   5    0.64    0.51
 -10  -9   5   -0.62    1.46
  11   9  -5   42.39    3.04
  11   9  -5   42.93    2.66
 -11  -9   5   45.25    3.11
 -11  -9   5   43.49    2.46
  12   9  -5   33.90    3.02
  12   9  -5   32.00    2.21
 -12  -9   5   29.54    2.67
 -12  -9   5   29.88    1.79
  -5   9  -6    3.52    1.33
  -5   9  -6    4.93    0.66
   5  -9   6    5.40    1.41
   5  -9   6    6.67    1.69
  -4   9  -6   29.03    2.06
  -4   9  -6   32.00    1.85
   4  -9   6   26.83    2.09
   4  -9   6   28.81    2.05
  -3   9  -6    2.12    0.57
  -3   9  -6    2.16    1.20
   3  -9   6    0.48    1.44
   3  -9   6    0.34    1.05
   3  -9   6    2.16    0.45
  -2   9  -6   23.19    1.40
  -2   9  -6   18.68    1.56
   2  -9   6   21.74    1.93
   2  -9   6   23.62    1.37
  -1   9  -6   31.74    1.83
  -1   9  -6   32.80    2.31
   1  -9   6   31.33    1.78
   1  -9   6   31.02    2.26
   0   9  -6    2.58    0.52
   0   9  -6    1.53    1.28
   0  -9   6    2.78    0.46
   0  -9   6    2.91    1.39
   1   9  -6   43.76    2.45
   1   9  -6   43.61    2.76
  -1  -9   6   40.42    2.63
  -1  -9   6   43.95    2.45
   2   9  -6    6.16    1.42
   2   9  -6    8.00    0.71
  -2  -9   6    7.44    1.43
  -2  -9   6    8.30    0.69
   3   9  -6    6.96    0.67
   3   9  -6    8.77    1.67
  -3  -9   6    8.74    1.57
  -3  -9   6    9.24    0.74
   4   9  -6   39.38    2.76
   4   9  -6   39.91    2.27
  -4  -9   6   40.04    2.59
  -4  -9   6   40.86    2.29
   5   9  -6    4.83    1.58
   5   9  -6    3.92    0.68
  -5  -9   6    4.04    0.59
  -5  -9   6    2.87    1.18
   6   9  -6   37.90    2.65
   6   9  -6   37.93    2.22
  -6  -9   6   39.67    2.55
  -6  -9   6   43.69    2.45
   7   9  -6   31.25    1.91
   7   9  -6   34.52    2.61
  -7  -9   6   31.90    2.21
  -7  -9   6   36.86    2.10
   8   9  -6    0.59    1.60
   8   9  -6   -0.15    0.91
  -8  -9   6    0.67    1.36
  -8  -9   6    0.66    0.48
   9   9  -6   19.93    2.06
   9   9  -6   17.78    1.40
  -9  -9   6   19.99    1.25
  -9  -9   6   19.15    1.89
  10   9  -6    0.09    1.93
  10   9  -6    2.71    1.02
 -10  -9   6    3.16    0.58
 -10  -9   6    2.42    1.69
  11   9  -6   12.92    2.25
  11   9  -6   14.57    1.43
 -11  -9   6   12.29    1.96
 -11  -9   6   15.32    1.08
  12   9  -6   18.28    1.69
  12   9  -6   14.76    2.70
 -12  -9   6   15.70    1.15
 -12  -9   6   16.91    2.44
  -4   9  -7   65.19    3.83
   4  -9   7   63.15    3.93
  -3   9  -7   29.94    2.14
  -3   9  -7   27.95    1.66
   3  -9   7   27.18    2.02
   3  -9   7   25.66    2.10
  -2   9  -7    2.22    1.25
  -2   9  -7    1.36    0.56
   2  -9   7    3.46    1.59
   2  -9   7    1.05    0.37
   2  -9   7    2.72    1.13
  -1   9  -7  110.20    5.98
  -1   9  -7  107.40    5.99
   1  -9   7   98.50    5.34
   1  -9   7  113.70    6.42
   1  -9   7   94.52    5.28
   0   9  -7   17.07    1.13
   0   9  -7   16.67    1.87
   1   9  -7   57.05    3.16
   1   9  -7   59.36    3.58
  -1  -9   7   53.73    2.96
  -1  -9   7   51.27    3.25
   2   9  -7   73.84    4.29
   2   9  -7   71.42    3.92
  -2  -9   7   76.66    4.19
  -2  -9   7   73.31    4.34
   3   9  -7    0.12    0.52
   3   9  -7   -2.18    1.35
  -3  -9   7   -0.44    0.43
  -3  -9   7    0.13    1.36
   4   9  -7   67.75    3.72
   4   9  -7   67.97    3.98
  -4  -9   7   64.45    3.54
  -4  -9   7   71.23    4.15
   5   9  -7   42.41    2.80
   5   9  -7   45.83    2.60
  -5  -9   7   40.82    2.72
  -5  -9   7   41.42    2.32
   6   9  -7   27.32    1.71
   6   9  -7   26.67    2.15
  -6  -9   7   26.28    1.53
  -6  -9   7   27.60    2.07
   7   9  -7   51.88    3.38
   7   9  -7   51.56    2.93
  -7  -9   7   51.39    2.85
  -7  -9   7   48.47    2.98
   8   9  -7    8.86    2.12
   8   9  -7    7.06    1.02
  -8  -9   7    8.95    0.78
  -8  -9   7    6.96    1.60
   9   9  -7   48.82    2.90
   9   9  -7   49.14    3.52
  -9  -9   7   45.01    2.98
  -9  -9   7   47.93    2.67
  10   9  -7   46.06    3.38
  10   9  -7   42.57    2.63
 -10  -9   7   39.06    2.82
 -10  -9   7   37.82    2.16
  11   9  -7    4.39    2.65
  11   9  -7    2.03    1.21
 -11  -9   7    1.80    2.03
 -11  -9   7    3.32    0.77
  12   9  -7   39.46    2.58
  12   9  -7   36.01    3.55
   3  -9   8   18.50    2.05
  -2   9  -8   -0.36    1.39
  -2   9  -8   -0.27    0.63
   2  -9   8    1.55    1.41
   2  -9   8    0.67    1.95
  -1   9  -8   21.62    1.72
  -1   9  -8   21.49    1.35
   1  -9   8   17.39    1.83
   1  -9   8   20.48    2.19
   0   9  -8   25.13    1.94
   0   9  -8   26.13    1.56
   0  -9   8   22.80    1.89
   0  -9   8   27.24    1.58
   0  -9   8   24.47    2.25
   1   9  -8    1.69    1.35
   1   9  -8    3.23    0.70
  -1  -9   8    2.87    0.49
  -1  -9   8    1.89    1.68
   2   9  -8   24.93    1.51
   2   9  -8   24.03    2.01
  -2  -9   8   22.81    2.04
  -2  -9   8   24.09    1.41
   3   9  -8    8.33    0.81
   3   9  -8    7.32    1.62
  -3  -9   8    7.86    1.72
  -3  -9   8    7.72    0.63
   4   9  -8   15.34    1.07
   4   9  -8   12.95    1.73
  -4  -9   8   13.16    0.90
  -4  -9   8   13.25    1.68
   5   9  -8   26.98    2.25
   5   9  -8   29.21    1.76
  -5  -9   8   26.13    2.24
  -5  -9   8   30.22    1.73
   6   9  -8    0.98    1.64
   6   9  -8    1.41    0.79
  -6  -9   8    2.15    1.49
  -6  -9   8    1.48    0.52
   7   9  -8   19.50    2.35
   7   9  -8   22.81    1.53
  -7  -9   8   19.43    2.01
  -7  -9   8   24.88    1.48
   8   9  -8    7.73    1.93
   8   9  -8    6.38    0.93
  -8  -9   8    5.95    1.49
  -8  -9   8    8.05    0.71
   9   9  -8    6.34    2.19
   9   9  -8    4.30    1.12
  -9  -9   8    5.40    0.69
  -9  -9   8    4.18    1.76
  10   9  -8   17.77    1.55
  10   9  -8   20.01    2.84
 -10  -9   8   18.30    2.28
 -10  -9   8   16.62    1.14
  11   9  -8    2.76    1.37
  11   9  -8    5.62    3.21
 -11  -9   8    1.73    0.75
 -11  -9   8    4.67    2.54
  -1   9  -9   12.46    0.97
  -1   9  -9   11.97    1.73
   1  -9   9   13.51    2.39
   1  -9   9   16.14    1.90
   0   9  -9   74.23    4.29
   0   9  -9   61.07    3.38
   0  -9   9   62.35    3.85
   0  -9   9   70.33    4.37
   1   9  -9    3.96    0.69
   1   9  -9    4.29    1.35
  -1  -9   9    3.54    1.87
  -1  -9   9    1.19    1.60
   2   9  -9   40.08    2.70
   2   9  -9   40.25    2.30
  -2  -9   9   37.44    2.11
  -2  -9   9   36.27    2.65
  -2  -9   9   32.55    2.38
   3   9  -9   44.31    2.53
   3   9  -9   45.82    3.01
  -3  -9   9   40.25    2.94
  -3  -9   9   42.12    2.34
   4   9  -9    4.80    0.69
   4   9  -9    6.10    1.82
  -4  -9   9    4.13    1.82
  -4  -9   9    3.96    0.55
   5   9  -9   59.14    3.76
   5   9  -9   61.18    3.41
  -5  -9   9   55.80    3.08
  -5  -9   9   67.06    4.16
   6   9  -9   35.21    2.67
   6   9  -9   33.43    2.04
  -6  -9   9   35.12    2.50
  -6  -9   9   34.25    1.96
   7   9  -9   33.23    2.04
   7   9  -9   31.52    2.61
  -7  -9   9   31.57    2.38
  -7  -9   9   31.53    1.81
   8   9  -9   40.14    3.12
   8   9  -9   38.13    2.35
  -8  -9   9   41.87    2.88
  -8  -9   9   39.01    2.20
   9   9  -9    0.53    2.51
   9   9  -9    1.05    1.15
  -9  -9   9   -0.46    2.01
  -9  -9   9    1.48    0.60
  10   9  -9   27.74    2.06
  10   9  -9   31.43    3.56
 -10  -9   9   29.87    1.79
 -10  -9   9   23.62    2.97
   0   9 -10   17.76    1.99
   0  -9  10   21.14    2.75
   1   9 -10   10.22    1.68
   1   9 -10   10.07    0.93
  -1  -9  10   11.32    2.32
  -1  -9  10    8.83    2.30
   2   9 -10    7.82    1.59
   2   9 -10    8.04    0.77
  -2  -9  10    4.97    2.01
  -2  -9  10    3.10    2.14
   3   9 -10   35.30    2.53
   3   9 -10   33.08    1.92
  -3  -9  10   35.64    2.74
  -3  -9  10   29.50    2.75
   4   9 -10    3.72    0.74
   4   9 -10    2.94    1.63
  -4  -9  10    3.54    1.92
  -4  -9  10    2.86    2.01
  -4  -9  10    4.71    0.65
   5   9 -10   13.25    1.96
   5   9 -10   16.92    1.24
  -5  -9  10   13.56    2.04
  -5  -9  10   16.58    1.08
   6   9 -10   13.31    2.29
   6   9 -10   14.89    1.27
  -6  -9  10   13.40    2.05
  -6  -9  10   12.72    0.91
   7   9 -10   -1.30    2.44
   7   9 -10    0.04    0.87
  -7  -9  10   -3.60    2.19
  -7  -9  10    0.59    0.58
   8   9 -10   12.64    1.44
   8   9 -10   10.23    2.90
   2   9 -11   -0.76    0.84
   2   9 -11    0.41    1.89
  -2  -9  11   -4.61    2.31
  -2  -9  11   -1.23    2.83
   3   9 -11   33.59    2.75
   3   9 -11   31.68    1.90
  -3  -9  11   30.16    2.87
  -3  -9  11   31.37    3.35
   4   9 -11   37.87    2.99
   4   9 -11   34.68    2.08
  -4  -9  11   36.58    2.98
  -4  -9  11   28.76    3.33
   5   9 -11   10.57    2.21
   5   9 -11   11.73    1.13
  -5  -9  11   12.02    2.23
  -5  -9  11    9.86    3.39
   6   9 -11   31.66    2.97
   6   9 -11   38.07    2.38
  -6  -9  11   33.44    3.63
  -6  -9  11   33.38    3.00
  -6  -9  11   36.54    2.12
  -6  10  10   10.16    1.69
  -6  10  10   10.20    3.46
   6 -10 -10   12.47    1.09
   6 -10 -10   12.58    2.04
  -5  10  10   13.03    1.66
  -5  10  10   14.62    3.33
  -4  10  10   41.33    3.65
  -4  10  10   45.77    3.09
   4 -10 -10   50.03    3.33
   4 -10 -10   46.70    2.64
  -3  10  10    2.95    2.57
  -3  10  10   -1.56    1.59
   3 -10 -10    0.45    1.80
   3 -10 -10    0.57    0.65
  -2  10  10   42.53    3.43
  -2  10  10   40.42    2.78
   2 -10 -10   41.18    2.34
   2 -10 -10   39.09    2.92
  -8  10   9    0.70    1.46
  -8  10   9    1.29    2.86
   8 -10  -9    1.44    1.91
   8 -10  -9    0.56    0.77
  -7  10   9    6.72    1.45
  -7  10   9    2.68    2.80
   7 -10  -9    3.57    0.70
   7 -10  -9    3.80    1.94
  -6  10   9    7.22    2.73
  -6  10   9    8.29    1.37
   6 -10  -9   12.68    0.95
   6 -10  -9    8.50    1.67
  -5  10   9   -0.15    2.63
  -5  10   9    0.59    1.23
   5 -10  -9    0.36    1.49
   5 -10  -9   -0.37    0.54
  -4  10   9    5.76    2.42
  -4  10   9    7.12    1.32
   4 -10  -9    6.13    0.68
   4 -10  -9    5.32    1.50
  -3  10   9    0.57    2.39
  -3  10   9    2.94    1.28
   3 -10  -9    2.64    0.63
   3 -10  -9    1.76    1.47
  -2  10   9   -0.18    1.39
  -2  10   9    2.22    2.18
   2 -10  -9   -1.06    1.68
   2 -10  -9    0.64    0.64
  -1  10   9    3.78    1.25
  -1  10   9    4.28    1.96
   1 -10  -9    4.83    0.70
   1 -10  -9    4.62    1.84
   0  10   9    1.25    1.50
   0  10   9   -0.16    2.12
   0 -10  -9   -0.03    0.65
   0 -10  -9   -0.88    1.96
 -10  10   8    1.48    3.32
 -10  10   8    0.12    1.20
  -9  10   8   54.03    3.19
  -9  10   8   57.36    4.27
   9 -10  -8   55.95    3.11
   9 -10  -8   54.47    3.48
  -8  10   8   24.35    2.75
  -8  10   8   23.37    1.68
   8 -10  -8   28.38    1.68
   8 -10  -8   22.90    2.08
  -7  10   8   10.65    1.22
  -7  10   8    9.06    2.44
   7 -10  -8   12.45    1.62
   7 -10  -8   11.53    0.90
  -6  10   8  102.00    6.02
  -6  10   8   91.86    5.11
   6 -10  -8  103.40    5.61
   6 -10  -8   95.76    5.40
  -5  10   8    0.69    1.97
  -5  10   8    2.11    1.24
   5 -10  -8    4.11    0.62
   5 -10  -8    2.53    1.38
  -4  10   8   62.53    3.61
  -4  10   8   65.25    4.08
   4 -10  -8   71.15    4.25
   4 -10  -8   67.43    3.70
  -3  10   8   83.44    4.85
  -3  10   8   82.25    4.63
   3 -10  -8   81.21    4.69
   3 -10  -8   75.31    4.11
  -2  10   8    0.62    1.68
  -2  10   8    2.06    1.06
   2 -10  -8    1.91    0.55
   2 -10  -8    1.31    1.24
  -1  10   8   65.03    3.78
  -1  10   8   79.88    4.72
   1 -10  -8   75.14    4.10
   1 -10  -8   68.21    4.07
   0  10   8   30.24    2.43
   0  10   8   30.36    2.11
   0 -10  -8   29.65    1.72
   0 -10  -8   30.11    2.20
   1  10   8   29.43    2.23
   1  10   8   27.33    2.30
  -1 -10  -8   23.71    1.44
  -1 -10  -8   21.44    2.09
 -11  10   7   -1.51    2.55
 -10  10   7   -0.27    1.08
 -10  10   7   -3.64    2.90
  10 -10  -7    0.11    0.56
  10 -10  -7   -1.20    1.68
  -9  10   7    2.57    2.47
  -9  10   7    1.44    1.01
   9 -10  -7    2.62    0.52
   9 -10  -7    3.18    1.61
  -8  10   7    6.26    2.05
  -8  10   7    6.49    1.00
   8 -10  -7    6.60    0.66
   8 -10  -7    6.32    1.53
  -7  10   7    3.84    2.02
  -7  10   7    2.90    1.07
   7 -10  -7    3.49    1.52
   7 -10  -7    2.56    0.56
  -6  10   7    2.79    1.97
  -6  10   7    1.86    1.01
   6 -10  -7    2.36    1.20
   6 -10  -7    1.64    0.50
  -5  10   7    0.46    0.89
  -5  10   7    0.29    1.92
   5 -10  -7    0.55    0.57
   5 -10  -7    0.50    1.22
  -4  10   7    8.60    1.04
  -4  10   7    6.96    1.92
   4 -10  -7    8.14    1.30
   4 -10  -7    9.67    0.77
  -3  10   7   13.85    1.79
  -3  10   7   13.98    1.24
   3 -10  -7   13.43    1.47
   3 -10  -7   14.90    0.98
  -2  10   7    4.64    1.08
  -2  10   7    4.47    1.59
   2 -10  -7    1.55    1.40
   2 -10  -7    3.97    0.56
  -1  10   7   -0.70    1.53
  -1  10   7    0.97    1.06
   1 -10  -7    0.98    0.50
   1 -10  -7    1.80    1.35
   0  10   7    5.76    1.12
   0  10   7    4.52    1.58
   0 -10  -7    3.93    1.19
   0 -10  -7    4.90    0.63
   1  10   7    0.13    1.53
   1  10   7    0.18    1.08
  -1 -10  -7   -0.70    1.45
  -1 -10  -7   -0.42    0.52
   2  10   7    3.73    1.14
   2  10   7    4.94    1.53
  -2 -10  -7    4.28    1.60
  -2 -10  -7    4.71    0.62
 -11  10   6   26.20    1.84
 -11  10   6   28.12    2.92
  11 -10  -6   26.65    2.36
  11 -10  -6   26.95    3.01
 -10  10   6   52.23    3.82
 -10  10   6   52.32    3.01
  10 -10  -6   54.48    3.38
  10 -10  -6   58.65    3.24
  -9  10   6    3.30    2.10
  -9  10   6    1.21    0.76
   9 -10  -6    1.11    1.34
   9 -10  -6    0.16    0.45
  -8  10   6   97.22    5.62
  -8  10   6  106.40    5.85
   8 -10  -6  107.00    5.80
   8 -10  -6  110.60    6.21
  -7  10   6   34.66    2.10
  -7  10   6   29.12    2.58
   7 -10  -6   39.50    2.55
   7 -10  -6   42.71    2.41
  -6  10   6   18.02    2.09
  -6  10   6   15.86    1.27
   6 -10  -6   15.56    1.02
   6 -10  -6   17.96    1.68
  -5  10   6   98.55    5.44
  -5  10   6   91.67    5.32
   5 -10  -6  106.50    5.77
   5 -10  -6  112.50    6.22
  -4  10   6    1.08    0.84
  -4  10   6    1.32    1.68
   4 -10  -6    0.99    0.51
   4 -10  -6    1.89    1.04
  -3  10   6   76.82    4.51
  -3  10   6   76.61    4.27
   3 -10  -6   83.00    4.66
   3 -10  -6   82.49    4.49
  -2  10   6   59.84    3.43
  -2  10   6   57.81    3.55
   2 -10  -6   62.72    3.45
   2 -10  -6   59.49    3.44
  -1  10   6    9.14    1.11
  -1  10   6    7.94    1.52
   1 -10  -6    7.23    1.17
   1 -10  -6    9.08    0.75
   0  10   6   94.61    5.44
   0 -10  -6   94.43    5.29
   0 -10  -6   94.88    5.15
   1  10   6   20.70    1.56
   1  10   6   23.19    1.95
  -1 -10  -6   21.99    1.79
  -1 -10  -6   22.42    1.35
   2  10   6   55.93    3.28
   2  10   6   58.11    3.48
  -2 -10  -6   63.85    3.75
  -2 -10  -6   62.80    3.44
   3  10   6   76.89    4.40
   3  10   6   74.13    4.23
  -3 -10  -6   63.54    3.49
  -3 -10  -6   72.74    4.23
 -11  10   5    1.30    0.94
 -11  10   5    0.50    2.34
  11 -10  -5   -0.82    2.34
  11 -10  -5   -0.82    1.71
 -10  10   5    8.41    2.24
 -10  10   5    8.73    0.97
  10 -10  -5    6.02    1.59
  10 -10  -5    4.75    1.88
  -9  10   5    0.95    0.72
  -9  10   5   -1.06    2.01
   9 -10  -5    0.24    0.51
   9 -10  -5    0.77    1.73
  -8  10   5    6.59    1.74
  -8  10   5    8.91    0.94
   8 -10  -5    8.54    1.54
   8 -10  -5    9.83    0.73
  -7  10   5    8.45    1.65
  -7  10   5    8.64    0.95
   7 -10  -5    9.10    0.76
   7 -10  -5    8.85    1.51
  -6  10   5   -0.56    1.74
  -6  10   5   -0.31    0.70
   6 -10  -5    0.12    1.20
   6 -10  -5    0.06    0.45
  -5  10   5   16.75    1.22
  -5  10   5   16.91    1.94
   5 -10  -5   20.52    1.25
   5 -10  -5   19.21    1.58
  -4  10   5    2.40    0.78
  -4  10   5    1.73    1.59
   4 -10  -5    2.81    1.10
   4 -10  -5    3.84    0.56
  -3  10   5   -0.67    0.70
  -3  10   5    0.24    1.53
  -2  10   5    1.75    1.39
  -2  10   5    2.73    0.73
   2 -10  -5    2.82    0.51
   2 -10  -5    2.01    0.99
  -1  10   5    5.81    0.85
  -1  10   5    6.28    1.43
   1 -10  -5    7.16    0.64
   1 -10  -5    6.37    0.98
   0  10   5    6.09    0.93
   0  10   5    6.17    1.44
   0 -10  -5    6.52    0.61
   0 -10  -5    4.99    1.14
   1  10   5    4.66    1.33
   1  10   5    5.95    0.88
  -1 -10  -5    6.80    0.60
  -1 -10  -5    4.65    1.20
   2  10   5    0.87    0.91
   2  10   5    1.55    1.26
  -2 -10  -5    0.57    0.46
  -2 -10  -5    0.50    1.03
   3  10   5    2.74    0.85
   3  10   5    1.96    1.23
  -3 -10  -5    2.57    1.20
  -3 -10  -5    3.14    0.52
   4  10   5    5.24    1.02
   4  10   5    4.32    1.24
  -4 -10  -5    5.38    0.58
  -4 -10  -5    3.50    1.24
  -5 -10  -5    1.53    0.53
 -11  10   4    4.50    2.36
 -11  10   4   -0.29    0.90
  11 -10  -4   -0.53    1.61
  11 -10  -4    0.91    2.21
 -10  10   4   59.48    3.33
 -10  10   4   62.38    3.96
  10 -10  -4   58.43    3.71
  10 -10  -4   64.50    4.10
  10 -10  -4   57.82    3.19
  -9  10   4   50.14    3.39
  -9  10   4   46.24    2.62
   9 -10  -4   53.75    2.97
   9 -10  -4   45.20    3.04
  -8  10   4    8.56    0.87
  -8  10   4   10.59    1.90
   8 -10  -4    7.67    1.45
   8 -10  -4    9.66    0.75
  -7  10   4  119.30    6.71
  -7  10   4  112.70    6.14
   7 -10  -4  121.30    6.56
   7 -10  -4  119.80    6.64
  -6  10   4   18.48    1.94
  -6  10   4   20.47    1.35
   6 -10  -4   23.32    1.39
   6 -10  -4   20.93    1.80
  -5  10   4   67.85    3.78
  -5  10   4   68.02    4.12
  -4  10   4  132.70    7.42
  -4  10   4  151.00    8.18
   4 -10  -4  123.90    6.70
   4 -10  -4  145.30    7.92
  -3  10   4    2.65    1.51
  -3  10   4    3.39    0.70
   3 -10  -4    4.31    0.54
   3 -10  -4    3.48    0.95
  -2  10   4  120.10    6.68
  -2  10   4  136.00    7.39
  -1  10   4   70.02    3.89
  -1  10   4   71.75    4.20
   1 -10  -4   65.30    3.68
   1 -10  -4   77.44    4.23
   0  10   4   23.06    1.48
   0  10   4   23.25    1.91
   0 -10  -4   27.97    1.84
   0 -10  -4   28.15    1.63
   1  10   4  145.00    7.88
   1  10   4  141.80    7.83
  -1 -10  -4  146.30    7.97
  -1 -10  -4  137.60    7.43
   2  10   4   17.21    1.30
   2  10   4   17.12    1.63
  -2 -10  -4   19.28    1.49
  -2 -10  -4   17.22    1.07
   3  10   4   54.65    3.28
   3  10   4   57.85    3.28
  -3 -10  -4   56.39    3.10
  -3 -10  -4   56.96    3.33
   4  10   4   61.30    3.57
   4  10   4   64.19    3.64
  -4 -10  -4   71.74    4.15
  -4 -10  -4   64.47    3.52
   5  10   4    5.20    1.32
   5  10   4    5.48    1.13
  -5 -10  -4    6.40    0.62
  -5 -10  -4    5.81    1.21
 -11  10   3    6.47    1.98
  11 -10  -3    3.15    2.02
 -10  10   3    2.20    0.75
 -10  10   3    0.50    1.74
  10 -10  -3    0.16    1.91
  10 -10  -3    1.51    1.85
  -9  10   3    5.78    0.78
  -9  10   3    4.93    1.48
   9 -10  -3    7.30    0.63
   9 -10  -3    5.10    1.75
  -8  10   3   -0.15    0.70
  -8  10   3    0.92    1.56
   8 -10  -3    1.02    1.39
   8 -10  -3    0.21    0.49
  -7  10   3    6.02    0.72
  -7  10   3    2.62    1.54
   7 -10  -3    4.76    1.42
   7 -10  -3    6.97    0.62
   6 -10  -3    5.23    1.30
   6 -10  -3    6.53    0.63
  -5  10   3   -1.33    1.52
  -5  10   3    0.32    0.57
   5 -10  -3    1.27    1.09
   5 -10  -3   -0.01    0.46
  -4  10   3    7.27    1.65
  -4  10   3   10.75    0.84
   4 -10  -3   10.79    1.22
   4 -10  -3   11.39    0.82
  -3  10   3    0.27    0.56
  -3  10   3   -0.66    1.48
   3 -10  -3   -0.09    0.97
   3 -10  -3   -0.20    0.43
  -2  10   3    4.85    1.39
  -2  10   3    5.46    0.69
   2 -10  -3    3.18    0.99
   2 -10  -3    5.23    0.54
  -1  10   3   13.78    1.02
  -1  10   3   16.30    1.58
   1 -10  -3   17.00    1.07
   1 -10  -3   16.65    1.33
   0  10   3    0.90    1.26
   0  10   3    0.73    0.65
   0 -10  -3    0.26    0.45
   0 -10  -3    0.37    0.80
   1  10   3   12.34    1.54
   1  10   3   11.22    0.97
  -1 -10  -3   15.14    0.97
  -1 -10  -3   11.67    1.09
   2  10   3    1.80    1.30
   2  10   3    1.89    0.75
  -2 -10  -3    2.10    0.97
  -2 -10  -3    1.54    0.45
   3  10   3   -0.66    1.23
   3  10   3    0.11    0.72
  -3 -10  -3   -0.04    0.45
  -3 -10  -3    0.10    1.03
   4  10   3    0.15    1.21
   4  10   3    2.42    0.78
  -4 -10  -3    1.80    0.48
  -4 -10  -3    1.37    0.97
   5  10   3    0.39    1.04
   5  10   3    0.86    0.89
  -5 -10  -3   -0.14    1.24
  -5 -10  -3   -0.37    0.44
   6  10   3    8.74    1.25
   6  10   3    9.05    1.07
  -6 -10  -3    7.77    0.65
  -6 -10  -3    6.86    1.23
 -10  10   2   -0.11    0.64
 -10  10   2    0.01    1.77
  10 -10  -2    0.85    1.92
  10 -10  -2    2.28    1.95
  -9  10   2   66.26    3.66
  -9  10   2   72.13    4.36
   9 -10  -2   59.72    3.59
   9 -10  -2   66.41    3.63
   9 -10  -2   67.44    4.15
  -8  10   2   39.63    2.72
  -8  10   2   37.20    2.16
   8 -10  -2   35.04    2.45
   8 -10  -2   38.95    2.18
  -7  10   2   13.14    0.98
  -7  10   2   14.93    1.82
   7 -10  -2   12.80    0.87
   7 -10  -2   12.00    1.67
  -6  10   2   81.04    4.73
  -6  10   2   72.31    3.97
   6 -10  -2   73.36    4.20
   6 -10  -2   79.76    4.35
  -5  10   2   13.03    1.70
  -5  10   2   15.17    1.03
   5 -10  -2   13.31    1.39
   5 -10  -2   17.10    1.06
  -4  10   2  102.90    5.59
  -4  10   2  105.40    5.98
   4 -10  -2  106.50    5.90
   4 -10  -2   97.63    5.30
  -3  10   2   84.38    4.86
  -3  10   2   85.13    4.65
   3 -10  -2   88.75    4.83
   3 -10  -2   95.78    5.32
  -2  10   2    2.77    0.57
  -2  10   2    1.30    1.37
   2 -10  -2    2.60    0.45
   2 -10  -2    3.78    0.99
  -1  10   2  157.80    8.53
  -1  10   2  139.50    7.70
   1 -10  -2  165.50    8.99
   1 -10  -2  150.90    8.13
   0  10   2   42.46    2.71
   0  10   2   41.86    2.38
   0 -10  -2   41.56    2.31
   0 -10  -2   45.54    2.66
   1  10   2   52.95    3.24
   1  10   2   55.53    3.11
  -1 -10  -2   58.95    3.24
  -1 -10  -2   60.83    3.47
   2  10   2  130.50    7.21
   2  10   2  125.20    6.81
  -2 -10  -2  138.00    7.45
  -2 -10  -2  138.60    7.56
   3  10   2    5.18    1.31
   3  10   2    3.80    0.76
  -3 -10  -2    4.04    0.53
  -3 -10  -2    3.53    1.00
   4  10   2   77.83    4.32
   4  10   2   75.02    4.31
  -4 -10  -2   76.41    4.16
  -4 -10  -2   78.02    4.38
   5  10   2   79.01    4.38
   5  10   2   80.74    4.58
  -5 -10  -2   84.56    4.74
  -5 -10  -2   78.79    4.29
   6  10   2   11.21    1.07
   6  10   2   12.82    1.35
  -6 -10  -2   11.29    0.79
  -6 -10  -2   10.14    1.24
   7  10   2   68.55    3.94
   7  10   2   65.74    3.81
  -7 -10  -2   58.06    3.19
  -7 -10  -2   66.69    3.93
  -9  10   1    4.69    0.66
  -9  10   1    4.61    1.42
   9 -10  -1    5.17    2.05
   9 -10  -1    5.22    0.54
   9 -10  -1    6.77    1.70
  -8  10   1    4.53    1.44
  -8  10   1    5.39    0.74
   8 -10  -1    7.12    0.63
   8 -10  -1    5.36    1.83
  -7  10   1    3.49    1.53
  -7  10   1    3.87    0.63
   7 -10  -1    4.34    0.50
   7 -10  -1    3.09    1.50
  -6  10   1   12.87    0.93
  -6  10   1   13.45    1.64
   6 -10  -1   13.18    0.87
   6 -10  -1   11.62    1.48
  -5  10   1   13.18    0.94
  -5  10   1   12.76    1.61
  -4  10   1    1.25    1.44
  -4  10   1    2.84    0.55
   4 -10  -1    4.01    0.49
   4 -10  -1    2.95    1.09
  -3  10   1   13.40    0.92
  -3  10   1   13.53    1.61
   3 -10  -1   16.37    1.03
   3 -10  -1   15.00    1.35
  -2  10   1    4.70    1.47
  -2  10   1    6.68    0.64
   2 -10  -1    6.45    0.59
   2 -10  -1    4.96    1.10
  -1  10   1    5.78    0.64
  -1  10   1    5.25    1.41
   1 -10  -1    8.85    0.66
   1 -10  -1    6.78    0.98
   0  10   1    4.28    1.31
   0  10   1    4.48    0.64
   0 -10  -1    3.95    0.48
   0 -10  -1    4.26    0.98
   1  10   1    3.48    0.63
   1  10   1    4.22    1.24
  -1 -10  -1    4.19    0.47
  -1 -10  -1    4.35    0.95
   2  10   1    6.01    1.34
   2  10   1    7.03    0.76
  -2 -10  -1    8.44    0.68
  -2 -10  -1    7.22    0.95
   3  10   1    7.01    0.79
   3  10   1    5.82    1.35
  -3 -10  -1    8.79    0.70
  -3 -10  -1    6.61    0.97
   4  10   1    0.41    1.32
   4  10   1    0.33    0.72
  -4 -10  -1    1.52    0.44
  -4 -10  -1    2.06    0.96
   5  10   1    8.01    0.90
   5  10   1    7.51    1.44
  -5 -10  -1    8.82    0.69
  -5 -10  -1    8.11    1.08
   6  10   1    0.50    1.22
   6  10   1    0.28    0.81
  -6 -10  -1    0.38    0.47
  -6 -10  -1    0.68    0.96
   7  10   1    3.53    0.89
   7  10   1    3.15    1.23
  -7 -10  -1    4.30    1.37
  -7 -10  -1    5.69    0.60
   8  10   1    1.86    0.96
   8  10   1   -0.83    1.42
  -8 -10  -1    1.77    1.49
  -8 -10  -1    0.10    0.50
  -9  10   0    5.69    1.56
  -9  10   0    4.08    0.80
   9 -10   0    5.16    2.18
  -8  10   0   74.26    4.07
  -8  10   0   74.08    4.27
   8 -10   0   69.35    4.10
   8 -10   0   76.98    4.57
  -7  10   0   30.82    1.79
  -7  10   0   28.87    2.24
   7 -10   0   26.54    2.18
   7 -10   0   30.22    1.72
  -6  10   0   58.99    3.26
  -6  10   0   61.77    3.69
   6 -10   0   60.55    3.32
   6 -10   0   59.96    3.63
  -5  10   0  116.80    6.33
  -5  10   0  119.00    6.62
   5 -10   0  108.00    5.84
   5 -10   0  117.50    6.51
  -4  10   0    8.29    0.70
  -4  10   0    7.80    1.47
   4 -10   0   10.31    0.72
   4 -10   0    6.94    1.24
  -3  10   0  105.60    5.73
  -3  10   0  118.80    6.63
   3 -10   0  114.60    6.33
   3 -10   0  116.40    6.30
  -2  10   0   61.54    3.39
  -2  10   0   53.83    3.32
   2 -10   0   60.31    3.48
   2 -10   0   60.49    3.32
  -1  10   0   27.41    1.61
  -1  10   0   25.27    2.00
   1 -10   0   30.90    1.76
   1 -10   0   27.94    1.88
   0  10   0  150.30    8.12
   0  10   0  147.20    8.11
   0 -10   0  152.80    8.32
   0 -10   0  140.80    7.60
   1  10   0   26.77    1.94
   1  10   0   27.59    1.63
  -1 -10   0   24.55    1.43
  -1 -10   0   29.58    1.94
   2  10   0   52.85    3.19
   2  10   0   51.95    2.90
  -2 -10   0   59.44    3.41
  -2 -10   0   53.71    2.97
   3  10   0  114.40    6.22
   3  10   0  114.50    6.36
  -3 -10   0  116.40    6.39
  -3 -10   0  120.20    6.51
   4  10   0    7.34    1.37
   4  10   0    6.03    0.77
  -4 -10   0    6.87    1.05
  -4 -10   0    9.81    0.76
   5  10   0  109.10    6.10
   5  10   0  109.40    5.98
  -5 -10   0  119.70    6.47
  -5 -10   0  121.90    6.69
   6  10   0   63.95    3.60
   6  10   0   64.23    3.79
  -6 -10   0   62.84    3.60
  -6 -10   0   53.93    2.97
   7  10   0   27.67    2.06
   7  10   0   29.44    1.90
  -7 -10   0   23.15    1.77
  -7 -10   0   29.36    1.68
   8  10   0   72.15    4.17
   8  10   0   70.19    3.98
  -8 -10   0   76.36    4.37
  -8 -10   0   67.43    3.69
   9  10   0    5.89    1.58
  -9 -10   0    5.31    0.64
  -8  10  -1   -0.64    1.25
  -8  10  -1    1.19    0.55
   8 -10   1    3.29    1.82
   8 -10   1    0.89    1.58
  -7  10  -1    5.16    0.64
  -7  10  -1    3.63    1.38
   7 -10   1    6.92    0.58
   7 -10   1    5.94    1.61
   7 -10   1    3.19    1.15
  -6  10  -1    0.16    0.54
  -6  10  -1    0.73    1.31
   6 -10   1   -0.05    1.43
   6 -10   1    0.59    0.41
  -5  10  -1    9.55    1.40
  -5  10  -1    9.31    0.75
   5 -10   1   10.08    0.71
   5 -10   1    6.38    1.37
  -4  10  -1    1.45    0.54
  -4  10  -1    1.36    1.36
   4 -10   1    0.70    1.21
   4 -10   1    1.28    0.42
  -3  10  -1    7.75    1.49
  -3  10  -1    8.44    0.72
   3 -10   1    7.34    1.19
   3 -10   1    9.12    0.69
  -2  10  -1    7.89    1.53
  -2  10  -1    7.88    0.69
   2 -10   1    8.23    1.21
   2 -10   1    8.92    0.66
  -1  10  -1    4.33    0.56
  -1  10  -1    4.09    1.34
   1 -10   1    3.92    1.05
   1 -10   1    4.85    0.54
   0  10  -1    4.57    0.57
   0  10  -1    2.71    1.36
   0 -10   1    4.58    1.09
   0 -10   1    5.35    0.56
   1  10  -1    5.32    0.61
   1  10  -1    6.78    1.36
  -1 -10   1    6.15    1.05
  -1 -10   1    7.12    0.62
   2  10  -1    6.16    0.67
   2  10  -1    5.74    1.29
  -2 -10   1    6.95    1.07
  -2 -10   1    6.14    0.57
   3  10  -1   13.64    0.99
   3  10  -1   11.41    1.37
  -3 -10   1   16.12    1.04
  -3 -10   1   14.32    1.27
   4  10  -1    2.81    0.65
   4  10  -1    3.35    1.42
  -4 -10   1    2.63    0.50
  -4 -10   1    1.56    0.96
   5  10  -1   12.81    1.54
   5  10  -1   12.33    0.98
   6  10  -1   12.94    1.16
   6  10  -1   10.50    1.52
  -6 -10   1   11.44    0.80
  -6 -10   1   11.25    1.21
   7  10  -1    5.26    1.58
   7  10  -1    2.99    0.82
  -7 -10   1    3.10    1.24
  -7 -10   1    4.16    0.55
   8  10  -1    6.36    1.47
   8  10  -1    4.64    1.02
  -8 -10   1    4.67    1.21
  -8 -10   1    5.93    0.61
   9  10  -1    5.36    1.30
   9  10  -1    1.30    1.91
  -9 -10   1    4.25    1.56
  -9 -10   1    5.38    0.64
  -7  10  -2   71.52    4.21
  -7  10  -2   64.05    3.53
   7 -10   2   76.66    4.54
   7 -10   2   78.65    4.28
  -6  10  -2   12.77    0.90
  -6  10  -2   11.09    1.39
   6 -10   2   15.07    0.95
   6 -10   2   11.44    1.76
  -5  10  -2   85.92    4.69
  -5  10  -2   90.10    5.11
   5 -10   2   79.56    4.33
   5 -10   2   85.83    4.92
  -4  10  -2   82.88    4.52
  -4  10  -2   81.32    4.64
   4 -10   2   79.87    4.60
   4 -10   2   81.60    4.43
  -3  10  -2    2.59    1.28
  -3  10  -2    3.29    0.57
   3 -10   2    3.06    1.25
   3 -10   2    3.68    0.50
  -2  10  -2  137.60    7.43
  -2  10  -2  144.30    7.98
   2 -10   2  130.70    7.19
   2 -10   2  132.10    7.15
  -1  10  -2   60.38    3.61
  -1  10  -2   53.86    2.98
   1 -10   2   54.38    3.01
   1 -10   2   53.98    3.19
   0  10  -2   40.22    2.64
   0  10  -2   38.12    2.16
   0 -10   2   42.54    2.62
   0 -10   2   42.84    2.40
   1  10  -2  140.70    7.60
   1  10  -2  146.10    8.07
  -1 -10   2  152.00    8.21
  -1 -10   2  159.50    8.70
   2  10  -2    2.72    0.58
   2  10  -2    4.04    1.37
  -2 -10   2    3.04    1.03
  -2 -10   2    2.58    0.46
   3  10  -2   87.65    4.79
   3  10  -2   81.07    4.65
  -3 -10   2   86.68    4.71
  -3 -10   2   90.82    5.04
   4  10  -2  109.90    6.15
   4  10  -2  106.80    5.81
  -4 -10   2   99.97    5.43
  -4 -10   2  112.30    6.19
   5  10  -2   13.74    1.04
   5  10  -2   13.85    1.64
   6  10  -2   78.80    4.36
   6  10  -2   76.99    4.45
  -6 -10   2   78.32    4.41
  -6 -10   2   82.63    4.51
   7  10  -2   13.72    1.74
   7  10  -2   14.43    1.26
  -7 -10   2   12.92    1.39
  -7 -10   2   13.11    0.90
   8  10  -2   36.39    2.25
   8  10  -2   40.62    2.82
   9  10  -2   57.02    3.34
   9  10  -2   65.64    3.98
  -9 -10   2   64.80    3.56
  -9 -10   2   57.91    3.50
  10  10  -2   -1.75    1.91
  10  10  -2    0.02    1.09
 -10 -10   2   -1.44    1.89
 -10 -10   2   -0.01    0.56
  -6  10  -3    8.54    0.73
  -6  10  -3    8.63    1.30
   6 -10   3    8.37    1.31
   6 -10   3    7.26    1.74
   6 -10   3   10.13    0.72
  -5  10  -3    0.86    0.53
  -5  10  -3    1.00    1.41
   5 -10   3    0.10    0.40
   5 -10   3    2.03    1.53
  -4  10  -3    2.87    0.54
  -4  10  -3    1.41    1.45
   4 -10   3    1.51    1.41
   4 -10   3    3.28    0.47
  -3  10  -3   -0.05    1.31
  -3  10  -3   -0.23    0.50
   3 -10   3   -0.48    1.29
   3 -10   3    0.54    0.38
  -2  10  -3    1.96    0.52
  -2  10  -3    1.17    1.20
   2 -10   3    2.52    1.30
   2 -10   3    2.34    0.47
  -1  10  -3   15.07    0.99
  -1  10  -3   12.07    1.57
   1 -10   3   12.34    1.35
   1 -10   3   14.94    0.97
   0  10  -3   -0.04    0.47
   0  10  -3    2.23    1.44
   0 -10   3    0.05    1.11
   0 -10   3   -0.03    0.42
   1  10  -3   16.71    1.06
   1  10  -3   13.87    1.67
  -1 -10   3   21.21    1.28
  -1 -10   3   16.38    1.44
   2  10  -3    4.69    0.59
   2  10  -3    4.06    1.36
  -2 -10   3    6.33    0.60
  -2 -10   3    4.82    1.10
   3  10  -3   -0.48    0.58
   3  10  -3   -0.43    1.35
  -3 -10   3    0.02    1.01
  -3 -10   3    0.38    0.45
   4  10  -3   10.25    0.85
   4  10  -3    9.02    1.62
  -4 -10   3   10.12    1.24
  -4 -10   3    9.42    0.73
   5  10  -3    0.20    1.40
   5  10  -3   -0.26    0.61
  -5 -10   3    0.45    0.49
  -5 -10   3    1.08    1.06
   6  10  -3    6.26    1.46
   6  10  -3    5.80    0.76
  -6 -10   3    5.25    0.58
  -6 -10   3    4.50    1.16
   7  10  -3    3.49    1.70
  -7 -10   3    4.22    1.34
   8  10  -3    1.45    0.91
   8  10  -3    1.63    1.62
  -8 -10   3   -0.11    1.42
  -8 -10   3    0.14    0.51
   9  10  -3    5.85    1.85
   9  10  -3    5.32    1.05
  -9 -10   3    5.09    1.57
  -9 -10   3    5.52    0.60
  10  10  -3    1.60    1.99
  10  10  -3    0.88    1.29
 -10 -10   3    1.15    1.66
 -10 -10   3    1.49    0.57
  -6  10  -4   80.85    4.61
   6 -10   4   72.79    4.25
  -5  10  -4    5.54    1.42
  -5  10  -4    8.19    0.74
   5 -10   4    3.86    1.47
   5 -10   4    7.89    0.62
   5 -10   4    7.45    1.64
  -4  10  -4   70.22    3.85
  -4  10  -4   71.64    4.16
   4 -10   4   68.99    4.08
   4 -10   4   72.48    3.95
  -3  10  -4   65.44    3.93
  -3  10  -4   57.48    3.18
   3 -10   4   60.89    3.64
   3 -10   4   58.85    3.23
  -2  10  -4   21.40    1.33
  -2  10  -4   20.19    1.74
   2 -10   4   18.73    1.13
   2 -10   4   19.38    1.76
  -1  10  -4  144.60    7.98
  -1  10  -4  144.20    7.79
   1 -10   4  143.40    7.74
   1 -10   4  140.20    7.71
   0  10  -4   24.77    1.46
   0  10  -4   27.91    2.20
   0 -10   4   32.61    1.86
   0 -10   4   26.64    1.93
   1  10  -4   78.06    4.56
   1  10  -4   77.71    4.24
  -1 -10   4   70.36    4.03
  -1 -10   4   72.36    3.95
   2  10  -4  133.40    7.21
   2  10  -4  130.60    7.29
  -2 -10   4  120.20    6.51
  -2 -10   4  130.90    7.22
   3  10  -4    4.28    0.60
   3  10  -4    2.16    1.60
  -3 -10   4    4.44    0.53
  -3 -10   4    2.82    1.17
   4  10  -4  132.60    7.40
   4  10  -4  144.10    7.80
  -4 -10   4  136.50    7.38
  -4 -10   4  154.30    8.43
   5  10  -4   66.55    3.68
   5  10  -4   72.63    4.29
  -5 -10   4   69.82    4.02
  -5 -10   4   68.43    3.75
   6  10  -4   20.17    1.34
   6  10  -4   16.25    1.76
  -6 -10   4   22.59    1.38
  -6 -10   4   18.53    1.63
   7  10  -4  109.80    6.01
   7  10  -4  106.00    5.99
  -7 -10   4  103.70    5.62
  -7 -10   4  103.40    5.77
   8  10  -4    9.62    1.74
   8  10  -4    8.30    1.11
  -8 -10   4    9.46    0.74
  -8 -10   4    9.80    1.50
   9  10  -4   44.94    3.03
   9  10  -4   47.30    2.84
  -9 -10   4   42.51    2.38
  -9 -10   4   46.26    3.05
  10  10  -4   57.39    3.39
  10  10  -4   68.31    4.23
 -10 -10   4   57.02    3.67
 -10 -10   4   56.42    3.11
  11  10  -4    0.02    1.10
  11  10  -4   -0.61    2.19
 -11 -10   4   -4.65    1.96
 -11 -10   4    0.22    0.69
  -5  10  -5    0.82    1.25
   5 -10   5    1.44    1.66
  -4  10  -5    4.24    1.51
  -4  10  -5    6.20    0.69
   4 -10   5    3.87    1.46
   4 -10   5    5.65    0.54
   4 -10   5    6.18    1.68
  -3  10  -5    4.03    0.58
  -3  10  -5    3.13    1.39
   3 -10   5    4.29    0.50
   3 -10   5    2.71    1.59
  -2  10  -5    1.63    1.35
  -2  10  -5    0.85    0.52
   2 -10   5    1.40    1.41
   2 -10   5    0.61    0.38
  -1  10  -5    7.43    0.71
  -1  10  -5    6.32    1.49
   1 -10   5    7.06    0.58
   1 -10   5    4.76    1.33
   0  10  -5    7.04    0.68
   0  10  -5    6.13    1.44
   0 -10   5    7.08    0.64
   0 -10   5    5.97    1.31
   1  10  -5    7.64    0.69
   1  10  -5    7.47    1.51
  -1 -10   5    7.67    0.63
  -1 -10   5    4.90    1.28
   2  10  -5    2.17    1.63
   2  10  -5    2.47    0.53
  -2 -10   5    2.13    1.26
  -2 -10   5    2.71    0.48
   3  10  -5    0.23    1.60
   3  10  -5   -0.02    0.58
  -3 -10   5    0.07    1.29
  -3 -10   5    0.28    0.42
   4  10  -5    1.68    1.53
   4  10  -5    3.14    0.66
   5  10  -5   15.46    1.12
   5  10  -5   13.51    1.88
  -5 -10   5   18.23    1.16
  -5 -10   5   13.88    1.62
   6  10  -5   -0.10    0.67
   6  10  -5   -1.06    1.52
  -6 -10   5    0.63    1.33
  -6 -10   5   -0.08    0.48
   7  10  -5    5.57    0.87
   7  10  -5    3.73    1.64
  -7 -10   5    7.41    0.67
  -7 -10   5    6.51    1.36
   8  10  -5    7.68    1.75
   8  10  -5    9.57    1.18
  -8 -10   5    5.95    1.55
  -8 -10   5    8.68    0.72
   9  10  -5    0.67    1.08
   9  10  -5   -0.32    1.84
  -9 -10   5   -0.49    1.52
  -9 -10   5    0.43    0.52
  10  10  -5    9.99    2.28
  10  10  -5    6.24    1.29
 -10 -10   5    6.84    1.90
 -10 -10   5    7.94    0.73
  11  10  -5    0.82    1.18
  11  10  -5    2.58    2.21
 -11 -10   5    0.76    2.17
 -11 -10   5    1.25    0.70
  -3  10  -6   77.07    4.47
  -3  10  -6   74.06    4.06
   3 -10   6   70.21    4.08
   3 -10   6   78.21    4.65
   3 -10   6   73.33    3.99
  -2  10  -6   64.58    3.82
  -2  10  -6   63.64    3.51
   2 -10   6   64.73    3.99
   2 -10   6   68.55    3.74
  -1  10  -6   28.15    2.18
  -1  10  -6   26.39    1.60
   1 -10   6   23.70    2.11
   1 -10   6   22.43    1.32
   0  10  -6  101.00    5.73
   0  10  -6  101.20    5.51
   0 -10   6  102.40    5.76
   0 -10   6  101.00    5.47
   1  10  -6    9.05    0.79
   1  10  -6    9.38    1.46
  -1 -10   6    8.46    1.44
  -1 -10   6    9.44    0.72
  -2 -10   6   67.33    3.72
  -2 -10   6   68.02    4.08
   3  10  -6   88.65    5.14
   3  10  -6   91.85    5.01
  -3 -10   6   86.49    5.03
  -3 -10   6   88.97    4.84
   4  10  -6    1.54    0.61
   4  10  -6    1.13    1.71
  -4 -10   6    2.42    1.45
  -4 -10   6    1.51    0.49
   5  10  -6   97.84    5.66
   5  10  -6  105.70    5.76
  -5 -10   6  102.20    5.55
  -5 -10   6  107.00    5.99
   6  10  -6   16.00    1.91
   6  10  -6   17.15    1.27
  -6 -10   6   14.21    0.95
  -6 -10   6   17.23    1.79
   7  10  -6   38.03    2.84
   7  10  -6   34.48    2.07
  -7 -10   6   34.10    1.95
  -7 -10   6   33.62    2.30
   8  10  -6  105.30    6.11
   8  10  -6   98.47    5.44
  -8 -10   6   91.31    4.95
  -8 -10   6   93.36    5.30
   9  10  -6    1.10    1.16
   9  10  -6    1.07    2.16
  -9 -10   6    0.46    1.60
  -9 -10   6    0.70    0.52
  10  10  -6   47.97    2.81
  10  10  -6   47.77    3.55
 -10 -10   6   47.11    2.65
 -10 -10   6   46.95    3.26
  11  10  -6   24.08    2.96
  11  10  -6   24.18    1.86
  -2  10  -7    5.28    0.75
  -2  10  -7    5.12    1.53
   2 -10   7   12.14    2.37
   2 -10   7    6.31    0.60
   2 -10   7    4.09    1.44
  -1  10  -7   -0.76    1.55
  -1  10  -7   -0.18    0.61
   1 -10   7   -0.16    0.47
   1 -10   7   -2.61    1.97
   0  10  -7    5.63    1.71
   0  10  -7    6.67    0.72
   0 -10   7    6.94    0.60
   0 -10   7    3.18    1.73
   1  10  -7    1.53    1.62
   1  10  -7    1.35    0.58
  -1 -10   7    1.50    0.47
  -1 -10   7   -0.64    1.63
   2  10  -7    3.15    1.48
   2  10  -7    3.67    0.63
  -2 -10   7    3.84    1.66
  -2 -10   7    4.30    0.57
   3  10  -7   11.37    1.63
   3  10  -7   15.96    1.09
  -3 -10   7   17.07    1.08
  -3 -10   7   13.18    1.84
   4  10  -7    8.05    1.72
   4  10  -7    8.87    0.86
  -4 -10   7   10.48    1.73
  -4 -10   7    9.93    0.76
   5  10  -7    0.88    0.78
   5  10  -7    0.97    1.87
  -5 -10   7    0.10    1.65
  -5 -10   7    0.64    0.50
   6  10  -7    2.13    0.80
   6  10  -7    2.06    1.73
  -6 -10   7    1.68    0.52
  -6 -10   7    4.73    1.53
   7  10  -7    2.08    2.13
   7  10  -7    3.18    0.87
  -7 -10   7    1.66    1.36
  -7 -10   7    4.15    0.64
   8  10  -7    5.91    1.15
   8  10  -7    8.85    2.42
  -8 -10   7    5.86    0.72
  -8 -10   7    6.76    1.64
   9  10  -7   -0.90    2.24
   9  10  -7    1.87    1.02
  -9 -10   7    0.83    1.78
  -9 -10   7    2.01    0.72
  10  10  -7    2.08    2.61
  10  10  -7   -0.22    1.21
 -10 -10   7    0.19    0.70
 -10 -10   7    1.28    2.13
  11  10  -7    1.83    1.41
  11  10  -7    0.33    3.00
 -11 -10   7   -0.46    2.92
 -11 -10   7    2.98    0.78
  -1  10  -8   27.16    2.30
  -1  10  -8   30.45    1.80
   1 -10   8   28.62    2.87
   1 -10   8   23.35    2.37
   0  10  -8   30.55    2.28
   0  10  -8   31.74    1.89
   0 -10   8   27.21    2.27
   0 -10   8   28.77    1.65
   0 -10   8   31.77    2.69
   1  10  -8   81.21    4.76
   1  10  -8   75.52    4.15
  -1 -10   8   74.27    4.55
  -1 -10   8   76.19    4.15
   2  10  -8    1.76    1.62
   2  10  -8    1.69    0.66
  -2 -10   8    1.03    1.74
  -2 -10   8    1.48    0.47
   3  10  -8   88.30    5.17
   3  10  -8   87.25    4.77
  -3 -10   8   90.11    5.21
  -3 -10   8   86.90    4.72
   4  10  -8   71.29    4.26
   4  10  -8   67.54    3.74
  -4 -10   8   66.04    3.61
  -4 -10   8   72.47    4.30
   5  10  -8    3.29    0.83
   5  10  -8    1.75    1.88
  -5 -10   8    3.46    1.58
  -5 -10   8    4.07    0.57
   6  10  -8   99.97    5.50
   6  10  -8   97.62    5.71
  -6 -10   8   97.04    5.27
  -6 -10   8  109.20    6.16
   7  10  -8   15.76    2.15
   7  10  -8   11.76    1.09
  -7 -10   8   10.21    1.77
  -7 -10   8   12.11    0.93
   8  10  -8   26.97    2.75
   8  10  -8   22.50    1.59
  -8 -10   8   18.89    2.00
  -8 -10   8   22.37    1.41
   9  10  -8   54.03    3.15
   9  10  -8   57.55    4.05
  -9 -10   8   59.00    3.81
  -9 -10   8   57.57    3.22
  10  10  -8    0.08    2.99
  10  10  -8   -0.11    1.26
 -10 -10   8   -0.16    0.83
 -10 -10   8   -0.18    2.55
   0  10  -9   -1.60    1.61
   0 -10   9    1.22    2.39
   1  10  -9    6.45    0.86
   1  10  -9    3.35    1.77
  -1 -10   9    2.53    1.75
  -1 -10   9    6.05    0.65
  -1 -10   9    6.21    1.99
   2  10  -9    0.12    1.83
   2  10  -9    0.89    0.73
  -2 -10   9    1.37    1.71
  -2 -10   9   -1.75    1.88
  -2 -10   9    1.17    0.52
   3  10  -9    3.34    1.96
   3  10  -9    3.73    0.78
  -3 -10   9    0.89    2.01
  -3 -10   9    3.39    0.53
   4  10  -9    7.47    0.81
   4  10  -9    7.15    1.92
   5  10  -9    0.38    0.72
   5  10  -9    1.11    2.07
  -5 -10   9   -0.04    0.58
  -5 -10   9   -1.58    1.88
   6  10  -9   12.17    2.31
   6  10  -9   12.53    1.06
  -6 -10   9   12.77    0.97
  -6 -10   9   12.13    1.93
   7  10  -9    3.31    0.92
   7  10  -9    3.11    2.43
  -7 -10   9    0.70    1.92
  -7 -10   9    3.60    0.71
   8  10  -9    0.58    1.10
   8  10  -9   -0.35    2.38
  -8 -10   9    0.37    0.77
  -8 -10   9    0.34    1.91
   9  10  -9    1.46    1.37
   9  10  -9    1.33    3.10
  -9 -10   9    4.21    2.42
  -9 -10   9    1.33    0.80
   2  10 -10   44.36    3.13
  -2 -10  10   41.82    3.65
   3  10 -10    0.12    0.78
   3  10 -10    1.12    2.02
  -3 -10  10   -1.21    2.20
  -3 -10  10    0.12    0.64
  -3 -10  10    1.46    2.70
   4  10 -10   50.47    3.36
   4  10 -10   50.99    2.89
  -4 -10  10   45.47    3.35
  -4 -10  10   48.68    2.75
  -4 -10  10   43.48    3.42
   5  10 -10   17.07    1.32
   5  10 -10   14.88    2.40
  -5 -10  10   11.81    2.13
  -5 -10  10   15.95    1.13
   6  10 -10   14.77    1.33
   6  10 -10   15.62    2.81
  -6 -10  10   11.60    2.39
  -6 -10  10   13.09    1.04
   7  10 -10   52.04    3.04
   7  10 -10   61.48    4.45
  -7 -10  10   57.91    4.12
  -7 -10  10   51.73    2.93
  -7  11   9   10.55    3.72
  -6  11   9   22.06    3.57
  -6  11   9   17.34    1.94
   6 -11  -9   23.62    1.50
   6 -11  -9   21.85    2.36
  -5  11   9   54.31    4.52
  -5  11   9   48.72    3.08
   5 -11  -9   53.67    3.01
   5 -11  -9   53.86    3.55
  -4  11   9    2.89    1.43
  -4  11   9    5.19    2.86
   4 -11  -9    2.23    1.85
   4 -11  -9    4.03    0.69
  -3  11   9   45.65    2.91
  -3  11   9   39.33    3.45
   3 -11  -9   44.67    3.11
   3 -11  -9   43.49    2.46
  -8  11   8    1.00    1.37
  -8  11   8    3.55    2.70
   8 -11  -8    1.40    1.74
   8 -11  -8    0.31    0.73
  -7  11   8   -2.21    3.09
  -7  11   8    0.28    1.20
   7 -11  -8   -1.69    1.62
   7 -11  -8    0.68    0.63
  -6  11   8    0.59    1.13
  -6  11   8    0.76    2.70
   6 -11  -8    1.57    0.61
   6 -11  -8    1.52    1.50
  -5  11   8   -0.95    2.62
  -5  11   8    1.24    1.10
   5 -11  -8    1.23    0.60
   5 -11  -8    1.27    1.47
  -4  11   8    2.41    2.48
  -4  11   8    0.99    1.14
   4 -11  -8    0.18    0.57
   4 -11  -8    0.60    1.71
  -3  11   8    1.02    1.32
  -3  11   8    0.52    2.11
   3 -11  -8    0.92    0.60
   3 -11  -8   -1.01    1.76
  -2  11   8   -1.39    1.93
  -2  11   8   -0.28    1.37
   2 -11  -8   -0.27    1.82
   2 -11  -8    0.03    0.60
  -1  11   8    2.90    2.07
  -1  11   8    1.27    1.33
   1 -11  -8    0.03    1.61
   1 -11  -8    0.18    0.58
  -9  11   7   38.11    2.51
  -9  11   7   37.93    3.76
   9 -11  -7   44.15    3.00
   9 -11  -7   45.88    2.58
  -8  11   7    1.83    2.53
  -8  11   7    4.56    1.16
   8 -11  -7    4.70    0.69
   8 -11  -7    6.75    1.58
  -7  11   7   64.44    3.62
  -7  11   7   62.93    4.38
   7 -11  -7   59.09    3.25
   7 -11  -7   65.90    3.90
  -6  11   7   17.45    2.78
  -6  11   7   16.36    1.30
   6 -11  -7   16.13    1.07
   6 -11  -7   18.82    1.80
  -5  11   7   50.83    3.64
  -5  11   7   46.48    2.76
   5 -11  -7   50.44    3.15
   5 -11  -7   55.06    3.05
  -4  11   7   63.48    3.65
  -4  11   7   71.31    4.45
   4 -11  -7   66.68    3.96
   4 -11  -7   65.33    3.59
  -3  11   7    0.10    1.02
  -3  11   7    1.15    1.86
   3 -11  -7    0.30    0.53
   3 -11  -7    1.51    1.45
  -2  11   7   76.50    4.58
  -2  11   7   76.27    4.35
   2 -11  -7   75.14    4.45
   2 -11  -7   82.71    4.50
  -1  11   7   29.69    2.44
  -1  11   7   32.42    2.19
   1 -11  -7   32.50    1.86
   1 -11  -7   37.44    2.50
   0  11   7   13.35    2.05
   0  11   7    9.50    1.29
   0 -11  -7   11.96    0.88
   0 -11  -7    9.17    1.82
 -10  11   6    1.21    1.24
 -10  11   6   -0.40    2.61
  10 -11  -6    0.58    0.64
  10 -11  -6    0.88    1.85
  -9  11   6    0.65    0.96
  -9  11   6    1.08    2.91
   9 -11  -6    2.23    1.58
   9 -11  -6    1.08    0.53
  -8  11   6    3.21    2.59
  -8  11   6    0.35    0.91
   8 -11  -6    0.01    1.53
   8 -11  -6    0.36    0.56
  -7  11   6    0.60    1.00
  -7  11   6   -0.04    2.28
   7 -11  -6    0.39    0.55
   7 -11  -6    1.04    1.48
  -6  11   6   -0.01    2.19
  -6  11   6    1.39    0.95
   6 -11  -6    1.26    0.55
   6 -11  -6    0.79    1.40
  -5  11   6   -0.64    2.00
  -5  11   6   -0.03    0.81
   5 -11  -6    0.60    0.57
   5 -11  -6   -0.78    1.37
  -4  11   6   -0.32    0.87
  -4  11   6   -1.96    1.84
   4 -11  -6    0.06    1.17
   4 -11  -6    0.32    0.54
  -3  11   6   -0.09    0.82
  -3  11   6    0.51    1.73
   3 -11  -6    0.12    1.26
   3 -11  -6   -0.06    0.50
  -2  11   6   -0.49    1.64
  -2  11   6    0.65    0.88
   2 -11  -6    1.10    0.50
   2 -11  -6   -0.15    1.29
  -1  11   6   -0.83    1.74
  -1  11   6    0.24    1.09
   1 -11  -6   -0.25    0.52
   1 -11  -6    0.66    1.36
   0  11   6    3.13    1.12
   0  11   6    2.22    1.81
   0 -11  -6    2.84    1.23
   0 -11  -6    2.58    0.57
   1  11   6    1.25    1.11
   1  11   6    1.24    1.84
  -1 -11  -6   -0.51    1.35
  -1 -11  -6    0.94    0.54
   2  11   6   -3.69    1.93
  -2 -11  -6    0.41    0.62
  -2 -11  -6   -3.11    1.93
 -10  11   5    1.48    0.98
 -10  11   5   -1.06    2.73
  10 -11  -5   -2.08    2.56
  10 -11  -5    0.36    1.60
  10 -11  -5    0.42    0.62
  -9  11   5   59.71    3.35
  -9  11   5   55.88    4.10
   9 -11  -5   60.96    3.65
   9 -11  -5   53.64    2.96
  -8  11   5   43.03    2.52
  -8  11   5   41.70    3.22
   8 -11  -5   43.48    2.44
   8 -11  -5   40.91    2.91
  -7  11   5   24.37    2.46
  -7  11   5   23.62    1.54
   7 -11  -5   24.89    2.03
   7 -11  -5   23.53    1.40
  -6  11   5  104.50    6.05
  -6  11   5  105.10    5.76
   6 -11  -5  111.90    6.24
   6 -11  -5  109.80    5.95
  -5  11   5   11.47    1.97
  -5  11   5   13.79    1.14
   5 -11  -5   13.38    1.54
   5 -11  -5   14.68    0.98
  -4  11   5   47.47    3.27
  -4  11   5   44.31    2.59
   4 -11  -5   49.99    2.77
   4 -11  -5   54.15    3.24
  -3  11   5   77.45    4.61
  -3  11   5   63.54    3.57
   3 -11  -5   73.07    3.99
   3 -11  -5   69.05    3.99
  -2  11   5    4.47    1.71
  -2  11   5    2.04    0.82
   2 -11  -5    2.21    1.26
   2 -11  -5    2.94    0.52
  -1  11   5  101.40    5.73
  -1  11   5   96.42    5.30
   1 -11  -5  103.90    5.81
   1 -11  -5   98.12    5.33
   0  11   5   34.82    2.50
   0  11   5   37.71    2.28
   0 -11  -5   41.36    2.71
   0 -11  -5   38.59    2.17
   1  11   5   23.22    2.15
   1  11   5   24.38    1.70
  -1 -11  -5   22.11    1.90
  -1 -11  -5   23.14    1.37
   2  11   5   81.97    4.76
   2  11   5   81.26    4.55
  -2 -11  -5   73.12    3.98
  -2 -11  -5   89.24    5.10
   3  11   5   -0.37    1.09
   3  11   5    1.25    1.54
  -3 -11  -5   -0.23    0.55
  -3 -11  -5    0.61    1.53
  10 -11  -4   -0.49    2.34
  10 -11  -4    0.37    0.58
  -9  11   4    0.72    0.84
  -9  11   4   -3.58    2.15
   9 -11  -4    1.65    0.54
   9 -11  -4    1.29    1.82
  -8  11   4    1.80    2.03
  -8  11   4    0.57    0.71
   8 -11  -4    0.46    0.47
   8 -11  -4    2.53    1.74
  -7  11   4    0.37    0.74
  -7  11   4    1.83    1.67
   7 -11  -4    0.36    1.65
   7 -11  -4    0.63    0.50
  -6  11   4    3.21    0.76
  -6  11   4    1.44    1.73
   6 -11  -4    1.85    1.53
   6 -11  -4    3.30    0.54
  -5  11   4    0.39    0.71
  -5  11   4   -0.32    1.74
   5 -11  -4   -0.26    0.46
   5 -11  -4   -0.53    1.36
  -4  11   4    1.87    0.78
  -4  11   4    0.39    1.82
   4 -11  -4    0.79    1.22
   4 -11  -4    1.60    0.55
  -3  11   4   -1.47    1.53
  -3  11   4    0.11    0.74
   3 -11  -4   -0.01    0.49
   3 -11  -4    1.10    1.14
  -2  11   4    0.42    1.53
  -2  11   4   -0.65    0.73
   2 -11  -4   -0.04    0.44
   2 -11  -4    0.00    1.17
  -1  11   4    1.60    0.78
  -1  11   4    3.51    1.44
   1 -11  -4    2.00    1.03
   1 -11  -4    2.21    0.51
   0  11   4    0.50    0.78
   0  11   4    0.78    1.52
   0 -11  -4    0.64    0.47
   0 -11  -4    0.56    1.06
   1  11   4    0.78    1.52
   1  11   4   -0.33    0.83
  -1 -11  -4   -0.02    1.23
  -1 -11  -4    0.39    0.47
   2  11   4   -0.46    0.88
   2  11   4    0.20    1.48
  -2 -11  -4   -0.09    1.22
  -2 -11  -4   -0.13    0.44
   3  11   4    2.00    1.54
   3  11   4    1.35    1.03
  -3 -11  -4    1.97    1.17
  -3 -11  -4    1.60    0.49
   4  11   4    1.40    0.95
   4  11   4   -0.41    1.66
  -4 -11  -4    0.24    1.33
  -4 -11  -4    0.59    0.51
  -9  11   3    1.55    0.79
  -9  11   3    2.15    2.25
   9 -11  -3    2.22    1.74
   9 -11  -3    1.45    0.51
  -8  11   3   77.60    4.66
  -8  11   3   76.48    4.21
   8 -11  -3   73.50    4.00
   8 -11  -3   75.08    4.45
  -7  11   3   25.57    1.59
  -7  11   3   21.80    2.08
   7 -11  -3   28.47    1.64
   7 -11  -3   27.41    2.17
  -6  11   3   27.91    1.69
  -6  11   3   27.34    2.33
   6 -11  -3   30.10    2.20
   6 -11  -3   28.18    1.64
  -5  11   3   93.04    5.11
  -5  11   3   95.80    5.60
   5 -11  -3   99.93    5.43
   5 -11  -3   98.65    5.56
  -4  11   3    3.96    0.67
  -4  11   3    2.61    1.69
   4 -11  -3    5.25    0.59
   4 -11  -3    3.60    1.35
  -3  11   3   87.38    5.07
  -3  11   3   88.72    4.86
   3 -11  -3   93.91    5.26
   3 -11  -3   91.34    4.96
  -2  11   3  105.50    5.99
  -2  11   3  105.60    5.76
   2 -11  -3  117.90    6.38
   2 -11  -3  114.20    6.31
  -1  11   3    9.74    0.96
  -1  11   3    8.82    1.55
   1 -11  -3    9.47    1.34
   1 -11  -3    7.01    0.61
   0  11   3  112.20    6.29
   0  11   3  114.90    6.26
   0 -11  -3  116.70    6.31
   0 -11  -3  105.80    5.85
   1  11   3   18.35    1.27
   1  11   3   22.68    1.91
  -1 -11  -3   23.94    1.42
  -1 -11  -3   21.97    1.69
   2  11   3   50.57    3.22
   2  11   3   56.64    3.21
  -2 -11  -3   51.58    3.08
  -2 -11  -3   53.03    2.91
   3  11   3   79.06    4.40
   3  11   3   84.54    4.86
  -3 -11  -3   86.44    4.69
  -3 -11  -3   84.34    4.77
   4  11   3   -0.46    0.99
   4  11   3   -0.99    1.39
  -4 -11  -3    2.12    1.37
  -4 -11  -3    0.19    0.47
   5  11   3   56.89    3.28
   5  11   3   57.51    3.54
  -5 -11  -3   54.20    2.99
  -5 -11  -3   55.63    3.36
   9 -11  -2   -2.04    2.09
   9 -11  -2    0.06    0.50
  -8  11   2    0.03    0.72
  -8  11   2    0.61    2.00
   8 -11  -2    1.17    1.61
   8 -11  -2    0.42    0.48
  -7  11   2    1.17    0.72
  -7  11   2    0.40    1.73
   7 -11  -2    1.39    1.49
   7 -11  -2    1.62    0.49
  -6  11   2    1.41    0.62
  -6  11   2    3.96    1.61
   6 -11  -2    0.23    1.58
   6 -11  -2    1.92    0.49
  -5  11   2   -0.57    0.58
  -5  11   2   -0.34    1.68
   5 -11  -2    0.30    1.43
   5 -11  -2    0.23    0.47
  -4  11   2    0.16    0.57
  -4  11   2    2.11    1.57
   4 -11  -2    0.00    0.47
   4 -11  -2    0.46    1.30
  -3  11   2    2.98    1.58
  -3  11   2    0.08    0.57
   3 -11  -2   -1.94    1.10
   3 -11  -2    0.72    0.48
  -2  11   2    1.11    1.49
  -2  11   2    0.11    0.61
   2 -11  -2   -1.56    1.13
   2 -11  -2   -0.08    0.44
  -1  11   2    1.59    1.49
  -1  11   2   -0.49    0.68
   1 -11  -2    0.39    0.43
   1 -11  -2   -1.39    1.14
   0  11   2    0.66    1.36
   0  11   2    0.17    0.65
   0 -11  -2    0.92    1.10
   0 -11  -2    0.58    0.41
   1  11   2    0.12    0.68
   1  11   2    1.68    1.32
  -1 -11  -2    0.30    0.45
  -1 -11  -2    1.10    1.08
   2  11   2    0.13    0.69
   2  11   2   -1.90    1.38
  -2 -11  -2    0.28    0.98
  -2 -11  -2    0.19    0.43
   3  11   2    2.94    0.83
   3  11   2    3.27    1.45
  -3 -11  -2    1.67    1.09
  -3 -11  -2    2.90    0.52
   4  11   2    1.47    1.46
   4  11   2    0.55    0.87
  -4 -11  -2    0.85    1.19
  -4 -11  -2    0.72    0.47
   5  11   2   -0.26    1.45
   5  11   2    0.17    0.86
  -5 -11  -2   -0.39    1.09
  -5 -11  -2    0.52    0.49
   6  11   2   -1.17    1.59
  -6 -11  -2   -0.53    0.51
  -8  11   1    8.06    1.91
  -8  11   1    7.00    0.87
   8 -11  -1    7.05    0.64
   8 -11  -1    7.01    1.89
  -7  11   1   78.29    4.67
  -7  11   1   85.45    4.68
   7 -11  -1   83.71    4.55
   7 -11  -1   79.19    4.67
  -6  11   1   15.41    1.07
  -6  11   1   14.76    1.70
   6 -11  -1   18.12    1.11
   6 -11  -1   14.34    1.72
  -5  11   1   31.12    2.28
  -5  11   1   31.38    1.83
   5 -11  -1   32.81    2.31
   5 -11  -1   30.91    1.77
  -4  11   1  102.70    5.87
  -4  11   1  103.10    5.61
   4 -11  -1  103.30    5.76
   4 -11  -1  102.90    5.57
  -3  11   1   -0.40    1.58
  -3  11   1    1.76    0.55
   3 -11  -1    1.86    0.44
   3 -11  -1    1.21    1.23
  -2  11   1   97.91    5.33
  -2  11   1  104.90    5.97
   2 -11  -1  109.40    5.92
   2 -11  -1  109.70    6.09
  -1  11   1   45.53    3.01
  -1  11   1   50.17    2.82
   1 -11  -1   50.95    3.03
   1 -11  -1   46.10    2.56
   0  11   1   32.75    2.39
   0  11   1   32.74    1.93
   0 -11  -1   30.25    2.07
   0 -11  -1   33.03    1.87
   1  11   1   94.42    5.32
   1  11   1   98.40    5.38
  -1 -11  -1  110.50    6.11
  -1 -11  -1   99.59    5.39
   2  11   1    7.42    0.83
   2  11   1    6.86    1.41
  -2 -11  -1    7.79    1.10
  -2 -11  -1    7.12    0.62
   3  11   1   74.64    4.33
   3  11   1   61.54    3.45
  -3 -11  -1   76.95    4.36
  -3 -11  -1   83.00    4.52
   4  11   1   79.07    4.38
   4  11   1   72.16    4.20
  -4 -11  -1   74.50    4.06
  -4 -11  -1   75.06    4.25
   5  11   1    1.82    0.84
   5  11   1    2.50    1.55
  -5 -11  -1    1.91    0.49
  -5 -11  -1   -0.12    1.16
   6  11   1   94.31    5.20
   6  11   1   98.93    5.63
  -6 -11  -1  101.20    5.68
  -6 -11  -1   88.56    4.80
  -7  11   0    0.17    0.62
  -7  11   0    1.41    1.77
   7 -11   0    0.18    0.41
   7 -11   0   -0.92    1.71
  -6  11   0    2.65    1.63
  -6  11   0    4.14    0.65
   6 -11   0    2.93    1.54
   6 -11   0    6.20    0.54
  -5  11   0    1.61    1.52
  -5  11   0    1.30    0.58
   5 -11   0    1.83    0.48
   5 -11   0    3.29    1.37
  -4  11   0    0.37    1.59
  -4  11   0    0.72    0.55
   4 -11   0    1.78    1.26
   4 -11   0    0.65    0.45
  -3  11   0    3.31    1.52
  -3  11   0    2.40    0.55
   3 -11   0    2.76    1.26
   3 -11   0    2.56    0.44
  -2  11   0    1.35    0.53
  -2  11   0    1.59    1.57
   2 -11   0    2.86    1.21
   2 -11   0    2.11    0.45
  -1  11   0   -0.31    0.56
  -1  11   0    1.16    1.52
   1 -11   0    0.67    1.19
   1 -11   0    0.58    0.42
   0  11   0    0.60    1.54
   0  11   0    0.09    0.60
   0 -11   0    0.31    0.42
   0 -11   0   -0.74    1.08
   1  11   0    0.47    0.63
   1  11   0    0.45    1.35
  -1 -11   0    0.21    1.00
  -1 -11   0    0.14    0.42
   2  11   0    1.29    0.71
   2  11   0    0.87    1.33
  -2 -11   0    1.59    0.46
  -2 -11   0    1.71    1.06
   3  11   0    2.49    1.27
   3  11   0    2.47    0.67
  -3 -11   0    2.91    0.43
  -3 -11   0    2.79    0.97
   4  11   0    1.14    1.44
   4  11   0    0.66    0.72
  -4 -11   0    0.77    1.01
  -4 -11   0    1.04    0.50
   5  11   0   -0.45    1.46
   5  11   0    1.50    0.82
  -5 -11   0    1.45    1.11
  -5 -11   0    2.32    0.51
   6  11   0    3.93    0.98
   6  11   0    4.86    1.63
  -6 -11   0    3.89    0.54
  -6 -11   0    2.61    1.16
   7  11   0    2.53    1.70
   7  11   0    0.59    0.92
  -7 -11   0   -0.05    0.51
  -7 -11   0   -1.56    1.23
  -7  11  -1   17.46    2.02
   7 -11   1   19.04    1.17
  -6  11  -1   98.48    5.35
  -6  11  -1  102.30    5.78
   6 -11   1   90.76    4.92
   6 -11   1   98.85    5.62
  -5  11  -1    2.29    0.61
  -5  11  -1   -0.26    1.46
   5 -11   1    2.56    0.46
   5 -11   1    0.80    1.47
  -4  11  -1   67.96    4.01
  -4  11  -1   73.92    4.05
   4 -11   1   70.93    4.14
   4 -11   1   70.78    3.86
  -3  11  -1   78.19    4.61
  -3  11  -1   73.44    4.02
   3 -11   1   84.18    4.57
   3 -11   1   76.37    4.38
  -2  11  -1    6.64    1.64
  -2  11  -1    7.49    0.69
   2 -11   1    7.29    1.30
   2 -11   1    7.78    0.64
  -1  11  -1  107.00    5.81
  -1  11  -1   93.88    5.37
   1 -11   1   91.27    4.96
   1 -11   1  102.40    5.70
   0  11  -1   31.77    1.85
   0  11  -1   30.64    2.28
   0 -11   1   32.13    1.85
   0 -11   1   34.18    2.29
   1  11  -1   49.76    2.80
   1  11  -1   46.58    3.03
  -1 -11   1   46.07    2.56
  -1 -11   1   49.48    2.93
   2  11  -1  101.00    5.73
   2  11  -1  100.00    5.46
  -2 -11   1  108.80    6.01
  -2 -11   1   98.78    5.36
   3  11  -1    1.44    0.69
   3  11  -1    0.31    1.31
  -3 -11   1    2.28    0.46
  -3 -11   1    0.50    1.08
   4  11  -1   86.98    4.99
   4  11  -1   91.22    4.99
  -4 -11   1   97.04    5.37
  -4 -11   1  111.30    6.02
   5  11  -1   29.17    2.19
   5  11  -1   30.16    1.88
  -5 -11   1   31.41    2.12
  -5 -11   1   33.18    1.89
   6  11  -1   14.81    1.25
   6  11  -1   10.54    1.65
  -6 -11   1   16.29    1.04
  -6 -11   1   13.35    1.54
   7  11  -1   83.81    4.67
   7  11  -1   83.15    4.90
  -7 -11   1   80.91    4.40
  -7 -11   1   80.10    4.61
   8  11  -1    8.37    1.25
   8  11  -1    5.07    2.10
  -8 -11   1    6.37    0.67
  -8 -11   1    5.57    1.65
  -6  11  -2   -2.56    1.62
   6 -11   2   -0.16    0.40
  -5  11  -2   -0.29    0.57
  -5  11  -2   -0.36    1.50
   5 -11   2    0.13    1.46
   5 -11   2    0.32    0.41
  -4  11  -2    1.14    0.57
  -4  11  -2    1.58    1.55
   4 -11   2    2.22    0.43
   4 -11   2    1.21    1.44
  -3  11  -2    2.97    0.60
  -3  11  -2    2.03    1.54
   3 -11   2    2.96    0.50
   3 -11   2    1.72    1.36
  -2  11  -2   -1.37    1.49
  -2  11  -2    0.19    0.53
   2 -11   2   -0.31    0.45
   2 -11   2    0.59    1.18
  -1  11  -2   -0.80    1.45
  -1  11  -2    0.23    0.52
   1 -11   2    0.15    0.42
   1 -11   2   -0.09    1.20
   0  11  -2    1.11    0.55
   0  11  -2   -0.70    1.47
   0 -11   2    2.05    0.49
   0 -11   2    0.63    1.13
   1  11  -2    2.01    1.51
   1  11  -2    0.23    0.58
  -1 -11   2    0.36    0.47
  -1 -11   2   -0.77    1.13
   2  11  -2   -0.58    1.53
   2  11  -2    0.15    0.61
  -2 -11   2    0.03    0.43
  -2 -11   2   -1.46    1.11
   3  11  -2    0.10    0.63
   3  11  -2   -0.75    1.49
  -3 -11   2    0.19    1.05
  -3 -11   2    0.21    0.43
   4  11  -2    0.63    1.43
   4  11  -2   -0.13    0.64
  -4 -11   2    0.50    1.13
  -4 -11   2    0.67    0.51
   5  11  -2   -0.49    0.71
   5  11  -2    0.54    1.45
  -5 -11   2    0.13    1.10
  -5 -11   2   -0.03    0.46
   6  11  -2    2.15    1.53
   6  11  -2    1.43    0.88
  -6 -11   2    1.88    0.47
  -6 -11   2    1.01    1.17
   7  11  -2    0.71    0.91
   7  11  -2    3.46    1.81
  -7 -11   2    2.28    1.38
  -7 -11   2    1.14    0.51
   8  11  -2   -0.54    1.88
   8  11  -2   -0.06    1.00
  -8 -11   2    1.31    0.54
  -8 -11   2   -0.57    1.62
  -5  11  -3   62.07    3.81
  -5  11  -3   64.76    3.56
   5 -11   3   64.59    3.53
  -4  11  -3    1.92    1.52
  -4  11  -3    0.79    0.58
   4 -11   3    1.72    1.56
   4 -11   3    0.72    0.41
  -3  11  -3   85.50    4.89
  -3  11  -3   88.74    4.83
   3 -11   3   83.69    4.78
   3 -11   3   85.04    4.61
  -2  11  -3   55.20    3.42
  -2  11  -3   58.01    3.21
   2 -11   3   52.87    3.20
   2 -11   3   61.23    3.36
  -1  11  -3   25.49    1.51
  -1  11  -3   24.93    2.07
   1 -11   3   23.82    1.87
   1 -11   3   25.72    1.49
   0  11  -3  110.30    5.98
   0  11  -3  119.90    6.72
   0 -11   3  120.90    6.69
   0 -11   3  121.90    6.59
   1  11  -3    8.44    0.75
   1  11  -3    6.41    1.55
  -1 -11   3   12.18    0.83
  -1 -11   3    9.37    1.32
   2  11  -3  110.00    5.97
   2  11  -3  103.50    5.86
  -2 -11   3  100.40    5.44
  -2 -11   3  111.40    6.17
   3  11  -3   89.54    5.17
   3  11  -3   90.26    4.94
  -3 -11   3   89.46    4.85
  -3 -11   3  103.70    5.77
   4  11  -3    5.04    1.59
   4  11  -3    4.36    0.71
  -4 -11   3    4.36    0.52
  -4 -11   3    3.38    1.24
   5  11  -3   82.98    4.85
   5  11  -3   85.87    4.73
  -5 -11   3   75.52    4.31
  -5 -11   3   80.29    4.37
   6  11  -3   26.03    2.08
   6  11  -3   24.31    1.63
  -6 -11   3   26.89    1.97
  -6 -11   3   25.91    1.53
   7  11  -3   23.24    2.10
   7  11  -3   25.91    1.75
  -7 -11   3   24.04    1.43
  -7 -11   3   21.85    1.90
   8  11  -3   65.27    4.04
   8  11  -3   70.70    4.00
  -8 -11   3   67.29    3.68
  -8 -11   3   64.21    3.93
   9  11  -3    2.01    1.96
  -9 -11   3    1.31    0.55
  -4  11  -4    0.42    0.59
  -4  11  -4    0.12    1.57
   4 -11   4   -0.01    0.42
   4 -11   4    1.80    1.78
  -3  11  -4    1.03    1.60
  -3  11  -4    1.06    0.65
   3 -11   4    2.54    1.53
   3 -11   4    2.20    0.44
  -2  11  -4   -0.62    1.45
  -2  11  -4    0.54    0.58
   2 -11   4   -0.47    1.40
   2 -11   4   -0.05    0.39
  -1  11  -4   -0.77    1.48
  -1  11  -4    0.11    0.57
   1 -11   4    0.58    0.47
   1 -11   4    1.64    1.36
   0  11  -4   -0.14    0.56
   0  11  -4   -0.85    1.61
   0 -11   4    0.51    0.43
   0 -11   4    0.59    1.32
   1  11  -4    2.56    0.59
   1  11  -4    1.53    1.55
  -1 -11   4    2.37    0.45
  -1 -11   4   -0.13    1.29
   2  11  -4    1.39    1.63
   2  11  -4    0.43    0.65
  -2 -11   4   -0.18    1.28
  -2 -11   4    0.20    0.43
   3  11  -4    2.66    1.57
   3  11  -4    0.10    0.66
  -3 -11   4    1.12    1.21
  -3 -11   4    0.34    0.47
   4  11  -4    0.41    0.69
   4  11  -4    0.69    1.74
  -4 -11   4    1.77    0.51
  -4 -11   4    1.18    1.24
  -5 -11   4    0.61    0.50
  -5 -11   4    1.30    1.47
   6  11  -4    3.54    1.73
   6  11  -4    2.10    0.88
  -6 -11   4    3.06    1.29
  -6 -11   4    2.71    0.51
   7  11  -4    1.63    0.93
   7  11  -4   -0.54    1.65
  -7 -11   4    1.59    1.53
  -7 -11   4    0.85    0.54
   8  11  -4    0.31    1.84
   8  11  -4   -0.39    0.95
  -8 -11   4    0.62    1.60
  -8 -11   4   -0.37    0.52
   9  11  -4    0.77    1.98
   9  11  -4    0.69    1.23
  -9 -11   4    1.13    0.57
  -9 -11   4    1.91    1.94
  -3  11  -5   -0.14    1.52
   3 -11   5    0.35    0.40
  -2  11  -5   96.99    5.58
  -2  11  -5   88.65    4.84
   2 -11   5   91.46    5.25
   2 -11   5  101.30    5.48
  -1  11  -5   24.50    2.19
  -1  11  -5   27.25    1.63
   1 -11   5   27.09    1.56
   1 -11   5   24.49    2.10
   0  11  -5   38.30    2.19
   0  11  -5   37.03    2.67
   0 -11   5   44.89    2.50
   0 -11   5   37.34    2.54
   1  11  -5  108.60    6.19
   1  11  -5  113.20    6.14
  -1 -11   5  110.40    6.18
  -1 -11   5  106.10    5.74
   2  11  -5    3.58    0.67
   2  11  -5    1.66    1.79
  -2 -11   5    2.14    1.37
  -2 -11   5    2.85    0.50
   3  11  -5   76.87    4.71
   3  11  -5   66.62    3.70
  -3 -11   5   76.74    4.20
   4  11  -5   46.43    3.14
   4  11  -5   44.52    2.55
  -4 -11   5   57.38    3.49
  -4 -11   5   49.34    2.74
   5  11  -5   13.88    1.12
   5  11  -5   12.52    2.04
  -5 -11   5   16.58    1.75
  -5 -11   5   14.86    0.98
   6  11  -5  101.40    5.54
   6  11  -5  102.50    5.91
  -6 -11   5  100.00    5.42
  -6 -11   5   98.10    5.54
  -7 -11   5   22.87    1.90
  -7 -11   5   25.05    1.48
   8  11  -5   34.72    2.90
   8  11  -5   42.76    2.66
  -8 -11   5   38.56    2.17
  -8 -11   5   36.06    2.63
   9  11  -5   48.43    3.50
   9  11  -5   53.55    3.23
  -9 -11   5   47.16    3.32
  -9 -11   5   54.23    3.01
  -2  11  -6   -1.87    1.79
   2 -11   6    0.65    0.46
  -1  11  -6   -1.48    1.86
  -1  11  -6    0.48    0.65
   1 -11   6    1.19    0.44
   1 -11   6   -0.21    1.69
   0  11  -6    2.33    0.67
   0  11  -6    2.91    1.74
   0 -11   6    4.02    1.64
   0 -11   6    3.25    0.48
   1  11  -6    0.64    0.64
   1  11  -6    1.70    1.66
  -1 -11   6   -0.22    0.49
  -1 -11   6   -0.66    1.70
   2  11  -6    0.70    0.61
   2  11  -6    0.28    1.52
  -2 -11   6    0.03    1.66
  -2 -11   6    0.55    0.47
   3  11  -6    0.48    0.64
   3  11  -6    1.24    1.88
  -3 -11   6    0.06    0.47
  -3 -11   6   -0.05    1.67
   4  11  -6    0.42    2.03
   4  11  -6    0.69    0.72
  -4 -11   6   -0.08    0.46
  -4 -11   6   -0.53    1.55
   5  11  -6   -0.40    1.92
   5  11  -6   -0.36    0.85
  -5 -11   6    0.92    1.51
  -5 -11   6    0.19    0.51
   6  11  -6    1.01    1.93
   6  11  -6    0.75    0.83
  -6 -11   6    0.71    1.61
  -6 -11   6    1.63    0.55
   7  11  -6    0.22    2.09
   7  11  -6   -0.05    0.89
  -7 -11   6    0.84    1.49
  -7 -11   6    0.81    0.54
   8  11  -6   -0.38    2.46
   8  11  -6    0.04    1.23
  -8 -11   6    1.69    1.72
  -8 -11   6    0.13    0.54
   9  11  -6    1.19    1.11
   9  11  -6    1.04    2.37
  -9 -11   6   -0.30    0.65
  -9 -11   6    2.56    2.00
  10  11  -6   -0.66    3.11
 -10 -11   6   -0.17    0.75
   0  11  -7   12.91    1.02
   0  11  -7   15.31    2.19
   0 -11   7   11.32    0.82
   0 -11   7   12.36    2.12
   1  11  -7   34.54    2.81
   1  11  -7   32.34    1.93
  -1 -11   7   32.04    2.60
  -1 -11   7   32.86    1.87
   2  11  -7   78.46    4.30
   2  11  -7   82.63    4.87
  -2 -11   7   77.87    4.62
  -2 -11   7   82.90    4.51
   3  11  -7   -0.14    0.69
   3  11  -7   -0.04    1.77
  -3 -11   7   -2.29    1.86
  -3 -11   7    0.08    0.48
   4  11  -7   65.27    3.98
   4  11  -7   75.15    4.15
  -4 -11   7   77.18    4.54
  -4 -11   7   68.73    3.76
   5  11  -7   59.35    3.36
   5  11  -7   56.65    3.85
  -5 -11   7   53.24    2.95
  -5 -11   7   53.19    3.36
   6  11  -7   15.78    2.58
   6  11  -7   19.27    1.42
  -6 -11   7   14.96    1.93
  -6 -11   7   16.24    1.06
   7  11  -7   57.24    3.24
   7  11  -7   60.66    4.16
  -7 -11   7   59.77    3.70
  -7 -11   7   64.00    3.52
   8  11  -7   11.87    2.60
   8  11  -7    6.23    1.07
  -8 -11   7    4.15    0.78
  -8 -11   7    5.49    1.86
   9  11  -7   36.47    2.32
   9  11  -7   32.62    3.05
  -9 -11   7   40.22    2.33
  -9 -11   7   37.10    3.10
   1  11  -8    1.14    1.91
  -1 -11   8    0.17    0.53
   2  11  -8    1.55    1.94
   2  11  -8    0.10    0.81
  -2 -11   8   -2.44    2.02
  -2 -11   8    0.23    0.50
   3  11  -8   -2.46    2.17
   3  11  -8    1.07    0.77
  -3 -11   8    0.69    0.52
  -3 -11   8    3.67    1.88
   4  11  -8   -0.80    2.10
   4  11  -8    0.25    0.80
  -4 -11   8    2.67    1.73
  -4 -11   8   -0.23    0.51
   5  11  -8    0.94    0.81
   5  11  -8    2.07    2.01
  -5 -11   8    0.80    0.60
  -5 -11   8    1.11    1.81
   6  11  -8    1.03    0.83
   6  11  -8    1.76    1.89
  -6 -11   8    0.46    0.65
  -6 -11   8    1.97    1.82
   7  11  -8    0.23    2.28
   7  11  -8   -0.47    0.99
  -7 -11   8   -0.62    1.94
  -7 -11   8   -0.81    0.66
   8  11  -8    0.60    1.06
   8  11  -8    2.85    2.70
  -8 -11   8   -0.05    2.08
  -8 -11   8   -0.52    0.68
   3  11  -9   48.60    3.51
  -3 -11   9   42.09    2.40
   4  11  -9    2.22    2.42
   4  11  -9    3.72    0.82
  -4 -11   9    5.71    0.75
  -4 -11   9    6.11    2.14
   5  11  -9   60.68    3.42
   5  11  -9   52.92    3.90
  -5 -11   9   53.74    3.01
  -5 -11   9   52.93    3.56
   6  11  -9   21.41    1.51
   6  11  -9   19.85    2.87
  -6 -11   9   25.13    2.60
  -6 -11   9   20.46    1.37
   7  11  -9   15.34    3.13
  -7  12   7   -4.14    3.21
   7 -12  -7    0.21    1.64
  -6  12   7    6.25    3.11
  -6  12   7    4.23    1.28
   6 -12  -7    4.86    0.70
   6 -12  -7    5.22    1.63
  -5  12   7    4.96    1.22
  -5  12   7    4.69    2.80
   5 -12  -7    7.51    0.75
   5 -12  -7    7.18    1.62
  -4  12   7   -1.88    2.52
  -4  12   7    0.13    1.31
   4 -12  -7   -0.52    1.80
   4 -12  -7    0.17    0.62
  -3  12   7    2.00    2.30
   3 -12  -7    3.55    0.64
   3 -12  -7    2.48    1.92
  -7  12   6   12.16    1.33
  -7  12   6   11.07    3.06
   7 -12  -6   14.78    1.01
   7 -12  -6   12.69    1.88
  -6  12   6   16.94    1.51
  -6  12   6   18.05    2.66
   6 -12  -6   17.35    2.02
   6 -12  -6   20.06    1.26
  -5  12   6   49.02    3.71
  -5  12   6   44.60    2.67
   5 -12  -6   48.16    3.15
   5 -12  -6   48.95    2.72
  -4  12   6   -0.04    0.91
  -4  12   6   -2.03    2.53
   4 -12  -6    0.18    0.56
   4 -12  -6   -0.73    1.65
  -3  12   6   45.91    3.46
  -3  12   6   39.08    2.39
   3 -12  -6   47.24    2.63
   3 -12  -6   44.70    2.97
  -2  12   6   30.66    2.71
  -2  12   6   33.08    2.23
   2 -12  -6   31.93    2.46
   2 -12  -6   32.55    1.86
  -1  12   6    5.47    2.10
   1 -12  -6    7.38    1.78
   1 -12  -6    6.24    0.68
  -7  12   5    3.71    1.02
  -7  12   5    6.87    2.46
   7 -12  -5    3.34    0.64
   7 -12  -5    1.67    1.84
  -6  12   5    2.24    2.28
  -6  12   5    5.20    0.99
   6 -12  -5    4.26    1.82
   6 -12  -5    4.68    0.62
  -5  12   5    2.47    0.93
  -5  12   5    4.33    2.23
   5 -12  -5    0.68    0.53
   5 -12  -5    2.84    1.66
  -4  12   5   -0.11    2.24
  -4  12   5    2.55    0.94
   4 -12  -5    1.73    1.53
   4 -12  -5    1.52    0.57
  -3  12   5    0.14    2.15
  -3  12   5    3.54    1.04
   3 -12  -5    5.92    1.30
   3 -12  -5    5.97    0.67
  -2  12   5    6.60    2.06
  -2  12   5    7.23    1.02
   2 -12  -5    7.10    0.65
   2 -12  -5    8.78    1.45
  -1  12   5   -1.22    1.87
  -1  12   5    0.47    1.00
   1 -12  -5    0.24    0.51
   1 -12  -5    2.03    1.49
   0  12   5    1.80    2.20
  -7  12   4   53.50    3.85
  -7  12   4   55.92    3.18
   7 -12  -4   52.74    2.92
   7 -12  -4   52.75    3.41
  -6  12   4    6.23    2.20
  -6  12   4    8.48    1.04
   6 -12  -4    9.66    1.69
   6 -12  -4   10.51    0.82
   5 -12  -4   36.47    2.49
   5 -12  -4   33.22    1.90
  -4  12   4   54.05    3.57
  -4  12   4   63.16    3.56
   4 -12  -4   58.20    3.22
   4 -12  -4   58.22    3.51
  -3  12   4    0.63    0.89
  -3  12   4    0.47    1.99
   3 -12  -4    0.39    0.55
   3 -12  -4   -0.97    1.35
  -2  12   4   58.31    3.30
  -2  12   4   61.24    3.85
   2 -12  -4   61.82    3.39
   2 -12  -4   60.02    3.63
  -1  12   4   22.07    2.12
  -1  12   4   26.08    1.69
   1 -12  -4   22.72    1.93
   1 -12  -4   26.07    1.54
   0  12   4   16.87    1.93
   0  12   4   16.13    1.31
   0 -12  -4   17.10    1.64
   0 -12  -4   19.01    1.17
   1  12   4   77.19    4.34
   1  12   4   70.78    4.23
  -1 -12  -4   75.66    4.36
  -1 -12  -4   69.59    3.80
  -2 -12  -4    4.44    0.57
  -7  12   3    2.63    2.03
   7 -12  -3    1.31    0.55
  -6  12   3    3.11    1.85
  -6  12   3    4.24    0.82
   6 -12  -3    3.35    0.56
   6 -12  -3    5.66    1.76
  -5  12   3    1.14    2.07
  -5  12   3    2.77    0.80
   5 -12  -3    2.24    1.45
   5 -12  -3    2.30    0.53
  -4  12   3   10.38    1.04
  -4  12   3    9.18    2.17
   4 -12  -3    9.96    0.77
   4 -12  -3    8.12    1.64
  -3  12   3    9.43    0.96
  -3  12   3    6.59    1.84
   3 -12  -3    9.10    0.73
   3 -12  -3    8.52    1.50
  -2  12   3    1.66    0.77
  -2  12   3    2.00    1.85
   2 -12  -3    0.05    1.34
   2 -12  -3    1.74    0.47
  -1  12   3    6.07    1.81
  -1  12   3    3.33    0.78
   1 -12  -3    3.23    1.44
   1 -12  -3    4.62    0.55
   0  12   3    2.27    1.54
   0  12   3    0.59    0.77
   0 -12  -3   -0.03    1.29
   0 -12  -3    1.01    0.47
   1  12   3    7.26    1.67
   1  12   3    5.78    0.87
  -1 -12  -3    8.68    0.71
  -1 -12  -3    5.75    1.34
   2  12   3   -0.14    1.60
   2  12   3    0.31    0.99
  -2 -12  -3    2.50    1.40
  -2 -12  -3    1.73    0.50
   3  12   3    2.03    1.76
  -3 -12  -3    0.60    0.49
  -6  12   2   57.35    3.20
  -6  12   2   50.48    3.54
   6 -12  -2   57.40    3.64
   6 -12  -2   55.89    3.08
  -5  12   2    3.92    0.73
  -5  12   2    3.01    2.00
   5 -12  -2    4.71    0.57
   5 -12  -2    1.56    1.66
  -4  12   2   50.96    2.88
  -4  12   2   48.97    3.37
   4 -12  -2   58.40    3.61
   4 -12  -2   51.18    2.82
  -3  12   2   55.32    3.58
  -3  12   2   66.23    3.68
   3 -12  -2   67.92    3.71
   3 -12  -2   66.38    3.89
  -2  12   2    4.24    1.72
  -2  12   2    6.83    0.87
   2 -12  -2    7.72    1.43
   2 -12  -2    5.35    0.56
  -1  12   2   92.92    5.35
  -1  12   2   93.01    5.10
   0  12   2   21.15    1.97
   0  12   2   20.75    1.41
   0 -12  -2   22.04    1.30
   0 -12  -2   19.74    1.72
   1  12   2   22.49    2.00
   1  12   2   22.97    1.51
  -1 -12  -2   21.09    1.69
  -1 -12  -2   25.67    1.49
   2  12   2   74.37    4.38
   2  12   2   71.81    3.99
  -2 -12  -2   77.72    4.23
  -2 -12  -2   70.50    4.05
   3  12   2    3.40    1.64
   3  12   2    0.64    0.94
  -3 -12  -2   -0.49    0.48
  -3 -12  -2   -0.54    1.37
  -6  12   1    6.04    2.12
   6 -12  -1    4.85    0.54
  -5  12   1    7.24    1.82
  -5  12   1    7.29    0.78
   5 -12  -1    7.97    0.66
   5 -12  -1    8.40    1.69
  -4  12   1    2.06    0.63
  -4  12   1    1.60    1.78
   4 -12  -1    1.34    1.52
   4 -12  -1    1.70    0.47
  -3  12   1   17.54    1.19
  -3  12   1   16.46    2.03
   3 -12  -1   16.64    1.77
   3 -12  -1   16.71    1.04
  -2  12   1   -0.06    1.75
  -2  12   1   -0.05    0.68
   2 -12  -1    0.49    0.45
   2 -12  -1    0.21    1.27
  -1  12   1   13.45    1.89
  -1  12   1   15.09    1.11
   1 -12  -1   14.92    0.97
   1 -12  -1   16.90    1.68
   0  12   1   10.06    0.90
   0  12   1   11.13    1.87
   0 -12  -1   10.50    0.76
   0 -12  -1    9.39    1.41
   1  12   1    1.74    0.74
   1  12   1    3.34    1.51
  -1 -12  -1    0.68    0.44
  -1 -12  -1    1.93    1.28
   2  12   1    6.78    1.64
   2  12   1    4.85    0.79
  -2 -12  -1    4.98    0.57
  -2 -12  -1    4.98    1.17
   3  12   1    0.04    1.55
   3  12   1   -0.73    0.85
  -3 -12  -1   -0.11    0.44
  -3 -12  -1    0.35    1.26
   4  12   1    4.94    1.84
   4  12   1    6.33    1.02
  -4 -12  -1    8.29    0.66
  -4 -12  -1    6.09    1.30
  -5  12   0   58.23    3.65
  -5  12   0   58.69    3.26
   5 -12   0   58.93    3.24
   5 -12   0   60.47    3.68
  -4  12   0    1.22    1.69
  -4  12   0    0.64    0.60
   4 -12   0    0.99    0.46
   4 -12   0    1.13    1.54
  -3  12   0   74.88    4.48
  -3  12   0   77.30    4.23
   3 -12   0   92.76    5.03
   3 -12   0   87.39    4.98
  -2  12   0   42.72    2.43
  -2  12   0   42.75    2.92
   2 -12   0   47.20    2.62
   2 -12   0   48.92    3.04
  -1  12   0   13.05    1.88
  -1  12   0   12.94    0.96
   1 -12   0   12.90    1.53
   1 -12   0   13.18    0.88
   0  12   0   90.68    5.27
   0  12   0  106.10    5.77
   0 -12   0   99.79    5.41
   0 -12   0  106.80    5.95
   1  12   0   12.55    1.04
   1  12   0   12.98    1.84
  -1 -12   0   12.73    0.87
  -1 -12   0   14.70    1.54
   2  12   0   43.15    2.93
   2  12   0   42.55    2.45
  -2 -12   0   47.26    2.61
  -2 -12   0   45.64    2.83
   3  12   0   68.84    4.11
   3  12   0   70.98    3.95
  -3 -12   0   76.43    4.16
  -3 -12   0   72.78    4.17
   4  12   0    1.37    0.83
   4  12   0    3.42    1.64
  -4 -12   0    1.32    0.48
  -4 -12   0    2.84    1.19
   5  12   0   58.87    3.72
   5  12   0   65.30    3.73
  -5 -12   0   58.04    3.49
  -5 -12   0   64.04    3.51
  -4  12  -1    5.61    1.74
  -4  12  -1    7.08    0.75
   4 -12   1    6.76    0.62
   4 -12   1    6.59    1.65
  -3  12  -1   -0.22    0.58
  -3  12  -1   -0.75    1.72
   3 -12   1    0.64    0.43
   3 -12   1    1.40    1.54
  -2  12  -1    4.30    0.64
  -2  12  -1    4.87    1.71
   2 -12   1    6.28    1.43
   2 -12   1    5.91    0.57
  -1  12  -1    1.16    0.61
  -1  12  -1    0.47    1.73
   1 -12   1    1.67    0.44
   1 -12   1    1.17    1.34
   0  12  -1    8.48    1.70
   0  12  -1   10.42    0.88
   0 -12   1    9.67    0.75
   0 -12   1   11.58    1.51
   1  12  -1   13.96    1.88
   1  12  -1   15.40    1.12
  -1 -12   1   16.62    1.56
  -1 -12   1   16.92    1.07
   2  12  -1   -0.45    1.71
   2  12  -1   -0.04    0.75
  -2 -12   1   -0.46    1.22
  -2 -12   1   -0.16    0.46
   3  12  -1   18.30    1.91
   3  12  -1   14.75    1.12
  -3 -12   1   17.48    1.58
  -3 -12   1   14.39    0.93
   4  12  -1    2.41    0.81
   4  12  -1    0.86    1.51
  -4 -12   1    1.57    0.50
  -4 -12   1    2.30    1.29
   5  12  -1    6.91    1.80
   5  12  -1    4.66    0.97
  -5 -12   1    7.21    0.64
  -5 -12   1    7.04    1.30
  -6 -12   1    5.42    0.59
  -4  12  -2   59.44    3.76
   4 -12   2   60.34    3.30
  -3  12  -2    3.18    1.70
  -3  12  -2   -0.15    0.61
   3 -12   2   -0.13    0.44
   3 -12   2   -0.18    1.57
  -2  12  -2   85.33    4.66
  -2  12  -2   82.02    4.76
   2 -12   2   84.01    4.57
   2 -12   2   88.09    5.04
  -1  12  -2   27.36    1.62
  -1  12  -2   26.64    2.34
   1 -12   2   27.25    1.57
   1 -12   2   25.27    2.02
   0  12  -2   22.30    2.21
   0  12  -2   20.93    1.34
   0 -12   2   20.93    1.26
   0 -12   2   21.95    1.83
   1  12  -2  101.50    5.84
   1  12  -2  107.60    5.85
  -1 -12   2  104.20    5.64
  -1 -12   2  105.30    5.86
   2  12  -2    7.18    1.91
   2  12  -2    6.43    0.81
  -2 -12   2    7.92    0.67
  -2 -12   2    6.10    1.32
   3  12  -2   61.41    3.43
   3  12  -2   63.54    3.93
  -3 -12   2   67.22    3.93
  -3 -12   2   69.09    3.77
   4  12  -2   50.17    3.33
   4  12  -2   47.59    2.74
  -4 -12   2   52.08    2.87
  -4 -12   2   48.71    2.95
   5  12  -2    0.42    1.70
   5  12  -2    3.39    0.95
  -5 -12   2    2.47    1.25
  -5 -12   2    4.44    0.59
   6  12  -2   52.71    3.48
   6  12  -2   58.96    3.42
  -6 -12   2   52.63    3.29
  -6 -12   2   57.56    3.17
  -3  12  -3   -0.24    1.86
   3 -12   3    0.27    0.44
  -2  12  -3    2.03    0.66
  -2  12  -3    2.60    1.57
   2 -12   3    3.72    1.58
   2 -12   3    0.80    0.46
  -1  12  -3    8.67    1.70
  -1  12  -3    7.46    0.75
   1 -12   3    8.16    1.54
   1 -12   3    8.96    0.71
   0  12  -3    0.30    1.79
   0  12  -3    2.13    0.62
   0 -12   3    1.57    0.46
   0 -12   3    0.51    1.42
   1  12  -3    5.11    1.81
   1  12  -3    4.59    0.71
  -1 -12   3    3.33    1.28
  -1 -12   3    3.42    0.51
   2  12  -3    0.78    1.76
   2  12  -3    1.24    0.71
  -2 -12   3    0.92    0.49
  -2 -12   3    1.61    1.35
   3  12  -3    7.85    1.80
   3  12  -3    8.33    0.89
  -3 -12   3   10.41    1.54
  -3 -12   3    9.99    0.76
   4  12  -3    7.67    1.92
   4  12  -3    9.42    1.00
  -4 -12   3    7.90    1.44
  -4 -12   3    9.29    0.75
   5  12  -3    3.09    2.05
   5  12  -3    2.04    0.93
  -5 -12   3    1.56    0.50
  -5 -12   3    1.52    1.31
   6  12  -3    4.58    1.06
   6  12  -3    3.73    2.05
  -6 -12   3    3.79    1.45
  -6 -12   3    3.66    0.54
  -1  12  -4   82.09    4.49
  -1  12  -4   77.87    4.65
   1 -12   4   81.01    4.41
   1 -12   4   78.47    4.60
   0  12  -4   17.85    1.18
   0  12  -4   17.99    2.13
   0 -12   4   22.01    1.31
   0 -12   4   19.23    1.93
   1  12  -4   25.41    2.35
   1  12  -4   24.53    1.52
  -1 -12   4   26.97    1.56
  -1 -12   4   26.61    2.17
   2  12  -4   63.35    3.99
   2  12  -4   64.90    3.61
  -2 -12   4   58.10    3.19
  -2 -12   4   58.30    3.52
   3  12  -4   -1.09    0.76
   3  12  -4   -0.64    1.82
  -3 -12   4    0.11    0.49
  -3 -12   4    0.35    1.46
  -4 -12   4   62.61    3.88
   5  12  -4   30.30    2.86
   5  12  -4   32.83    2.02
  -5 -12   4   28.49    2.33
  -5 -12   4   29.29    1.70
   6  12  -4    7.64    1.01
   6  12  -4    7.57    2.37
  -6 -12   4    5.18    1.70
  -6 -12   4    8.62    0.72
   7  12  -4   52.32    3.70
  -7 -12   4   48.95    2.72
   0  12  -5    1.83    2.01
   0 -12   5    4.60    0.57
   1  12  -5    3.43    1.97
   1  12  -5   -0.37    0.75
  -1 -12   5   -0.52    1.73
  -1 -12   5    3.12    0.52
  -2 -12   5    9.68    2.13
   3  12  -5    3.04    2.03
   3  12  -5    4.75    0.84
  -3 -12   5    5.86    0.60
  -3 -12   5    6.32    1.65
   4  12  -5    2.93    2.04
   4  12  -5    2.05    0.93
  -4 -12   5    2.48    1.61
  -4 -12   5    1.64    0.55
   5  12  -5    2.64    0.88
   5  12  -5    1.56    2.24
  -5 -12   5    4.65    1.83
  -5 -12   5    1.55    0.54
   6  12  -5    4.15    1.05
   6  12  -5    6.42    2.41
  -6 -12   5    2.89    1.77
  -6 -12   5    4.27    0.60
   7  12  -5    5.26    2.48
  -7 -12   5    3.20    0.63
   2  12  -6   29.01    2.61
   2  12  -6   32.09    1.97
  -2 -12   6   35.91    2.05
   3  12  -6   42.30    3.37
   3  12  -6   50.25    2.86
  -3 -12   6   45.15    3.12
  -3 -12   6   43.07    2.40
   4  12  -6    0.65    0.93
   4  12  -6   -0.60    2.20
  -4 -12   6    0.43    0.50
  -4 -12   6    1.93    1.89
   5  12  -6   47.50    3.49
   5  12  -6   47.93    2.81
  -5 -12   6   53.75    3.52
  -5 -12   6   45.84    2.55
   6  12  -6   18.06    2.51
   6  12  -6   18.06    1.50
  -6 -12   6   17.47    1.97
  -6 -12   6   18.95    1.22
   4  12  -7   -0.31    2.14
   5  12  -7    4.68    2.81
  -1  13   1   17.43    2.43
   1 -13  -1   20.16    1.25
   0 -13  -1   22.04    1.31
  -1  13   0   22.51    2.45
   1 -13   0   23.53    1.40
   0  13   0    0.37    2.06
   0 -13   0    0.41    0.50
   0   0   0    0.00    0.00
;
_shelx_hkl_checksum              64285
loop_
_space_group_symop_operation_xyz
'x, y, z'
'-x, y+1/2, -z+1/2'
'-x, -y, -z'
'x, -y-1/2, z-1/2'
loop_
_atom_site_label
_atom_site_type_symbol
_atom_site_fract_x
_atom_site_fract_y
_atom_site_fract_z
_atom_site_U_iso_or_equiv
_atom_site_adp_type
_atom_site_occupancy
_atom_site_site_symmetry_order
_atom_site_calc_flag
_atom_site_refinement_flags_posn
_atom_site_refinement_flags_adp
_atom_site_refinement_flags_occupancy
_atom_site_disorder_assembly
_atom_site_disorder_group
Dy1 Dy 0.30969(2) 0.45410(2) 0.16867(2) 0.01228(15) Uani 1 1 d . . . . .
O1 O 0.1093(3) 0.3922(4) -0.0361(4) 0.0192(7) Uani 1 1 d . . . . .
O2 O -0.1092(4) 0.4276(4) -0.1650(4) 0.0193(8) Uani 1 1 d . . . . .
O3 O 0.3729(4) 0.6036(4) 0.3771(4) 0.0196(8) Uani 1 1 d . . . . .
O4 O 0.5118(3) 0.6453(4) 0.6116(4) 0.0182(7) Uani 1 1 d . . . . .
O5 O 0.3367(4) 0.4368(4) -0.0694(5) 0.0243(9) Uani 1 1 d . . . . .
O6 O 0.4718(4) 0.4762(4) -0.1834(4) 0.0185(8) Uani 1 1 d . . . . .
O1W O 0.3325(5) 0.2147(4) 0.1149(4) 0.0330(10) Uani 1 1 d . . . . .
O2W O 0.2041(4) 0.3157(4) 0.2971(5) 0.0267(9) Uani 1 1 d . . . . .
O3W O 0.2892(4) 0.6858(4) 0.0723(5) 0.0261(9) Uani 1 1 d . . . . .
C1 C 0.0002(6) 0.4474(5) -0.0580(6) 0.0180(11) Uani 1 1 d . . . . .
C2 C 0.4668(5) 0.5725(5) 0.4970(6) 0.0158(10) Uani 1 1 d . . . . .
C3 C 0.4452(6) 0.4757(5) -0.0734(6) 0.0200(11) Uani 1 1 d . . . . .
O4W O 0.0580(10) 0.7109(15) 0.3762(14) 0.066(4) Uani 0.5 1 d . . P . .
O5W O 0.0894(19) 1.018(2) 0.067(3) 0.130(10) Uani 0.5 1 d . . P . .
O6W O 0.0772(8) 0.8207(10) 0.2895(11) 0.039(2) Uani 0.5 1 d . . P . .
O7W O 0.1589(12) 0.9014(15) 0.163(2) 0.092(6) Uani 0.5 1 d . . P . .
loop_
_atom_site_aniso_label
_atom_site_aniso_U_11
_atom_site_aniso_U_22
_atom_site_aniso_U_33
_atom_site_aniso_U_23
_atom_site_aniso_U_13
_atom_site_aniso_U_12
Dy1 0.00864(18) 0.01469(19) 0.0105(2) -0.00003(7) 0.00094(12) -0.00037(7)
O1 0.0130(16) 0.0221(19) 0.0200(18) -0.0035(14) 0.0041(14) 0.0016(13)
O2 0.0119(17) 0.0200(17) 0.0195(19) -0.0019(14) -0.0001(15) 0.0013(14)
O3 0.0172(17) 0.0195(18) 0.0161(17) -0.0003(13) 0.0008(15) 0.0059(13)
O4 0.0161(16) 0.0197(17) 0.0164(17) -0.0007(13) 0.0041(15) 0.0036(13)
O5 0.019(2) 0.032(2) 0.023(2) -0.0053(15) 0.0099(18) -0.0077(15)
O6 0.0178(19) 0.0204(18) 0.0169(19) 0.0003(14) 0.0069(17) -0.0017(14)
O1W 0.046(3) 0.024(2) 0.0175(19) -0.0007(15) 0.0005(19) 0.0087(18)
O2W 0.0173(18) 0.030(2) 0.029(2) 0.0105(16) 0.0052(17) 0.0007(15)
O3W 0.0168(17) 0.0213(18) 0.034(2) 0.0093(16) 0.0042(17) -0.0011(14)
C1 0.017(3) 0.019(3) 0.017(3) 0.0025(17) 0.005(2) -0.0037(17)
C2 0.013(2) 0.016(2) 0.017(3) 0.0000(18) 0.005(2) 0.0003(18)
C3 0.022(3) 0.018(2) 0.022(3) 0.0008(19) 0.011(3) -0.0004(19)
O4W 0.029(5) 0.093(10) 0.060(8) -0.047(7) 0.004(5) 0.001(6)
O5W 0.058(10) 0.110(13) 0.133(18) -0.003(12) -0.050(11) 0.037(10)
O6W 0.013(4) 0.040(5) 0.052(6) -0.031(4) 0.002(4) 0.007(3)
O7W 0.037(6) 0.057(7) 0.129(13) -0.053(8) -0.018(7) 0.010(6)
loop_
_atom_type_symbol
_atom_type_description
_atom_type_scat_dispersion_real
_atom_type_scat_dispersion_imag
_atom_type_scat_source
C C 0.0033 0.0016 'International Tables Vol C Tables 4.2.6.8 and 6.1.1.4'
O O 0.0106 0.0060 'International Tables Vol C Tables 4.2.6.8 and 6.1.1.4'
Dy Dy -0.1892 4.4098 'International Tables Vol C Tables 4.2.6.8 and 6.1.1.4'
loop_
_geom_angle_atom_site_label_1
_geom_angle_atom_site_label_2
_geom_angle_atom_site_label_3
_geom_angle
_geom_angle_site_symmetry_1
_geom_angle_site_symmetry_3
O3 Dy1 O1 137.23(12) . .
O3 Dy1 O1W 138.77(13) . .
O1 Dy1 O1W 73.39(13) . .
O3 Dy1 O3W 75.04(14) . .
O1 Dy1 O3W 89.03(13) . .
O1W Dy1 O3W 143.05(16) . .
O3 Dy1 O6 81.82(13) . 3_665
O1 Dy1 O6 131.21(14) . 3_665
O1W Dy1 O6 94.80(15) . 3_665
O3W Dy1 O6 72.43(13) . 3_665
O3 Dy1 O2W 84.01(14) . .
O1 Dy1 O2W 81.17(13) . .
O1W Dy1 O2W 73.49(16) . .
O3W Dy1 O2W 136.68(14) . .
O6 Dy1 O2W 141.73(13) 3_665 .
O3 Dy1 O4 67.14(12) . 3_666
O1 Dy1 O4 142.00(12) . 3_666
O1W Dy1 O4 73.22(13) . 3_666
O3W Dy1 O4 128.89(12) . 3_666
O6 Dy1 O4 69.35(13) 3_665 3_666
O2W Dy1 O4 72.39(12) . 3_666
O3 Dy1 O2 71.02(13) . 3_565
O1 Dy1 O2 66.21(12) . 3_565
O1W Dy1 O2 127.79(15) . 3_565
O3W Dy1 O2 68.46(14) . 3_565
O6 Dy1 O2 136.75(12) 3_665 3_565
O2W Dy1 O2 68.98(13) . 3_565
O4 Dy1 O2 124.84(13) 3_666 3_565
O3 Dy1 O5 139.42(13) . .
O1 Dy1 O5 66.35(13) . .
O1W Dy1 O5 70.17(14) . .
O3W Dy1 O5 73.04(14) . .
O6 Dy1 O5 65.13(14) 3_665 .
O2W Dy1 O5 136.56(13) . .
O4 Dy1 O5 117.26(13) 3_666 .
O2 Dy1 O5 117.89(14) 3_565 .
C1 O1 Dy1 121.9(3) . .
C1 O2 Dy1 118.8(4) . 3_565
C2 O3 Dy1 121.5(3) . .
C2 O4 Dy1 118.2(3) . 3_666
C3 O5 Dy1 119.2(4) . .
C3 O6 Dy1 122.0(4) . 3_665
O1 C1 O2 127.1(5) . .
O1 C1 C1 116.5(6) . 3_565
O2 C1 C1 116.3(6) . 3_565
O3 C2 O4 127.0(5) . .
O3 C2 C2 115.9(6) . 3_666
O4 C2 C2 117.1(5) . 3_666
O6 C3 O5 126.4(5) . .
O6 C3 C3 117.6(6) . 3_665
O5 C3 C3 115.9(6) . 3_665
loop_
_geom_bond_atom_site_label_1
_geom_bond_atom_site_label_2
_geom_bond_distance
_geom_bond_site_symmetry_2
Dy1 O3 2.377(4) .
Dy1 O1 2.378(4) .
Dy1 O1W 2.380(4) .
Dy1 O3W 2.382(4) .
Dy1 O6 2.430(4) 3_665
Dy1 O2W 2.437(4) .
Dy1 O4 2.449(4) 3_666
Dy1 O2 2.456(4) 3_565
Dy1 O5 2.517(4) .
O1 C1 1.240(7) .
O2 C1 1.249(7) .
O2 Dy1 2.456(4) 3_565
O3 C2 1.251(6) .
O4 C2 1.253(6) .
O4 Dy1 2.449(4) 3_666
O5 C3 1.261(7) .
O6 C3 1.246(7) .
O6 Dy1 2.430(4) 3_665
C1 C1 1.533(11) 3_565
C2 C2 1.552(9) 3_666
C3 C3 1.535(11) 3_665
O4W O6W 1.427(18) .
O5W O7W 1.47(3) .
