#------------------------------------------------------------------------------
#$Date: 2021-04-30 12:13:07 +0300 (Fri, 30 Apr 2021) $
#$Revision: 264724 $
#$URL: file:///home/coder/svn-repositories/cod/cif/1/56/23/1562321.cif $
#------------------------------------------------------------------------------
#
# This file is available in the Crystallography Open Database (COD),
# http://www.crystallography.net/
#
# All data on this site have been placed in the public domain by the
# contributors.
#
data_1562321
loop_
_publ_author_name
'Oh, George N.'
'Burns, Peter C.'
_publ_section_title
;
 Solid-state actinide acid phosphites from phosphorous acid melts
;
_journal_name_full               'Journal of Solid State Chemistry'
_journal_page_first              50
_journal_page_last               56
_journal_paper_doi               10.1016/j.jssc.2014.03.029
_journal_volume                  215
_journal_year                    2014
_chemical_formula_sum            'H8 O12 P4 U'
_chemical_formula_weight         561.97
_chemical_name_systematic
; 
Alpha-Uranium (IV) tetra(hydrogenphosphanate) 
;
_space_group_crystal_system      monoclinic
_space_group_IT_number           14
_space_group_name_Hall           '-P 2yn'
_space_group_name_H-M_alt        'P 1 21/n 1'
_atom_sites_solution_hydrogens   .
_atom_sites_solution_primary     direct
_atom_sites_solution_secondary   difmap
_audit_creation_method           SHELXL-97
_cell_angle_alpha                90.00
_cell_angle_beta                 99.253(2)
_cell_angle_gamma                90.00
_cell_formula_units_Z            4
_cell_length_a                   6.8274(9)
_cell_length_b                   13.4222(17)
_cell_length_c                   12.3325(16)
_cell_measurement_temperature    296(2)
_cell_volume                     1115.4(3)
_computing_cell_refinement       SAINT
_computing_data_collection       APEX2
_computing_data_reduction        SAINT
_computing_molecular_graphics    'CrystalMaker(R) (Palmer, 2011)'
_computing_publication_material  .
_computing_structure_refinement  'SHELXL-97 (Sheldrick, 2008)'
_computing_structure_solution    'SHELXS-97 (Sheldrick, 2008)'
_diffrn_ambient_temperature      296(2)
_diffrn_measured_fraction_theta_full 1
_diffrn_measured_fraction_theta_max 0.533
_diffrn_measurement_device_type  'Bruker QUAZAR'
_diffrn_measurement_method       sphere
_diffrn_radiation_monochromator  graphite
_diffrn_radiation_source         'fine-focus sealed tube'
_diffrn_radiation_type           MoK\a
_diffrn_radiation_wavelength     0.71073
_diffrn_reflns_av_R_equivalents  0.0557
_diffrn_reflns_av_sigmaI/netI    0.0494
_diffrn_reflns_limit_h_max       9
_diffrn_reflns_limit_h_min       -9
_diffrn_reflns_limit_k_max       17
_diffrn_reflns_limit_k_min       -22
_diffrn_reflns_limit_l_max       16
_diffrn_reflns_limit_l_min       -16
_diffrn_reflns_number            17993
_diffrn_reflns_theta_full        25
_diffrn_reflns_theta_max         37.77
_diffrn_reflns_theta_min         2.26
_exptl_absorpt_coefficient_mu    15.182
_exptl_absorpt_correction_T_max  0.603
_exptl_absorpt_correction_T_min  0.567
_exptl_absorpt_correction_type   numerical
_exptl_absorpt_process_details   SADABS
_exptl_crystal_colour            'teal or green'
_exptl_crystal_density_diffrn    3.346
_exptl_crystal_density_method    'not measured'
_exptl_crystal_description       needle
_exptl_crystal_F_000             1024
_exptl_crystal_size_max          0.100
_exptl_crystal_size_mid          0.020
_exptl_crystal_size_min          0.005
_refine_diff_density_max         3.319
_refine_diff_density_min         -1.460
_refine_diff_density_rms         0.301
_refine_ls_extinction_method     none
_refine_ls_goodness_of_fit_ref   1.211
_refine_ls_hydrogen_treatment    .
_refine_ls_matrix_type           full
_refine_ls_number_parameters     154
_refine_ls_number_reflns         3184
_refine_ls_number_restraints     0
_refine_ls_restrained_S_all      1.211
_refine_ls_R_factor_all          0.0493
_refine_ls_R_factor_gt           0.0347
_refine_ls_shift/su_max          0.001
_refine_ls_shift/su_mean         0.000
_refine_ls_structure_factor_coef Fsqd
_refine_ls_weighting_details
; calc 
 [1.00000+0.00000exp(0.00(sin\q/\l)^2^)]/ 
   [\s^2^(Fo^2^)+0.0000+0.0000*P+(0.0365P)^2^+0.0000sin\q/\l] 
 where P = 1.00000Fo^2^ + 0.00000Fc^2^ 
;
_refine_ls_weighting_scheme      calc
_refine_ls_wR_factor_gt          0.0802
_refine_ls_wR_factor_ref         0.0836
_reflns_number_gt                2592
_reflns_number_total             3184
_reflns_threshold_expression     >2sigma(I)
_cod_data_source_file            JSSC-2014-215-50.cif
_cod_data_source_block           uhp
_cod_original_sg_symbol_Hall     '-P 2yac'
_cod_original_sg_symbol_H-M      'P 21/n'
_cod_database_code               1562321
_shelx_res_file
;
TITL U(HPO2(OH))4 in P2(1)/n
CELL 0.71073   6.8274  13.4222  12.3325  90.000  99.253  90.000
ZERR    4.00   0.0009   0.0017   0.0016   0.000   0.002   0.000
LATT  1
SYMM 0.5-X, 0.5+Y, 0.5-Z
SFAC O H P U
UNIT 48 32 16 4
TEMP 23.000
 
L.S. 4
BOND
FMAP 2
ACTA
PLAN 60
 
WGHT    0.036500    0.000000    0.000000    0.000000    0.000000    1.000000
FVAR       0.30640
U1    4    0.634992    0.655042    0.177423    11.00000    0.00870    0.00761 =
         0.00726   -0.00090    0.00166   -0.00009
P1    3    0.179560    0.662189    0.291835    11.00000    0.00938    0.01916 =
         0.00980   -0.00074    0.00299   -0.00233
P2    3    0.277997    0.450340    0.088964    11.00000    0.01414    0.01157 =
         0.01066   -0.00265    0.00160   -0.00277
P3    3    0.747030    0.424131    0.337550    11.00000    0.01878    0.00923 =
         0.01019    0.00151    0.00044    0.00050
P4    3    0.749957    0.749914    0.457339    11.00000    0.01220    0.01594 =
         0.00760   -0.00347   -0.00009    0.00264
O1    1    0.062289    0.455304    0.118792    11.00000    0.02197    0.01823 =
         0.02944   -0.00673    0.01288   -0.00639
O2    1    0.240819    0.562880    0.354790    11.00000    0.03190    0.03161 =
         0.02887    0.01711    0.00061   -0.00121
O3    1    0.361903    0.704242    0.254037    11.00000    0.01130    0.01868 =
         0.01591   -0.00167    0.00534   -0.00031
O4    1    0.371293    0.552569    0.097162    11.00000    0.01284    0.01422 =
         0.01295    0.00015    0.00257   -0.00141
O5    1    0.441021    0.757301    0.039025    11.00000    0.01359    0.01229 =
         0.01158    0.00252    0.00027   -0.00241
O6    1    0.493556    0.144542    0.299026    11.00000    0.00678    0.02307 =
         0.01155    0.00584   -0.00030   -0.00242
O7    1    0.536725    0.939895    0.100453    11.00000    0.04247    0.03785 =
         0.03911   -0.00118   -0.00753    0.00485
O8    1    0.562807    0.738272    0.513995    11.00000    0.01063    0.03531 =
         0.02907   -0.01202    0.00894   -0.00492
O9    1    0.709153    0.496046    0.242722    11.00000    0.02032    0.01045 =
         0.00958    0.00377    0.00194   -0.00160
O10   1    0.732751    0.315695    0.306688    11.00000    0.02067    0.00857 =
         0.01846    0.00105    0.00180    0.00409
O11   1    0.734181    0.603037    0.019545    11.00000    0.02033    0.01541 =
         0.01045   -0.00421    0.00770   -0.00419
O12   1    0.739806    0.672412    0.368262    11.00000    0.01177    0.01501 =
         0.00878   -0.00333   -0.00039    0.00033
HKLF 4
 
REM  U(HPO2(OH))4 in P2(1)/n
REM R1 =  0.0347 for   2592 Fo > 4sig(Fo)  and  0.0493 for all   3184 data
REM    154 parameters refined using      0 restraints
 
END  
     
WGHT      0.0365      4.9847 
REM Highest difference peak  3.319,  deepest hole -1.460,  1-sigma level  0.301
Q1    1   0.5799  0.4503  0.4034  11.00000  0.05    3.32
Q2    1   0.7555  0.8454  0.4161  11.00000  0.05    1.48
Q3    1   0.7306  0.6901  0.4851  11.00000  0.05    1.45
Q4    1   0.6670  0.7169  0.4732  11.00000  0.05    1.42
Q5    1   0.3452  0.4018  0.1599  11.00000  0.05    1.35
Q6    1   0.2988  0.5378  0.0738  11.00000  0.05    1.26
Q7    1   0.1351  0.7139  0.3001  11.00000  0.05    1.23
Q8    1   0.8596  0.4265  0.3274  11.00000  0.05    1.23
Q9    1   0.5144  0.0270  0.2348  11.00000  0.05    1.14
Q10   1   0.2055  0.4181  0.1624  11.00000  0.05    1.11
Q11   1   0.7103  0.4693  0.4269  11.00000  0.05    1.10
Q12   1   0.5384  0.6118  0.2231  11.00000  0.05    1.09
Q13   1   0.3538  0.5180  0.2965  11.00000  0.05    1.06
Q14   1   0.1575  0.7235  0.3599  11.00000  0.05    1.04
Q15   1   0.6645  0.8404  0.4344  11.00000  0.05    1.03
Q16   1   0.5460  0.7023  0.2150  11.00000  0.05    0.98
Q17   1   0.6486  0.3077  0.1994  11.00000  0.05    0.98
Q18   1   0.1182  0.4648  0.2444  11.00000  0.05    0.98
Q19   1   0.4863  0.9497  0.1952  11.00000  0.05    0.97
Q20   1   0.6742  0.4869  0.2748  11.00000  0.05    0.96
Q21   1   0.2692  0.3977  0.1794  11.00000  0.05    0.94
Q22   1   0.7338  0.6100  0.1395  11.00000  0.05    0.94
Q23   1   0.5028  1.0009  0.1524  11.00000  0.05    0.92
Q24   1   0.5595  0.4394  0.1475  11.00000  0.05    0.92
Q25   1   0.5980  0.9120  0.0153  11.00000  0.05    0.90
Q26   1   0.4525  0.6601  0.1753  11.00000  0.05    0.90
Q27   1   0.7903  0.6942  0.4098  11.00000  0.05    0.90
Q28   1   0.2610  0.5488  0.3764  11.00000  0.05    0.90
Q29   1   0.7367  0.2692  0.3257  11.00000  0.05    0.90
Q30   1   0.5547  0.3987  0.3247  11.00000  0.05    0.89
Q31   1  -0.0314  0.3762  0.0408  11.00000  0.05    0.89
Q32   1   0.0748  0.7612  0.3462  11.00000  0.05    0.88
Q33   1   0.6890  0.8041  0.3794  11.00000  0.05    0.87
Q34   1  -0.0080  0.4806  0.0425  11.00000  0.05    0.85
Q35   1   0.8407  0.3384  0.3148  11.00000  0.05    0.85
Q36   1   0.4524  0.6080  0.1374  11.00000  0.05    0.85
Q37   1   0.6790  0.3784  0.3174  11.00000  0.05    0.84
Q38   1   0.7438  0.5143  0.3571  11.00000  0.05    0.84
Q39   1   0.7252  0.6970  0.1404  11.00000  0.05    0.84
Q40   1   0.5959  0.5792  0.1859  11.00000  0.05    0.83
Q41   1   0.1421  0.4635  0.3019  11.00000  0.05    0.82
Q42   1   0.4677  0.1757  0.2428  11.00000  0.05    0.81
Q43   1   0.4395  0.0640  0.2365  11.00000  0.05    0.81
Q44   1   0.5623  0.5886  0.3413  11.00000  0.05    0.81
Q45   1   0.8399  0.5494  0.0550  11.00000  0.05    0.81
Q46   1   0.6265  0.2490  0.2801  11.00000  0.05    0.81
Q47   1   0.6016  0.8411 -0.0309  11.00000  0.05    0.80
Q48   1   0.6148  0.7309  0.1865  11.00000  0.05    0.80
Q49   1   0.7199  0.5018  0.1936  11.00000  0.05    0.80
Q50   1   0.7248  0.4079  0.4592  11.00000  0.05    0.80
Q51   1   0.2062  0.4908  0.0396  11.00000  0.05    0.79
Q52   1   0.3429  0.3481  0.1821  11.00000  0.05    0.78
Q53   1   0.4156  0.5252  0.1040  11.00000  0.05    0.78
Q54   1   0.1377  0.4011  0.2022  11.00000  0.05    0.78
Q55   1   0.1311  0.5348  0.3803  11.00000  0.05    0.78
Q56   1   0.2945  0.6303  0.1857  11.00000  0.05    0.78
Q57   1   0.1704  0.5815  0.3080  11.00000  0.05    0.77
Q58   1   0.5689  0.3904  0.2360  11.00000  0.05    0.77
Q59   1  -0.0064  0.4590  0.2347  11.00000  0.05    0.76
Q60   1   0.4212  0.5367  0.2263  11.00000  0.05    0.76
;
_shelx_hkl_file
;
  -1   0   0 10.2463  4.1101   1
   1   0   0 6.86207 5.22372   6
   1   0   0 3.85676 3.70496   3
  -1   0   0 2.34372 5.36507   2
   1   0   0 2.85629 4.49712   4
   2   0   0 5271.76  202.14   6
  -2   0   0 5513.04  193.59   1
  -2   0   0 5343.89  205.07   2
   2   0   0 5095.84  209.92   4
   2   0   0 5347.45  198.59   3
  -3   0   0 -4.7672  9.3152   2
  -3   0   0 6.72382 7.02402   1
   3   0   0 1.36341 8.69883   6
   3   0   0 4.83333 6.82510   3
   3   0   0 15.0671  9.7683   4
  -4   0   0 765.695  41.856   1
  -4   0   0 684.793  51.556   2
   4   0   0 786.347  53.085   4
   4   0   0 679.668  49.255   6
  -4   0   0 729.458  43.908   3
   5   0   0 -10.430  11.334   6
  -5   0   0 30.4051 18.8797   2
   5   0   0 22.3535 14.6548   1
   5   0   0 40.4735 18.0699   4
  -6   0   0 73.6437 26.8583   2
   6   0   0 54.8486 22.6510   4
   6   0   0 31.6719 21.1330   6
  -7   0   0  0.5682 21.7632   2
   7   0   0 39.0300 23.7038   6
   7   0   0 18.7173 23.2865   4
  -8   0   0 1791.39  131.04   2
   8   0   0 2201.93  131.93   6
   8   0   0 2305.93  138.96   4
   0  -1   0 -0.7085  1.7057   1
   0   1   0 -2.5175  1.4378   3
   0   1   0 -2.8893  1.7554   2
  -1  -1   0 764.613  31.644   1
   1  -1   0 771.810  33.397   1
   1  -1   0 773.920  34.536   6
   1  -1   0 741.677  34.616   4
  -1  -1   0 758.681  35.632   2
   1   1   0 789.415  33.853   6
   1   1   0 739.338  35.915   4
   1   1   0 779.759  32.633   3
  -1   1   0 701.168  32.954   3
  -1   1   0 749.187  35.284   2
   2  -1   0 5398.18  208.84   6
  -2  -1   0 5495.08  199.95   1
   2  -1   0 5496.71  217.16   4
   2  -1   0 5406.69  202.78   1
  -2  -1   0 5575.55  212.03   2
   2   1   0 5507.59  218.13   4
  -2   1   0 5759.54  213.00   2
   2   1   0 5330.22  207.75   6
  -2   1   0 5609.66  206.78   3
   2   1   0 5490.60  206.15   3
  -3  -1   0 3446.59  131.15   1
   3  -1   0 3376.88  145.88   4
   3  -1   0 3346.16  140.64   6
   3  -1   0 3252.09  133.84   1
  -3  -1   0 3374.83  143.69   2
   3   1   0 3404.75  147.15   4
   3   1   0 3426.32  140.52   6
  -3   1   0 3414.41  135.40   3
  -3   1   0 3409.78  144.65   2
   3   1   0 3368.55  135.09   3
  -4  -1   0 530.069  35.133   1
   4  -1   0 633.911  41.794   1
  -4  -1   0 587.980  53.885   2
   4  -1   0 479.788  46.138   6
   4  -1   0 621.061  46.102   4
  -4   1   0 566.764  37.529   3
  -4   1   0 622.347  48.512   2
   4   1   0 599.082  38.185   3
   4   1   0 536.566  42.124   6
   4   1   0 583.738  45.103   4
   5  -1   0 126.266  24.131   1
  -5  -1   0 170.685  23.710   1
   5  -1   0 155.548  29.135   6
   5  -1   0 149.015  29.408   4
  -5  -1   0 114.273  28.298   2
   5   1   0 212.739  34.449   4
   5   1   0 190.764  31.762   6
  -5   1   0 236.198  36.960   2
   6  -1   0 1172.34   78.12   6
   6  -1   0 1072.54   76.42   4
  -6  -1   0 1027.03   78.95   2
  -6   1   0 1012.49   78.90   2
   6   1   0 1190.06   81.96   4
   6   1   0 1079.37   76.27   6
   7  -1   0 279.400  47.765   6
   7  -1   0 316.511  49.570   4
  -7  -1   0 191.257  43.185   2
   7   1   0 265.696  45.512   6
  -7   1   0 344.189  54.454   2
   7   1   0 256.442  46.128   4
   8  -1   0 240.910  48.843   6
  -8  -1   0 216.914  49.347   2
   8  -1   0 285.118  54.388   4
   8   1   0 275.282  49.732   6
   8   1   0 204.154  46.521   4
  -8   1   0 227.486  50.491   2
   0  -2   0 1107.01   49.86   4
   0  -2   0 1265.26   49.79   1
   0  -2   0 1246.85   47.44   6
   0   2   0 1253.61   52.02   2
   0   2   0 1222.60   52.20   3
   1  -2   0 1717.63   74.69   4
  -1  -2   0 1863.38   75.90   2
  -1  -2   0 1879.85   71.44   1
   1  -2   0 1862.44   73.53   1
   1  -2   0 1888.85   74.20   6
  -1   2   0 1822.32   75.31   2
  -1   2   0 1875.86   75.28   3
   1   2   0 1842.38   72.34   6
   1   2   0 1887.21   74.34   3
   1   2   0 1839.80   77.26   4
   2  -2   0 22.5120  9.0252   1
  -2  -2   0 21.9364  7.8197   1
   2  -2   0 22.8667  9.6439   6
  -2  -2   0 7.50062 9.17478   2
   2  -2   0 13.2751  7.5832   4
   2   2   0 20.0525  9.2911   6
  -2   2   0 17.5009  9.6915   2
  -2   2   0 7.80032 7.37301   3
   2   2   0 19.3820 10.0324   4
   2   2   0 11.8955  6.3979   3
   3  -2   0 1590.94   73.54   1
   3  -2   0 1637.29   79.53   4
   3  -2   0 1606.72   78.28   6
  -3  -2   0 1585.63   80.52   2
  -3  -2   0 1652.52   70.52   1
   3   2   0 1670.78   77.33   6
   3   2   0 1526.90   80.26   4
  -3   2   0 1659.13   81.40   2
   3   2   0 1620.19   72.83   3
  -3   2   0 1593.24   73.01   3
   4  -2   0 780.055  52.171   4
  -4  -2   0 824.025  56.446   2
   4  -2   0 791.082  52.762   6
   4  -2   0 643.972  45.118   1
  -4  -2   0 787.096  43.502   1
  -4  -2   0 824.943  55.431   5
   4   2   0 719.410  45.085   3
   4   2   0 754.538  53.809   4
   4   2   0 737.854  51.135   6
  -4   2   0 809.227  56.060   2
  -4   2   0 756.305  44.930   3
  -5  -2   0 2031.42  110.27   2
   5  -2   0 2054.81   96.35   1
   5  -2   0 1975.73  104.41   6
  -5  -2   0 1878.02   89.31   1
   5  -2   0 2018.03  106.57   4
  -5   2   0 2015.61  110.17   2
   5   2   0 1972.92  108.48   4
   5   2   0 1969.28  102.44   6
  -6  -2   0 87.4076 28.7994   2
   6  -2   0 14.8861 19.1543   4
   6  -2   0 81.8290 25.8205   6
   6   2   0 100.959  28.419   4
   6   2   0 62.1383 24.1743   6
  -6   2   0 53.3582 25.6652   2
  -7  -2   0 362.089  58.732   2
   7  -2   0 340.065  51.042   6
   7  -2   0 262.656  46.127   4
   7   2   0 290.921  49.230   4
   7   2   0 297.562  48.615   6
  -7   2   0 322.864  53.884   2
  -8  -2   0 134.620  43.668   2
   8  -2   0 158.490  40.420   6
   8  -2   0 180.017  44.638   4
  -8   2   0 143.092  40.711   2
   8   2   0 159.409  42.946   4
   8   2   0 107.595  38.192   6
   0  -3   0 -1.6923  4.5596   6
   0  -3   0 -3.9926  4.9359   4
   0  -3   0 0.56062 6.44689   1
   0   3   0 7.72259 7.94011   2
   0   3   0 -1.2073  6.4996   3
  -1  -3   0 2581.33   97.25   1
  -1  -3   0 2471.94   95.13   6
  -1  -3   0 2557.96  101.92   2
   1  -3   0 2514.93   98.58   6
   1  -3   0 2509.17   99.36   1
   1  -3   0 2357.54   99.73   4
  -1   3   0 2501.70  100.51   2
   1   3   0 2477.65  101.18   3
   1   3   0 2523.79  103.19   4
  -1   3   0 2601.83  102.45   3
   1   3   0 2437.61   96.14   6
  -2  -3   0 411.861  30.802   2
  -2  -3   0 415.010  25.693   1
   2  -3   0 356.389  26.104   4
   2  -3   0 408.317  28.641   6
   2  -3   0 342.466  26.795   1
  -2   3   0 436.921  31.110   2
   2   3   0 376.645  26.792   6
  -2   3   0 382.940  27.404   3
   2   3   0 423.610  30.695   4
   2   3   0 357.094  25.445   3
   3  -3   0 2538.41  109.41   1
   3  -3   0 2568.62  113.48   6
  -3  -3   0 2623.28  105.27   1
  -3  -3   0 2598.68  117.52   2
   3  -3   0 2461.05  114.98   4
   3   3   0 2572.13  109.42   3
  -3   3   0 2548.06  109.31   3
   3   3   0 2597.46  111.80   6
  -3   3   0 2805.95  118.97   2
   3   3   0 2569.50  119.15   4
  -4  -3   0 174.120  29.640   2
   4  -3   0 205.257  26.893   1
  -4  -3   0 141.976  29.109   5
  -4  -3   0 199.364  23.289   1
   4  -3   0 169.464  26.758   4
   4  -3   0 126.706  24.608   6
  -4   3   0 178.086  24.110   3
   4   3   0 118.804  20.402   3
  -4   3   0 197.888  32.339   2
   4   3   0 174.633  26.839   6
   4   3   0 173.444  29.255   4
  -5  -3   0 1638.68   92.78   5
  -5  -3   0 1466.68   91.56   2
   5  -3   0 1511.24   79.83   1
   5  -3   0 1478.70   88.08   4
   5  -3   0 1457.00   86.87   6
  -5  -3   0 1564.42   75.30   1
   5   3   0 1448.24   78.19   3
   5   3   0 1605.70   92.35   4
  -5   3   0 1583.38   93.91   2
   5   3   0 1581.97   86.95   6
  -6  -3   0 40.9223 24.2948   2
   6  -3   0 67.7881 23.6073   4
   6  -3   0 61.3450 23.6008   6
   6   3   0 22.0092 18.7428   4
   6   3   0 63.4440 24.9246   6
  -6   3   0 76.4448 28.3957   2
   7  -3   0 1819.15  114.00   4
  -7  -3   0 1644.72  115.76   2
   7   3   0 1931.76  120.37   4
  -7   3   0 1904.19  120.78   2
   7   3   0 1784.22  111.31   6
  -8  -3   0 -25.873  24.209   2
   8  -3   0 23.3607 26.3296   6
   8  -3   0 -5.4781 24.9200   4
  -8   3   0 41.0854 32.8902   2
   8   3   0 -0.9442 22.0429   4
   8   3   0 13.5296 28.5984   6
   0  -4   0 1813.21   77.70   1
   0  -4   0 1749.52   73.04   6
   0  -4   0 1897.23   76.86   4
   0   4   0 1846.78   82.30   3
   0   4   0 1851.11   80.13   2
  -1  -4   0 1540.66   67.35   1
   1  -4   0 1361.08   65.04   4
   1  -4   0 1473.58   69.00   1
  -1  -4   0 1625.48   63.34   6
  -1  -4   0 1596.47   70.43   2
   1  -4   0 1578.30   66.63   6
  -1   4   0 1592.36   72.87   3
   1   4   0 1591.40   71.42   3
   1   4   0 1587.24   69.74   4
   1   4   0 1692.87   65.63   6
  -1   4   0 1459.53   69.06   2
  -2  -4   0 71.1812 12.6531   1
   2  -4   0 89.3351 13.8526   4
  -2  -4   0 47.2756 14.4255   2
   2  -4   0 84.2493 15.3628   6
   2  -4   0 81.7783 15.3474   1
   2   4   0 89.7023 16.4940   4
  -2   4   0 72.3732 15.4959   2
   2   4   0 58.2512 12.2461   3
   2   4   0 78.4723 13.5992   6
  -2   4   0 85.2836 16.2828   3
   3  -4   0 819.725  48.259   4
  -3  -4   0 799.076  43.677   1
   3  -4   0 730.892  46.948   1
  -3  -4   0 827.114  53.409   2
   3  -4   0 884.303  50.629   6
  -3   4   0 820.342  52.588   2
   3   4   0 859.262  46.754   3
   3   4   0 760.342  46.963   6
   3   4   0 858.749  52.937   4
  -3   4   0 713.497  45.915   3
   4  -4   0 2009.13   97.39   1
   4  -4   0 2053.02  104.26   4
  -4  -4   0 2072.59  107.69   5
   4  -4   0 2115.59  104.30   6
  -4  -4   0 2141.86   93.53   1
  -4  -4   0 2225.26  109.09   2
  -4   4   0 2157.32  108.88   2
  -4   4   0 2069.77   97.16   3
   4   4   0 2187.95  110.10   4
   4   4   0 2168.68   97.97   3
   4   4   0 2031.33  100.54   6
   5  -4   0 684.009  53.943   4
  -5  -4   0 735.727  68.471   2
  -5  -4   0 691.283  45.073   1
   5  -4   0 645.743  48.557   1
   5  -4   0 637.720  61.062   6
  -5  -4   0 639.948  65.445   5
   5   4   0 698.975  56.664   4
   5   4   0 756.594  56.705   6
   5   4   0 656.297  47.034   3
  -5   4   0 591.557  62.369   2
   6  -4   0 580.159  63.154   4
   6  -4   0 607.707  63.775   6
  -6  -4   0 599.582  67.817   2
  -6   4   0 677.655  72.623   2
   6   4   0 721.504  66.893   6
   6   4   0 734.499  73.078   4
  -7  -4   0 304.151  57.355   2
   7  -4   0 321.041  50.693   4
   7  -4   0 412.505  55.857   6
  -7   4   0 512.166  66.993   2
   7   4   0 323.514  55.618   4
   7   4   0 471.402  61.214   6
   8  -4   0 630.312  75.738   4
  -8  -4   0 584.308  79.331   2
   8   4   0 607.066  78.226   4
  -8   4   0 518.549  77.075   2
   8   4   0 602.131  71.520   6
   0  -5   0 -0.2242  7.1901   4
   0  -5   0 -8.0733  6.5184   6
   0  -5   0 -0.2796  8.7410   1
   0   5   0 -5.8639  8.7138   3
   0   5   0 -20.987   8.647   2
   1  -5   0 173.540  16.961   4
  -1  -5   0 190.877  16.697   6
   1  -5   0 223.643  24.326   1
  -1  -5   0 184.433  22.333   2
   1  -5   0 196.692  20.167   6
  -1  -5   0 177.719  20.644   1
  -1   5   0 135.096  21.028   3
  -1   5   0 179.937  21.952   2
   1   5   0 163.891  17.671   6
   1   5   0 180.029  22.862   3
   1   5   0 169.273  19.692   4
  -2  -5   0 7956.22  296.59   1
  -2  -5   0 8065.00  308.87   2
   2  -5   0 7871.06  300.66   1
   2  -5   0 7795.80  311.38   4
   2  -5   0 7998.96  303.03   6
   2   5   0 8341.79  308.48   3
   2   5   0 7894.01  316.61   4
   2   5   0 7868.26  298.58   6
  -2   5   0 8608.25  310.50   3
  -2   5   0 8004.39  307.50   2
   3  -5   0 133.688  21.819   1
   3  -5   0 92.0233 18.3512   4
  -3  -5   0 143.057  20.143   1
  -3  -5   0 147.294  27.938   5
   3  -5   0 181.011  25.686   6
  -3  -5   0 98.1834 21.8595   2
   3   5   0 150.466  21.812   6
   3   5   0 145.138  21.533   3
   3   5   0 185.553  26.696   4
  -3   5   0 109.217  22.502   2
  -3   5   0 130.308  22.178   3
  -4  -5   0 331.525  43.143   5
   4  -5   0 237.749  31.842   1
   4  -5   0 268.738  35.036   6
   4  -5   0 251.675  33.279   4
  -4  -5   0 338.646  41.851   2
  -4  -5   0 263.738  28.941   1
   4   5   0 310.338  39.375   4
   4   5   0 318.904  35.972   6
   4   5   0 276.234  32.286   3
  -4   5   0 226.706  35.319   2
  -4   5   0 297.260  34.319   3
   5  -5   0  6.7325 14.9919   6
  -5  -5   0 -19.220  18.788   5
  -5  -5   0  7.5797 11.9910   1
  -5  -5   0 -1.7299 17.9663   2
   5  -5   0 18.9576 16.4430   4
   5  -5   0 -0.7347 15.4001   1
   5   5   0  1.5782 16.9459   6
   5   5   0 10.1283 15.5031   4
   5   5   0 27.0071 13.7814   3
  -5   5   0 22.5927 18.5159   2
   6  -5   0 2214.19  128.66   4
  -6  -5   0 2329.00  135.14   5
  -6  -5   0 2508.11  138.82   2
   6  -5   0 2577.20  132.21   6
  -6   5   0 2451.84  136.89   2
   6   5   0 2467.56  127.67   6
   6   5   0 2469.59  137.32   4
   7  -5   0 24.6895 25.6030   6
  -7  -5   0 19.7136 25.1740   2
   7  -5   0 102.782  32.618   4
   7   5   0 54.9045 29.9310   6
  -7   5   0 81.0486 32.8772   2
   7   5   0 47.4667 30.4892   4
   8  -5   0 396.530  62.281   4
  -8  -5   0 655.434  86.364   2
   8  -5   0 440.968  66.217   6
   8   5   0 619.090  80.291   4
  -8   5   0 585.540  80.263   2
   0  -6   0 2950.10  112.25   6
   0  -6   0 2735.82  117.27   1
   0   6   0 2624.07  119.31   2
   0   6   0 2777.71  124.40   3
   0   6   0 2806.72  117.05   4
   1  -6   0 1153.14   55.52   6
  -1  -6   0 1134.78   60.59   2
  -1  -6   0 1119.87   51.62   6
  -1  -6   0 1118.64   58.23   1
   1  -6   0 1146.30   61.17   1
   1  -6   0 1161.15   54.52   4
   1   6   0 1194.49   54.91   6
   1   6   0 1033.37   56.59   4
   1   6   0 1163.32   63.60   3
  -1   6   0 1151.38   64.61   3
  -1   6   0 1168.32   61.75   2
  -2  -6   0 26.7213 11.3602   1
   2  -6   0 0.70829 9.47557   6
   2  -6   0 13.0889  9.8280   4
  -2  -6   0 15.3690 12.5295   2
   2  -6   0 39.9731 15.0487   1
  -2   6   0 29.2889 12.5023   2
   2   6   0 40.3480 12.3222   6
  -2   6   0 32.7946 13.1929   3
   2   6   0  4.0598 10.0157   3
   2   6   0 33.0821 12.9687   4
  -3  -6   0 256.462  37.271   5
   3  -6   0 268.330  30.033   4
  -3  -6   0 263.541  34.327   2
  -3  -6   0 249.361  27.593   1
   3  -6   0 216.111  29.588   6
   3  -6   0 240.093  32.037   1
   3   6   0 260.003  30.663   3
   3   6   0 240.728  28.063   6
  -3   6   0 251.285  33.498   2
   3   6   0 255.034  32.687   4
  -3   6   0 263.833  32.136   3
   4  -6   0 4185.98  191.95   4
  -4  -6   0 4514.14  198.32   5
  -4  -6   0 4285.16  178.17   1
   4  -6   0 4330.82  186.47   1
   4  -6   0 4430.97  192.01   6
  -4  -6   0 4552.28  197.25   2
   4   6   0 4629.28  187.16   6
   4   6   0 4283.47  186.14   3
  -4   6   0 4836.03  199.98   2
   4   6   0 4449.67  200.33   4
  -4   6   0 4619.63  188.97   3
   5  -6   0 703.729  67.154   6
  -5  -6   0 812.205  74.367   2
   5  -6   0 732.212  55.662   1
  -5  -6   0 802.498  78.416   5
   5  -6   0 727.381  56.891   4
   5   6   0 796.453  63.867   4
  -5   6   0 708.755  69.841   2
   5   6   0 629.042  58.951   6
   5   6   0 738.362  53.268   3
   6  -6   0 1529.45   89.56   1
  -6  -6   0 1499.48  102.61   5
   6  -6   0 1550.17   98.37   6
   6  -6   0 1561.82   96.59   4
  -6  -6   0 1452.72  100.40   2
   6   6   0 1285.73   87.76   6
   6   6   0 1416.31   98.72   4
  -6   6   0 1664.22  105.45   2
   7  -6   0 95.6348 33.5815   4
   7  -6   0 91.5938 34.3698   6
  -7  -6   0 113.824  40.146   2
   7   6   0 133.155  39.478   4
  -7   6   0 125.081  37.943   2
  -8  -6   0 417.347  72.758   2
   8  -6   0 319.242  58.606   6
   8  -6   0 461.110  67.669   4
   8   6   0 546.671  77.655   4
  -8   6   0 414.324  71.190   2
   0  -7   0 3.36128 8.48422   6
   0  -7   0 -3.5045  9.5261   1
   0   7   0 1.41333 9.27383   3
   0   7   0  8.0548 12.5491   2
   0   7   0 4.43207 9.53813   4
   1  -7   0 981.744  51.891   4
  -1  -7   0 1060.92   50.16   6
  -1  -7   0 1047.19   57.92   1
  -1  -7   0 1103.04   60.12   2
   1  -7   0 1110.08   53.78   6
   1  -7   0 985.939  58.741   1
  -1   7   0 977.943  62.304   3
   1   7   0 996.737  54.630   4
  -1   7   0 1064.68   62.50   2
   1   7   0 957.207  60.995   3
  -2  -7   0 1204.54   63.15   1
   2  -7   0 1310.27   63.70   6
   2  -7   0 1220.39   67.59   1
  -2  -7   0 1017.87   64.42   2
   2  -7   0 1008.42   57.02   4
  -2   7   0 1197.20   65.41   2
   2   7   0 1126.89   57.40   6
   2   7   0 1120.02   67.25   3
  -2   7   0 1146.25   68.61   3
   2   7   0 1164.28   63.85   4
  -3  -7   0 1404.32   71.17   1
   3  -7   0 1478.68   77.25   6
  -3  -7   0 1279.50   78.56   2
   3  -7   0 1405.38   76.91   1
  -3  -7   0 1460.09   84.22   5
   3  -7   0 1256.00   70.61   4
   3   7   0 1400.78   76.89   3
   3   7   0 1320.21   77.78   4
   3   7   0 1445.81   70.67   6
  -3   7   0 1394.20   79.23   2
  -3   7   0 1255.85   75.84   3
   4  -7   0 289.645  38.521   6
   4  -7   0 248.103  35.629   1
   4  -7   0 245.654  33.669   4
  -4  -7   0 253.585  30.966   1
  -4  -7   0 253.322  39.181   2
  -4  -7   0 255.458  42.611   5
   4   7   0 227.365  31.546   6
   4   7   0 231.821  36.330   4
  -4   7   0 329.883  38.915   3
   4   7   0 290.797  36.287   3
  -4   7   0 294.211  41.805   2
  -5  -7   0 881.713  79.375   2
   5  -7   0 768.621  58.699   1
  -5  -7   0 687.417  74.320   5
   5  -7   0 709.459  57.721   4
   5  -7   0 650.715  64.523   6
  -5   7   0 631.706  68.237   2
   5   7   0 672.723  61.653   3
   5   7   0 839.179  66.492   4
   6  -7   0 276.564  44.247   4
  -6  -7   0 217.704  44.296   2
  -6  -7   0 161.894  43.381   5
   6  -7   0 305.910  47.517   6
   6  -7   0 235.789  39.922   1
   6   7   0 178.064  41.526   4
  -6   7   0 252.884  48.637   2
  -7  -7   0 905.369  97.209   5
  -7  -7   0 1267.68   98.15   2
   7  -7   0 1200.01   88.17   4
   7  -7   0 1142.44   89.21   6
  -7   7   0 824.919  93.964   2
   7   7   0 919.613  97.593   4
   8  -7   0 64.5439 34.0752   6
  -8  -7   0 -4.7804 35.2901   2
   8   7   0 73.0492 41.0525   4
  -8   7   0 64.9276 41.3899   2
   0  -8   0 229.763  24.248   6
   0  -8   0 187.104  28.115   1
   0   8   0 242.276  32.356   2
   0   8   0 257.737  25.358   4
   0   8   0 307.417  37.469   3
   1  -8   0 2806.38  114.01   4
   1  -8   0 2596.39  117.31   1
  -1  -8   0 2386.57  114.99   2
  -1  -8   0 2369.25  103.46   6
   1  -8   0 2450.65  107.61   6
  -1  -8   0 2411.80  113.05   1
   1   8   0 2498.38  121.49   3
  -1   8   0 2627.53  122.22   2
   1   8   0 2509.65  111.65   4
  -1   8   0 2553.00  122.28   3
  -2  -8   0 240.707  32.766   2
   2  -8   0 193.484  23.325   4
   2  -8   0 250.996  29.533   6
  -2  -8   0 183.045  27.398   1
   2  -8   0 224.837  31.758   1
  -2   8   0 167.842  30.110   3
  -2   8   0 170.897  29.358   2
   2   8   0 219.602  24.706   6
   2   8   0 192.448  27.378   4
   2   8   0 213.618  32.246   3
   3  -8   0 818.857  54.654   6
  -3  -8   0 753.684  68.330   5
  -3  -8   0 788.822  52.119   1
   3  -8   0 820.608  57.672   1
   3  -8   0 758.661  48.780   4
  -3  -8   0 748.900  57.474   2
  -3   8   0 676.853  54.774   2
   3   8   0 751.392  55.259   3
   3   8   0 748.693  55.230   4
  -3   8   0 733.778  57.046   3
   4  -8   0 18.5569 16.4692   4
  -4  -8   0 48.1503 26.0727   2
  -4  -8   0 33.5570 23.5185   5
  -4  -8   0 31.6889 16.7836   1
   4  -8   0 25.9373 18.2397   1
   4  -8   0  7.1528 17.0777   6
   4   8   0 -15.165  13.080   4
   4   8   0  6.2222 13.6169   3
  -4   8   0 22.3176 20.9296   2
  -4   8   0 18.2814 17.0340   3
  -5  -8   0 1353.56   93.51   2
  -5  -8   0 1475.76   98.29   5
   5  -8   0 1357.64   87.42   6
   5  -8   0 1327.90   84.47   4
   5  -8   0 1457.99   86.68   1
   5   8   0 1339.72   84.15   3
  -5   8   0 1383.25   93.99   2
   5   8   0 1323.04   91.41   4
   6  -8   0 -9.5598 20.9700   6
  -6  -8   0 16.9001 30.7360   5
   6  -8   0  4.5384 20.5912   1
  -6  -8   0 25.5695 28.5281   2
   6   8   0 35.8888 27.2569   4
  -6   8   0 -11.799  22.792   2
  -7  -8   0 502.107  74.228   2
  -7  -8   0 539.245  79.995   5
   7  -8   0 499.560  64.899   6
   7   8   0 477.938  70.388   4
  -7   8   0 586.541  80.032   2
  -8   8   0 23.7841 40.8770   2
   0  -9   0  5.5521 10.1189   6
   0  -9   0 11.6663 12.4839   1
   0   9   0 11.2167 15.4346   2
   0   9   0 16.3374 13.2553   3
  -1  -9   0 579.717  37.934   6
   1  -9   0 639.832  41.619   4
   1  -9   0 569.915  52.713   1
   1  -9   0 656.533  42.584   6
  -1  -9   0 648.112  47.695   1
  -1  -9   0 685.668  50.271   2
   1   9   0 802.352  55.998   3
  -1   9   0 654.824  52.580   3
   1   9   0 677.125  43.458   4
  -1   9   0 539.352  53.897   2
  -2  -9   0 1417.86   82.03   1
  -2  -9   0 1570.70   87.74   2
   2  -9   0 1608.20   87.78   1
   2  -9   0 1687.27   82.60   6
   2   9   0 1572.01   91.51   3
   2   9   0 1707.37   84.44   4
  -2   9   0 1695.23   93.45   3
  -2   9   0 1450.09   87.19   2
   3  -9   0 1409.30   83.51   1
   3  -9   0 1371.07   79.38   6
  -3  -9   0 1305.64   84.33   2
  -3  -9   0 1515.40   80.01   1
  -3   9   0 1309.37   84.27   3
   3   9   0 1323.97   80.27   4
  -3   9   0 1390.16   83.77   2
   3   9   0 1411.56   85.12   3
   4  -9   0 172.402  34.504   1
  -4  -9   0 223.519  43.990   5
  -4  -9   0 177.606  30.467   1
   4  -9   0 211.774  36.052   6
  -4  -9   0 217.895  42.141   2
   4   9   0 209.031  36.298   3
  -4   9   0 152.292  35.498   2
  -4   9   0 227.662  36.621   3
   4   9   0 181.041  35.109   4
   5  -9   0 406.445  52.672   1
  -5  -9   0 458.112  65.650   5
   5  -9   0 487.110  57.265   6
  -5  -9   0 481.855  62.316   2
   5   9   0 445.394  57.225   4
   5   9   0 461.473  54.401   3
  -5   9   0 451.531  61.548   2
  -6  -9   0 723.183  87.092   5
  -6  -9   0 595.485  75.055   2
   6  -9   0 518.720  65.590   6
   6  -9   0 609.458  67.211   1
  -6   9   0 661.911  79.581   2
   6   9   0 506.338  65.423   4
  -7  -9   0 894.042 102.094   5
  -7  -9   0 709.113  90.436   2
   7  -9   0 640.994  77.140   6
  -7   9   0 577.892  81.041   2
   7   9   0 839.705  91.165   4
   0 -10   0 7864.78  304.68   2
   0 -10   0 7590.44  301.32   1
   0  10   0 7498.49  304.28   2
   0  10   0 7584.64  313.70   3
  -1 -10   0 19.8381 18.8236   2
   1 -10   0 13.6539 13.7330   6
  -1 -10   0 29.6797 16.3685   1
   1 -10   0 18.3267 15.1743   1
   1  10   0 35.9982 18.0953   3
  -1  10   0  2.6097 14.7012   3
  -1  10   0 27.4087 18.9571   2
   2 -10   0 104.721  25.659   1
  -2 -10   0 60.6178 21.4376   1
  -2 -10   0 98.6987 27.0491   2
   2 -10   0 63.5609 20.2135   6
  -2  10   0 104.566  26.820   3
  -2  10   0 55.3367 24.4188   2
   2  10   0 103.044  28.776   3
  -3 -10   0 303.212  39.802   1
   3 -10   0 307.756  41.484   1
  -3 -10   0 214.899  39.280   2
   3 -10   0 272.697  38.300   6
  -3  10   0 222.195  39.305   3
  -3  10   0 262.671  42.898   2
   3  10   0 204.231  34.287   4
   3  10   0 234.573  40.975   3
  -4 -10   0 1402.28   84.57   1
  -4 -10   0 1586.88   97.45   2
  -4 -10   0 1234.28   94.37   5
   4 -10   0 1308.08   88.21   1
   4 -10   0 1560.73   91.24   6
   4  10   0 1346.09   91.96   3
  -4  10   0 1519.33   95.93   2
  -4  10   0 1403.52   91.54   3
   4  10   0 1387.32   88.99   4
  -5 -10   0 329.977  55.088   2
   5 -10   0 399.027  53.965   6
  -5 -10   0 466.278  67.717   5
   5 -10   0 423.177  57.824   1
   5  10   0 425.192  57.224   4
   5  10   0 483.981  59.334   3
  -5  10   0 490.848  62.895   2
   6 -10   0 111.559  35.646   6
  -6 -10   0 41.5643 32.9966   2
  -6 -10   0 81.0794 42.6737   5
   6 -10   0 87.1199 32.8582   1
  -6  10   0 114.499  42.163   2
   6  10   0 86.1176 34.6377   4
   7 -10   0 -9.8195 31.3530   6
  -7 -10   0  6.3482 35.4307   2
  -7 -10   0 -11.005  34.846   5
  -7  10   0 35.8659 40.6827   2
   7  10   0 26.7680 35.5344   4
   0 -11   0 12.6649 18.6282   2
   0 -11   0 -5.6683 13.1337   1
   0  11   0 23.8773 16.2996   3
   1 -11   0 60.3564 22.8796   1
  -1 -11   0 55.8625 22.2120   1
  -1 -11   0 114.591  29.208   2
  -1  11   0 69.6456 24.8751   3
   1  11   0 55.4505 23.3537   3
  -1  11   0 56.7885 21.4297   2
  -2 -11   0 3608.75  167.15   2
   2 -11   0 3571.08  167.33   1
   2 -11   0 3791.39  158.46   6
  -2 -11   0 3555.25  164.13   1
  -2  11   0 3638.34  174.78   3
   2  11   0 3433.35  173.84   3
  -2  11   0 3496.31  172.42   2
  -3 -11   0 310.471  43.807   1
   3 -11   0 323.819  47.112   1
   3 -11   0 372.973  45.610   6
  -3 -11   0 369.848  50.621   2
  -3  11   0 245.243  43.709   2
   3  11   0 351.388  51.616   3
  -3  11   0 315.772  47.589   3
  -4 -11   0 379.016  56.650   2
   4 -11   0 373.030  49.466   6
   4 -11   0 385.856  52.632   1
  -4 -11   0 389.451  50.041   1
  -4 -11   0 344.906  57.776   5
  -4  11   0 352.338  52.359   3
   4  11   0 412.526  57.907   3
  -4  11   0 366.843  55.747   2
   5 -11   0 43.9823 30.6612   6
  -5 -11   0 -7.2343 29.0631   5
   5 -11   0 54.6835 30.2523   1
  -5 -11   0 29.2395 30.3842   2
  -5  11   0  8.3558 28.7367   2
   5  11   0 53.2669 30.0052   3
  -6 -11   0 1008.31  102.98   2
   6 -11   0 1149.16   88.68   1
  -6 -11   0 1293.82  123.27   5
   6 -11   0 1057.85   99.45   6
  -7 -11   0 84.4994 52.6499   5
   7 -11   0 42.1971 38.5702   6
  -7 -11   0 51.2986 41.1825   2
  -8 -11   0 243.097  70.025   5
   0 -12   0 2433.69  125.99   1
   1 -12   0 683.731  64.929   1
  -1 -12   0 560.868  58.429   1
  -1  12   0 750.180  70.812   3
   1  12   0 645.481  67.546   3
   2 -12   0 276.372  43.142   1
  -2 -12   0 313.140  44.528   1
  -2  12   0 429.280  54.901   3
   2  12   0 438.693  57.112   3
   3 -12   0 669.589  68.161   1
  -3 -12   0 601.650  63.267   1
   3  12   0 705.832  76.646   3
  -3  12   0 733.228  75.004   3
   4 -12   0 315.033  48.805   6
   4 -12   0 287.148  47.973   1
  -4 -12   0 302.594  47.207   1
  -4 -12   0 213.888  52.411   5
  -4  12   0 268.201  47.109   3
   4  12   0 342.664  54.804   3
   5 -12   0 930.053  89.031   1
   5 -12   0 966.935  88.748   6
  -5 -12   0 882.500  98.111   5
  -6 -12   0 28.6498 41.4243   5
   6 -12   0 38.5770 32.3164   1
   6 -12   0 21.2764 34.0080   6
  -7 -12   0 115.798  55.566   5
  -8 -12   0 382.870  83.242   5
   0 -13   0 12.6913 20.8734   1
   0  13   0  2.0687 16.6835   3
  -1 -13   0 786.692  71.579   1
   1 -13   0 723.624  71.389   1
   1  13   0 878.295  81.438   3
  -1  13   0 829.689  78.736   3
  -2 -13   0 78.2230 28.9077   1
   2 -13   0 53.7429 25.8209   1
   2  13   0 125.225  33.601   3
  -2  13   0 63.3619 26.8526   3
  -3 -13   0 1021.69   78.23   1
   3 -13   0 1062.27   81.56   1
   3  13   0 1091.64   86.64   3
  -3  13   0 1052.47   82.99   3
   4 -13   0 -9.2616 22.5437   1
  -4 -13   0 18.7540 31.8763   5
  -4 -13   0  7.3268 25.7751   1
   4  13   0 10.2009 26.1981   3
  -4  13   0  4.3707 20.4523   3
  -5 -13   0 375.423  70.450   5
   5 -13   0 542.765  69.814   1
   6 -13   0 131.277  42.026   1
  -6 -13   0 25.6224 41.6986   5
  -7 -13   0 970.754 120.666   5
  -8 -13   0 -2.9307 52.0130   5
   0 -14   0 295.297  46.714   1
   0  14   0 256.662  45.062   3
   1 -14   0 551.055  62.155   1
  -1 -14   0 578.320  62.544   1
  -1  14   0 630.133  70.271   3
   1  14   0 411.202  61.098   3
  -2 -14   0 28.5447 24.3672   1
   2 -14   0  8.8184 23.7245   1
   2  14   0 31.2750 25.0214   3
  -2  14   0 50.8040 24.6774   3
  -3 -14   0 1095.45   82.85   1
   3 -14   0 956.135  88.474   1
  -3  14   0 975.639  93.901   3
   3  14   0 995.199  98.017   3
  -4 -14   0 369.281  64.334   5
   4 -14   0 586.096  71.067   1
  -4  14   0 544.751  69.883   3
   4  14   0 498.195  73.693   3
  -5 -14   0 924.539 108.375   5
   5 -14   0 979.852  95.419   1
  -6 -14   0 198.373  64.186   5
  -7 -14   0 113.638  58.654   5
  -8 -14   0 122.782  67.963   5
   0 -15   0 29.3627 24.4636   1
   0  15   0  7.7427 21.5886   3
  -1 -15   0 106.703  34.258   1
   1 -15   0 167.920  43.572   1
  -1  15   0 137.070  38.757   3
   1  15   0 117.803  34.662   3
   2 -15   0 1742.31  112.73   1
  -2 -15   0 1784.85  112.31   1
  -2  15   0 1551.03  114.19   3
   2  15   0 1953.95  123.65   3
   3 -15   0 42.8958 29.6433   1
  -3 -15   0 45.5431 33.0850   1
  -3 -15   0 68.9409 36.6700   5
  -3  15   0 21.4632 23.7511   3
   3  15   0 72.2739 35.9952   3
   4 -15   0 46.7719 30.9273   1
  -4 -15   0 50.2887 38.3641   5
  -4  15   0 17.2755 25.8960   3
   4  15   0 17.8269 30.9717   3
  -5 -15   0 131.853  51.675   5
  -6 -15   0 1041.45  127.03   5
  -7 -15   0 61.3228 55.6182   5
  -8 -15   0 427.641 102.413   5
   0 -16   0 1018.21   93.96   1
   0  16   0 1015.47   96.50   3
  -1 -16   0 58.8089 33.1159   1
   1 -16   0 143.039  37.824   1
  -1  16   0 124.707  38.263   3
   1  16   0 33.9122 28.1750   3
   2 -16   0  5.7229 24.4417   1
  -2 -16   0  9.9136 28.5712   1
   2  16   0 -5.1426 24.5410   3
  -2  16   0 19.9446 24.2363   3
  -3 -16   0 107.346  42.377   5
  -3 -16   0 142.585  43.317   1
   3 -16   0 38.4017 30.6521   1
   3  16   0 159.919  46.588   3
  -3  16   0 40.2536 31.5009   3
   4  16   0 1911.09  140.48   3
  -4  16   0 2034.02  134.47   3
  -5 -16   0 159.785  58.517   5
  -6 -16   0 314.535  75.366   5
  -7 -16   0 -14.392  54.662   5
  -8 -16   0 417.877 101.996   5
   0 -17   0 33.7478 29.5383   1
   0  17   0 27.3816 25.7466   3
  -1 -17   0 272.721  55.122   1
   1 -17   0 191.768  48.566   1
   1  17   0 294.864  56.077   3
  -1  17   0 244.401  51.416   3
  -2 -17   0 1038.24   97.52   1
  -2  17   0 756.398  88.939   3
   2  17   0 1105.95  109.31   3
  -3 -17   0 128.207  45.797   1
  -3 -17   0 252.341  59.936   5
  -4 -17   0 235.468  62.197   5
  -5 -17   0 209.759  63.797   5
  -6 -17   0 190.233  70.363   5
  -7 -17   0 386.852  97.140   5
  -3 -18   0 90.7787 48.1935   5
  -4 -18   0 97.3902 50.3703   5
  -5 -18   0 416.094  86.630   5
  -6 -18   0 -11.596  53.342   5
  -7 -18   0 97.6119 64.8019   5
  -3 -19   0 644.040  92.925   5
  -4 -19   0 18.0188 45.7830   5
  -5 -19   0 184.821  66.808   5
  -6 -19   0 75.2759 60.9339   5
  -3 -20   0 70.1222 51.8474   5
  -4 -20   0 421.995  83.613   5
  -5 -20   0 112.943  63.852   5
  -4 -21   0 85.2187 56.8736   5
  -8   0   1 -7.6127 26.9847   2
   8   0  -1 -2.5160 23.2347   4
   8   0  -1  7.4376 23.5960   6
   7   0  -1 104.652  31.241   4
  -7   0   1 106.082  34.541   2
   7   0  -1 138.794  35.141   6
   6   0  -1 -6.6033 15.3713   4
  -6   0   1 11.6565 20.3449   2
   6   0  -1  2.1669 15.4867   6
  -5   0   1 1251.19   79.97   2
   5   0  -1 1237.34   75.14   6
  -5   0   1 1297.18   71.70   3
   5   0  -1 1262.47   78.23   4
   4   0  -1 -5.1774  9.1255   4
  -4   0   1 -8.4469 10.9326   2
   4   0  -1 -0.2750  9.5290   6
   4   0  -1 -0.8403  9.0755   3
   4   0  -1 -1.5874  9.1558   1
   3   0  -1 879.742  42.523   1
  -3   0   1 819.480  51.072   2
   3   0  -1 902.341  48.219   3
   3   0  -1 887.745  52.139   4
   3   0  -1 931.490  50.383   6
   2   0  -1 -5.2922  6.5891   4
   2   0  -1 4.82582 6.49514   3
  -2   0   1 6.59422 8.05898   2
   2   0  -1 -3.4141  6.1550   6
   2   0  -1 2.63021 5.15159   1
   1   0  -1 9268.36  338.68   6
   1   0  -1 9248.06  343.42   3
  -1   0   1 9541.29  342.55   2
   1   0  -1 9604.37  354.63   4
   0   0  -1 16.1285  3.5471   1
   0   0  -1 5.20181 4.35855   4
   0   0  -1 7.82767 2.94098   3
   0   0  -1 7.60433 3.94684   2
   0   0  -1 18.6661  3.6471   6
  -1   0  -1 1000.75   41.86   1
   1   0   1 929.587  43.337   6
  -1   0  -1 948.389  44.097   2
   1   0   1 1020.03   45.21   4
  -2   0  -1 -2.0718  6.6159   1
   2   0   1 1.10798 7.01945   6
   2   0   1 6.09429 7.92231   4
  -2   0  -1 7.00942 9.26029   2
  -2   0  -1 -0.3438  4.3753   3
   3   0   1 3031.60  130.02   4
  -3   0  -1 2985.82  128.57   2
  -3   0  -1 2754.88  112.74   3
   3   0   1 2911.04  124.85   6
  -3   0  -1 2881.61  117.03   1
   4   0   1  6.4137 12.5528   4
  -4   0  -1 10.1110 10.8808   1
  -4   0  -1 10.5949  8.5280   3
   4   0   1 -3.9254 12.1539   6
  -4   0  -1 -3.6675 11.9207   2
  -5   0  -1 613.810  61.021   2
   5   0   1 616.087  56.400   6
   5   0   1 508.905  53.586   4
  -5   0  -1 647.373  43.607   1
   6   0   1 -11.593  14.744   6
  -6   0  -1 -4.1554 17.2523   2
   6   0   1  0.0875 16.8785   4
   7   0   1 1795.17  111.52   6
  -7   0  -1 1880.25  118.85   2
   7   0   1 1685.52  112.63   4
   8   0   1 -10.258  23.828   6
   8   0   1 11.8755 25.8395   4
  -8   0  -1 -14.910  26.392   2
   9   1  -1 -22.914  28.514   6
   8  -1  -1 221.814  47.102   4
  -8  -1   1 240.367  53.784   2
   8  -1  -1 389.802  57.091   6
   8   1  -1 310.403  54.769   4
   8   1  -1 358.630  56.632   6
  -8   1   1 257.321  52.687   2
  -7  -1   1 1179.37   93.87   2
   7  -1  -1 1291.28   92.55   4
   7  -1  -1 1317.35   90.50   6
   7   1  -1 1466.34   97.22   4
   7   1  -1 1282.59   89.43   6
  -7   1   1 1209.27   93.77   2
   6  -1  -1 184.051  36.078   4
  -6  -1   1 177.201  37.742   2
   6  -1  -1 190.865  35.230   6
   6   1  -1 229.335  37.501   6
  -6   1   1 211.664  41.094   2
   6   1  -1 211.565  37.258   4
   5  -1  -1 17.3632 15.9814   4
  -5  -1   1 12.2344 15.1759   2
   5  -1  -1  9.0474 12.5428   1
  -5  -1   1 0.24791 9.99967   1
   5  -1  -1  2.5800 12.1177   6
  -5   1   1 25.1516 19.0629   2
  -5   1   1  2.6979 13.0357   3
   5   1  -1 11.1285 14.2276   6
   5   1  -1 11.0630 12.9719   3
   5   1  -1 21.3415 16.2638   4
   4  -1  -1 1134.02   55.64   1
  -4  -1   1 1158.65   52.33   1
   4  -1  -1 1186.53   67.70   4
   4  -1  -1 1138.48   64.46   6
  -4  -1   1 1142.97   67.65   2
   4   1  -1 1041.91   62.79   6
   4   1  -1 1071.38   66.15   4
   4   1  -1 1058.07   59.93   3
  -4   1   1 1031.08   66.02   2
  -4   1   1 1127.21   61.18   3
   3  -1  -1 2879.55  130.03   4
   3  -1  -1 2777.22  115.29   1
  -3  -1   1 2922.93  128.42   2
   3  -1  -1 3006.33  125.32   6
  -3  -1   1 2960.69  112.86   1
   3   1  -1 3131.98  132.48   4
  -3   1   1 3071.42  124.92   3
   3   1  -1 3006.11  124.37   3
  -3   1   1 3021.13  129.44   2
   3   1  -1 3000.29  124.34   6
   2  -1  -1 1981.88   90.03   4
  -2  -1   1 2068.03   77.49   1
   2  -1  -1 2096.00   80.39   1
  -2  -1   1 2165.15   90.47   2
   2  -1  -1 1988.14   86.66   6
   2   1  -1 2057.81   85.30   6
  -2   1   1 2121.29   88.03   3
   2   1  -1 2126.71   87.06   3
   2   1  -1 2016.25   90.36   4
  -2   1   1 2104.93   88.62   2
   1  -1  -1 552.615  28.821   4
  -1  -1   1 546.693  21.990   1
  -1  -1   1 598.386  29.700   2
   1  -1  -1 528.900  24.874   1
   1  -1  -1 521.294  27.712   6
   1   1  -1 561.450  27.810   4
   1   1  -1 580.269  25.444   6
  -1   1   1 590.098  27.330   2
  -1   1   1 592.356  29.994   3
   1   1  -1 577.060  28.453   3
   0  -1  -1 1093.87   40.77   1
   0  -1  -1 1052.04   42.10   6
   0  -1   1 1035.14   41.04   1
   0   1  -1 1076.48   46.17   2
   0   1   1 1053.09   42.26   3
   0   1  -1 888.395  41.162   4
   0   1  -1 1073.46   41.66   3
   0   1  -1 1025.04   38.79   6
  -1  -1  -1 3635.89  138.36   2
   1  -1   1 3542.04  141.92   4
   1  -1   1 3641.68  137.90   6
  -1  -1  -1 3821.02  135.26   1
   1   1   1 3460.48  144.55   4
   1   1   1 3653.57  133.65   3
  -1   1  -1 3660.90  140.08   2
   1   1   1 3702.04  138.38   6
  -1   1  -1 3530.57  134.16   3
  -1   1  -1 3791.47  135.48   1
   2  -1   1 2776.27  113.82   6
  -2  -1  -1 2883.20  109.18   1
  -2  -1  -1 2672.93  115.38   2
   2  -1   1 2695.19  116.34   4
   2   1   1 2800.05  113.99   6
   2   1   1 2769.43  119.29   4
  -2   1  -1 2622.49  108.41   1
  -2   1  -1 2826.67  105.34   3
  -2   1  -1 2804.22  116.86   2
   2   1   1 2821.15  105.46   3
   3  -1   1 1218.42   64.86   6
  -3  -1  -1 1295.63   59.23   1
   3  -1   1 1163.65   64.65   4
  -3  -1  -1 1248.10   66.52   2
  -3   1  -1 1176.05   66.63   2
  -3   1  -1 1113.91   57.82   1
   3   1   1 1278.47   64.84   6
  -3   1  -1 1232.64   53.88   3
   3   1   1 1266.91   67.18   4
   3   1   1 1248.09   54.37   3
   4  -1   1 42.5559 15.6554   1
  -4  -1  -1 15.5482 12.0511   1
  -4  -1  -1 16.6335 14.5295   2
   4  -1   1 17.5802 12.8965   6
   4  -1   1 24.6767 14.6469   4
  -4   1  -1 35.0197 10.5816   3
   4   1   1 19.1592  9.4088   3
   4   1   1 27.7823 14.4356   6
   4   1   1 33.7949 15.2441   4
  -4   1  -1 17.6507 15.9656   2
   5  -1   1 3849.23  175.77   4
   5  -1   1 3786.36  161.73   1
  -5  -1  -1 3621.74  154.41   1
  -5  -1  -1 3685.03  174.17   2
   5  -1   1 3792.65  169.82   6
  -5   1  -1 3598.09  173.53   2
   5   1   1 3919.40  177.25   4
   5   1   1 3671.37  168.65   6
   6  -1   1 587.143  61.368   6
  -6  -1  -1 640.624  69.440   2
   6  -1   1 468.905  56.427   4
   6   1   1 639.181  65.809   4
  -6   1  -1 523.494  62.936   2
   6   1   1 503.555  57.705   6
  -7  -1  -1 976.037  94.398   2
   7  -1   1 968.716  79.466   4
   7  -1   1 1219.35   86.00   6
   7   1   1 1000.15   80.80   6
  -7   1  -1 1064.66   99.55   2
   7   1   1 1070.22   85.14   4
   8  -1   1 -8.4013 20.8153   6
  -8  -1  -1 -17.261  23.710   2
   8  -1   1  4.6040 25.7252   4
   8   1   1 -13.331  24.282   6
  -8   1  -1 27.3321 30.1248   2
   8   1   1 13.1380 26.3882   4
   9   2  -1 58.8290 34.8778   6
  -8  -2   1 614.787  78.632   2
   8  -2  -1 462.750  63.079   6
   8  -2  -1 520.669  69.269   4
   8   2  -1 457.521  66.954   4
   8   2  -1 475.372  64.086   6
  -8   2   1 494.348  72.675   2
   7  -2  -1  3.8926 19.5500   6
  -7  -2   1 -0.0843 22.0054   2
   7  -2  -1 18.2153 22.6066   4
   7   2  -1 -7.9797 18.7835   4
  -7   2   1  1.6264 21.8838   2
   7   2  -1 13.3642 22.2021   6
  -6  -2   1 2291.70  128.17   2
   6  -2  -1 2282.04  125.66   4
   6  -2  -1 2199.77  120.34   6
   6   2  -1 2113.27  124.09   4
  -6   2   1 2445.45  129.48   2
   6   2  -1 2246.71  119.09   6
   5  -2  -1 370.371  45.118   4
  -5  -2   1 367.243  45.820   5
   5  -2  -1 353.638  42.862   6
   5  -2  -1 479.484  40.727   1
  -5  -2   1 391.120  47.142   2
   5   2  -1 416.769  44.874   6
  -5   2   1 395.042  40.708   3
  -5   2   1 330.820  44.203   2
   5   2  -1 399.384  47.672   4
   5   2  -1 402.314  40.958   3
   4  -2  -1 2727.43  129.03   4
  -4  -2   1 2718.94  125.76   5
  -4  -2   1 2640.85  128.10   2
  -4  -2   1 2733.71  109.58   1
   4  -2  -1 2838.03  125.63   6
   4  -2  -1 2711.09  113.98   1
   4   2  -1 2747.91  121.22   3
  -4   2   1 2830.81  121.35   3
   4   2  -1 2788.09  130.86   4
   4   2  -1 2779.78  122.63   6
  -4   2   1 2621.42  127.81   2
   3  -2  -1 -7.4094  8.2502   6
  -3  -2   1 14.0379 11.1958   2
   3  -2  -1 10.2373  8.9039   1
  -3  -2   1 10.5569  7.4309   1
   3  -2  -1 12.5834  9.2518   4
   3   2  -1 5.02246 8.47529   6
   3   2  -1 16.6596 10.4506   4
  -3   2   1 -4.7666  7.9252   3
   3   2  -1 8.54822 9.15474   3
  -3   2   1 13.6590 11.0328   2
   2  -2  -1 1154.89   56.50   6
   2  -2  -1 1196.60   58.25   4
   2  -2  -1 1234.14   52.71   1
  -2  -2   1 1228.90   48.85   1
  -2  -2   1 1206.14   59.84   2
   2   2  -1 1168.57   53.39   6
   2   2  -1 1230.90   56.39   3
   2   2  -1 1212.80   58.31   4
  -2   2   1 1188.24   57.45   3
  -2   2   1 1120.83   56.96   2
   1  -2  -1 717.248  35.990   4
   1  -2  -1 766.088  36.300   6
  -1  -2   1 703.843  37.689   2
   1  -2  -1 736.796  34.709   1
  -1  -2   1 742.768  31.933   1
  -1   2   1 730.205  34.191   2
   1   2  -1 758.078  30.894   6
  -1   2   1 717.522  37.557   3
   1   2  -1 752.906  36.228   3
   1   2  -1 768.298  34.989   4
   0  -2  -1 8086.99  282.50   1
   0  -2   1 7811.22  282.08   1
   0  -2  -1 8157.82  284.45   2
   0  -2  -1 7561.18  286.96   6
   0  -2   1 7937.68  281.85   6
   0   2  -1 7940.35  295.95   2
   0   2  -1 7942.81  290.48   3
   1  -2   1 231.456  15.440   4
  -1  -2  -1 252.748  18.378   2
   1  -2   1 260.646  18.719   6
  -1  -2  -1 260.666  17.593   6
   1  -2   1 228.955  20.713   1
  -1  -2  -1 232.115  17.492   1
   1   2   1 217.861  21.378   4
  -1   2  -1 230.903  17.368   3
   1   2   1 271.634  19.800   6
   1   2   1 223.584  16.155   3
  -1   2  -1 222.346  20.752   2
  -2  -2  -1 597.575  32.799   1
  -2  -2  -1 574.501  36.287   2
   2  -2   1 573.826  33.619   4
   2  -2   1 583.456  35.635   6
   2  -2   1 539.832  35.326   1
   2   2   1 531.274  28.327   3
  -2   2  -1 583.966  29.908   3
   2   2   1 531.366  36.029   4
  -2   2  -1 617.863  38.065   2
   2   2   1 580.533  35.568   6
  -3  -2  -1 121.396  18.348   1
   3  -2   1 71.0579 17.3960   1
  -3  -2  -1 167.692  24.591   2
   3  -2   1 138.864  21.437   6
   3  -2   1 128.499  19.978   4
  -3   2  -1 127.781  15.276   3
  -3   2  -1 112.757  21.586   2
   3   2   1 113.520  15.126   3
   3   2   1 156.715  22.979   6
   3   2   1 152.113  23.389   4
   4  -2   1 5549.80  212.44   1
  -4  -2  -1 5459.88  206.61   1
   4  -2   1 4957.48  223.10   4
  -4  -2  -1 5176.59  222.89   2
   4  -2   1 5372.41  218.99   6
   4   2   1 5338.76  228.62   4
   4   2   1 5288.60  217.63   6
   4   2   1 5223.38  205.53   3
  -4   2  -1 5455.93  224.95   2
  -4   2  -1 5299.41  203.75   3
   5  -2   1 -6.0398 13.8209   1
  -5  -2  -1 -9.6877 12.5245   1
   5  -2   1 46.2898 18.8182   6
  -5  -2  -1  7.1841 16.9896   2
   5  -2   1 21.9854 17.1767   4
  -5   2  -1 21.4364 18.3172   2
   5   2   1  6.6580 14.9514   6
   5   2   1 34.0733 19.1658   4
  -6  -2  -1 170.324  38.099   2
   6  -2   1 85.5004 28.3823   6
   6  -2   1 135.595  30.422   4
   6   2   1 163.487  32.907   6
  -6   2  -1 142.878  35.833   2
   6   2   1 145.671  33.771   4
  -7  -2  -1 331.977  55.613   2
   7  -2   1 403.044  55.578   6
   7  -2   1 388.994  56.513   4
   7   2   1 477.511  59.691   6
   7   2   1 416.986  59.022   4
  -7   2  -1 340.939  56.347   2
   8  -2   1 828.359  86.587   6
   8  -2   1 825.962  89.009   4
  -8  -2  -1 751.200  90.972   2
   8   2   1 921.882  94.311   4
  -8   2  -1 912.101  96.684   2
   9   3  -1  7.4441 31.4986   6
  -8  -3   1 1036.94  107.25   2
   8  -3  -1 1144.22   93.77   4
   8   3  -1 1208.19   92.66   6
  -8   3   1 1118.78  108.33   2
   8   3  -1 1277.05   98.66   4
  -7  -3   1 330.037  56.360   2
   7  -3  -1 447.640  59.041   4
   7  -3  -1 333.766  50.235   6
   7   3  -1 387.573  52.910   6
   7   3  -1 369.055  55.658   4
  -7   3   1 382.811  57.394   2
   6  -3  -1 681.414  67.457   4
   6  -3  -1 581.798  61.968   6
  -6  -3   1 750.017  74.477   2
  -6   3   1 784.677  76.916   2
   6   3  -1 766.138  60.729   6
   6   3  -1 802.272  65.716   4
  -5  -3   1 1331.77   81.24   5
   5  -3  -1 1301.94   67.60   1
  -5  -3   1 1335.65   83.14   2
   5  -3  -1 1235.48   78.10   4
   5  -3  -1 1361.07   78.66   6
   5   3  -1 1148.42   70.63   3
   5   3  -1 1280.21   80.64   4
   5   3  -1 1187.99   73.55   6
  -5   3   1 1218.47   70.21   3
  -5   3   1 1294.45   81.67   2
   4  -3  -1 2869.66  131.11   4
  -4  -3   1 2708.94  128.90   5
   4  -3  -1 2696.98  126.34   6
  -4  -3   1 2751.20  131.79   2
  -4  -3   1 2759.95  111.74   1
   4  -3  -1 2743.84  117.34   1
  -4   3   1 2811.64  130.92   2
   4   3  -1 2875.77  124.03   6
  -4   3   1 2823.26  123.74   3
   4   3  -1 2806.42  123.32   3
   4   3  -1 2776.29  131.91   4
   3  -3  -1 62.6086 15.6175   6
  -3  -3   1 43.0224 15.7047   2
   3  -3  -1 70.4941 16.1407   4
  -3  -3   1 84.9034 12.8361   1
   3  -3  -1 69.6166 14.8137   1
  -3   3   1 42.8972 13.7568   2
  -3   3   1 44.4488 14.0879   3
   3   3  -1 64.5787 14.0986   3
   3   3  -1 55.2704 15.5825   4
   3   3  -1 29.5968 11.5117   6
   2  -3  -1 6638.49  251.83   6
  -2  -3   1 6838.80  257.12   2
  -2  -3   1 6590.42  240.04   1
   2  -3  -1 6780.58  245.26   1
   2  -3  -1 6205.83  259.99   4
  -2   3   1 6697.70  255.01   3
   2   3  -1 6688.51  252.96   3
  -2   3   1 6721.90  253.24   2
   2   3  -1 6824.90  261.27   4
   2   3  -1 6582.16  245.72   6
   1  -3  -1 2042.19   88.92   4
  -1  -3   1 2196.38   91.25   2
   1  -3  -1 2065.09   85.89   1
  -1  -3   1 2232.35   84.00   1
   1  -3  -1 2171.33   87.22   6
  -1   3   1 2106.27   90.23   3
   1   3  -1 2095.86   79.45   6
  -1   3   1 2104.36   84.72   2
   1   3  -1 2089.92   88.71   3
   1   3  -1 2175.35   87.05   4
   0  -3  -1 364.515  27.499   4
   0  -3  -1 375.752  23.850   6
   0  -3   1 369.373  23.851   1
   0  -3  -1 372.816  23.935   1
   0  -3   1 363.394  17.842   6
   0   3  -1 392.738  25.416   3
   0   3   1 400.830  26.887   3
   0   3   1 414.295  21.348   2
   0   3  -1 395.505  31.315   2
   1  -3   1 4383.83  165.74   1
  -1  -3  -1 4389.34  163.26   1
   1  -3   1 4099.11  166.97   4
   1  -3   1 4373.35  164.31   6
  -1  -3  -1 4542.81  164.75   6
  -1  -3  -1 4404.31  165.76   2
  -1   3  -1 4322.81  168.35   3
   1   3   1 4661.61  167.62   6
   1   3   1 4285.75  168.32   3
  -1   3  -1 4182.32  169.69   2
   1   3   1 4356.88  175.68   4
   2  -3   1 4535.55  187.99   4
   2  -3   1 4620.11  182.74   1
  -2  -3  -1 4716.71  179.31   1
  -2  -3  -1 4893.02  186.92   2
   2  -3   1 4604.30  184.01   6
  -2   3  -1 4792.65  189.32   2
   2   3   1 4897.96  184.94   6
   2   3   1 4881.71  195.51   4
  -2   3  -1 4715.84  182.17   3
   2   3   1 4746.22  180.98   3
  -3  -3  -1 439.468  41.172   2
   3  -3   1 404.069  38.158   6
   3  -3   1 399.712  37.242   1
   3  -3   1 396.765  32.043   4
  -3  -3  -1 409.452  30.316   1
   3   3   1 414.518  27.177   3
  -3   3  -1 368.363  38.573   2
  -3   3  -1 399.347  28.764   3
   3   3   1 443.341  42.126   4
   3   3   1 444.232  34.523   6
  -4  -3  -1 51.2434 19.4663   2
  -4  -3  -1 44.2634 19.8137   5
   4  -3   1 41.2720 15.0386   4
   4  -3   1  2.8639 13.1660   1
  -4  -3  -1  9.0523 10.9851   1
   4  -3   1  9.9235 12.4469   6
   4   3   1 26.2715 15.8924   6
  -4   3  -1 12.3597 15.1206   2
   4   3   1 19.1804  9.9968   3
   4   3   1 38.6306 17.3625   4
  -4   3  -1 13.6221  9.6945   3
  -5  -3  -1 189.181  35.861   2
  -5  -3  -1 227.764  29.875   1
   5  -3   1 172.824  31.038   4
   5  -3   1 200.402  34.359   6
   5  -3   1 208.175  32.437   1
   5   3   1 174.837  32.762   6
   5   3   1 253.546  39.232   4
  -5   3  -1 220.463  37.568   2
   6  -3   1 2356.52  114.60   1
   6  -3   1 2074.67  119.78   6
   6  -3   1 2233.15  122.59   4
  -6  -3  -1 2218.43  127.17   2
  -6   3  -1 2076.27  125.33   2
   6   3   1 2286.97  127.97   4
   6   3   1 2224.99  120.71   6
  -7  -3  -1 -2.4578 25.3189   2
   7  -3   1  3.4221 20.9620   6
   7  -3   1  4.9545 21.7027   4
   7   3   1 19.3930 24.3001   6
  -7   3  -1 -4.8541 22.5155   2
   7   3   1 25.1370 25.2953   4
   8  -3   1 -17.646  24.780   4
   8  -3   1 -2.3317 25.2318   6
  -8  -3  -1  9.4483 28.2819   2
   8   3   1 17.6152 26.8768   6
  -8   3  -1 22.4125 31.4918   2
   8   3   1 23.8404 30.5344   4
  -8  -4   1 96.4288 39.2965   2
   8  -4  -1 66.1593 31.6250   6
   8  -4  -1 152.841  42.371   4
  -8   4   1 118.230  42.724   2
   8   4  -1 110.120  39.288   4
   8   4  -1 97.2988 37.4537   6
  -7  -4   1 -0.0042 23.2794   2
   7  -4  -1 25.8436 22.9450   4
   7  -4  -1 12.4727 21.4504   6
   7   4  -1 24.5967 22.9459   6
  -7   4   1  5.5133 24.3171   2
   7   4  -1 -27.061  16.184   4
   6  -4  -1 1086.90   78.13   4
   6  -4  -1 1071.67   77.35   6
  -6  -4   1 1079.07   82.57   2
  -6  -4   1 1129.66   82.26   5
  -6   4   1 1040.09   79.98   2
   6   4  -1 1157.12   83.25   4
   6   4  -1 1190.49   77.49   6
   5  -4  -1 1619.07   90.07   6
  -5  -4   1 1468.47   90.96   5
   5  -4  -1 1562.60   80.18   1
   5  -4  -1 1268.11   85.49   4
  -5  -4   1 1552.15   93.94   2
   5   4  -1 1600.82   84.19   3
  -5   4   1 1531.27   82.65   3
  -5   4   1 1561.98   92.90   2
   5   4  -1 1606.98   93.52   4
   5   4  -1 1559.65   85.07   6
   4  -4  -1 1498.10   79.60   4
  -4  -4   1 1411.72   65.60   1
   4  -4  -1 1356.91   77.82   6
  -4  -4   1 1338.44   79.63   5
   4  -4  -1 1362.91   70.82   1
  -4  -4   1 1423.61   82.35   2
  -4   4   1 1510.09   76.57   3
   4   4  -1 1335.58   73.32   3
  -4   4   1 1442.93   80.70   2
   4   4  -1 1475.64   74.25   6
   4   4  -1 1406.62   80.29   4
   3  -4  -1 112.278  21.427   6
  -3  -4   1 165.341  18.408   1
  -3  -4   1 127.411  24.065   2
   3  -4  -1 132.411  20.520   1
   3  -4  -1 137.782  21.386   4
   3   4  -1 134.534  19.578   6
   3   4  -1 136.649  22.075   4
  -3   4   1 145.205  23.242   2
   3   4  -1 125.107  19.947   3
  -3   4   1 141.460  21.897   3
  -2  -4   1 1609.05   79.21   2
   2  -4  -1 1512.89   74.64   4
   2  -4  -1 1603.02   73.51   1
  -2  -4   1 1782.10   69.64   1
   2  -4  -1 1621.42   75.09   6
   2   4  -1 1583.68   75.41   4
   2   4  -1 1615.90   75.61   3
   2   4  -1 1662.40   68.53   6
  -2   4   1 1594.39   77.11   3
  -2   4   1 1589.08   74.18   2
   1  -4  -1 3060.24  121.54   6
  -1  -4   1 3047.44  118.64   1
   1  -4  -1 2868.21  120.71   1
  -1  -4   1 3170.30  126.89   2
   1  -4  -1 2871.35  124.16   4
   1   4  -1 3023.14  125.49   3
   1   4  -1 3084.80  121.52   4
   1   4  -1 3145.98  112.35   6
  -1   4   1 3097.81  119.43   2
  -1   4   1 3051.04  126.49   3
   0  -4   1 8285.40  293.92   1
   0  -4  -1 8364.41  312.51   4
   0  -4  -1 8177.19  294.04   1
   0  -4  -1 7645.25  295.21   6
   0  -4   1 8237.11  288.69   6
   0   4   1 7720.31  295.56   2
   0   4  -1 8080.28  307.28   2
   0   4   1 7908.43  304.19   3
   0   4  -1 7942.53  299.23   4
  -1  -4  -1 397.378  25.177   6
   1  -4   1 383.450  21.278   4
  -1  -4  -1 365.281  26.095   1
  -1  -4  -1 449.935  26.849   2
   1  -4   1 383.764  24.447   6
   1  -4   1 366.268  27.844   1
   1   4   1 361.167  28.887   4
  -1   4  -1 401.010  28.729   3
   1   4   1 362.276  27.733   3
   1   4   1 396.956  28.003   6
  -1   4  -1 392.181  29.454   2
   2  -4   1 172.484  21.667   6
  -2  -4  -1 175.519  22.786   2
   2  -4   1 185.085  23.672   1
   2  -4   1 169.386  18.961   4
  -2  -4  -1 145.922  19.092   1
  -2   4  -1 159.015  22.643   2
   2   4   1 190.217  21.190   3
   2   4   1 131.071  21.076   4
   2   4   1 191.219  22.279   6
  -2   4  -1 200.564  23.006   3
   3  -4   1 2369.06  113.80   6
  -3  -4  -1 2745.24  121.60   5
   3  -4   1 2421.47  114.03   4
  -3  -4  -1 2526.27  108.99   1
   3  -4   1 2655.97  114.78   1
  -3  -4  -1 2577.32  117.38   2
  -3   4  -1 2790.88  111.67   3
   3   4   1 2524.03  114.37   6
   3   4   1 2690.73  123.33   4
  -3   4  -1 2515.85  119.42   2
   3   4   1 2591.19  108.81   3
   4  -4   1 766.582  50.733   4
   4  -4   1 628.948  47.363   1
  -4  -4  -1 705.599  63.355   5
  -4  -4  -1 711.430  45.668   1
  -4  -4  -1 691.753  53.010   2
   4  -4   1 729.981  51.809   6
   4   4   1 709.683  50.616   6
  -4   4  -1 689.134  43.656   3
   4   4   1 635.182  41.253   3
   4   4   1 750.865  55.169   4
  -4   4  -1 608.957  58.621   2
  -5  -4  -1 448.538  53.695   2
  -5  -4  -1 477.735  54.942   5
  -5  -4  -1 395.091  39.965   1
   5  -4   1 398.101  44.743   1
   5  -4   1 415.447  46.922   4
   5  -4   1 442.936  49.538   6
   5   4   1 405.503  50.832   4
   5   4   1 446.785  49.637   6
  -5   4  -1 404.618  52.438   2
   6  -4   1 40.0201 23.4758   6
   6  -4   1 51.9705 21.6733   4
   6  -4   1 47.3515 23.1384   1
  -6  -4  -1 60.5903 29.2494   2
   6   4   1 89.0757 29.3931   6
  -6   4  -1 100.941  30.283   2
   6   4   1 80.9558 27.0331   4
  -7  -4  -1 781.568  86.737   2
   7  -4   1 740.952  77.307   4
   7  -4   1 813.625  80.084   6
   7   4   1 681.540  74.316   6
  -7   4  -1 850.980  86.331   2
   7   4   1 724.868  81.066   4
  -8  -4  -1 1122.26  110.99   2
   8  -4   1 982.971  95.267   4
   8   4   1 930.651  99.506   4
   8   4   1 794.057  87.501   6
  -8   4  -1 902.431  99.994   2
   8  -5  -1  7.2826 27.8415   4
  -8  -5   1 -2.8462 28.7328   2
   8  -5  -1  6.0412 28.2694   6
  -8   5   1 56.7581 36.5521   2
   8   5  -1  7.1779 26.3640   4
   7  -5  -1 1290.19   96.79   6
  -7  -5   1 1339.20  103.28   2
   7  -5  -1 1504.66  101.12   4
   7   5  -1 1603.52   98.84   6
  -7   5   1 1503.66  106.85   2
   7   5  -1 1485.01  105.21   4
   6  -5  -1 12.0782 19.0449   4
  -6  -5   1  6.9288 23.4533   5
   6  -5  -1 11.0184 18.6409   6
  -6  -5   1  4.6135 20.4030   2
   6   5  -1  6.8254 19.1222   6
  -6   5   1 -16.407  16.970   2
   6   5  -1 28.8873 22.3302   4
   5  -5  -1 -3.4105 14.2956   6
  -5  -5   1 21.8405 18.7478   2
   5  -5  -1 -1.5305 13.9684   4
   5  -5  -1  0.3194 14.4059   1
  -5  -5   1 -4.1087 18.0994   5
  -5   5   1  1.9198 13.9832   3
   5   5  -1 18.7084 17.0094   4
  -5   5   1 30.9734 21.4626   2
   5   5  -1  2.9016 11.3547   3
   5   5  -1 -4.4801 13.1262   6
  -4  -5   1 160.624  31.762   5
   4  -5  -1 157.177  27.916   6
  -4  -5   1 129.627  20.109   1
   4  -5  -1 179.540  27.540   1
   4  -5  -1 168.082  27.537   4
  -4  -5   1 149.642  29.790   2
   4   5  -1 214.407  32.126   4
  -4   5   1 166.986  29.563   2
   4   5  -1 140.581  24.448   3
   4   5  -1 167.904  25.170   6
  -4   5   1 144.225  25.528   3
   3  -5  -1 6067.11  232.07   1
  -3  -5   1 6025.08  225.00   1
   3  -5  -1 5642.98  243.28   4
   3  -5  -1 6055.31  237.57   6
  -3  -5   1 6233.31  244.89   2
   3   5  -1 5893.89  229.38   6
  -3   5   1 5933.99  239.75   3
  -3   5   1 6135.96  240.43   2
   3   5  -1 5908.10  245.87   4
   3   5  -1 6041.17  238.60   3
  -2  -5   1 307.597  34.251   2
   2  -5  -1 279.720  27.743   4
   2  -5  -1 346.177  32.275   1
   2  -5  -1 360.940  32.538   6
  -2  -5   1 311.196  24.974   1
  -2   5   1 357.740  34.581   3
   2   5  -1 383.230  29.843   3
   2   5  -1 324.084  22.797   6
   2   5  -1 372.507  28.335   4
  -2   5   1 351.506  31.450   2
   1  -5  -1 10.8564  9.6962   1
  -1  -5   1  7.2870 11.2596   2
   1  -5  -1 17.6677  9.3983   6
  -1  -5   1 25.2985 10.3082   1
  -1  -5   1 14.5104  5.3515   6
   1  -5  -1 25.0957  9.5403   4
   1   5  -1 18.3943  9.6210   3
  -1   5   1 11.4634  8.7198   2
   1   5  -1 13.2378  7.0545   4
  -1   5   1 17.2709 10.9302   3
   0  -5  -1 35.9089 11.5450   4
   0  -5  -1 26.0839  9.6085   6
   0  -5   1 12.7356  9.4844   1
   0  -5   1 24.3348  6.8621   6
   0  -5  -1 24.0389 10.3682   1
   0   5   1 34.4742 12.3239   3
   0   5  -1  6.9285 10.3682   2
   0   5  -1 11.6840  9.0363   3
   0   5  -1 19.0943  5.9349   4
   0   5   1 20.1458  9.6022   2
  -1  -5  -1 2981.50  113.90   1
  -1  -5  -1 2758.64  110.16   6
   1  -5   1 2584.72  113.77   1
   1  -5   1 2611.93  108.14   6
  -1  -5  -1 2692.55  111.79   2
   1  -5   1 2659.05  107.44   4
  -1   5  -1 2735.79  118.20   2
   1   5   1 2886.41  119.25   3
   1   5   1 2741.34  113.12   6
   1   5   1 2593.78  118.45   4
   2  -5   1 72.0943 13.1787   4
   2  -5   1 101.938  17.499   6
  -2  -5  -1 70.3583 16.8893   2
  -2  -5  -1 62.2241 14.8290   1
   2  -5   1 72.7093 17.3520   1
   2   5   1 110.464  18.205   3
  -2   5  -1 57.5742 16.9973   2
   2   5   1 93.6148 17.3096   6
  -2   5  -1 87.1540 18.0876   3
   2   5   1 92.0550 19.8174   4
   3  -5   1 608.406  40.487   4
   3  -5   1 659.769  44.021   6
  -3  -5  -1 580.211  44.667   2
  -3  -5  -1 578.394  39.083   1
   3  -5   1 623.477  43.522   1
  -3  -5  -1 575.817  52.359   5
   3   5   1 556.527  38.634   3
   3   5   1 635.514  43.829   6
  -3   5  -1 596.742  41.564   3
   3   5   1 580.835  46.487   4
  -3   5  -1 611.960  47.631   2
   4  -5   1 26.2589 14.1575   4
  -4  -5  -1  0.1190 16.5747   2
   4  -5   1  5.3768 12.9460   6
   4  -5   1 18.9517 13.9932   1
  -4  -5  -1 27.6957 12.6028   1
  -4  -5  -1 12.5308 18.9984   5
  -4   5  -1  8.5153 15.4891   2
   4   5   1 0.26280 8.98981   3
  -4   5  -1  8.9984 11.5301   3
   4   5   1 -0.6603 12.7387   6
   4   5   1 18.2538 16.5611   4
   5  -5   1 2676.25  122.62   1
  -5  -5  -1 2336.69  112.95   1
   5  -5   1 2402.31  124.83   4
  -5  -5  -1 2481.78  132.65   5
  -5  -5  -1 2528.58  131.06   2
   5  -5   1 2321.36  123.76   6
   5   5   1 2478.64  124.33   6
  -5   5  -1 2550.65  133.65   2
   5   5   1 2492.96  133.06   4
   6  -5   1 17.7358 20.8359   6
   6  -5   1 18.1072 21.4653   4
   6  -5   1 15.5169 20.6526   1
  -6  -5  -1  7.6301 25.3255   2
  -6   5  -1 -11.835  18.400   2
   6   5   1 10.6539 21.9137   4
   6   5   1  2.0051 21.2292   6
   7  -5   1 519.627  65.625   6
   7  -5   1 523.853  65.736   4
  -7  -5  -1 662.781  81.478   2
   7   5   1 631.588  69.012   6
   7   5   1 632.957  75.171   4
  -7   5  -1 577.705  76.198   2
   8  -5   1 15.6911 28.8051   6
  -8  -5  -1  6.0944 29.9848   2
   8  -5   1 23.1639 31.0170   4
   8   5   1  7.5263 32.2479   4
  -8   5  -1  9.7804 32.2301   2
   8   5   1 62.1355 34.9239   6
   8  -6  -1 37.0429 31.5858   4
   8  -6  -1 18.2936 29.8070   6
  -8  -6   1  2.6507 31.4696   2
  -8   6   1 -9.0245 29.5630   2
   8   6  -1 18.2523 29.9090   4
  -7  -6   1 28.9508 30.2042   5
   7  -6  -1 11.4686 26.7835   4
   7  -6  -1 16.7121 26.1973   6
  -7  -6   1 12.1784 28.6678   2
  -7   6   1 -9.3603 24.2332   2
   7   6  -1  8.3181 26.3490   4
   6  -6  -1 313.368  48.839   6
   6  -6  -1 311.909  46.848   4
  -6  -6   1 166.314  42.502   5
  -6  -6   1 208.575  44.908   2
  -6   6   1 242.163  45.072   2
   6   6  -1 264.549  44.968   4
   5  -6  -1 2488.33  127.75   6
   5  -6  -1 2649.52  121.55   1
   5  -6  -1 2562.70  129.99   4
  -5  -6   1 2569.42  135.41   2
  -5  -6   1 2446.25  132.43   5
   5   6  -1 2428.57  130.84   4
  -5   6   1 2512.14  123.82   3
  -5   6   1 2419.65  130.18   2
   5   6  -1 2537.62  120.17   6
   5   6  -1 2392.24  121.27   3
   4  -6  -1 166.314  28.945   1
  -4  -6   1 72.4417 23.8424   2
   4  -6  -1 234.246  32.476   4
  -4  -6   1 196.710  35.545   5
  -4  -6   1 210.021  25.289   1
   4  -6  -1 138.148  26.578   6
  -4   6   1 158.477  27.645   3
   4   6  -1 186.398  31.122   4
   4   6  -1 185.373  26.787   6
   4   6  -1 224.196  30.859   3
  -4   6   1 173.930  30.810   2
   3  -6  -1 69.6036 18.1264   6
  -3  -6   1 64.8651 20.1727   2
   3  -6  -1 61.2601 17.6228   1
  -3  -6   1 59.9000 14.8424   1
   3  -6  -1 68.2997 17.6916   4
  -3   6   1 53.8908 17.7954   2
   3   6  -1 68.4477 17.8756   4
  -3   6   1 117.147  23.419   3
   3   6  -1 62.3306 16.9359   3
   3   6  -1 46.3089 13.2547   6
   2  -6  -1 533.780  37.970   6
  -2  -6   1 528.009  42.401   2
  -2  -6   1 545.419  35.598   1
   2  -6  -1 490.889  35.197   4
   2  -6  -1 602.094  40.800   1
  -2   6   1 459.568  35.680   2
  -2   6   1 555.002  41.473   3
   2   6  -1 575.300  36.851   4
   2   6  -1 500.594  38.934   3
   2   6  -1 497.401  29.727   6
   1  -6  -1 3406.11  146.70   1
  -1  -6   1 3731.74  134.32   6
  -1  -6   1 3597.56  153.49   2
   1  -6  -1 3427.96  149.64   4
  -1  -6   1 3372.82  144.13   1
   1  -6  -1 3795.96  146.39   6
   1   6  -1 3515.91  144.65   4
   1   6  -1 3677.19  135.86   6
  -1   6   1 3759.81  147.81   2
   1   6  -1 3780.86  154.22   3
   0  -6  -1 1580.39   81.17   1
   0  -6   1 1842.17   83.05   1
   0  -6  -1 1842.08   83.95   4
   0  -6   1 1868.87   73.16   6
   0  -6  -1 1836.41   79.88   6
   0   6  -1 1741.10   87.47   3
   0   6  -1 1781.03   73.02   4
   0   6  -1 1878.82   89.48   2
   0   6   1 1835.65   89.34   3
   0   6   1 1704.56   79.58   2
   1  -6   1 910.897  44.783   6
  -1  -6  -1 891.331  48.545   2
  -1  -6  -1 882.412  50.261   1
  -1  -6  -1 842.352  46.061   6
   1  -6   1 806.362  39.968   4
   1  -6   1 960.278  53.032   1
   1   6   1 771.187  50.047   4
  -1   6  -1 957.295  54.779   3
   1   6   1 892.822  53.708   3
  -1   6  -1 905.946  55.062   2
   2  -6   1 152.412  25.355   1
  -2  -6  -1 205.230  25.250   1
   2  -6   1 268.387  28.277   6
   2  -6   1 189.235  21.030   4
  -2  -6  -1 233.833  29.072   2
  -2  -6  -1 245.901  25.840   6
   2   6   1 216.619  26.696   6
  -2   6  -1 159.951  25.701   2
   2   6   1 205.270  28.295   4
  -2   6  -1 237.624  29.440   3
   2   6   1 212.372  27.780   3
  -3  -6  -1 2743.49  122.02   1
   3  -6   1 2761.62  125.10   6
   3  -6   1 2710.03  126.49   1
   3  -6   1 2618.34  123.32   4
  -3  -6  -1 2870.46  129.56   2
  -3  -6  -1 2929.90  134.56   5
  -3   6  -1 2842.34  132.72   2
  -3   6  -1 2885.54  127.89   3
   3   6   1 2961.51  125.84   3
   3   6   1 2919.89  125.41   6
   3   6   1 2801.75  134.95   4
  -4  -6  -1 33.8083 19.2172   2
   4  -6   1 30.0642 17.8824   6
  -4  -6  -1 30.4131 20.7180   5
  -4  -6  -1 60.9162 18.7900   1
   4  -6   1 28.3077 16.9837   1
   4  -6   1 43.6368 17.1211   4
   4   6   1  9.0797 15.0476   6
   4   6   1 45.6304 15.6504   3
  -4   6  -1 32.6276 20.0865   2
  -4   6  -1 62.7594 18.1554   3
   4   6   1 70.0093 22.4463   4
   5  -6   1 582.676  57.263   4
   5  -6   1 589.312  57.812   1
  -5  -6  -1 586.089  63.170   2
  -5  -6  -1 671.557  70.242   5
  -5  -6  -1 746.311  50.762   1
   5  -6   1 661.383  63.058   6
   5   6   1 675.009  62.755   6
  -5   6  -1 612.914  67.879   2
   5   6   1 688.839  68.732   4
   6  -6   1 22.6280 21.4345   1
  -6  -6  -1 86.1363 35.0836   5
   6  -6   1 33.3069 22.8775   4
   6  -6   1 35.6474 24.1747   6
  -6  -6  -1 80.5537 34.4616   2
  -6   6  -1 16.7810 26.2133   2
   6   6   1 38.4806 25.8995   6
   6   6   1 51.9277 27.0004   4
   7  -6   1 892.444  87.892   6
   7  -6   1 981.368  79.708   4
  -7  -6  -1 932.935  97.393   2
  -7   6  -1 1243.68   96.39   2
   7   6   1 844.109  83.630   6
   7   6   1 1111.31   90.99   4
   8  -6   1 331.525  58.212   6
   8  -6   1 471.699  66.393   4
  -8  -6  -1 170.911  51.536   2
   8   6   1 284.572  60.806   4
  -8   6  -1 379.553  72.010   2
  -8  -7   1 785.554  98.612   2
   8  -7  -1 1047.94   99.65   4
   8  -7  -1 771.603  88.380   6
  -8   7   1 708.330  92.145   2
   8   7  -1 813.359  93.644   4
   7  -7  -1 579.203  71.835   6
  -7  -7   1 466.645  71.824   5
   7  -7  -1 556.553  68.419   4
  -7  -7   1 668.708  82.153   2
   7   7  -1 453.282  65.381   4
  -7   7   1 624.135  76.757   2
  -6  -7   1 732.486  80.460   2
   6  -7  -1 845.655  79.642   6
  -6  -7   1 890.470  89.889   5
   6  -7  -1 807.273  76.899   4
  -6   7   1 799.773  82.924   2
   6   7  -1 827.943  81.908   4
   5  -7  -1 499.434  55.215   4
  -5  -7   1 634.676  67.491   5
   5  -7  -1 549.174  58.868   6
  -5  -7   1 416.257  57.913   2
   5  -7  -1 605.448  56.922   1
   5   7  -1 589.661  60.799   4
   5   7  -1 588.034  55.958   3
  -5   7   1 574.196  58.516   3
  -5   7   1 464.038  56.330   2
   4  -7  -1 1413.84   78.56   4
  -4  -7   1 1260.43   85.66   5
  -4  -7   1 1483.96   88.34   2
   4  -7  -1 1159.23   74.76   1
   4  -7  -1 1367.25   80.03   6
  -4  -7   1 1353.83   70.25   1
  -4   7   1 1278.56   79.07   3
   4   7  -1 1351.90   78.39   3
  -4   7   1 1424.64   83.39   2
   4   7  -1 1284.64   80.03   4
   3  -7  -1 591.160  43.900   4
   3  -7  -1 586.657  44.921   6
  -3  -7   1 534.681  53.438   2
  -3  -7   1 620.876  41.280   1
   3  -7  -1 646.775  47.480   1
  -3   7   1 726.693  49.603   2
   3   7  -1 573.496  44.991   4
   3   7  -1 568.234  37.746   6
  -3   7   1 629.949  48.746   3
   3   7  -1 568.480  46.336   3
  -2  -7   1 4111.65  169.09   1
   2  -7  -1 4449.04  173.96   6
   2  -7  -1 4015.87  175.09   4
   2  -7  -1 4364.40  175.27   1
  -2  -7   1 4207.13  181.33   2
   2   7  -1 4305.88  181.55   3
  -2   7   1 4167.89  173.10   2
   2   7  -1 4242.13  161.06   6
   2   7  -1 4048.69  174.21   4
  -2   7   1 4317.80  181.98   3
   1  -7  -1 23.6258 12.2517   4
   1  -7  -1 36.8550 14.3635   1
  -1  -7   1  6.9457 14.5328   2
   1  -7  -1  7.9599 10.3129   6
  -1  -7   1 27.2925 12.3842   1
  -1  -7   1 32.5992  8.4643   6
   1   7  -1 -0.1007  9.2895   3
  -1   7   1 13.6019 13.6448   3
  -1   7   1 15.7540 12.7219   2
   1   7  -1 16.5639  9.1003   6
   1   7  -1 17.4808  9.6842   4
   0  -7  -1 1114.50   62.14   1
   0  -7  -1 1194.51   59.06   2
   0  -7  -1 1143.09   60.09   4
   0  -7  -1 1043.34   56.36   6
   0  -7   1 1050.80   60.80   1
   0  -7   1 1169.23   51.66   6
   0   7   1 1062.56   65.42   3
   0   7  -1 1177.17   66.55   2
   0   7   1 1032.02   57.44   2
   0   7   1 1274.32   64.26   4
   0   7  -1 1138.71   50.29   4
   0   7  -1 1086.45   65.32   3
  -1  -7  -1 2197.93  104.91   1
  -1  -7  -1 2391.85  104.90   2
  -1  -7  -1 2238.29  101.31   6
   1  -7   1 2390.30   98.85   6
   1  -7   1 2328.79   97.29   4
   1  -7   1 2206.95  107.61   1
  -1   7  -1 2549.76  113.91   3
   1   7   1 2377.69  111.81   3
   1   7   1 2424.27  109.89   4
  -1   7  -1 2608.63  117.57   2
   2  -7   1 3713.17  159.93   4
  -2  -7  -1 4194.04  161.24   6
   2  -7   1 4014.37  167.92   1
  -2  -7  -1 3967.54  163.99   1
   2  -7   1 4060.05  161.84   6
  -2  -7  -1 4245.06  167.36   2
   2   7   1 3756.26  172.11   4
  -2   7  -1 4128.60  171.87   3
   2   7   1 3943.05  163.19   6
  -2   7  -1 3946.17  170.92   2
   2   7   1 3669.67  168.70   3
   3  -7   1 140.148  25.550   6
   3  -7   1 142.878  27.622   1
  -3  -7  -1 107.840  24.791   2
  -3  -7  -1 144.794  30.887   5
   3  -7   1 106.483  20.197   4
  -3  -7  -1 101.010  21.584   1
   3   7   1 152.146  26.101   3
   3   7   1 134.114  27.792   4
  -3   7  -1 124.048  25.131   3
  -3   7  -1 122.034  26.937   2
   3   7   1 127.751  23.993   6
   4  -7   1 52.6887 19.4375   1
  -4  -7  -1 -12.908  12.757   1
   4  -7   1 14.3634 13.7881   4
  -4  -7  -1 44.7984 23.6030   5
   4  -7   1 30.0385 17.5252   6
  -4  -7  -1 -5.9747 15.0958   2
  -4   7  -1 35.9313 16.6390   3
  -4   7  -1 25.9221 21.3469   2
   4   7   1 37.7718 20.5429   4
   4   7   1  4.8220 14.9738   6
   4   7   1 20.9205 14.3912   3
  -5  -7  -1 293.105  49.961   5
  -5  -7  -1 297.749  47.670   2
   5  -7   1 407.083  49.513   6
   5  -7   1 241.025  36.754   4
  -5  -7  -1 251.049  35.035   1
   5  -7   1 257.349  40.033   1
   5   7   1 331.601  48.035   4
   5   7   1 217.196  38.722   6
  -5   7  -1 326.129  49.834   2
   6  -7   1 1093.76   80.68   4
   6  -7   1 1129.92   84.90   6
  -6  -7  -1 1137.76   89.94   2
  -6  -7  -1 1199.38   93.73   5
   6  -7   1 1398.77   84.25   1
   6   7   1 993.458  85.598   4
  -6   7  -1 1345.29   96.13   2
  -7  -7  -1 299.355  57.996   2
   7  -7   1 368.167  59.461   6
  -7   7  -1 391.480  64.184   2
   7   7   1 190.649  45.514   4
  -8  -7  -1  7.3135 35.8735   2
  -8   7  -1 -20.078  33.310   2
   8   8  -1 298.498  58.728   4
  -8   8   1 548.029  82.199   2
   7  -8  -1 -15.655  25.009   6
  -7  -8   1  0.5626 28.3133   2
  -7  -8   1 11.5784 32.5825   5
   7  -8  -1 -9.8528 24.6900   4
   7   8  -1 28.2899 31.1897   4
  -7   8   1 12.5086 31.9114   2
   6  -8  -1 1297.06   92.19   4
  -6  -8   1 1476.24  105.48   5
  -6  -8   1 1256.17   97.94   2
   6  -8  -1 1408.46   95.41   6
  -6   8   1 1482.17  101.63   2
   6   8  -1 1442.76   98.98   4
  -5  -8   1 131.794  35.033   2
  -5  -8   1 159.261  40.510   5
   5  -8  -1 162.396  33.360   4
   5  -8  -1 167.454  34.569   6
   5  -8  -1 156.478  32.729   1
   5   8  -1 213.887  36.979   3
  -5   8   1 145.404  34.883   2
  -5   8   1 192.464  35.942   3
   5   8  -1 214.990  38.356   4
  -4  -8   1 1452.90   92.90   2
   4  -8  -1 1496.70   86.72   1
  -4  -8   1 1645.97   81.53   1
  -4  -8   1 1496.38   96.44   5
   4  -8  -1 1403.89   85.05   4
   4  -8  -1 1544.40   88.47   6
   4   8  -1 1502.91   88.53   4
  -4   8   1 1487.93   88.99   3
   4   8  -1 1546.22   89.63   3
  -4   8   1 1557.10   90.81   2
  -3  -8   1 34.7015 16.0778   1
   3  -8  -1 11.1690 15.4482   1
  -3  -8   1 15.3823 17.8494   2
   3  -8  -1  2.7553 11.6998   4
   3  -8  -1 57.2178 18.3546   6
   3   8  -1  9.0495 13.1618   3
  -3   8   1 25.0452 17.3709   3
  -3   8   1  4.6900 14.3679   2
   3   8  -1 26.5400 15.0927   4
   2  -8  -1 1296.11   70.18   4
  -2  -8   1 1475.30   81.65   2
  -2  -8   1 1371.27   72.34   1
   2  -8  -1 1336.97   75.70   1
   2  -8  -1 1487.21   73.78   6
  -2   8   1 1352.22   80.79   3
   2   8  -1 1283.17   78.40   3
   2   8  -1 1352.75   70.00   4
  -2   8   1 1347.90   73.44   2
   1  -8  -1 39.6483 17.4329   1
  -1  -8   1 66.4433 11.3441   6
   1  -8  -1 58.1458 18.5078   4
   1  -8  -1 43.4099 14.1984   6
  -1  -8   1 65.8072 20.4793   2
  -1  -8   1 34.0386 15.2889   1
  -1   8   1 52.3949 19.6333   2
  -1   8   1  6.1686 13.4370   3
   1   8  -1 49.3107 11.5014   6
   1   8  -1 67.3546 13.3628   4
   1   8  -1 33.5849 15.5563   3
   0  -8   1 5243.23  211.26   1
   0  -8  -1 5218.93  208.40   2
   0  -8  -1 5135.85  211.27   1
   0  -8   1 5366.49  198.91   6
   0  -8  -1 5371.22  206.28   6
   0   8   1 5035.63  220.15   3
   0   8  -1 5491.75  220.11   2
   0   8   1 5269.82  216.90   4
   0   8  -1 5194.93  220.38   3
   0   8  -1 5134.06  202.78   4
  -1  -8  -1 128.555  24.193   1
  -1  -8  -1 105.849  21.359   2
   1  -8   1 124.947  24.434   1
   1  -8   1 148.852  18.295   4
  -1  -8  -1 92.5319 19.0967   6
   1  -8   1 122.557  18.733   6
  -1   8  -1 110.072  27.429   2
   1   8   1 120.227  22.448   4
  -1   8  -1 128.866  26.172   3
   1   8   1 118.120  24.032   3
   2  -8   1 114.361  20.948   6
  -2  -8  -1 118.834  23.746   1
   2  -8   1 118.785  17.056   4
   2  -8   1 177.456  30.011   1
  -2  -8  -1 147.034  22.878   6
  -2  -8  -1 170.194  26.646   2
   2   8   1 158.130  28.343   3
  -2   8  -1 107.216  24.598   2
   2   8   1 120.932  23.516   6
  -2   8  -1 204.869  31.868   3
   2   8   1 113.399  24.065   4
  -3  -8  -1 -15.642  16.632   2
  -3  -8  -1  2.3265 12.9055   1
   3  -8   1  9.8156 11.7816   4
   3  -8   1  4.3864 13.9469   1
  -3  -8  -1  6.7437 19.6186   5
   3  -8   1 10.5574 14.0530   6
   3   8   1  4.1798 13.1336   3
   3   8   1 -10.761  12.670   4
  -3   8  -1 14.7499 17.3514   2
  -3   8  -1 11.3701 13.7648   3
   3   8   1 15.0054 14.5734   6
   4  -8   1 2562.94  128.37   1
  -4  -8  -1 2565.75  121.61   1
  -4  -8  -1 2742.86  138.74   5
   4  -8   1 2751.74  128.76   6
  -4  -8  -1 2636.90  132.52   2
   4  -8   1 2512.95  122.79   4
   4   8   1 2391.69  122.24   6
   4   8   1 2709.22  128.40   3
   4   8   1 2524.93  134.30   4
  -4   8  -1 2531.06  135.04   2
  -4   8  -1 2504.43  126.86   3
   5  -8   1 -7.8694 17.1081   1
  -5  -8  -1 28.1235 20.3479   1
  -5  -8  -1 40.0447 30.4247   5
   5  -8   1 38.8141 23.1964   6
  -5  -8  -1 29.2637 25.5076   2
   5   8   1 51.5593 25.7387   4
  -5   8  -1 26.5421 27.0626   2
  -6  -8  -1 18.7526 31.7453   5
  -6  -8  -1 40.9445 29.4075   2
   6  -8   1  7.1959 23.4802   6
   6  -8   1 13.5181 25.0397   1
  -6   8  -1 -19.651  23.837   2
   6   8   1 28.9940 26.8305   4
   7  -8   1  1.2853 26.6489   6
  -7  -8  -1  1.3420 32.7522   2
   7   8   1  0.5063 25.9332   4
  -7   8  -1 28.0057 31.3289   2
  -8  -9   1 554.120  83.965   5
  -8   9   1 419.644  76.879   2
  -7  -9   1 258.700  58.943   5
   7  -9  -1 158.734  43.678   6
  -7  -9   1 254.112  59.637   2
  -7   9   1 192.043  51.431   2
   7   9  -1 230.984  50.208   4
  -6  -9   1 704.690  81.981   2
   6  -9  -1 635.472  72.215   6
  -6  -9   1 538.474  75.326   5
   6   9  -1 483.456  65.933   4
  -6   9   1 607.758  73.356   2
  -5  -9   1 78.6112 36.3128   5
   5  -9  -1 87.6983 28.9529   6
  -5  -9   1 72.6861 33.7479   2
   5  -9  -1 72.3040 27.2401   1
  -5   9   1 31.6842 22.5976   3
   5   9  -1 71.1984 26.5026   4
  -5   9   1 68.1146 29.7889   2
   5   9  -1 77.4379 28.3229   3
  -4  -9   1 1222.07   88.91   5
   4  -9  -1 1203.71   79.76   6
  -4  -9   1 1190.17   84.80   2
  -4  -9   1 1365.77   75.29   1
   4  -9  -1 1206.27   75.93   4
   4  -9  -1 1293.12   80.38   1
  -4   9   1 1328.34   83.85   2
  -4   9   1 1152.41   80.66   3
   4   9  -1 1357.51   81.84   4
   4   9  -1 1192.73   81.77   3
   3  -9  -1 1717.01   91.92   6
   3  -9  -1 1718.62   93.97   1
  -3  -9   1 1520.37   95.18   2
   3  -9  -1 1508.37   87.25   4
  -3  -9   1 1764.86   89.94   1
  -3   9   1 1854.19   95.05   2
   3   9  -1 1670.81   97.34   3
   3   9  -1 1796.95   91.46   4
  -3   9   1 1835.25  101.13   3
   2  -9  -1 2492.74  113.91   6
   2  -9  -1 2251.71  110.95   4
   2  -9  -1 2501.67  118.53   1
  -2  -9   1 2454.51  122.28   2
  -2  -9   1 2401.95  113.05   1
   2   9  -1 2268.03  121.55   3
  -2   9   1 2276.57  114.65   2
  -2   9   1 2537.60  125.81   3
   2   9  -1 2524.28  110.97   4
   1  -9  -1 397.774  41.590   1
   1  -9  -1 453.815  40.699   6
  -1  -9   1 367.030  43.767   2
   1  -9  -1 410.126  41.081   4
  -1  -9   1 407.789  41.473   1
   1   9  -1 348.204  43.458   3
  -1   9   1 393.650  42.289   2
  -1   9   1 437.014  49.061   3
   0  -9  -1 541.226  42.449   2
   0  -9   1 599.062  35.313   6
   0  -9  -1 563.554  39.654   6
   0  -9  -1 481.299  48.420   1
   0  -9   1 501.623  48.485   1
   0   9  -1 623.338  57.767   3
   0   9  -1 583.116  55.616   2
   0   9   1 530.673  54.224   3
   0   9   1 670.885  45.370   4
   1  -9   1 336.842  39.990   1
  -1  -9  -1 299.450  36.115   1
   1  -9   1 328.733  30.924   6
  -1  -9  -1 297.289  34.310   2
  -1  -9  -1 293.467  31.845   6
  -1   9  -1 300.888  39.749   3
  -1   9  -1 271.268  40.870   2
   1   9   1 286.681  38.113   3
   1   9   1 311.904  35.573   4
  -2  -9  -1 1967.59   98.46   2
  -2  -9  -1 1827.30   89.69   6
   2  -9   1 1963.48  102.45   1
   2  -9   1 1901.62   92.66   6
  -2  -9  -1 2007.39  100.18   1
  -2   9  -1 2076.43  106.13   3
  -2   9  -1 1919.24  105.08   2
   2   9   1 1890.94  103.85   3
   2   9   1 1844.39   94.34   6
   2   9   1 2053.03  101.65   4
  -3  -9  -1 14.7473 24.3139   5
   3  -9   1 69.8517 23.6170   1
   3  -9   1 100.084  24.885   6
  -3  -9  -1 64.7152 25.1011   2
  -3  -9  -1 114.280  25.323   1
   3   9   1 80.7985 24.2021   3
  -3   9  -1 115.409  26.438   3
  -3   9  -1 43.2816 23.6311   2
   3   9   1 108.774  27.055   4
   4  -9   1 154.584  31.561   6
   4  -9   1 101.793  27.994   1
  -4  -9  -1 73.4356 29.5828   5
  -4  -9  -1 131.691  28.894   1
  -4  -9  -1 90.5622 29.8034   2
  -4   9  -1 131.506  33.255   2
   4   9   1 162.054  34.777   4
  -4   9  -1 65.5121 23.8853   3
   4   9   1 156.302  32.181   3
   5  -9   1 1575.31   94.07   6
   5  -9   1 1430.19   91.67   1
  -5  -9  -1 1390.75  103.52   5
  -5  -9  -1 1353.30   95.87   2
   5   9   1 1325.92   95.34   4
  -5   9  -1 1487.00  101.68   2
  -6  -9  -1 1139.01  111.62   5
   6  -9   1 1255.85   90.78   6
   6  -9   1 1318.29   89.81   1
  -6  -9  -1 1222.12  110.26   2
  -6   9  -1 1092.22  106.21   2
   6   9   1 1326.64   97.97   4
  -7  -9  -1 469.101  73.286   5
   7  -9   1 384.109  59.529   6
  -7  -9  -1 504.896  77.426   2
  -7   9  -1 374.102  67.930   2
   7   9   1 292.959  57.702   4
  -8 -10   1 -27.242  39.646   5
   7 -10  -1 -25.374  30.279   6
  -7 -10   1 13.7821 37.5113   2
  -7 -10   1  9.2628 39.0705   5
  -6 -10   1 263.683  53.456   2
  -6 -10   1 266.142  58.430   5
   6 -10  -1 230.835  48.896   6
  -6  10   1 279.941  55.353   2
  -5 -10   1 1914.48  121.27   2
   5 -10  -1 1874.92  108.96   1
  -5 -10   1 1713.91  121.61   5
   5 -10  -1 2020.11  116.20   6
   5  10  -1 1859.71  113.53   3
  -5  10   1 1660.81  110.02   3
  -5  10   1 2285.36  123.26   2
   4 -10  -1 272.930  42.647   1
  -4 -10   1 424.945  61.029   5
  -4 -10   1 366.631  44.385   1
  -4 -10   1 470.492  60.963   2
   4 -10  -1 298.316  44.410   6
  -4  10   1 360.894  50.659   3
   4  10  -1 327.527  49.701   3
  -4  10   1 459.861  55.122   2
  -3 -10   1 37.1152 25.3200   2
  -3 -10   1 59.8485 22.7006   1
   3 -10  -1 64.9820 23.1003   1
   3 -10  -1 44.9716 21.8716   6
   3  10  -1 27.6426 19.4813   3
  -3  10   1 113.142  28.733   3
  -3  10   1 46.0844 21.3010   2
  -2 -10   1 34.5544 23.1884   2
  -2 -10   1 76.9743 22.3792   1
   2 -10  -1 56.9685 20.4892   1
   2 -10  -1 39.7115 19.3648   6
  -2  10   1 72.0682 24.0099   3
   2  10  -1 73.6187 24.9466   3
  -2  10   1 27.5611 19.4527   2
  -1 -10   1 2039.30  107.14   2
  -1 -10   1 2143.35  104.38   1
   1 -10  -1 1979.67  103.70   1
   1 -10  -1 2043.81   96.18   6
  -1  10   1 1957.48   99.27   2
   1  10  -1 1898.94  108.68   3
  -1  10   1 1924.16  108.88   3
   0 -10  -1 264.384  32.610   2
   0 -10   1 272.082  37.075   1
   0 -10  -1 236.595  29.118   6
   0 -10  -1 253.204  35.593   1
   0  10   1 193.557  34.181   3
   0  10  -1 235.145  38.454   2
   0  10  -1 242.562  37.160   3
   1 -10   1 28.9560 18.3725   1
  -1 -10  -1 64.1426 20.1532   2
  -1 -10  -1 46.3997 19.5223   1
  -1  10  -1 73.6321 25.6716   2
   1  10   1 66.9239 22.3372   3
  -1  10  -1 50.1075 18.4292   3
  -2 -10  -1 29.3414 18.9596   1
   2 -10   1 37.6548 17.0639   6
   2 -10   1 47.7754 21.0638   1
  -2 -10  -1  8.2681 17.4721   2
   2  10   1 21.8129 17.3662   4
   2  10   1 33.8103 18.4971   3
  -2  10  -1 72.8584 24.2611   3
  -2  10  -1 30.6915 23.9860   2
  -3 -10  -1 3205.78  162.17   5
  -3 -10  -1 3279.84  153.97   2
  -3 -10  -1 3310.76  151.72   1
   3 -10   1 3356.25  157.38   1
   3 -10   1 3234.09  148.58   6
  -3  10  -1 3223.12  160.02   2
   3  10   1 3023.59  156.79   3
   3  10   1 3409.76  158.44   4
  -3  10  -1 3082.63  155.93   3
   4 -10   1 521.651  58.528   1
  -4 -10  -1 534.090  55.146   1
   4 -10   1 463.213  52.123   6
  -4 -10  -1 354.236  58.206   5
  -4 -10  -1 399.306  53.969   2
   4  10   1 419.761  54.330   3
   4  10   1 386.185  50.662   4
  -4  10  -1 412.849  52.357   3
  -4  10  -1 333.289  51.482   2
  -5 -10  -1 1052.26  104.88   5
   5 -10   1 1150.88   84.24   1
   5 -10   1 1203.70   83.58   6
  -5 -10  -1 1133.01   87.30   2
  -5  10  -1 996.633  98.198   2
   5  10   1 1138.25   87.33   4
   6 -10   1 -0.2955 26.7050   6
  -6 -10  -1 -30.662  28.845   5
  -6 -10  -1  4.4452 30.7875   2
   6 -10   1 -22.069  22.346   1
   6  10   1 11.6360 27.9297   4
  -6  10  -1 19.0479 29.4733   2
  -7 -10  -1 696.067  98.370   5
  -7 -10  -1 731.745  93.134   2
   7 -10   1 766.267  86.034   6
  -7  10  -1 768.612  98.165   2
   7  10   1 837.201  94.032   4
  -8 -11   1 230.547  71.301   5
   7 -11  -1 894.125  94.145   6
  -7 -11   1 888.220 104.416   2
  -7 -11   1 989.859 115.736   5
   6 -11  -1 229.667  47.302   1
  -6 -11   1 222.050  54.428   2
   6 -11  -1 277.645  52.114   6
  -6 -11   1 158.852  53.568   5
   5 -11  -1 -22.809  21.839   6
  -5 -11   1  4.6509 28.7920   2
   5 -11  -1 -10.887  23.073   1
  -5 -11   1 48.2894 33.4712   5
  -5  11   1 10.5023 21.4170   3
   5  11  -1 20.9151 25.5065   3
  -4 -11   1 12.4799 25.6520   5
   4 -11  -1 58.1746 26.9870   6
  -4 -11   1 18.8792 21.0399   1
  -4 -11   1 35.6581 27.9487   2
   4 -11  -1 -0.8445 20.3113   1
  -4  11   1  9.8006 20.2274   3
   4  11  -1 83.0634 30.6889   3
  -3 -11   1 1789.57  110.84   2
   3 -11  -1 1969.52  108.87   1
   3 -11  -1 2221.70  108.99   6
  -3 -11   1 1927.62  104.20   1
  -3  11   1 1925.45  114.88   3
   3  11  -1 1766.57  111.66   3
  -2 -11   1 34.3966 19.9516   1
   2 -11  -1 -0.1737 17.8093   6
  -2 -11   1 13.1748 21.9225   2
   2 -11  -1  5.4602 16.3619   1
  -2  11   1 19.5504 18.3653   3
   2  11  -1  0.6821 16.0555   3
   1 -11  -1 225.239  30.857   6
   1 -11  -1 210.353  34.281   1
  -1 -11   1 229.992  37.790   2
  -1 -11   1 235.092  35.332   1
   1  11  -1 219.400  38.413   3
  -1  11   1 196.045  35.853   3
   0 -11  -1 291.883  39.967   1
   0 -11   1 222.922  35.065   1
   0  11   1 195.154  35.987   3
   0  11  -1 223.049  37.050   2
   0  11  -1 295.101  41.345   3
  -1 -11  -1 1795.65   98.55   1
   1 -11   1 1718.78   99.14   1
  -1  11  -1 1688.91  100.88   2
  -1  11  -1 1929.63  106.85   3
   1  11   1 1829.08  105.55   3
   2 -11   1 360.735  47.513   1
  -2 -11  -1 312.071  42.953   1
  -2  11  -1 353.656  47.420   3
  -2  11  -1 327.520  49.744   2
   2  11   1 302.881  46.648   3
  -3 -11  -1 230.399  47.421   5
   3 -11   1 322.144  47.089   1
   3 -11   1 396.466  44.762   6
  -3 -11  -1 236.149  39.150   1
   3  11   1 259.298  43.956   3
  -3  11  -1 326.629  46.773   3
  -3  11  -1 258.476  46.365   2
  -4 -11  -1 29.3733 25.3965   1
   4 -11   1 29.3774 24.5854   1
  -4 -11  -1 36.9569 30.9782   5
   4 -11   1 27.3534 25.4367   6
  -4  11  -1 55.8662 24.8746   3
  -4  11  -1 50.2843 31.4929   2
   4  11   1 44.4346 25.1822   3
  -5 -11  -1 1619.34  124.34   5
   5 -11   1 1782.58  115.74   1
   5 -11   1 2212.91  120.39   6
  -5  11  -1 2058.83  128.46   2
   6 -11   1 111.769  37.725   1
   6 -11   1 151.118  42.532   6
  -6 -11  -1 181.132  54.372   5
  -6  11  -1 143.345  50.928   2
  -7 -11  -1 686.556  99.815   5
   7 -11   1 742.785  87.391   6
  -7  11  -1 833.532 101.311   2
  -8 -12   1 172.961  68.994   5
  -7 -12   1 52.5370 47.0804   5
  -6 -12   1 790.555  99.414   5
   6 -12  -1 743.718  78.417   1
   6 -12  -1 569.774  75.336   6
  -6 -12   1 683.305  87.847   2
   5 -12  -1 343.268  54.152   1
  -5 -12   1 534.654  72.310   2
  -5 -12   1 365.106  66.438   5
   5 -12  -1 437.845  61.321   6
   5  12  -1 447.150  65.323   3
  -5  12   1 369.240  57.074   3
  -4 -12   1 755.681  85.919   5
   4 -12  -1 678.718  70.396   1
  -4 -12   1 809.632  84.478   2
   4 -12  -1 782.415  74.136   6
   4  12  -1 765.406  83.286   3
  -4  12   1 763.539  79.159   3
   3 -12  -1  8.0356 21.6952   6
  -3 -12   1 29.3898 26.5405   2
   3 -12  -1  3.3965 20.6486   1
  -3 -12   1  9.3797 20.3947   1
   3  12  -1  6.8491 19.6297   3
  -3  12   1 -9.6675 17.6767   3
  -2 -12   1 344.925  49.313   2
   2 -12  -1 431.018  50.871   1
  -2 -12   1 282.490  42.549   1
  -2  12   1 483.612  58.759   3
   2  12  -1 445.083  58.671   3
   1 -12  -1 2027.10  115.88   1
  -1 -12   1 2354.13  118.95   1
  -1 -12   1 2451.32  122.33   2
   1  12  -1 2197.44  124.32   3
  -1  12   1 2176.05  125.54   3
   0 -12  -1 1492.64   89.25   1
   0 -12   1 1536.19   89.59   1
   0 -12   1 1383.49   87.71   2
   0  12  -1 1357.63   91.82   3
   0  12   1 1424.19   92.70   3
  -1 -12  -1 626.287  60.965   1
   1 -12   1 617.029  60.240   1
   1  12   1 548.491  61.630   3
  -1  12  -1 552.678  62.072   3
  -1  12  -1 529.234  60.211   2
  -2 -12  -1 134.275  33.238   1
   2 -12   1 76.6807 26.6802   1
   2  12   1 104.746  30.690   3
  -2  12  -1 60.6203 32.4319   2
  -2  12  -1 103.808  29.973   3
   3 -12   1 325.132  48.969   1
  -3 -12  -1 248.716  43.431   1
  -3 -12  -1 316.792  54.951   5
   3  12   1 274.828  47.852   3
  -3  12  -1 264.005  44.031   3
  -3  12  -1 250.241  49.536   2
   4 -12   1 1357.91   95.09   1
  -4 -12  -1 1326.45   90.39   1
  -4 -12  -1 1276.18  101.86   5
   4  12   1 1134.76   92.42   3
  -4  12  -1 1360.96   93.12   3
  -4  12  -1 1540.49  106.33   2
  -5 -12  -1 84.0506 40.3977   5
   5 -12   1 19.9808 29.9588   1
  -5  12  -1 26.2163 36.6496   2
   6 -12   1  3.8116 33.0403   6
   6 -12   1 -9.2345 27.9330   1
  -6 -12  -1 18.6092 38.8772   5
  -7 -12  -1 957.322 121.485   5
  -8 -13   1 486.020  96.507   5
  -7 -13   1 29.4810 50.7038   5
   6 -13  -1 292.304  53.595   1
  -6 -13   1 247.936  63.417   5
   6 -13  -1 337.186  61.678   6
  -5 -13   1 135.098  50.825   5
   5 -13  -1 188.141  44.375   1
   5  13  -1 240.281  53.485   3
  -5  13   1 67.7248 34.0832   3
  -4 -13   1 1686.20  118.73   5
   4 -13  -1 1650.06  105.63   1
  -4  13   1 1653.75  111.23   3
   4  13  -1 1534.13  111.86   3
  -3 -13   1 10.3455 23.1573   1
   3 -13  -1 49.7754 25.1438   1
   3  13  -1  4.7911 21.7436   3
  -3  13   1 62.1042 27.1386   3
  -2 -13   1 2850.94  140.73   1
   2 -13  -1 2754.09  143.43   1
   2  13  -1 2632.47  151.11   3
  -1 -13   1 91.8599 30.0972   1
   1 -13  -1 68.6703 27.0168   1
   1  13  -1 76.5782 28.2694   3
  -1  13   1 42.6277 24.4026   3
   0 -13   1 79.5189 27.1167   1
   0 -13  -1 93.9143 30.1373   1
   0  13  -1 114.820  30.800   3
   0  13   1 59.2064 26.1822   3
   1 -13   1 29.2386 22.9226   1
  -1 -13  -1 67.0567 27.6336   1
   1  13   1 35.7032 22.1034   3
  -1  13  -1 122.419  32.408   3
  -2 -13  -1 2040.55  116.31   1
   2 -13   1 2090.59  119.45   1
  -2  13  -1 2027.41  122.60   3
   2  13   1 2068.34  122.88   3
  -3 -13  -1 104.377  31.414   1
   3 -13   1 79.6193 32.2772   1
  -3 -13  -1 67.5146 34.7645   5
   3  13   1 101.519  33.363   3
  -3  13  -1 99.6448 30.5540   3
  -4 -13  -1 50.6934 32.1536   1
   4 -13   1 33.7940 28.5340   1
  -4 -13  -1 71.2272 38.1064   5
  -4  13  -1 15.2512 23.3190   3
   4  13   1  4.9414 25.4564   3
  -5 -13  -1 195.568  54.114   5
   5 -13   1 174.220  44.860   1
   6 -13   1 1174.38  107.17   1
  -6 -13  -1 1392.10  139.58   5
  -7 -13  -1  9.2146 48.2372   5
  -8 -14   1 47.8799 66.1044   5
  -7 -14   1 -76.299  40.978   5
  -6 -14   1 844.773 109.610   5
   5 -14  -1 219.586  46.912   1
  -5 -14   1 366.532  69.810   5
   5  14  -1 193.560  53.764   3
   4 -14  -1 898.406  87.447   1
  -4 -14   1 906.414  98.860   5
  -4  14   1 938.995  95.018   3
   4  14  -1 847.386  96.130   3
   3 -14  -1 11.3820 24.1873   1
  -3 -14   1 22.4277 26.0753   1
   3  14  -1 -4.3694 21.5479   3
  -3  14   1 -1.4731 20.5792   3
  -2 -14   1 578.450  64.028   1
   2 -14  -1 486.644  60.170   1
   2  14  -1 665.763  76.374   3
  -2  14   1 578.860  70.321   3
  -1 -14   1 565.915  63.931   1
   1 -14  -1 528.571  61.797   1
   1  14  -1 612.647  73.539   3
  -1  14   1 708.233  75.096   3
   0 -14   1 1587.78  101.82   1
   0 -14  -1 1618.14  103.30   1
   0  14  -1 1655.82  108.81   3
   0  14   1 1734.16  110.86   3
  -1 -14  -1 224.532  43.178   1
   1 -14   1 158.528  35.875   1
  -1  14  -1 64.1097 26.6751   3
   1  14   1 100.058  32.968   3
  -2 -14  -1 104.237  33.453   1
   2 -14   1 54.3912 28.8067   1
  -2  14  -1 190.289  40.883   3
   2  14   1 141.305  39.902   3
  -3 -14  -1 199.466  43.744   1
  -3 -14  -1 174.100  46.664   5
   3 -14   1 243.833  47.499   1
   3  14   1 245.120  48.793   3
  -3  14  -1 368.684  58.677   3
   4 -14   1 635.022  76.586   1
  -4 -14  -1 683.448  89.171   5
  -4 -14  -1 859.120  87.063   1
  -4  14  -1 896.623  87.697   3
   4  14   1 925.273  96.772   3
  -5 -14  -1 -4.6281 36.3017   5
   5 -14   1 57.6453 37.9924   1
  -6 -14  -1 29.1212 47.9118   5
  -7 -14  -1 77.7529 56.1738   5
  -8 -15   1 289.831  89.625   5
  -7 -15   1 844.017 121.507   5
  -6 -15   1 70.5801 51.5102   5
  -5 -15   1 19.8581 40.2980   5
   5  15  -1 -32.993  30.673   3
   4 -15  -1 68.2734 33.4228   1
  -4 -15   1 50.0829 39.6905   5
   4  15  -1 97.9410 40.6863   3
  -4  15   1 105.942  37.843   3
  -3 -15   1 1227.85   93.72   1
   3 -15  -1 1313.14   96.48   1
  -3  15   1 1448.66  105.46   3
   3  15  -1 1353.36  106.28   3
  -2 -15   1 365.213  54.662   1
   2  15  -1 304.666  53.487   3
  -2  15   1 308.936  52.365   3
   1 -15  -1 -7.4469 22.8360   1
  -1 -15   1 16.0017 25.9641   1
  -1  15   1 36.4610 22.8643   3
   1  15  -1 33.6222 25.8966   3
   0 -15   1 82.5641 33.2562   1
   0 -15  -1 82.2939 34.8573   1
   0  15  -1 68.8735 30.3097   3
   0  15   1 137.535  36.443   3
   1 -15   1 1259.64   92.83   1
  -1 -15  -1 1376.88   95.77   1
  -1  15  -1 1264.14   96.68   3
   1  15   1 1412.17  101.03   3
   2 -15   1 537.400  68.266   1
  -2 -15  -1 656.732  72.543   1
   2  15   1 757.225  85.351   3
  -2  15  -1 730.732  80.450   3
   3 -15   1 474.020  65.007   1
  -3 -15  -1 274.976  53.808   1
  -3 -15  -1 334.239  61.059   5
  -3  15  -1 440.789  63.362   3
   3  15   1 458.990  67.046   3
   4 -15   1  2.7326 26.3651   1
  -4 -15  -1 22.6536 36.8887   5
   4  15   1 12.4741 31.6319   3
  -4  15  -1 35.5670 27.7163   3
  -5 -15  -1 537.947  86.570   5
  -6 -15  -1 238.048  70.082   5
  -7 -15  -1 238.116  77.977   5
  -8 -16   1 23.0533 62.9289   5
  -7 -16   1 11.5122 52.2328   5
  -6 -16   1 27.2142 46.5036   5
  -5 -16   1 1141.44  126.63   5
  -4 -16   1 25.2543 39.7658   5
  -4  16   1 63.9111 36.0004   3
   4  16  -1 29.8105 35.1769   3
   3 -16  -1 56.0690 33.5496   1
  -3 -16   1 39.9955 36.9344   1
  -3  16   1 19.3393 25.8666   3
   3  16  -1 132.192  42.791   3
  -2 -16   1 12.1764 27.9875   1
   2 -16  -1 21.6223 26.4855   1
  -2  16   1 17.4494 24.8099   3
   2  16  -1 34.6777 28.7628   3
  -1 -16   1 1002.95   91.06   1
   1 -16  -1 826.808  86.614   1
  -1  16   1 933.723  95.795   3
   1  16  -1 959.081  97.874   3
   0 -16   1 42.9901 27.8467   1
   0 -16  -1  6.0568 24.1189   1
   0  16  -1 -6.3668 20.8895   3
   0  16   1 -15.453  19.391   3
   1 -16   1 66.1728 32.8448   1
  -1 -16  -1 78.4211 35.7486   1
   1  16   1 124.628  39.155   3
  -1  16  -1 66.4838 31.5252   3
  -2 -16  -1 48.5901 35.6569   1
   2 -16   1 52.0253 29.3461   1
   2  16   1 71.5227 33.5392   3
  -2  16  -1 73.6150 33.9789   3
  -3 -16  -1 1310.75  123.40   5
  -3 -16  -1 1569.74  111.70   1
   3 -16   1 1478.19  108.73   1
   3  16   1 1485.09  114.99   3
  -3  16  -1 1605.55  112.87   3
  -4 -16  -1  3.6052 35.8985   5
   4  16   1 75.0658 41.5145   3
  -4  16  -1 -5.9003 28.7765   3
  -5 -16  -1 345.600  76.330   5
  -6 -16  -1 62.0573 57.5848   5
  -7 -16  -1 383.718  90.518   5
  -7 -17   1 592.047 111.660   5
  -6 -17   1 204.044  68.697   5
  -5 -17   1 53.6862 48.6570   5
  -4 -17   1 174.052  55.491   5
  -2 -17   1 498.839  69.702   1
  -1 -17   1  0.1155 28.3503   1
   1 -17  -1 -17.979  28.028   1
   1  17  -1 -6.5522 24.2524   3
  -1  17   1 19.4387 25.9204   3
   0 -17  -1 62.9609 33.3435   1
   0 -17   1 239.961  50.257   1
   0  17   1 140.295  42.780   3
   0  17  -1 77.9759 38.2804   3
  -1 -17  -1 967.845  96.238   1
  -1  17  -1 1078.23  107.69   3
   1  17   1 1132.89  107.13   3
  -2 -17  -1 469.393  69.190   5
  -2 -17  -1 324.277  58.651   1
  -2  17  -1 348.091  60.590   3
   2  17   1 306.249  58.818   3
  -3 -17  -1 122.247  46.402   5
  -4 -17  -1 34.4726 44.5410   5
  -5 -17  -1 322.335  80.450   5
  -6 -17  -1 421.356  93.329   5
  -7 -17  -1 204.855  78.296   5
  -7 -18   1 14.6442 61.2207   5
  -6 -18   1 316.819  81.796   5
  -5 -18   1 29.9894 51.5484   5
  -4 -18   1 493.912  83.585   5
  -3 -18   1 -13.342  34.582   5
  -3 -18  -1 201.792  56.223   5
  -4 -18  -1 889.246 110.042   5
  -5 -18  -1 75.5147 54.6435   5
  -6 -18  -1 -24.851  51.334   5
  -7 -18  -1  0.0981 60.5417   5
  -6 -19   1 382.372  92.679   5
  -5 -19   1 70.6924 52.7097   5
  -4 -19   1 215.165  62.823   5
  -3 -19   1 143.920  50.717   5
  -3 -19  -1 35.6445 47.2557   5
  -4 -19  -1 21.4620 44.4114   5
  -5 -19  -1 25.1910 52.2220   5
  -6 -19  -1 443.010  97.072   5
  -5 -20   1 370.218  83.401   5
  -4 -20   1 172.970  67.623   5
  -3 -20   1 32.1683 47.8208   5
  -4 -20  -1 159.820  62.674   5
  -5 -20  -1 297.086  81.343   5
  -4 -21   1 -2.9890 53.7900   5
  -3 -21   1 626.482  97.428   5
   9   0  -2 -4.8029 29.0964   6
   8   0  -2  5.5388 25.9621   4
   8   0  -2 28.7466 28.4863   6
  -8   0   2 18.5213 28.3546   2
   7   0  -2  6.1893 20.6694   6
   7   0  -2 -33.281  17.911   4
  -7   0   2 -3.7532 21.8532   2
   6   0  -2 5248.47  246.16   4
  -6   0   2 5695.64  244.94   2
   6   0  -2 5414.35  234.40   6
  -5   0   2 -12.356  12.251   3
  -5   0   2  0.5309 15.3216   2
   5   0  -2 -2.5179 12.2398   6
   5   0  -2 -8.9538 11.1411   4
   4   0  -2 2987.76  133.75   6
  -4   0   2 3005.43  138.97   2
   4   0  -2 2965.49  117.43   1
   4   0  -2 3283.17  143.27   4
   4   0  -2 3089.31  134.59   3
  -3   0   2 15.2901 11.4117   2
   3   0  -2 22.6852 11.8843   4
   3   0  -2 20.0433  6.9598   1
   3   0  -2 11.9241  9.4500   6
   3   0  -2 2.19110 8.61490   3
   2   0  -2 4788.29  183.77   3
   2   0  -2 4749.27  179.31   6
  -2   0   2 4510.63  182.20   2
   2   0  -2 4724.02  188.32   4
   1   0  -2 6.43584 6.38373   4
   1   0  -2 7.80284 6.02001   6
  -1   0   2 2.18229 5.84803   2
   1   0  -2 -0.6396  3.2286   1
   1   0  -2 -6.2101  5.1695   3
   0   0  -2 3860.85  136.47   3
   0   0  -2 3744.07  132.47   1
   0   0  -2 3133.63  145.20   4
   0   0  -2 3675.54  134.73   6
   1   0   2 2.99903 7.49279   4
   1   0   2 -10.039   5.926   6
  -1   0  -2 -17.587   4.906   1
  -1   0  -2 -5.3352  6.3630   2
  -2   0  -2 1144.89   54.56   1
  -2   0  -2 1082.07   57.65   2
   2   0   2 1134.05   58.23   4
   2   0   2 1134.63   57.28   6
  -3   0  -2 11.9765 10.8399   1
   3   0   2  8.2311 10.2656   4
  -3   0  -2 16.3267 12.6915   2
   3   0   2  2.7766 10.5419   6
   4   0   2 1660.31   87.99   4
  -4   0  -2 1494.99   86.86   2
  -4   0  -2 1602.14   78.48   1
   4   0   2 1570.29   85.02   6
  -5   0  -2 13.1538 14.2426   1
   5   0   2 -6.7583 13.1763   4
   5   0   2  0.6964 13.3994   6
  -5   0  -2 -17.835  14.452   2
   6   0   2 292.172  43.365   4
   6   0   2 188.194  36.061   6
  -6   0  -2 234.943  42.382   2
   6   0   2 253.978  40.602   1
  -6   0  -2 178.819  31.228   1
   7   0   2 19.6241 24.7787   6
   7   0   2 -14.412  18.911   4
  -7   0  -2 25.1396 26.3356   2
  -8   0  -2 1446.09  113.94   2
   8   0   2 1630.02  113.02   4
   9   1  -2 119.554  43.475   6
   8  -1  -2 1322.77  101.34   6
  -8  -1   2 1308.05  105.75   2
   8  -1  -2 1447.19  106.89   4
  -8   1   2 1523.92  111.27   2
   8   1  -2 1488.04  102.43   6
   8   1  -2 1354.41  104.95   4
  -7  -1   2 275.554  51.388   2
   7  -1  -2 206.500  40.320   6
   7  -1  -2 212.223  41.016   4
   7   1  -2 281.013  44.531   6
   7   1  -2 279.391  49.001   4
  -7   1   2 235.055  47.743   2
   6  -1  -2 62.6339 23.5450   4
  -6  -1   2 67.9330 27.5409   2
   6  -1  -2 62.1489 22.8688   6
   6   1  -2 85.5726 25.4466   6
   6   1  -2 60.5419 22.9219   4
  -6   1   2 45.6142 23.8317   2
  -5  -1   2 668.192  57.157   5
  -5  -1   2 584.714  58.733   2
   5  -1  -2 632.619  56.060   6
   5  -1  -2 564.062  56.317   4
   5   1  -2 607.312  46.983   3
   5   1  -2 522.166  51.414   6
  -5   1   2 590.859  47.451   3
  -5   1   2 599.110  58.414   2
   5   1  -2 448.741  50.273   4
   4  -1  -2 3146.28  142.18   6
   4  -1  -2 3205.58  149.76   4
   4  -1  -2 3357.97  128.08   1
  -4  -1   2 3443.50  149.81   2
   4   1  -2 3224.87  141.60   6
  -4   1   2 3257.26  144.52   3
   4   1  -2 3286.68  150.62   4
   4   1  -2 3422.26  144.79   3
  -4   1   2 3374.25  148.32   2
   4   1  -2 3314.87  126.16   1
  -3  -1   2 1666.95   63.87   1
   3  -1  -2 1624.94   67.70   1
  -3  -1   2 1731.41   83.18   2
   3  -1  -2 1573.82   81.66   4
   3  -1  -2 1616.93   79.19   6
  -3   1   2 1794.53   82.25   2
   3   1  -2 1676.87   77.45   6
   3   1  -2 1779.81   83.65   4
   3   1  -2 1771.04   81.30   3
  -3   1   2 1680.76   81.93   3
  -2  -1   2 3219.05  131.49   2
   2  -1  -2 3076.96  118.09   1
   2  -1  -2 3244.25  129.04   6
   2  -1  -2 3268.14  134.54   4
  -2   1   2 3230.11  129.15   2
   2   1  -2 3298.82  133.88   4
   2   1  -2 3212.33  125.84   6
  -2   1   2 3389.04  133.67   3
   2   1  -2 3108.60  130.86   3
  -1  -1   2 231.793  11.836   1
   1  -1  -2 227.547  17.658   4
  -1  -1   2 251.130  19.237   2
   1  -1  -2 210.278  13.309   1
   1  -1  -2 224.578  19.183   6
   1   1  -2 240.406  16.933   4
   1   1  -2 233.191  15.144   6
  -1   1   2 206.409  20.395   3
   1   1  -2 233.225  18.764   3
  -1   1   2 214.343  15.305   2
   0  -1  -2 3262.84  123.21   6
   0  -1  -2 3354.16  119.82   1
   0  -1  -2 3146.04  135.04   4
   0   1  -2 3004.92  128.57   4
   0   1   2 3166.01  123.52   3
   0   1  -2 3253.61  122.44   3
   0   1  -2 3158.26  118.87   6
   0   1  -2 3305.40  129.24   2
   0   1  -2 3311.67  119.23   1
  -1  -1  -2 290.187  20.874   6
  -1  -1  -2 280.269  20.687   2
   1  -1   2 339.649  21.587   4
  -1  -1  -2 312.321  21.524   1
   1  -1   2 313.314  21.413   6
   1   1   2 303.148  16.243   3
  -1   1  -2 238.945  22.735   2
   1   1   2 321.100  23.960   4
  -1   1  -2 293.361  20.754   1
  -1   1  -2 296.089  15.219   3
   1   1   2 256.777  23.860   6
  -2  -1  -2 632.881  40.000   2
  -2  -1  -2 742.102  39.318   1
   2  -1   2 710.742  40.779   6
   2  -1   2 636.870  38.815   4
   2   1   2 657.406  27.832   3
  -2   1  -2 674.102  37.964   1
  -2   1  -2 667.714  41.715   2
   2   1   2 698.945  40.980   6
   2   1   2 684.558  41.990   4
   3  -1   2 18.7591 11.0551   4
  -3  -1  -2  1.8190 11.0313   2
  -3  -1  -2 -4.2521  8.7081   1
   3  -1   2 6.87766 9.70670   6
   3   1   2 17.4358 11.1488   4
   3   1   2 11.7323  5.0484   3
   3   1   2 18.6771 11.7726   6
  -3   1  -2 -3.0855 10.6363   2
  -3   1  -2 9.97323 9.41367   1
   4  -1   2 1018.60   65.90   4
   4  -1   2 1098.98   67.02   6
  -4  -1  -2 1255.60   63.55   1
  -4  -1  -2 1072.73   68.87   2
   4   1   2 1112.00   69.34   4
  -4   1  -2 1160.49   61.53   1
  -4   1  -2 1083.68   70.21   2
   4   1   2 1040.35   66.09   6
   5  -1   2 2385.42  122.77   6
  -5  -1  -2 2560.73  113.74   1
   5  -1   2 2380.89  117.44   1
  -5  -1  -2 2556.21  128.41   2
   5  -1   2 2272.55  122.86   4
   5   1   2 2458.87  128.13   4
   5   1   2 2392.20  122.61   6
  -5   1  -2 2419.54  128.16   2
   6  -1   2 1174.99   85.11   4
  -6  -1  -2 1265.47   75.04   1
   6  -1   2 1238.25   85.15   6
   6  -1   2 1449.47   85.40   1
  -6  -1  -2 1432.30   93.87   2
  -6   1  -2 1211.32   88.99   2
   6   1   2 1259.96   86.84   4
   6   1   2 1304.70   87.08   6
   7  -1   2 181.692  40.519   4
   7  -1   2 141.087  37.873   6
  -7  -1  -2 118.220  39.364   2
  -7   1  -2 121.102  37.761   2
   7   1   2 163.143  39.566   4
   7   1   2 213.386  42.984   6
  -8  -1  -2 157.504  44.932   2
   8  -1   2 79.0843 34.2010   4
   8  -1   2 53.4746 31.3633   6
   8   1   2 122.876  40.392   4
  -8   1  -2 94.6158 42.6636   2
   8   1   2 121.593  41.594   6
   9   2  -2 443.217  68.829   6
   8  -2  -2 33.3935 29.1721   4
  -8  -2   2  7.7573 30.2036   2
   8  -2  -2 70.6196 32.3823   6
  -8   2   2 96.6490 36.2712   2
   8   2  -2 24.1185 26.7050   4
   8   2  -2 16.6752 25.1449   6
   7  -2  -2 461.851  59.656   4
   7  -2  -2 442.452  57.340   6
  -7  -2   2 506.505  66.852   2
   7   2  -2 406.767  57.165   4
   7   2  -2 410.484  54.032   6
  -7   2   2 377.007  57.723   2
  -6  -2   2 1031.29   79.71   2
   6  -2  -2 1186.89   80.90   4
   6  -2  -2 1039.27   75.90   6
  -6   2   2 1166.40   83.51   2
   6   2  -2 1189.92   76.86   6
   6   2  -2 1154.59   80.20   4
   5  -2  -2 3648.95  160.33   6
  -5  -2   2 3329.30  163.16   2
   5  -2  -2 3619.21  166.03   4
  -5  -2   2 3402.74  157.81   5
  -5   2   2 3370.11  155.10   3
   5   2  -2 3324.45  153.95   6
   5   2  -2 3652.14  166.12   4
   5   2  -2 3570.19  157.22   3
  -5   2   2 3517.68  163.91   2
   4  -2  -2 202.973  22.088   1
   4  -2  -2 218.704  30.268   6
  -4  -2   2 167.732  28.309   2
   4  -2  -2 197.448  29.167   4
  -4  -2   2 239.125  17.807   1
   4   2  -2 204.715  28.502   3
   4   2  -2 185.367  29.050   4
  -4   2   2 224.023  30.052   3
  -4   2   2 205.875  29.641   2
   4   2  -2 208.245  27.365   6
  -3  -2   2 301.635  17.708   1
   3  -2  -2 300.470  22.606   1
   3  -2  -2 266.574  30.045   4
   3  -2  -2 359.729  33.951   6
  -3  -2   2 291.553  32.628   2
  -3   2   2 277.128  30.511   2
   3   2  -2 330.447  32.531   4
   3   2  -2 287.061  30.145   3
  -3   2   2 310.113  33.492   3
   3   2  -2 314.200  28.339   6
   2  -2  -2 561.196  30.573   1
  -2  -2   2 640.895  26.141   1
  -2  -2   2 567.828  37.997   2
   2  -2  -2 659.984  37.501   6
   2  -2  -2 608.260  37.409   4
   2   2  -2 629.175  32.119   6
  -2   2   2 593.980  35.188   2
   2   2  -2 589.313  35.611   4
   2   2  -2 629.492  37.646   3
  -2   2   2 619.757  38.776   3
   1  -2  -2 2305.23   95.06   4
  -1  -2   2 2227.24   94.68   2
   1  -2  -2 2154.89   91.66   6
   1  -2  -2 2392.39   86.95   1
  -1  -2   2 2158.17   83.74   1
   1   2  -2 2235.05   92.92   3
  -1   2   2 2223.93   94.35   3
  -1   2   2 2168.86   85.96   2
   1   2  -2 2316.97   90.94   4
   1   2  -2 2236.40   83.97   6
   0  -2  -2 112.640  12.930   1
   0  -2   2 93.9707 12.3827   1
   0  -2  -2 72.5187 16.6541   4
   0  -2   2 88.0981  9.0049   6
   0  -2  -2 99.1468 13.0875   6
   0   2  -2 97.1307 10.9640   4
   0   2   2 100.405  12.723   3
   0   2  -2 84.1858 11.3539   3
   0   2  -2 90.9153 17.2938   2
  -1  -2  -2 1558.91   71.87   6
  -1  -2  -2 1697.75   71.89   1
   1  -2   2 1678.48   71.20   6
   1  -2   2 1662.67   74.31   1
   1  -2   2 1645.88   71.10   4
  -1  -2  -2 1685.39   70.49   2
  -1   2  -2 1812.72   68.54   3
  -1   2  -2 1739.84   76.45   2
   1   2   2 1718.99   70.18   3
   1   2   2 1661.68   79.93   4
   1   2   2 1781.54   76.15   6
  -2  -2  -2 522.338  34.075   2
   2  -2   2 509.900  34.960   1
  -2  -2  -2 490.869  31.453   1
   2  -2   2 501.372  31.402   4
   2  -2   2 475.289  33.001   6
   2   2   2 497.009  36.220   4
   2   2   2 452.924  24.270   3
  -2   2  -2 459.622  24.976   3
  -2   2  -2 465.505  35.433   2
   2   2   2 477.026  34.301   6
   3  -2   2 8840.61  341.67   4
   3  -2   2 8316.97  324.83   1
  -3  -2  -2 8599.55  321.24   1
   3  -2   2 8604.85  330.54   6
  -3  -2  -2 8352.73  333.34   2
   3   2   2 8682.25  317.16   3
   3   2   2 8556.19  331.05   6
   3   2   2 8883.74  348.12   4
  -3   2  -2 8717.21  317.57   3
  -3   2  -2 8892.26  337.90   2
  -4  -2  -2 1458.01   82.94   2
   4  -2   2 1364.84   77.02   1
  -4  -2  -2 1476.48   73.50   1
   4  -2   2 1271.78   77.17   6
   4  -2   2 1395.01   78.19   4
  -4   2  -2 1494.24   84.06   2
   4   2   2 1388.14   79.23   6
   4   2   2 1438.06   83.12   4
  -5  -2  -2 110.193  24.219   1
   5  -2   2 88.4851 24.9106   6
   5  -2   2 107.641  25.653   4
   5  -2   2 192.384  33.667   1
  -5  -2  -2 106.944  28.047   2
   5   2   2 140.544  30.128   6
  -5   2  -2 88.1997 28.7221   2
   5   2   2 108.257  27.825   4
  -6  -2  -2 14.0336 18.0771   1
   6  -2   2 20.7785 20.0212   4
  -6  -2  -2  5.2349 18.5904   2
   6  -2   2  5.4501 18.9203   1
   6  -2   2 20.8495 20.4709   6
  -6   2  -2  4.8443 18.6900   2
   6   2   2 -0.1843 15.6725   4
   6   2   2 -1.6767 18.5432   6
   7  -2   2 1385.57   99.96   6
  -7  -2  -2 1597.87  110.88   2
   7  -2   2 1637.60  105.53   4
   7   2   2 1397.18  101.07   6
  -7   2  -2 1494.20  107.90   2
   7   2   2 1745.82  111.08   4
  -8  -2  -2 26.8466 36.1284   2
   8  -2   2 61.0524 33.7012   6
   8  -2   2 77.5288 34.7117   4
   8   2   2 29.3968 32.2886   4
   8   2   2 42.9182 33.2566   6
  -8   2  -2 -2.4664 32.0002   2
   8  -3  -2 373.821  58.736   6
   8  -3  -2 585.678  72.297   4
  -8  -3   2 429.896  67.151   2
  -8   3   2 382.995  65.462   2
   8   3  -2 418.913  65.546   4
   8   3  -2 422.719  60.506   6
   7  -3  -2 1150.08   88.04   4
   7  -3  -2 1126.17   86.17   6
  -7  -3   2 1219.95   92.99   2
   7   3  -2 1307.02   93.80   4
   7   3  -2 1201.89   85.39   6
  -7   3   2 1315.87   95.59   2
   6  -3  -2 71.4996 26.7489   4
  -6  -3   2 66.5558 27.9656   5
  -6  -3   2 99.4431 30.0384   2
   6  -3  -2 119.900  30.829   6
  -6   3   2 165.692  36.496   2
   6   3  -2 131.918  30.854   4
   6   3  -2 78.5378 25.5573   6
  -5  -3   2 243.284  39.671   2
   5  -3  -2 347.506  42.975   4
   5  -3  -2 277.555  39.654   6
  -5  -3   2 331.396  43.644   5
  -5   3   2 316.417  39.295   3
   5   3  -2 280.395  37.583   3
   5   3  -2 282.995  36.564   6
  -5   3   2 318.773  43.373   2
   5   3  -2 344.795  43.018   4
  -4  -3   2 60.4334 20.6206   5
   4  -3  -2 72.6153 15.6833   1
   4  -3  -2 53.6228 17.7149   6
   4  -3  -2 71.9105 19.1320   4
  -4  -3   2 51.0716 11.1420   1
  -4  -3   2 58.7624 19.8287   2
  -4   3   2 51.0906 17.2898   2
   4   3  -2 67.7245 18.8149   4
   4   3  -2 59.4461 17.3677   3
   4   3  -2 63.4451 16.9599   6
  -4   3   2 63.7445 18.3933   3
   3  -3  -2 5968.24  245.58   4
   3  -3  -2 5836.95  224.38   1
  -3  -3   2 5897.66  241.39   2
  -3  -3   2 6049.44  217.46   1
   3  -3  -2 6200.02  236.55   6
   3   3  -2 6230.66  245.01   4
  -3   3   2 5999.77  237.02   2
   3   3  -2 5885.29  228.75   6
  -3   3   2 6133.88  239.86   3
   3   3  -2 5934.32  237.51   3
  -2  -3   2 137.010  12.784   1
   2  -3  -2 93.4622 16.1880   4
   2  -3  -2 115.041  15.570   1
   2  -3  -2 132.884  18.779   6
  -2  -3   2 111.656  19.659   2
   2   3  -2 129.752  19.145   3
   2   3  -2 130.842  13.670   6
  -2   3   2 123.592  16.543   2
  -2   3   2 120.661  19.201   3
   2   3  -2 113.569  16.239   4
  -1  -3   2 1088.48   54.49   2
  -1  -3   2 1038.20   45.13   1
   1  -3  -2 1014.59   47.31   1
   1  -3  -2 880.856  48.553   6
   1  -3  -2 971.813  50.769   4
  -1   3   2 996.430  42.635   2
  -1   3   2 1072.37   52.68   3
   1   3  -2 1016.22   50.21   3
   1   3  -2 1004.40   44.94   4
   0  -3  -2 620.787  32.447   1
   0  -3  -2 587.384  33.483   6
   0  -3   2 520.740  31.101   1
   0  -3  -2 606.061  40.826   4
   0   3   2 589.613  33.601   3
   0   3  -2 546.371  31.938   3
   0   3  -2 576.807  42.150   2
   1  -3   2 6798.56  251.64   1
  -1  -3  -2 6797.72  249.16   1
   1  -3   2 6785.39  255.77   4
   1  -3   2 6669.03  249.41   6
  -1  -3  -2 6780.97  249.77   2
  -1  -3  -2 6742.47  252.02   6
   1   3   2 6754.04  254.43   3
  -1   3  -2 6376.88  258.10   2
  -1   3  -2 6998.07  252.50   3
   1   3   2 6763.49  255.39   6
   1   3   2 6677.34  269.35   4
  -2  -3  -2 454.410  32.885   2
   2  -3   2 433.608  29.148   4
  -2  -3  -2 434.742  30.598   1
   2  -3   2 503.421  33.271   6
   2  -3   2 420.203  33.594   1
  -2   3  -2 467.610  36.001   2
   2   3   2 433.555  36.207   4
   2   3   2 493.979  27.606   3
  -2   3  -2 446.455  27.592   3
   2   3   2 429.700  33.246   6
  -3  -3  -2  8.2354 11.3507   1
  -3  -3  -2 -2.4701 11.1893   2
   3  -3   2 41.5404 14.5964   6
   3  -3   2 31.6128 14.4983   1
  -3  -3  -2 25.7387 17.0616   5
   3  -3   2  9.7197 10.0847   4
   3   3   2 36.1420 15.5870   4
  -3   3  -2 33.2894 10.3652   3
  -3   3  -2 48.6139 17.1542   2
   3   3   2 22.1960  7.7355   3
   3   3   2 14.4252 12.6121   6
   4  -3   2  7.6046 12.4553   6
  -4  -3  -2 49.7207 20.5134   2
   4  -3   2 65.4844 19.8921   1
  -4  -3  -2 47.3793 16.6974   1
   4  -3   2 32.7632 15.7078   4
   4   3   2 12.6187 13.7925   6
   4   3   2 11.9491 13.4448   4
   4   3   2 39.7918 11.3590   3
  -4   3  -2 23.8285 15.3693   2
   5  -3   2 4445.62  189.26   1
  -5  -3  -2 4201.48  199.00   2
   5  -3   2 4530.90  196.27   6
  -5  -3  -2 4356.04  182.49   1
   5  -3   2 4303.96  198.25   4
   5   3   2 4499.89  196.89   6
  -5   3  -2 4279.75  202.01   2
   5   3   2 4530.61  206.53   4
  -6  -3  -2 152.249  37.521   2
   6  -3   2 173.865  35.555   1
   6  -3   2 159.088  34.025   4
   6  -3   2 124.832  32.042   6
  -6   3  -2 182.410  40.159   2
   6   3   2 115.246  31.436   6
   6   3   2 64.6270 26.0958   4
   7  -3   2 262.585  46.581   4
   7  -3   2 209.676  43.304   6
  -7  -3  -2 341.888  56.483   2
   7   3   2 220.284  42.028   6
  -7   3  -2 204.925  45.747   2
   7   3   2 335.397  54.658   4
   8  -3   2 73.3650 36.9297   4
  -8  -3  -2 46.7224 34.9698   2
   8  -3   2 48.5910 31.6350   6
   8   3   2 71.5687 37.0238   6
   8   3   2 51.2068 35.9384   4
  -8   3  -2 40.1226 32.6075   2
   8  -4  -2 75.9844 33.9379   4
  -8  -4   2 62.8128 34.5560   2
   8  -4  -2 -4.0934 25.8992   6
  -8   4   2  3.0218 31.4657   2
   8   4  -2 -9.6179 28.0980   4
   7  -4  -2 44.6287 25.8128   4
  -7  -4   2 40.8221 30.4636   2
   7  -4  -2 -8.0684 21.7694   6
   7   4  -2 11.3598 23.0626   6
  -7   4   2 31.4262 27.7552   2
   7   4  -2 44.9997 27.7295   4
   6  -4  -2 1026.21   75.70   4
  -6  -4   2 1029.02   76.89   5
  -6  -4   2 997.095  78.633   2
   6  -4  -2 944.835  73.163   6
  -6   4   2 1249.73   84.52   2
   6   4  -2 1021.12   77.17   4
   6   4  -2 1076.81   71.59   6
   5  -4  -2 287.383  39.389   4
  -5  -4   2 281.622  42.211   2
   5  -4  -2 238.355  37.261   6
  -5  -4   2 323.555  45.052   5
   5  -4  -2 286.911  33.010   1
  -5   4   2 299.670  38.499   3
   5   4  -2 276.729  37.759   3
   5   4  -2 244.055  37.904   4
   5   4  -2 188.305  30.615   6
  -5   4   2 314.859  42.912   2
   4  -4  -2 130.528  21.381   1
   4  -4  -2 117.398  23.754   6
  -4  -4   2 156.907  30.022   2
   4  -4  -2 114.409  23.296   4
  -4  -4   2 137.899  27.428   5
  -4  -4   2 131.297  16.657   1
  -4   4   2 136.898  25.763   2
   4   4  -2 103.166  22.326   3
  -4   4   2 103.436  22.970   3
   4   4  -2 148.605  27.118   4
   4   4  -2 144.655  22.436   6
  -3  -4   2 1064.39   66.00   2
   3  -4  -2 1097.68   57.21   1
   3  -4  -2 1123.21   63.74   4
   3  -4  -2 1232.42   64.09   6
  -3  -4   2 1125.79   50.46   1
   3   4  -2 1134.84   62.67   3
   3   4  -2 1097.66   62.10   4
   3   4  -2 1090.58   54.94   6
  -3   4   2 1121.32   61.79   2
  -3   4   2 1119.73   64.26   3
   2  -4  -2 1868.19   83.50   6
   2  -4  -2 1828.76   79.63   1
   2  -4  -2 1774.90   84.42   4
  -2  -4   2 1850.96   88.66   2
  -2  -4   2 1715.15   73.81   1
   2   4  -2 1622.25   82.50   3
   2   4  -2 1911.55   82.30   4
  -2   4   2 1783.90   79.15   2
   2   4  -2 1754.16   72.03   6
  -2   4   2 2021.55   88.91   3
   1  -4  -2 2103.43   88.21   6
   1  -4  -2 2090.16   85.64   1
   1  -4  -2 1853.61   89.18   4
  -1  -4   2 1956.58   82.58   1
  -1   4   2 1937.07   79.07   2
   1   4  -2 2061.17   81.72   4
   1   4  -2 2065.28   89.35   3
  -1   4   2 2045.05   91.03   3
   0  -4  -2 4056.72  149.67   2
   0  -4  -2 4309.22  172.93   4
   0  -4  -2 4007.38  159.33   6
   0  -4   2 3952.20  147.77   6
   0  -4   2 4170.82  156.38   1
   0  -4  -2 4004.69  156.63   1
   0   4  -2 4150.06  171.75   2
   0   4  -2 3909.74  161.06   3
  -1  -4  -2 13.0502  9.1216   6
  -1  -4  -2 19.0702  8.4260   2
  -1  -4  -2 28.9081 10.5719   1
   1  -4   2 17.6675  7.4977   6
   1  -4   2 12.3880  5.3975   4
   1  -4   2 15.5946 10.3258   1
   1   4   2 3.49441 8.29433   3
   1   4   2 23.0806 11.4068   6
   1   4   2 33.3667 13.7587   4
  -1   4  -2  6.4415 10.0492   2
  -1   4  -2 25.6738  9.1971   3
  -2  -4  -2 1953.72   87.36   2
   2  -4   2 1906.06   90.10   1
  -2  -4  -2 2052.84   88.40   6
  -2  -4  -2 1801.40   86.32   1
   2  -4   2 1956.36   87.50   6
   2  -4   2 2027.19   86.07   4
   2   4   2 2119.42   92.75   6
  -2   4  -2 1990.96   94.56   2
   2   4   2 1914.97   85.60   3
   2   4   2 1927.46   96.48   4
  -2   4  -2 1864.12   85.56   3
   3  -4   2 1521.62   79.11   1
   3  -4   2 1481.75   75.37   4
   3  -4   2 1474.76   77.38   6
  -3  -4  -2 1407.35   73.71   1
  -3  -4  -2 1485.25   78.55   2
  -3  -4  -2 1552.45   82.64   5
  -3   4  -2 1557.03   71.75   3
   3   4   2 1533.35   84.93   4
   3   4   2 1557.94   79.53   6
  -3   4  -2 1536.15   83.60   2
   3   4   2 1559.68   69.23   3
  -4  -4  -2 759.499  66.144   5
  -4  -4  -2 712.425  47.880   1
   4  -4   2 610.382  47.817   4
   4  -4   2 759.908  53.427   1
   4  -4   2 769.476  54.104   6
  -4  -4  -2 754.226  56.801   2
   4   4   2 573.164  54.982   6
  -4   4  -2 865.818  61.442   2
   4   4   2 603.641  39.683   3
   4   4   2 670.112  55.774   4
   5  -4   2 27.0107 19.7534   1
   5  -4   2 45.3703 19.4869   4
  -5  -4  -2 56.3386 25.0984   2
   5  -4   2 32.9240 19.6397   6
  -5  -4  -2 45.8424 20.0744   1
   5   4   2  4.4184 16.9207   4
   5   4   2 37.5703 20.2498   6
  -5   4  -2  5.8490 19.3822   2
   6  -4   2 567.178  60.017   4
   6  -4   2 526.354  57.444   1
  -6  -4  -2 520.814  65.018   2
   6  -4   2 459.539  57.939   6
   6   4   2 534.873  64.188   4
   6   4   2 521.284  60.025   6
  -6   4  -2 440.853  61.805   2
  -7  -4  -2 914.274  94.908   2
   7  -4   2 1026.69   81.43   4
   7  -4   2 885.244  86.190   6
   7   4   2 1050.04   85.81   4
  -7   4  -2 1040.54   99.22   2
  -8  -4  -2 524.037  80.085   2
   8  -4   2 648.144  78.011   6
   8  -4   2 800.129  85.618   4
   8   4   2 523.287  77.177   4
   8   4   2 581.565  74.974   6
  -8   4  -2 571.900  81.561   2
   8  -5  -2 1690.92  118.90   4
   8  -5  -2 1583.61  114.48   6
  -8  -5   2 1563.96  121.65   2
   8   5  -2 1875.93  125.89   4
  -8   5   2 1495.29  117.78   2
  -7  -5   2  4.8700 28.2187   5
  -7  -5   2 20.2991 25.3089   2
   7  -5  -2 -15.495  18.684   6
   7  -5  -2 12.9372 23.9154   4
  -7   5   2 47.4074 29.8834   2
   7   5  -2  8.6896 24.2028   4
  -6  -5   2 119.553  33.592   5
   6  -5  -2 131.243  32.447   6
  -6  -5   2 187.442  39.502   2
   6  -5  -2 206.851  38.588   4
  -6   5   2 130.878  32.975   2
   6   5  -2 88.1932 25.6604   6
   6   5  -2 211.212  38.994   4
  -5  -5   2 50.8390 25.7853   5
   5  -5  -2 40.2152 18.3874   1
   5  -5  -2 103.849  26.748   4
   5  -5  -2 76.1811 23.7532   6
  -5  -5   2 70.5556 25.6668   2
   5   5  -2 35.2456 18.0419   6
  -5   5   2 60.7613 22.0506   2
  -5   5   2 42.1302 20.0073   3
   5   5  -2 30.8600 17.3496   3
   5   5  -2 49.9411 21.9976   4
  -4  -5   2 3175.71  123.37   1
   4  -5  -2 3058.25  133.05   1
   4  -5  -2 3136.41  142.29   6
   4  -5  -2 3107.74  144.91   4
  -4  -5   2 3219.69  146.55   5
  -4  -5   2 2850.21  144.96   2
   4   5  -2 3165.48  145.97   4
   4   5  -2 2985.45  131.49   6
  -4   5   2 3279.53  143.03   2
  -4   5   2 2960.33  140.92   3
   4   5  -2 3038.09  139.79   3
   3  -5  -2 422.232  40.527   6
   3  -5  -2 379.044  38.069   4
  -3  -5   2 368.156  41.668   2
  -3  -5   2 440.045  27.765   1
   3  -5  -2 406.043  37.322   1
   3   5  -2 363.674  27.623   6
   3   5  -2 362.110  37.942   3
   3   5  -2 329.978  34.919   4
  -3   5   2 439.076  42.158   3
  -3   5   2 365.886  36.344   2
   2  -5  -2 1549.73   75.18   6
   2  -5  -2 1571.91   73.59   1
  -2  -5   2 1555.74   68.32   1
  -2  -5   2 1575.06   81.48   2
   2  -5  -2 1485.82   75.58   4
   2   5  -2 1439.91   75.71   3
  -2   5   2 1483.60   70.16   2
  -2   5   2 1693.96   80.97   3
   2   5  -2 1565.82   62.22   6
   2   5  -2 1467.58   71.39   4
  -1  -5   2  0.0060 11.3412   2
   1  -5  -2 8.77462 8.84384   6
  -1  -5   2 -0.7513  7.2909   1
   1  -5  -2 -3.8858  7.7716   1
   1  -5  -2 4.55760 8.34947   4
  -1   5   2 6.13124 9.61812   3
  -1   5   2 -2.2695  6.7171   2
   1   5  -2 15.1865  9.7597   3
   1   5  -2 3.53111 5.55298   4
   0  -5  -2 3896.40  162.41   4
   0  -5   2 3883.58  150.01   1
   0  -5  -2 3447.90  150.08   6
   0  -5   2 3586.53  138.41   6
   0  -5  -2 3741.17  142.39   2
   0  -5  -2 3836.34  150.05   1
   0   5  -2 3932.37  155.30   3
   0   5   2 3852.19  156.47   3
   0   5  -2 3928.10  164.51   2
  -1  -5  -2 301.344  28.900   6
   1  -5   2 351.872  32.738   1
   1  -5   2 317.635  18.015   4
   1  -5   2 310.503  23.076   6
  -1  -5  -2 288.230  23.811   2
  -1  -5  -2 294.902  28.957   1
   1   5   2 284.654  34.255   4
  -1   5  -2 369.930  36.806   2
   1   5   2 355.728  33.322   3
  -1   5  -2 438.560  31.330   3
  -2  -5  -2 4002.81  165.62   2
   2  -5   2 4019.95  164.27   4
  -2  -5  -2 4010.21  164.82   1
   2  -5   2 4156.25  168.81   1
  -2  -5  -2 4208.07  166.71   6
   2  -5   2 4197.13  165.06   6
  -2   5  -2 4160.16  167.51   3
   2   5   2 3960.54  167.19   3
   2   5   2 4074.39  179.36   4
  -2   5  -2 4052.62  173.41   2
   2   5   2 4389.36  171.07   6
   3  -5   2 12.6465 10.4871   4
   3  -5   2 34.0275 15.2095   6
  -3  -5  -2 -1.0371 11.0562   1
   3  -5   2 22.1500 14.6836   1
  -3  -5  -2 -0.8878 11.6771   2
  -3  -5  -2 -10.650  13.627   5
  -3   5  -2 6.93891 9.76597   3
   3   5   2  0.1932 12.3407   6
   3   5   2 7.30121 9.24159   3
  -3   5  -2 -5.2162 12.4896   2
   3   5   2 -3.5444 12.7770   4
   4  -5   2 341.078  37.989   4
   4  -5   2 349.915  42.013   6
  -4  -5  -2 401.677  39.194   1
  -4  -5  -2 404.176  47.523   2
  -4  -5  -2 444.586  52.249   5
   4  -5   2 303.801  39.664   1
  -4   5  -2 296.708  43.018   2
   4   5   2 363.831  33.681   3
   4   5   2 390.611  47.477   4
   4   5   2 384.702  43.813   6
  -5  -5  -2 40.3326 19.0045   1
   5  -5   2 25.2331 20.7043   6
   5  -5   2 89.3906 26.8663   1
   5  -5   2 80.8238 23.1798   4
  -5  -5  -2 29.2658 23.2698   2
   5   5   2 90.7971 26.2730   6
   5   5   2 39.2970 23.0217   4
  -5   5  -2 67.2555 26.1875   2
   6  -5   2 952.747  73.088   6
   6  -5   2 979.411  71.369   1
   6  -5   2 859.047  70.289   4
  -6  -5  -2 954.187  90.319   2
  -6   5  -2 923.856  91.146   2
   6   5   2 921.609  88.190   4
   6   5   2 895.745  81.353   6
  -7  -5  -2 -2.7255 26.8322   2
   7  -5   2 36.1083 27.3546   6
   7  -5   2 -5.8793 23.3844   4
   7   5   2 -10.454  25.374   6
  -7   5  -2  7.3998 27.6220   2
   7   5   2 37.5834 30.2808   4
   8  -5   2 280.600  53.292   6
   8  -5   2 246.519  52.660   4
  -8  -5  -2 294.154  59.661   2
   8   5   2 350.577  65.351   4
  -8   5  -2 175.917  51.897   2
   8   5   2 131.903  42.640   6
   8  -6  -2 28.8917 31.7291   4
   8  -6  -2 56.5157 33.5621   6
  -8  -6   2 26.9815 34.1657   2
  -8   6   2  2.8360 33.0948   2
   8   6  -2 21.5679 33.3217   4
  -7  -6   2 14.4125 26.0718   2
  -7  -6   2 -3.3142 28.1056   5
   7  -6  -2 22.1954 27.2590   4
   7  -6  -2 24.8018 25.3675   6
  -7   6   2 29.7199 28.1925   2
   7   6  -2  6.2193 24.6455   4
  -6  -6   2 2066.17  118.86   5
   6  -6  -2 1859.41  111.83   6
  -6  -6   2 1889.58  117.80   2
   6  -6  -2 1929.58  114.64   4
   6   6  -2 1705.30  111.78   4
  -6   6   2 1964.89  116.20   2
  -5  -6   2 149.456  35.924   5
  -5  -6   2 202.147  38.582   2
   5  -6  -2 98.9069 24.6098   1
   5  -6  -2 106.492  28.249   4
   5  -6  -2 187.322  34.218   6
  -5   6   2 151.948  32.485   2
   5   6  -2 144.448  32.135   4
   5   6  -2 150.827  29.650   3
  -5   6   2 155.930  30.309   3
   4  -6  -2 234.555  34.211   6
  -4  -6   2 218.023  36.908   2
   4  -6  -2 292.583  34.966   1
  -4  -6   2 230.211  38.401   5
   4  -6  -2 214.639  32.257   4
  -4  -6   2 309.261  28.569   1
   4   6  -2 205.932  32.669   4
   4   6  -2 290.435  37.257   3
  -4   6   2 217.944  32.989   2
  -4   6   2 183.405  31.602   3
   4   6  -2 248.587  28.490   6
  -3  -6   2 191.166  31.843   2
   3  -6  -2 164.619  26.378   6
   3  -6  -2 180.491  27.162   1
   3  -6  -2 160.942  25.501   4
  -3  -6   2 170.758  21.825   1
   3   6  -2 150.622  26.036   3
  -3   6   2 197.638  26.785   2
  -3   6   2 196.585  31.127   3
   3   6  -2 172.575  19.264   6
   3   6  -2 185.898  25.878   4
   2  -6  -2 4628.82  180.92   1
   2  -6  -2 4592.27  188.44   4
  -2  -6   2 4801.69  192.37   2
  -2  -6   2 4292.51  174.31   1
   2  -6  -2 4418.39  182.16   6
   2   6  -2 4499.99  187.62   3
   2   6  -2 4494.99  181.87   4
  -2   6   2 4333.22  177.56   2
  -2   6   2 4465.45  189.55   3
  -1  -6   2 1058.86   65.99   2
  -1  -6   2 1160.77   59.31   1
   1  -6  -2 1138.60   60.07   6
   1  -6  -2 1093.11   60.42   1
   1  -6  -2 1162.44   62.82   4
  -1   6   2 1232.60   56.84   2
   1   6  -2 1220.79   51.41   4
  -1   6   2 1113.61   64.78   3
   1   6  -2 1153.65   64.19   3
   0  -6   2 7785.70  286.47   1
   0  -6  -2 7361.38  280.62   2
   0  -6   2 7605.00  274.22   6
   0  -6  -2 7689.02  286.39   1
   0  -6  -2 7622.34  288.09   6
   0  -6  -2 7517.98  303.48   4
   0   6  -2 7409.24  295.13   3
   0   6  -2 7711.42  302.02   2
   0   6   2 7610.47  297.64   3
   1  -6   2 233.227  21.967   6
   1  -6   2 188.582  26.930   1
   1  -6   2 171.152  12.600   4
  -1  -6  -2 186.704  20.916   2
  -1  -6  -2 215.383  26.090   1
  -1  -6  -2 246.228  27.351   6
  -1   6  -2 249.426  32.216   2
  -1   6  -2 156.188  23.261   3
   1   6   2 196.211  28.414   4
   1   6   2 184.907  26.614   3
  -2  -6  -2 914.167  55.715   2
  -2  -6  -2 1148.64   65.93   5
   2  -6   2 1126.99   62.44   1
  -2  -6  -2 1035.60   57.26   6
   2  -6   2 1083.48   56.66   6
  -2  -6  -2 1101.84   59.55   1
   2  -6   2 1052.18   51.20   4
  -2   6  -2 1071.05   64.81   2
   2   6   2 1021.91   60.00   3
   2   6   2 1045.60   61.76   6
   2   6   2 1038.33   64.90   4
  -2   6  -2 954.056  58.381   3
  -3  -6  -2 738.788  49.617   1
   3  -6   2 791.748  51.305   6
   3  -6   2 876.980  56.014   1
   3  -6   2 804.919  47.794   4
  -3  -6  -2 701.572  51.115   2
  -3  -6  -2 731.887  65.849   5
   3   6   2 743.076  57.700   4
   3   6   2 743.413  48.933   3
  -3   6  -2 868.742  60.288   2
  -3   6  -2 742.265  49.539   3
   3   6   2 803.197  54.177   6
  -4  -6  -2 879.864  69.794   5
  -4  -6  -2 954.084  59.851   1
   4  -6   2 911.251  61.885   6
   4  -6   2 955.856  63.647   1
   4  -6   2 913.890  59.230   4
  -4  -6  -2 976.768  66.782   2
  -4   6  -2 954.853  70.577   2
   4   6   2 902.267  68.728   4
   4   6   2 952.886  65.227   6
   4   6   2 946.147  56.040   3
   5  -6   2 112.257  28.036   1
  -5  -6  -2 65.4012 31.1064   5
  -5  -6  -2 75.2465 25.7562   2
  -5  -6  -2 73.8155 21.8797   1
   5  -6   2 103.742  28.432   6
   5  -6   2 91.5777 24.6230   4
   5   6   2 26.3216 22.4214   6
   5   6   2 80.9623 28.2380   4
  -5   6  -2 42.9299 26.2943   2
   6  -6   2 678.831  65.542   1
   6  -6   2 613.520  63.577   4
  -6  -6  -2 580.767  71.423   2
   6  -6   2 531.320  63.031   6
   6   6   2 620.271  72.595   4
  -6   6  -2 546.095  70.563   2
   6   6   2 472.857  60.997   6
  -7  -6  -2 287.486  57.602   2
   7  -6   2 280.133  49.514   6
   7  -6   2 181.478  40.847   4
   7   6   2 137.844  42.234   6
  -7   6  -2 282.415  55.371   2
   7   6   2 113.835  38.258   4
   8  -6   2 708.656  83.120   6
  -8  -6  -2 711.852  90.139   2
  -8  -7   2 623.884  86.869   2
   8  -7  -2 474.178  69.130   6
  -8  -7   2 519.572  75.124   5
   8  -7  -2 682.872  82.005   4
   8   7  -2 519.042  75.763   4
  -8   7   2 666.350  86.406   2
   7  -7  -2 797.614  80.970   4
   7  -7  -2 655.728  75.606   6
  -7  -7   2 931.795  97.013   2
  -7  -7   2 934.853  94.276   5
   7   7  -2 643.748  76.332   4
  -7   7   2 713.352  81.028   2
   6  -7  -2  9.9672 21.2124   6
  -6  -7   2 15.2922 25.2108   2
   6  -7  -2 -0.9963 20.4537   4
  -6  -7   2 30.9785 30.2441   5
   6   7  -2 38.6583 25.7931   4
  -6   7   2 26.2227 25.6054   2
   5  -7  -2 134.709  31.606   6
  -5  -7   2 189.607  40.225   2
   5  -7  -2 233.714  36.691   1
  -5  -7   2 121.767  34.376   5
   5  -7  -2 192.092  34.749   4
  -5   7   2 163.512  34.565   2
   5   7  -2 150.461  33.204   4
   5   7  -2 137.435  30.428   3
  -5   7   2 221.211  36.646   3
  -4  -7   2 1330.65   86.84   2
   4  -7  -2 1326.64   80.24   4
  -4  -7   2 1287.81   68.00   1
  -4  -7   2 1325.42   85.87   5
   4  -7  -2 1359.78   81.69   6
   4  -7  -2 1357.86   76.99   1
  -4   7   2 1346.06   82.47   3
  -4   7   2 1485.40   82.88   2
   4   7  -2 1371.58   80.67   4
   4   7  -2 1406.08   82.09   3
  -3  -7   2 2275.07   98.96   1
   3  -7  -2 2170.92  105.51   1
   3  -7  -2 2266.39  108.70   6
   3  -7  -2 2180.16  108.77   4
  -3  -7   2 2144.56  114.75   2
  -3   7   2 2244.89  105.21   2
   3   7  -2 2194.20  105.57   4
  -3   7   2 2254.73  113.43   3
   3   7  -2 2194.85  110.83   3
   2  -7  -2 727.510  48.723   1
  -2  -7   2 780.318  46.737   1
  -2  -7   2 762.499  55.648   2
   2  -7  -2 805.831  49.965   6
   2  -7  -2 773.091  48.492   4
   2   7  -2 780.924  53.138   3
   2   7  -2 717.199  42.811   4
  -2   7   2 721.279  52.976   3
  -2   7   2 714.374  45.303   2
   1  -7  -2 1297.19   69.75   4
   1  -7  -2 1161.99   65.37   1
  -1  -7   2 1258.86   73.22   2
  -1  -7   2 1241.08   64.61   1
   1  -7  -2 1169.66   64.31   6
   1   7  -2 1232.11   70.50   3
   1   7  -2 1224.49   54.02   4
  -1   7   2 1196.71   62.81   2
  -1   7   2 1286.31   72.08   3
   0  -7  -2 305.112  32.514   1
   0  -7   2 243.536  29.975   1
   0  -7  -2 245.901  29.926   4
   0  -7  -2 249.197  24.025   2
   0  -7   2 300.350  19.272   6
   0  -7  -2 264.219  29.658   6
   0   7   2 270.748  34.867   3
   0   7  -2 217.157  32.880   2
   0   7  -2 287.595  34.692   3
   1  -7   2 4951.15  202.98   1
  -1  -7  -2 4940.32  201.65   1
   1  -7   2 5369.47  193.61   6
  -1  -7  -2 4646.49  200.15   6
  -1  -7  -2 5241.15  197.36   2
   1   7   2 4862.51  209.15   3
  -1   7  -2 4859.09  214.65   2
  -1   7  -2 5052.69  208.68   3
   1   7   2 5302.72  216.31   4
  -2  -7  -2 425.046  38.989   6
  -2  -7  -2 385.905  39.433   1
   2  -7   2 415.319  33.336   6
  -2  -7  -2 476.077  37.373   2
   2  -7   2 378.154  41.249   1
   2  -7   2 418.725  27.717   4
  -2  -7  -2 411.252  45.878   5
  -2   7  -2 383.735  44.235   2
   2   7   2 464.148  43.099   6
   2   7   2 433.049  45.370   4
   2   7   2 436.052  43.727   3
  -2   7  -2 398.085  40.807   3
   3  -7   2 105.711  24.424   1
   3  -7   2 93.6796 18.4743   4
  -3  -7  -2 85.3451 21.0130   1
  -3  -7  -2 70.0072 21.2187   2
   3  -7   2 116.035  23.892   6
  -3  -7  -2 52.8130 22.1609   5
   3   7   2 93.2057 21.5133   3
  -3   7  -2 108.979  27.740   2
   3   7   2 58.2562 21.8238   4
   3   7   2 110.713  25.859   6
  -3   7  -2 127.301  23.996   3
   4  -7   2 380.502  47.259   1
  -4  -7  -2 442.247  50.443   2
   4  -7   2 387.241  45.892   6
  -4  -7  -2 478.313  46.111   1
   4  -7   2 335.275  38.800   4
  -4  -7  -2 446.070  56.473   5
   4   7   2 458.775  50.200   6
  -4   7  -2 397.323  54.120   2
   4   7   2 474.149  45.656   3
   4   7   2 448.783  53.292   4
   5  -7   2 1596.03   92.20   4
  -5  -7  -2 1606.47  100.74   2
  -5  -7  -2 1509.39  105.23   5
   5  -7   2 1662.55   97.90   6
  -5  -7  -2 1645.32   90.71   1
   5  -7   2 1558.44   94.00   1
  -5   7  -2 1765.08  108.53   2
   5   7   2 1555.76  103.43   4
   5   7   2 1665.94   99.00   6
  -6  -7  -2 587.937  70.603   2
   6  -7   2 448.241  55.568   1
   6  -7   2 370.705  53.978   6
  -6   7  -2 290.556  55.194   2
   6   7   2 428.888  57.105   6
   6   7   2 467.378  63.861   4
  -7  -7  -2 10.2774 33.8615   2
   7  -7   2  5.7771 25.6218   6
  -7   7  -2 22.5560 32.2839   2
   7   7   2 -17.571  27.652   4
  -8  -8   2  9.7206 37.2334   5
   8   8  -2 -15.854  31.408   4
  -8   8   2  2.6947 37.4766   2
  -7  -8   2 322.377  62.952   5
   7  -8  -2 305.403  53.275   4
   7  -8  -2 353.230  57.948   6
  -7  -8   2 376.669  65.700   2
  -7   8   2 323.456  57.009   2
   7   8  -2 298.336  56.078   4
   6  -8  -2 97.0445 32.6704   6
   6  -8  -2 109.008  32.138   4
  -6  -8   2 124.814  40.780   2
  -6  -8   2 104.528  37.822   5
   6   8  -2 85.1632 32.0800   4
  -6   8   2 87.5845 34.8997   2
  -5  -8   2 2008.00  122.15   5
   5  -8  -2 2270.34  110.42   1
   5  -8  -2 1943.15  112.96   4
  -5  -8   2 1784.39  118.03   2
   5  -8  -2 2095.86  116.06   6
  -5   8   2 2152.66  116.38   3
   5   8  -2 2034.96  112.62   3
   5   8  -2 1963.23  114.15   4
  -5   8   2 2065.27  115.56   2
   4  -8  -2 -3.0126 13.6917   4
   4  -8  -2 24.2631 17.4638   6
   4  -8  -2  7.4284 15.4195   1
  -4  -8   2 13.9930 13.8263   1
  -4  -8   2 -1.4868 17.3561   2
  -4   8   2  0.4924 14.5405   2
  -4   8   2  9.3962 17.5498   3
   4   8  -2 56.5023 20.6072   4
   4   8  -2 -1.1047 14.3887   3
  -3  -8   2 346.842  36.511   1
   3  -8  -2 369.619  42.487   6
  -3  -8   2 434.493  50.893   2
   3  -8  -2 379.197  40.872   4
   3  -8  -2 380.163  42.077   1
  -3   8   2 394.445  47.590   3
   3   8  -2 351.073  36.800   4
   3   8  -2 372.660  44.536   3
  -3   8   2 330.154  39.182   2
  -2  -8   2 19.0744 13.9545   1
  -2  -8   2 28.4728 18.8661   2
   2  -8  -2 13.8011 14.2789   6
   2  -8  -2  5.9566 12.9147   4
   2  -8  -2 25.9382 15.4215   1
   2   8  -2 18.1300 11.2717   4
  -2   8   2  1.1793 13.2446   3
   2   8  -2 23.9373 14.0474   3
  -2   8   2 11.7367 12.9778   2
  -1  -8   2 4923.49  193.18   1
  -1  -8   2 4888.52  205.42   2
   1  -8  -2 5000.42  196.90   1
   1  -8  -2 4679.04  206.18   4
   1  -8  -2 4728.57  193.42   6
  -1   8   2 4690.02  205.57   3
   1   8  -2 4779.14  205.48   3
  -1   8   2 4496.44  190.23   2
   0  -8  -2 244.591  32.161   1
   0  -8   2 270.224  20.180   6
   0  -8  -2 213.653  24.826   2
   0  -8  -2 241.199  29.444   6
   0  -8   2 233.081  30.352   1
   0  -8  -2 239.914  30.710   4
   0   8   2 235.269  32.747   4
   0   8  -2 185.049  32.641   2
   0   8  -2 214.146  31.456   3
   0   8   2 241.758  33.799   3
  -1  -8  -2 55.5611 17.7027   6
  -1  -8  -2 43.1759 15.0244   2
  -1  -8  -2 46.6260 17.7700   1
   1  -8   2 56.3924 18.2456   1
   1  -8   2 43.9490 13.0080   6
   1   8   2 46.3339 18.2702   3
  -1   8  -2 21.9160 18.3737   2
   1   8   2 46.8304 18.5262   4
  -1   8  -2 66.0228 18.9599   3
  -2  -8  -2 272.100  38.920   5
   2  -8   2 327.618  32.909   6
  -2  -8  -2 236.351  32.737   1
   2  -8   2 263.743  36.510   1
  -2  -8  -2 203.327  28.794   6
  -2  -8  -2 304.612  34.290   2
   2   8   2 263.902  35.685   3
   2   8   2 309.846  39.805   4
  -2   8  -2 269.537  34.985   3
   2   8   2 272.969  35.830   6
  -2   8  -2 306.845  40.795   2
   3  -8   2 4499.97  184.18   6
  -3  -8  -2 4180.35  183.17   1
   3  -8   2 4322.74  188.83   1
  -3  -8  -2 4519.85  187.17   2
  -3  -8  -2 4163.96  192.92   5
  -3   8  -2 4369.16  187.50   3
  -3   8  -2 4173.88  193.96   2
   3   8   2 4273.68  189.10   3
   3   8   2 4111.39  196.29   4
   3   8   2 4451.58  187.10   6
   4  -8   2 411.022  47.838   6
  -4  -8  -2 424.952  57.814   5
  -4  -8  -2 502.627  55.291   2
   4  -8   2 423.206  49.811   1
  -4  -8  -2 417.831  47.213   1
   4   8   2 363.971  44.186   3
   4   8   2 381.539  51.551   4
  -4   8  -2 359.409  51.249   2
   4   8   2 420.678  49.563   6
  -5  -8  -2 35.2051 24.8903   2
  -5  -8  -2 -2.3201 25.8032   5
   5  -8   2  5.8750 18.1298   6
   5  -8   2 -20.637  17.477   1
  -5  -8  -2  4.1268 18.6829   1
   5   8   2 10.3017 20.7795   6
   5   8   2 -2.4202 21.4862   4
  -5   8  -2 -23.734  21.917   2
  -6  -8  -2 81.2095 38.2291   2
   6  -8   2 137.427  36.065   1
  -6  -8  -2 25.3620 29.3409   5
   6  -8   2 57.8002 30.7149   6
   6   8   2 83.1582 33.3605   4
  -6   8  -2 79.9342 35.6105   2
  -7  -8  -2 1940.04  136.11   2
   7  -8   2 2059.72  130.88   6
   7   8   2 2025.27  138.02   4
  -7   8  -2 2285.88  146.35   2
  -8  -9   2 208.712  60.555   5
  -7  -9   2 353.298  63.948   2
   7  -9  -2 436.403  66.898   6
  -7  -9   2 420.391  71.725   5
   7   9  -2 432.158  63.683   4
   6  -9  -2 -6.3819 24.2078   6
   6  -9  -2 -1.1673 25.9008   4
  -6  -9   2  2.7459 29.1581   2
  -6  -9   2 -12.991  30.122   5
  -6   9   2  5.8756 25.9522   2
   6   9  -2 -10.275  22.129   4
  -5  -9   2 442.475  63.696   5
  -5  -9   2 359.696  57.995   2
   5  -9  -2 438.310  55.754   6
   5  -9  -2 421.113  52.897   4
   5  -9  -2 452.294  52.933   1
   5   9  -2 483.669  59.362   3
   5   9  -2 421.488  53.825   4
  -5   9   2 391.299  53.679   2
  -5   9   2 512.861  59.137   3
   4  -9  -2 1790.55   99.18   1
  -4  -9   2 1822.94  110.09   2
   4  -9  -2 1899.35  103.49   6
   4  -9  -2 1782.24   99.82   4
  -4   9   2 1960.15  102.81   2
   4   9  -2 1665.45   97.31   4
   4   9  -2 1676.34  102.75   3
  -4   9   2 1808.87  105.04   3
  -3  -9   2 1368.66   85.97   2
   3  -9  -2 1176.10   74.07   4
   3  -9  -2 1346.53   78.72   6
  -3  -9   2 1372.91   74.56   1
   3  -9  -2 1196.54   75.86   1
  -3   9   2 1309.89   75.37   2
   3   9  -2 1364.16   84.98   3
  -3   9   2 1363.95   85.42   3
   2  -9  -2 1457.39   82.05   6
  -2  -9   2 1454.07   79.98   1
   2  -9  -2 1573.37   84.51   4
   2  -9  -2 1679.89   86.90   1
  -2  -9   2 1522.52   91.08   2
  -2   9   2 1507.66   81.11   2
   2   9  -2 1618.34   91.63   3
  -2   9   2 1605.32   92.95   3
   1  -9  -2 -7.1414 11.8896   1
   1  -9  -2 -1.2927 15.6575   4
  -1  -9   2 22.1221 19.0937   2
   1  -9  -2 13.4076 13.2667   6
  -1  -9   2 19.8146 14.0930   1
  -1   9   2 11.5103 14.3363   3
  -1   9   2 30.4645 14.3858   2
   1   9  -2  0.7378 10.8062   3
   0  -9  -2 321.391  39.812   1
   0  -9  -2 380.877  37.983   6
   0  -9   2 354.390  40.048   1
   0  -9  -2 372.413  33.442   2
   0   9   2 258.236  38.244   3
   0   9  -2 283.884  39.457   3
   0   9  -2 287.945  40.600   2
   0   9   2 352.789  40.615   4
   1  -9   2 966.325  62.074   1
   1  -9   2 797.277  46.461   6
  -1  -9  -2 943.845  53.114   2
  -1  -9  -2 954.371  57.661   6
  -1  -9  -2 736.442  55.797   1
  -1   9  -2 849.986  67.266   2
   1   9   2 825.979  61.357   3
   1   9   2 821.585  57.299   4
  -1   9  -2 948.868  62.920   3
   2  -9   2 361.469  35.852   6
  -2  -9  -2 223.010  38.796   5
  -2  -9  -2 255.474  32.922   2
  -2  -9  -2 245.499  32.149   6
   2  -9   2 183.041  32.433   1
  -2  -9  -2 241.246  34.989   1
   2   9   2 283.477  38.720   4
   2   9   2 247.955  34.452   6
  -2   9  -2 267.174  36.837   3
   2   9   2 234.504  36.050   3
  -2   9  -2 213.516  38.538   2
  -3  -9  -2 102.875  26.425   2
  -3  -9  -2 60.4187 27.1956   5
   3  -9   2 103.893  23.978   6
  -3  -9  -2 128.381  27.673   1
   3  -9   2 98.7596 27.4880   1
  -3   9  -2 158.248  29.499   3
   3   9   2 130.650  29.201   3
   3   9   2 81.3905 24.5491   6
   3   9   2 110.928  28.414   4
  -3   9  -2 157.165  34.502   2
  -4  -9  -2 862.040  67.429   2
   4  -9   2 731.260  71.603   1
   4  -9   2 850.776  63.512   6
  -4  -9  -2 907.516  64.080   1
  -4  -9  -2 903.529  86.852   5
   4   9   2 937.410  72.012   4
   4   9   2 845.821  64.588   3
  -4   9  -2 825.979  82.660   2
   5  -9   2 2743.28  146.50   1
  -5  -9  -2 2662.82  147.76   2
   5  -9   2 3082.98  149.74   6
  -5  -9  -2 2796.74  159.33   5
  -5  -9  -2 2948.36  142.41   1
   5   9   2 2805.96  156.94   4
  -5   9  -2 3034.63  161.58   2
  -6  -9  -2 868.319 100.262   5
  -6  -9  -2 1049.27   97.77   2
   6  -9   2 923.469  86.261   6
   6  -9   2 941.787  87.469   1
   6   9   2 740.409  86.431   4
  -6   9  -2 1042.60  102.83   2
  -7  -9  -2 154.120  49.096   2
   7  -9   2 217.886  50.429   6
   7   9   2 123.694  46.060   4
  -7   9  -2 199.934  55.505   2
  -8 -10   2 -27.315  40.252   5
  -7 -10   2 42.0465 39.8156   2
   7 -10  -2 34.1240 33.8443   6
  -7 -10   2 30.6802 44.5183   5
  -6 -10   2 2268.49  147.60   2
  -6 -10   2 2850.98  159.56   5
   6 -10  -2 2427.56  141.28   6
  -5 -10   2 118.264  38.667   2
   5 -10  -2 123.005  35.225   6
   5 -10  -2 96.9720 30.8311   1
  -5 -10   2 70.5884 35.7708   5
   5  10  -2 85.6072 30.8036   3
  -5  10   2 73.7428 30.7411   3
   4 -10  -2 1052.47   75.30   6
   4 -10  -2 1000.78   71.90   1
  -4 -10   2 1034.38   82.18   2
  -4  10   2 1107.88   80.14   3
   4  10  -2 1120.63   81.12   3
  -3 -10   2 -1.6062 16.1112   1
   3 -10  -2 -11.326  14.795   1
   3 -10  -2  0.2712 17.7378   6
  -3 -10   2 21.8656 22.2066   2
  -3  10   2 -1.1653 15.5660   3
   3  10  -2 16.7444 17.1264   3
  -2 -10   2 1157.42   71.40   1
   2 -10  -2 1201.07   73.33   4
  -2 -10   2 1260.15   81.65   2
   2 -10  -2 1262.50   73.40   6
   2 -10  -2 1205.19   75.59   1
  -2  10   2 1335.79   85.21   3
   2  10  -2 1185.08   80.67   3
  -1 -10   2 146.153  33.139   2
   1 -10  -2 187.109  31.826   1
  -1 -10   2 133.043  25.878   1
   1 -10  -2 158.766  27.631   6
   1 -10  -2 186.873  30.371   4
  -1  10   2 156.829  31.308   3
   1  10  -2 143.534  30.059   3
   0 -10   2 407.613  46.502   1
   0 -10  -2 401.236  41.320   6
   0 -10  -2 393.675  45.781   1
   0  10  -2 489.820  53.041   3
   0  10  -2 376.577  51.045   2
   0  10   2 510.823  48.233   4
   0  10   2 347.986  46.027   3
   1 -10   2 65.9485 22.5290   1
  -1 -10  -2 95.6890 24.7930   1
  -1 -10  -2 53.0892 19.7480   6
   1  10   2 53.3136 22.5766   3
  -1  10  -2 52.2384 19.7371   3
   1  10   2 63.3616 21.7025   4
  -1  10  -2 29.0275 21.2450   2
  -2 -10  -2 1635.44   91.57   1
  -2 -10  -2 1494.97   93.49   5
   2 -10   2 1548.14   92.67   1
   2 -10   2 1566.75   80.71   6
  -2  10  -2 1496.26   91.78   3
   2  10   2 1597.88   93.95   3
   2  10   2 1547.90   90.91   4
  -2  10  -2 1667.75  102.79   2
  -3 -10  -2 834.616  79.120   5
   3 -10   2 732.071  69.660   1
  -3 -10  -2 640.585  62.714   1
   3 -10   2 928.046  60.312   6
  -3  10  -2 743.233  59.054   3
  -3  10  -2 860.907  80.087   2
   3  10   2 752.291  62.128   4
   3  10   2 759.684  73.181   3
   4 -10   2 1239.52   83.97   1
  -4 -10  -2 1126.96   88.57   5
   4 -10   2 1138.50   77.22   6
  -4 -10  -2 1093.84   78.34   1
   4  10   2 1218.65   87.11   4
  -4  10  -2 1292.96   92.16   2
   4  10   2 1091.87   79.43   3
  -5 -10  -2 -2.3624 21.5365   1
  -5 -10  -2  9.7989 28.9550   5
   5 -10   2 14.1184 23.4747   1
   5 -10   2 30.3400 23.6040   6
   5  10   2 15.9233 25.4195   4
  -5  10  -2 26.8618 30.5977   2
  -6 -10  -2 167.772  52.357   5
   6 -10   2 170.333  41.856   6
   6 -10   2 156.582  42.914   1
   6  10   2 96.4384 37.6961   4
  -6  10  -2 192.735  52.354   2
   7 -10   2 92.6513 40.6035   6
   7  10   2 71.6887 42.0163   4
  -7  10  -2 151.130  54.312   2
  -8 -11   2 1376.68  144.54   5
  -7 -11   2 219.245  63.866   5
  -7 -11   2 110.222  48.163   2
   7 -11  -2 167.939  49.388   6
  -6 -11   2 101.204  44.393   2
  -6 -11   2 78.2927 41.1725   5
   6 -11  -2 134.425  41.566   6
  -5 -11   2 -17.355  26.083   2
   5 -11  -2 -3.7245 20.2804   1
  -5 -11   2 -20.323  28.356   5
   5 -11  -2 13.0485 25.0096   6
  -5  11   2 -15.347  21.091   3
   5  11  -2 -3.7914 25.1023   3
  -4 -11   2 2422.97  142.62   2
   4 -11  -2 2799.91  136.90   1
   4 -11  -2 2716.80  138.17   6
  -4  11   2 2521.75  143.91   3
   4  11  -2 2561.26  145.08   3
  -3 -11   2 49.1069 22.9080   1
  -3 -11   2 112.266  32.438   2
   3 -11  -2 32.0943 21.4310   6
   3 -11  -2 63.5593 23.8473   1
  -3  11   2 33.9600 22.4431   3
   3  11  -2 82.2906 26.8484   3
  -2 -11   2 2087.06  104.58   1
   2 -11  -2 1837.49  103.66   1
   2 -11  -2 2007.92  103.04   6
  -2 -11   2 1780.73  108.98   2
   2  11  -2 1832.68  111.92   3
  -1 -11   2  4.7548 19.2045   2
   1 -11  -2 24.2432 17.9873   1
  -1 -11   2 16.7726 16.3651   1
   1 -11  -2  5.7415 14.7715   6
   1  11  -2  6.3621 14.9751   3
  -1  11   2 27.5863 18.6792   3
   0 -11  -2 1736.92   89.97   6
   0 -11   2 1681.29   96.13   1
   0 -11  -2 1658.56   96.51   1
   0  11  -2 1848.04  106.00   2
   0  11   2 1758.49  104.17   3
   0  11  -2 1811.18  104.46   3
  -1 -11  -2 81.0091 25.1119   1
   1 -11   2 72.1960 24.7297   1
   1  11   2 84.1539 25.6203   3
  -1  11  -2 70.3310 28.4983   2
  -1  11  -2 167.895  32.458   3
   2 -11   2 1188.70   81.62   1
  -2 -11  -2 1240.86   80.32   1
  -2 -11  -2 1125.84   82.42   5
   2  11   2 1153.78   82.30   3
  -2  11  -2 1228.79   92.01   2
  -2  11  -2 1376.51   85.34   3
  -3 -11  -2 42.3538 28.4233   5
   3 -11   2  0.1674 17.9432   1
  -3 -11  -2 28.7110 23.2220   1
   3  11   2 -11.939  17.789   3
  -3  11  -2 -3.2767 23.3074   2
  -3  11  -2 27.0956 19.5245   3
   3  11   2 -2.8648 20.7462   4
   4 -11   2 447.792  53.800   6
  -4 -11  -2 646.222  76.874   5
  -4 -11  -2 489.807  57.984   1
   4 -11   2 487.793  61.141   1
   4  11   2 646.597  69.613   4
  -4  11  -2 493.293  67.115   2
   4  11   2 586.629  67.296   3
   5 -11   2 186.361  40.833   6
  -5 -11  -2 221.990  53.981   5
   5 -11   2 183.274  42.427   1
  -5  11  -2 247.672  53.260   2
   5  11   2 152.437  41.136   4
   6 -11   2 1028.99   97.68   6
   6 -11   2 1085.34  101.25   1
  -6 -11  -2 1282.81  125.04   5
   6  11   2 1125.95  107.07   4
  -6  11  -2 1133.20  112.32   2
   7 -11   2 22.5027 36.9107   6
  -9 -12   2 283.670  82.254   5
  -8 -12   2 -10.493  46.822   5
  -7 -12   2 302.394  76.449   5
  -6 -12   2 851.700  97.246   2
   6 -12  -2 932.501  94.078   6
  -6 -12   2 804.243 102.007   5
  -5 -12   2 1191.10  117.59   5
   5 -12  -2 1418.77   92.92   1
  -5 -12   2 1240.86  113.28   2
   5 -12  -2 1407.60   97.07   6
   5  12  -2 1140.62  109.66   3
  -5  12   2 1053.80  102.40   3
   4 -12  -2 87.2529 29.6479   1
  -4 -12   2 33.4962 30.4774   2
   4 -12  -2 27.0461 27.9452   6
  -4  12   2 78.5490 31.6544   3
   4  12  -2 107.240  34.358   3
  -3 -12   2 231.679  44.092   2
  -3 -12   2 286.613  42.153   1
   3 -12  -2 205.178  38.919   1
   3 -12  -2 305.034  45.175   6
   3  12  -2 256.504  45.847   3
  -3  12   2 264.757  47.065   3
   2 -12  -2 1329.23   78.41   6
  -2 -12   2 1256.12   86.83   2
   2 -12  -2 1093.34   78.09   1
  -2 -12   2 1306.24   80.90   1
   2  12  -2 1105.14   85.18   3
  -2  12   2 1089.98   85.19   3
  -1 -12   2 1354.86   90.97   2
  -1 -12   2 1601.77   89.85   1
   1 -12  -2 1477.03   89.63   1
   1  12  -2 1277.33   92.83   3
  -1  12   2 1376.60   93.99   3
   0 -12  -2 600.758  60.733   1
   0 -12   2 600.290  60.032   1
   0  12  -2 617.975  65.676   3
   0  12   2 608.025  65.163   3
   0  12  -2 514.441  59.759   2
   1 -12   2 -13.842  16.643   1
  -1 -12  -2  6.1527 17.5009   1
  -1  12  -2 17.3883 23.0811   2
  -1  12  -2  4.1831 16.3788   3
   1  12   2 10.4436 17.8399   3
  -2 -12  -2 255.519  42.236   1
  -2 -12  -2 207.891  41.437   5
   2 -12   2 225.734  39.126   1
  -2  12  -2 143.068  35.130   3
   2  12   2 150.508  34.224   3
  -2  12  -2 256.395  49.617   2
   3 -12   2 1536.76  101.15   1
  -3 -12  -2 1554.90  104.91   5
  -3 -12  -2 1571.10   97.63   1
  -3  12  -2 1337.26  106.25   2
   3  12   2 1572.93  103.88   3
  -3  12  -2 1574.57   99.88   3
  -4 -12  -2 690.840  73.358   1
  -4 -12  -2 630.624  78.843   5
   4 -12   2 480.590  64.178   1
  -4  12  -2 631.571  79.025   2
   4  12   2 559.582  67.554   3
   5 -12   2 -14.373  23.100   1
  -5 -12  -2 -24.684  32.538   5
  -5  12  -2 27.0849 34.0983   2
  -6 -12  -2 44.2757 42.5347   5
   6 -12   2 109.829  39.431   1
  -6  12  -2 51.0217 43.0009   2
  -7 -12  -2 951.721 117.950   5
  -9 -13   2 -10.359  55.921   5
  -8 -13   2 71.7693 55.9648   5
  -7 -13   2 434.256  88.066   5
   6 -13  -2 -4.1775 35.5748   6
  -6 -13   2  5.5392 39.3744   5
  -6 -13   2 -33.589  32.583   2
  -5 -13   2 439.310  69.507   2
  -5 -13   2 337.697  68.404   5
   5 -13  -2 302.217  52.613   1
   5 -13  -2 367.814  59.788   6
  -5  13   2 345.504  58.418   3
   5  13  -2 270.248  56.174   3
   4 -13  -2 -6.3479 22.8450   1
  -4 -13   2 55.4828 33.9977   2
   4 -13  -2 60.0840 30.9040   6
   4  13  -2 52.8288 31.3291   3
  -4  13   2 20.0033 25.8299   3
   3 -13  -2 2007.89  117.01   1
  -3 -13   2 2121.72  115.62   1
  -3 -13   2 1997.52  123.46   2
   3  13  -2 2127.53  130.32   3
  -3  13   2 1813.79  122.85   3
  -2 -13   2 25.8217 23.6498   1
  -2 -13   2 60.8078 31.5981   2
   2 -13  -2 48.8837 27.1179   1
   2  13  -2 10.5501 22.1418   3
  -2  13   2 -0.9359 19.0735   3
  -1 -13   2 114.497  31.715   1
   1 -13  -2 183.175  36.664   1
  -1 -13   2 211.723  39.743   2
   1  13  -2 262.498  47.419   3
  -1  13   2 201.429  40.312   3
   0 -13  -2 23.0980 21.0641   1
   0 -13   2 -6.6480 18.9036   1
   0 -13   2  7.0272 22.7420   2
   0  13  -2 -11.072  15.161   3
   0  13   2 -3.2199 17.0932   3
   1 -13   2 2659.32  136.01   1
  -1 -13  -2 2350.00  130.68   1
  -1  13  -2 2446.94  137.33   2
   1  13   2 2413.93  137.61   3
  -1  13  -2 2491.30  137.90   3
  -2 -13  -2 35.2648 27.3871   5
   2 -13   2 66.5054 26.2668   1
  -2 -13  -2 29.6802 25.0435   1
  -2  13  -2 25.1916 22.4582   3
  -2  13  -2 59.4984 35.7966   2
   2  13   2 94.6642 30.7550   3
  -3 -13  -2 17.1592 26.9622   5
  -3 -13  -2 -13.986  21.929   1
   3 -13   2 19.2238 25.6016   1
  -3  13  -2  7.4242 20.1821   3
  -3  13  -2 -22.484  31.872   2
   3  13   2 -19.112  18.910   3
   4 -13   2  3.2362 24.4750   1
  -4 -13  -2 19.3750 33.1035   5
  -4 -13  -2 20.5189 31.5005   1
  -4  13  -2 23.0102 37.5240   2
   4  13   2 16.6923 27.7991   3
  -5 -13  -2 1612.23  125.96   5
   5 -13   2 1878.89  122.88   1
  -6 -13  -2 14.7740 37.3287   5
  -7 -13  -2 134.165  58.391   5
  -9 -14   2 405.518 100.782   5
  -8 -14   2 53.4803 59.2188   5
  -7 -14   2 55.5923 55.2058   5
  -6 -14   2 53.3823 46.7283   5
   5 -14  -2 674.461  76.011   1
  -5 -14   2 593.820  89.430   5
  -5  14   2 633.614  79.545   3
   5  14  -2 550.705  81.340   3
   4 -14  -2 -16.347  25.157   1
  -4  14   2 20.6765 26.1090   3
   4  14  -2 20.2254 30.5521   3
  -3 -14   2 312.952  48.980   1
   3 -14  -2 269.573  47.956   1
  -3  14   2 330.410  56.430   3
   3  14  -2 239.427  50.491   3
   2 -14  -2 790.526  79.113   1
  -2 -14   2 792.288  74.545   1
   2  14  -2 762.510  81.437   3
  -2  14   2 907.552  88.741   3
  -1 -14   2 1440.11   94.08   1
   1 -14  -2 1300.04   92.86   1
   1  14  -2 1619.19  106.14   3
  -1  14   2 1429.88  101.37   3
   0 -14  -2 884.931  78.134   1
   0 -14   2 716.775  72.556   1
   0  14   2 760.983  80.725   3
   0  14  -2 642.582  73.729   3
  -1 -14  -2 10.9938 23.9607   1
   1 -14   2 55.0828 27.8181   1
  -1  14  -2 31.7418 23.8527   3
   1  14   2 34.2381 24.8026   3
   2 -14   2 49.4188 26.6512   1
  -2 -14  -2 116.382  37.749   5
  -2 -14  -2 95.8324 33.7342   1
  -2  14  -2 46.3377 27.2853   3
   2  14   2 114.808  36.560   3
  -3 -14  -2 1691.90  114.20   5
   3 -14   2 1343.53  101.08   1
  -3 -14  -2 1382.53   99.90   1
   3  14   2 1597.90  110.24   3
  -3  14  -2 1429.08  100.82   3
  -4 -14  -2 72.3930 40.4861   5
   4 -14   2 49.1650 31.1142   1
  -4 -14  -2 54.6009 34.3919   1
   4  14   2 35.1222 32.3959   3
  -5 -14  -2 162.900  57.008   5
   5 -14   2 50.0007 34.2291   1
  -6 -14  -2 174.133  60.622   5
  -7 -14  -2 821.033 116.961   5
  -8 -15   2 548.020 108.498   5
  -7 -15   2 128.057  64.106   5
  -6 -15   2 119.618  54.284   5
  -5 -15   2  0.0107 34.8575   5
  -5  15   2 48.9088 32.5527   3
   5  15  -2  6.4113 36.2844   3
   4 -15  -2 529.682  66.881   1
  -4  15   2 545.271  76.099   3
   4  15  -2 464.535  74.899   3
  -3 -15   2 76.4591 35.7356   1
   3 -15  -2 144.897  36.174   1
  -3  15   2 60.8991 30.8566   3
   3  15  -2 55.3202 33.6614   3
   2 -15  -2 105.243  33.251   1
  -2 -15   2 165.264  39.456   1
  -2  15   2 93.7421 35.0793   3
   2  15  -2 92.3838 31.4742   3
  -1 -15   2 128.437  37.097   1
   1 -15  -2 107.933  33.268   1
  -1  15   2 76.7955 30.5697   3
   1  15  -2 124.517  36.690   3
   0 -15   2 1632.97  104.88   1
   0 -15  -2 1531.86  103.35   1
   0  15   2 1505.04  109.08   3
   0  15  -2 1644.39  112.62   3
  -1 -15  -2 424.078  59.611   1
   1 -15   2 338.472  52.437   1
  -1  15  -2 507.871  66.499   3
   1  15   2 465.102  63.243   3
   2 -15   2 1527.19  105.39   1
  -2 -15  -2 1346.63  102.35   5
  -2 -15  -2 1418.53  102.00   1
  -2  15  -2 1563.16  106.72   3
   2  15   2 1359.82  102.44   3
  -3 -15  -2 19.0786 34.5453   5
  -3 -15  -2  6.7762 30.9483   1
   3 -15   2 22.2966 29.4247   1
  -3  15  -2 51.7850 28.3540   3
   3  15   2 25.6415 30.4153   3
  -4 -15  -2 84.6290 42.0932   5
  -4 -15  -2 64.3282 38.2107   1
   4 -15   2 36.2106 31.0787   1
  -5 -15  -2 475.336  87.087   5
  -6 -15  -2 203.981  65.264   5
  -7 -15  -2 35.0866 53.2663   5
  -8 -16   2 70.3008 67.7772   5
  -7 -16   2 16.7464 57.2067   5
  -6 -16   2 1134.67  133.25   5
  -5 -16   2  5.2291 39.8849   5
  -4 -16   2 159.068  52.101   5
   3 -16  -2 -13.694  25.633   1
  -3  16   2 36.2265 28.0125   3
   3  16  -2 13.6272 29.9689   3
  -2 -16   2 1425.00   97.75   1
   2 -16  -2 1312.17   97.96   1
  -2  16   2 1246.04  100.74   3
   2  16  -2 1207.41  116.80   3
  -1 -16   2 25.1410 29.2813   1
   1 -16  -2 18.3214 25.5456   1
   1  16  -2 -25.682  18.977   3
  -1  16   2 44.2147 26.6605   3
   0 -16  -2 990.558  93.001   1
   0 -16   2 989.740  93.574   1
   0  16  -2 817.166  91.391   3
   0  16   2 1018.81   97.84   3
   1 -16   2  4.7839 25.3493   1
  -1 -16  -2 55.6146 32.6238   1
   1  16   2 39.0706 27.8695   3
  -1  16  -2 -5.4031 20.6454   3
   2 -16   2 623.509  76.708   1
  -2 -16  -2 737.662  87.303   5
  -2 -16  -2 938.035  93.567   1
  -2  16  -2 759.039  85.976   3
   2  16   2 824.237  91.258   3
  -3 -16  -2 14.5019 34.6415   1
  -3 -16  -2 45.7277 34.4753   5
   3  16   2 53.6302 34.8837   3
  -3  16  -2 -1.1779 25.8963   3
  -4 -16  -2 604.265  82.793   1
  -4 -16  -2 833.000  99.657   5
  -5 -16  -2 -2.5428 42.8332   5
  -6 -16  -2 282.143  77.611   5
  -7 -16  -2 -14.274  52.292   5
  -7 -17   2 204.462  76.822   5
  -6 -17   2 14.9438 47.4910   5
  -5 -17   2 129.488  55.694   5
  -4 -17   2 1146.12  118.86   5
  -2 -17   2 485.281  67.102   1
   1 -17  -2 90.6410 36.4705   1
  -1 -17   2 19.4314 32.7206   1
   1  17  -2 23.7373 29.1325   3
  -1  17   2 73.2585 34.5571   3
   0 -17  -2 134.691  41.462   1
   0 -17   2 151.393  43.977   1
   0  17  -2 176.767  47.719   3
   0  17   2 199.180  47.095   3
   1 -17   2 783.087  86.060   1
  -1 -17  -2 737.023  85.288   1
   1  17   2 737.904  86.115   3
  -1  17  -2 728.238  88.070   3
  -2 -17  -2 287.894  55.988   1
   2  17   2 264.536  56.874   3
  -3 -17  -2 -13.074  36.467   5
  -4 -17  -2 246.130  63.572   5
  -5 -17  -2 457.106  85.666   5
  -6 -17  -2 455.758  91.089   5
  -7 -17  -2 30.2877 56.1459   5
  -7 -18   2 89.4789 68.4583   5
  -6 -18   2 13.5982 50.4054   5
  -5 -18   2 634.781 101.668   5
  -4 -18   2 -9.2500 41.1639   5
  -3 -18  -2 839.003 102.273   5
  -4 -18  -2 -49.948  40.356   5
  -5 -18  -2  8.4531 48.6427   5
  -6 -18  -2 14.6423 51.9660   5
  -6 -19   2 -24.243  52.411   5
  -5 -19   2 104.501  61.572   5
  -4 -19   2 71.4033 52.1826   5
  -4 -19  -2 127.886  60.927   5
  -5 -19  -2 562.796 100.387   5
  -6 -19  -2 72.3144 58.1968   5
  -5 -20   2 99.0466 63.2463   5
  -4 -20   2 267.906  75.003   5
  -3 -20   2 42.0293 49.4945   5
  -5 -20  -2 30.8122 58.7581   5
  -3 -21   2 14.7764 46.1056   5
  -3 -22   2  8.9859 51.8452   5
   9   0  -3 10.4318 32.8069   6
  -8   0   3 -10.711  26.686   2
   8   0  -3  2.7120 25.3797   6
   8   0  -3 17.8940 29.3939   4
   7   0  -3 1664.81  108.53   4
   7   0  -3 1649.22  104.25   6
  -7   0   3 1630.06  109.76   2
   6   0  -3 15.6106 17.0708   6
  -6   0   3 -6.2625 16.6317   2
  -6   0   3 -9.7747 16.0527   3
   6   0  -3 11.9062 18.2935   4
   5   0  -3 1095.04   70.90   6
   5   0  -3 1141.33   72.75   3
  -5   0   3 1182.77   74.93   3
  -5   0   3 1280.38   78.05   2
   5   0  -3 1191.72   76.23   4
   4   0  -3  6.7028 10.5202   4
   4   0  -3 15.8476 12.1539   6
  -4   0   3 12.7595 11.8345   2
   4   0  -3  6.5200 10.9550   3
   3   0  -3 4002.53  165.61   3
   3   0  -3 3761.22  159.25   6
   3   0  -3 4107.52  169.41   4
  -3   0   3 3933.80  163.98   2
  -2   0   3 9.68282 8.56149   2
   2   0  -3 23.1376  9.6539   6
   2   0  -3 21.1425  9.8001   3
   2   0  -3 5.31015 8.40646   4
   1   0  -3 5282.06  201.03   4
   1   0  -3 5081.17  182.65   1
   1   0  -3 5008.00  196.49   3
  -1   0   3 4938.48  192.08   2
   1   0  -3 5157.70  191.99   6
   0   0  -3 -2.3468  6.0069   1
   0   0  -3 -17.397   9.267   4
   0   0  -3 -7.6600  5.5604   6
   0   0  -3 -3.5182  8.4717   2
   0   0  -3 -1.5034  5.3647   3
  -1   0  -3 1508.48   67.64   1
   1   0   3 1577.85   74.10   4
  -1   0  -3 1612.37   69.50   2
  -1   0  -3 1551.42   68.09   6
   1   0   3 1445.26   69.23   6
  -2   0  -3 5.07891 8.68292   1
  -2   0  -3 3.23316 9.56536   2
   2   0   3 -2.2820  8.2460   4
   2   0   3 -1.2201  7.7012   6
   3   0   3 6629.08  272.98   4
   3   0   3 6476.55  262.46   6
  -3   0  -3 6814.35  266.63   2
  -3   0  -3 6732.12  255.87   1
   4   0   3 15.9905 14.5077   6
  -4   0  -3  0.3213 12.4485   1
  -4   0  -3  2.5315 14.0023   2
   4   0   3 11.8905 12.3623   4
  -5   0  -3 514.555  57.494   2
   5   0   3 394.222  48.794   4
   5   0   3 350.753  46.647   6
  -5   0  -3 420.745  44.764   1
   6   0   3  5.8786 21.0330   6
  -6   0  -3 -10.804  17.856   1
   6   0   3 -25.676  16.165   4
  -6   0  -3 24.4755 22.9334   2
  -7   0  -3 1844.77  124.49   2
   7   0   3 2098.82  126.97   4
   8   0   3 19.6726 30.2416   6
   8   0   3  1.6737 27.0695   4
  -8   0  -3  2.1728 30.8130   2
   9  -1  -3 641.533  82.264   6
   9   1  -3 545.264  74.091   6
   8  -1  -3 290.715  49.910   6
  -8  -1   3 127.662  43.792   2
   8  -1  -3 158.823  43.319   4
   8   1  -3 197.072  45.286   6
  -8   1   3 147.080  42.601   2
   8   1  -3 164.822  45.014   4
   7  -1  -3 522.542  63.798   4
  -7  -1   3 484.974  65.647   2
   7  -1  -3 444.444  57.032   6
  -7   1   3 584.095  71.738   2
   7   1  -3 446.417  57.507   6
   7   1  -3 514.422  62.779   4
   6  -1  -3 461.981  52.833   6
  -6  -1   3 305.017  47.627   2
   6  -1  -3 354.479  48.574   4
  -6   1   3 332.707  50.345   2
  -6   1   3 571.307  57.972   3
   6   1  -3 419.069  50.595   3
   6   1  -3 392.371  48.313   6
   6   1  -3 377.756  50.826   4
   5  -1  -3 672.836  50.304   6
   5  -1  -3 510.556  53.416   4
  -5  -1   3 630.914  56.074   5
  -5  -1   3 490.218  54.657   2
   5   1  -3 567.149  56.165   4
  -5   1   3 451.245  51.141   3
  -5   1   3 504.038  53.955   2
   5   1  -3 529.884  50.809   6
   5   1  -3 577.946  54.638   3
   4  -1  -3 4701.88  190.98   6
   4  -1  -3 4647.61  199.98   4
   4  -1  -3 4667.04  169.97   1
  -4  -1   3 4716.04  196.46   2
  -4   1   3 4405.85  194.70   3
   4   1  -3 4364.88  197.88   4
  -4   1   3 4575.75  193.84   2
   4   1  -3 4556.81  188.33   6
   4   1  -3 4700.04  194.69   3
   3  -1  -3 1997.88   75.35   1
   3  -1  -3 1913.58   89.52   6
   3  -1  -3 1864.14   93.65   4
  -3  -1   3 2000.55   93.91   2
  -3   1   3 1954.16   91.23   2
   3   1  -3 1885.19   86.55   6
   3   1  -3 2101.42   95.30   4
   3   1  -3 1885.43   93.20   3
  -3   1   3 1983.86   95.62   3
   2  -1  -3 2518.56  108.25   6
   2  -1  -3 2582.72  113.44   4
  -2  -1   3 2599.70  111.27   2
   2  -1  -3 2587.96   96.31   1
   2  -1  -3 2632.50  113.63   3
   2   1  -3 2582.17  112.85   3
   2   1  -3 2728.72  113.12   4
  -2   1   3 2672.54  108.31   2
  -2   1   3 2558.17  113.94   3
   2   1  -3 2613.21  105.63   6
   1  -1  -3 7742.17  294.31   6
   1  -1  -3 7977.74  283.07   1
   1  -1  -3 7957.55  308.33   4
  -1  -1   3 8159.71  298.28   2
   1   1  -3 7788.68  298.49   3
   1   1  -3 8215.02  304.97   4
   1   1  -3 8010.68  281.37   1
  -1   1   3 7803.16  300.25   3
  -1   1   3 7863.47  291.23   2
   1   1  -3 7924.00  289.96   6
   0  -1  -3 480.688  38.628   4
   0  -1  -3 594.904  32.399   6
   0  -1  -3 540.514  31.002   2
   0  -1   3 531.069  29.854   6
   0  -1  -3 587.811  30.904   1
   0   1  -3 540.231  28.552   6
   0   1   3 586.984  32.138   3
   0   1  -3 613.752  37.813   4
   0   1  -3 599.556  31.229   3
   0   1  -3 514.227  37.257   2
   0   1  -3 572.052  29.729   1
  -1  -1  -3 6825.61  253.60   6
  -1  -1  -3 7046.37  250.85   1
   1  -1   3 6695.74  263.49   4
  -1  -1  -3 6857.25  253.15   2
   1  -1   3 6541.06  252.85   6
   1   1   3 6975.99  270.13   4
  -1   1  -3 6625.68  247.76   3
   1   1   3 6678.64  247.96   3
  -1   1  -3 6554.54  248.83   1
  -1   1  -3 6797.41  257.74   2
   1   1   3 6835.40  256.55   6
   2  -1   3 48.4515 12.8844   4
   2  -1   3 49.5263 13.4975   6
  -2  -1  -3 10.2286  9.5448   1
  -2  -1  -3 37.4108 13.0263   2
   2   1   3 16.1897 10.9352   4
  -2   1  -3 20.8557 11.3221   2
  -2   1  -3 16.2297  9.9598   1
   2   1   3 53.6421 13.7614   6
   3  -1   3 256.483  32.670   6
  -3  -1  -3 284.669  34.769   2
  -3  -1  -3 285.485  31.255   1
   3  -1   3 277.490  31.745   4
   3   1   3 309.351  35.989   4
  -3   1  -3 252.317  33.463   2
   3   1   3 321.925  35.195   6
  -3   1  -3 275.362  30.772   1
   4  -1   3 1050.24   67.44   4
   4  -1   3 1091.04   68.05   6
  -4  -1  -3 1101.79   70.44   2
  -4  -1  -3 1027.87   62.67   1
   4   1   3 1039.58   67.85   6
   4   1   3 1170.72   72.19   4
  -4   1  -3 1077.78   63.72   1
  -4   1  -3 1146.95   72.20   2
  -5  -1  -3 1706.21   89.87   1
  -5  -1  -3 1608.01   99.39   2
   5  -1   3 1614.50   95.97   6
   5  -1   3 1568.72   96.01   4
   5   1   3 1813.03   99.95   6
  -5   1  -3 1693.08   90.05   1
   5   1   3 1643.99   99.61   4
  -5   1  -3 1903.54  104.80   2
   6  -1   3 187.902  37.868   4
   6  -1   3 201.993  37.876   6
  -6  -1  -3 214.320  35.965   1
  -6  -1  -3 196.060  41.449   2
   6  -1   3 154.124  34.158   1
   6   1   3 248.415  42.232   6
  -6   1  -3 152.019  37.567   2
   6   1   3 237.411  43.230   4
   7  -1   3  8.4912 23.2914   6
  -7  -1  -3 32.2994 30.6302   2
   7  -1   3 26.0167 25.2074   4
   7   1   3 67.7395 29.2461   6
   7   1   3 46.6873 28.8768   4
  -7   1  -3  6.8551 25.3988   2
   8  -1   3 139.764  42.128   6
  -8  -1  -3 344.009  63.620   2
   8  -1   3 261.676  52.600   4
   8   1   3 174.271  45.576   4
   8   1   3 193.614  45.972   6
  -8   1  -3 136.083  44.222   2
   9   2  -3  1.2724 31.1079   6
   8  -2  -3 224.407  46.418   4
   8  -2  -3 160.973  42.282   6
  -8  -2   3 132.119  41.365   2
   8   2  -3 272.836  51.761   4
   8   2  -3 200.216  44.527   6
  -8   2   3 168.335  46.931   2
   7  -2  -3 281.280  46.903   6
   7  -2  -3 404.690  56.110   4
  -7  -2   3 296.655  52.423   2
   7   2  -3 454.335  58.608   4
   7   2  -3 387.705  52.098   6
  -7   2   3 287.212  50.903   2
   6  -2  -3 3318.26  161.75   6
   6  -2  -3 3192.70  167.05   4
  -6  -2   3 3291.68  167.73   2
  -6  -2   3 3289.24  159.13   5
   6   2  -3 3522.39  171.12   4
  -6   2   3 3376.20  167.88   2
   6   2  -3 3605.21  162.83   3
   6   2  -3 3372.92  157.34   6
  -6   2   3 3310.52  159.68   3
  -5  -2   3 328.402  41.492   5
  -5  -2   3 225.966  38.720   2
   5  -2  -3 352.617  43.345   4
   5  -2  -3 309.579  40.656   6
   5   2  -3 388.423  45.742   4
  -5   2   3 366.102  45.129   2
   5   2  -3 261.925  34.760   6
   5   2  -3 296.545  39.400   3
  -5   2   3 318.405  41.728   3
   4  -2  -3  2.1963 11.0795   4
  -4  -2   3 10.1423 13.6255   2
   4  -2  -3  8.6407 12.0196   6
   4  -2  -3 -11.498   7.835   1
   4   2  -3  4.3475 10.4361   6
   4   2  -3 -5.4210 10.2383   3
  -4   2   3 -3.7942 10.4570   3
   4   2  -3  5.0564 12.4181   4
  -4   2   3  6.5694 11.7447   2
   3  -2  -3 13.9108 10.7235   4
   3  -2  -3 22.5533  8.6223   1
  -3  -2   3  9.0116 10.8631   2
   3  -2  -3 14.1797 10.4306   6
   3   2  -3 17.6177 10.3777   3
   3   2  -3 41.4471 11.7792   6
   3   2  -3 26.7637 11.9562   4
  -3   2   3 26.8377 11.2256   2
  -3   2   3 21.3300 13.7136   3
   2  -2  -3 3684.49  146.09   6
   2  -2  -3 3438.63  150.83   4
  -2  -2   3 3603.38  149.53   2
   2  -2  -3 3628.51  133.98   1
  -2   2   3 3430.60  149.59   3
   2   2  -3 3609.91  149.27   3
   2   2  -3 3582.84  138.58   6
  -2   2   3 3550.37  141.37   2
   2   2  -3 3753.78  148.71   4
   1  -2  -3 189.861  17.023   1
   1  -2  -3 182.168  21.340   4
  -1  -2   3 198.028  16.177   1
  -1  -2   3 193.672  23.009   2
   1  -2  -3 165.319  20.028   6
  -1   2   3 188.596  13.799   2
  -1   2   3 171.048  21.211   3
   1   2  -3 213.283  22.462   3
   1   2  -3 167.485  16.738   4
   1   2  -3 175.137  14.126   6
   0  -2  -3 1512.46   66.79   6
   0  -2  -3 1430.07   62.88   1
   0  -2  -3 1386.07   77.05   4
   0  -2   3 1301.74   63.13   1
   0   2  -3 1478.52   66.46   4
   0   2  -3 1547.09   64.73   3
   0   2   3 1375.52   64.76   3
   0   2  -3 1439.87   58.83   6
   0   2  -3 1496.33   75.31   2
  -1  -2  -3 2967.13  122.13   1
   1  -2   3 3102.13  124.45   4
  -1  -2  -3 3086.89  124.17   6
   1  -2   3 2877.43  121.00   6
  -1  -2  -3 2963.59  119.71   2
   1   2   3 2922.25  126.69   6
  -1   2  -3 3173.32  118.32   3
   1   2   3 3117.31  119.07   3
   1   2   3 3054.54  135.13   4
  -1   2  -3 3038.25  128.05   2
  -1   2  -3 3222.27  122.42   1
   2  -2   3 4431.71  180.58   4
   2  -2   3 4426.86  176.49   6
  -2  -2  -3 4474.91  177.09   2
  -2  -2  -3 4239.72  173.65   1
   2   2   3 4599.62  189.13   4
   2   2   3 4474.28  179.90   6
   2   2   3 4329.10  165.56   3
  -2   2  -3 4440.23  173.87   1
  -2   2  -3 4365.55  181.46   2
  -2   2  -3 4499.09  164.53   3
   3  -2   3 1959.18   94.01   6
  -3  -2  -3 1895.82   93.51   2
   3  -2   3 1752.97   92.54   1
   3  -2   3 1897.75   92.78   4
  -3  -2  -3 1838.12   89.36   1
   3   2   3 2016.31   75.20   3
  -3   2  -3 1890.04   96.85   2
   3   2   3 1914.21   94.74   6
   3   2   3 1848.18   98.24   4
  -3   2  -3 1960.79   90.24   1
  -4  -2  -3 244.331  32.929   1
  -4  -2  -3 293.514  39.693   2
   4  -2   3 330.464  39.417   6
   4  -2   3 294.797  36.640   4
   4  -2   3 359.464  42.251   1
  -4   2  -3 320.586  41.983   2
   4   2   3 272.992  36.835   6
   4   2   3 294.415  39.626   4
   5  -2   3 32.9587 16.6281   4
   5  -2   3 11.2449 17.7713   6
   5  -2   3 -5.1948 15.9445   1
  -5  -2  -3 18.1658 20.2912   2
  -5  -2  -3 14.2853 15.6933   1
   5   2   3  6.2342 16.2810   6
   5   2   3 35.9704 21.1173   4
  -5   2  -3 19.9874 21.1643   2
   6  -2   3 1205.88   85.57   4
  -6  -2  -3 1327.18   79.11   1
   6  -2   3 1282.88   85.49   1
   6  -2   3 1452.96   90.87   6
  -6  -2  -3 1318.51   92.58   2
   6   2   3 1355.38   93.08   4
   6   2   3 1139.55   85.45   6
  -6   2  -3 1214.52   91.29   2
  -7  -2  -3 26.0401 30.1256   2
   7  -2   3 40.6860 29.1238   6
   7  -2   3 88.5350 34.3462   4
  -7   2  -3 80.3781 33.7828   2
   7   2   3 121.240  35.527   6
   7   2   3 59.0410 31.8164   4
  -8  -2  -3 441.114  71.371   2
   8  -2   3 229.009  49.351   6
   8  -2   3 233.310  50.906   4
  -8   2  -3 362.613  65.068   2
   8   2   3 357.868  61.731   4
   8   2   3 293.951  56.678   6
  -8  -3   3 2303.40  147.00   2
   8  -3  -3 2202.45  140.52   4
   8  -3  -3 1969.35  132.40   6
   8   3  -3 2354.11  142.99   4
  -8   3   3 2366.52  144.67   2
  -7  -3   3 11.9773 24.5533   2
   7  -3  -3 -3.2271 17.6959   4
   7  -3  -3 -15.284  18.055   6
   7   3  -3 12.7343 21.3006   6
  -7   3   3  0.4473 21.4367   2
   7   3  -3 10.4862 22.9785   4
   6  -3  -3 28.4012 20.1602   6
   6  -3  -3 116.928  30.751   4
  -6  -3   3 65.2970 28.8990   2
  -6  -3   3 86.9278 29.1147   5
  -6   3   3 89.8010 29.5004   2
  -6   3   3 107.136  28.059   3
   6   3  -3 118.522  27.459   6
   6   3  -3 98.5416 27.2363   3
   6   3  -3 122.122  31.239   4
   5  -3  -3 253.499  38.199   4
   5  -3  -3 283.952  39.753   6
  -5  -3   3 297.977  42.610   2
  -5  -3   3 381.280  44.769   5
   5   3  -3 282.641  35.327   6
   5   3  -3 198.742  34.618   4
  -5   3   3 359.061  45.358   2
   5   3  -3 311.663  41.620   3
  -5   3   3 289.351  39.310   3
   4  -3  -3 3685.91  149.65   1
   4  -3  -3 3799.71  172.59   4
   4  -3  -3 3756.29  165.27   6
  -4  -3   3 3742.45  171.03   2
  -4  -3   3 3986.74  166.06   5
   4   3  -3 3742.05  157.26   6
  -4   3   3 3861.06  168.79   3
   4   3  -3 3871.94  167.66   3
   4   3  -3 3818.57  171.14   4
  -4   3   3 4011.39  167.48   2
  -3  -3   3  8.5849 12.2784   2
   3  -3  -3 12.7420 11.0970   4
   3  -3  -3 21.2772 12.9765   6
   3  -3  -3 27.2238  9.7825   1
  -3   3   3 20.4408 12.8520   3
   3   3  -3 11.8465  9.2279   6
   3   3  -3 35.3346 12.7758   4
   3   3  -3 18.6952 10.9505   3
  -3   3   3 17.4540 10.3447   2
   2  -3  -3 446.923  28.098   1
   2  -3  -3 418.560  32.665   4
  -2  -3   3 434.384  35.404   2
  -2  -3   3 465.503  23.552   1
   2  -3  -3 503.278  33.976   6
  -2   3   3 437.064  28.521   2
   2   3  -3 382.524  31.864   3
  -2   3   3 423.058  34.375   3
   2   3  -3 459.403  30.504   4
   2   3  -3 415.348  25.335   6
   1  -3  -3 517.504  29.883   1
  -1  -3   3 516.481  37.811   2
   1  -3  -3 506.568  34.408   6
   1  -3  -3 505.665  34.781   4
  -1  -3   3 540.184  28.473   1
  -1   3   3 515.029  35.672   3
   1   3  -3 511.254  33.704   3
  -1   3   3 556.247  24.470   2
   1   3  -3 498.923  23.466   6
   1   3  -3 525.366  28.354   4
   0  -3  -3 4181.41  166.76   6
   0  -3   3 4219.29  157.03   6
   0  -3  -3 4121.84  161.03   1
   0  -3  -3 4238.40  183.46   4
   0  -3   3 4095.18  162.11   1
   0   3  -3 4328.43  165.59   3
   0   3  -3 4226.24  179.86   2
   0   3  -3 4359.78  164.06   4
   0   3   3 4258.94  167.15   3
  -1  -3  -3 31.0729  9.0751   2
  -1  -3  -3 32.6786 10.8848   6
   1  -3   3 13.1844  6.2602   4
  -1  -3  -3 28.7405 10.4690   1
   1  -3   3 15.0930 10.9433   1
   1  -3   3 23.4491  8.7126   6
   1   3   3 22.7604 11.5121   6
   1   3   3 14.1506  7.8954   3
  -1   3  -3 17.7507 11.2254   2
  -1   3  -3 17.2325  7.3639   3
   1   3   3 39.6585 14.9418   4
   2  -3   3 3.30202 8.07787   4
  -2  -3  -3  2.7807 10.0638   6
  -2  -3  -3 11.1915  9.6763   2
  -2  -3  -3 20.5330 11.4893   1
   2  -3   3 22.1384 12.5735   1
   2  -3   3 26.7911 11.5555   6
  -2   3  -3 17.5804 13.7112   2
   2   3   3 25.9075  8.4562   3
   2   3   3 10.9472 12.0958   6
  -2   3  -3 2.59243 5.68759   3
   2   3   3 15.0328 12.1630   4
   3  -3   3 81.9217 19.9904   1
  -3  -3  -3 46.2202 15.9594   2
   3  -3   3 42.1626 15.7590   6
  -3  -3  -3 70.0636 17.4000   1
   3   3   3 27.0036 14.5017   4
  -3   3  -3 43.0918  9.3342   3
  -3   3  -3 40.9641 17.2995   2
   3   3   3 67.2021 18.3936   6
  -4  -3  -3 3295.43  152.51   2
   4  -3   3 3122.36  149.49   6
  -4  -3  -3 3207.35  143.02   1
   4  -3   3 3541.88  152.59   4
   4  -3   3 3187.01  148.62   1
  -4   3  -3 3283.65  156.35   2
   4   3   3 3271.90  159.33   4
   4   3   3 3394.19  153.05   6
   5  -3   3 105.168  27.394   6
   5  -3   3 53.4228 21.3965   4
  -5  -3  -3 58.1423 24.4184   2
  -5  -3  -3 63.6332 20.5822   1
   5  -3   3 126.260  30.268   1
  -5   3  -3 28.1130 22.0153   2
   5   3   3 50.3719 22.8246   6
   5   3   3 58.1732 23.1245   4
   6  -3   3 711.140  67.756   1
   6  -3   3 589.404  64.489   4
  -6  -3  -3 565.027  57.296   1
   6  -3   3 711.243  70.812   6
  -6  -3  -3 676.760  73.937   2
   6   3   3 581.533  68.222   4
  -6   3  -3 670.646  74.955   2
   6   3   3 639.778  68.379   6
  -7  -3  -3 112.267  39.005   2
   7  -3   3 88.6640 33.2980   4
   7  -3   3 24.3571 28.1759   6
  -7   3  -3 68.0504 34.2007   2
   7   3   3 35.7596 30.7403   6
   7   3   3 48.5464 29.0583   4
   8  -3   3 792.581  85.749   6
   8  -3   3 712.163  83.213   4
  -8  -3  -3 742.028  92.832   2
  -8   3  -3 624.941  85.198   2
   8   3   3 747.191  86.871   6
   8   3   3 668.102  85.025   4
   8  -4  -3 116.076  40.342   4
  -8  -4   3 58.2482 35.8960   2
   8  -4  -3 46.9091 31.7550   6
   8   4  -3 34.8736 31.5040   4
  -8   4   3 56.3221 36.7549   2
   7  -4  -3 426.294  57.659   6
  -7  -4   3 508.823  65.432   5
  -7  -4   3 413.694  59.613   2
   7  -4  -3 517.435  65.534   4
   7   4  -3 469.833  63.641   4
  -7   4   3 374.850  60.130   2
   7   4  -3 430.178  53.315   6
   6  -4  -3 2115.08  118.37   6
  -6  -4   3 2261.65  125.54   2
   6  -4  -3 2059.75  120.95   4
  -6  -4   3 2249.18  119.91   5
   6   4  -3 2124.25  122.22   4
  -6   4   3 2115.58  120.66   2
  -6   4   3 1872.00  111.31   3
   6   4  -3 2198.61  111.40   6
   6   4  -3 2064.61  115.27   3
   5  -4  -3 752.314  59.507   4
  -5  -4   3 840.929  65.022   2
   5  -4  -3 830.491  60.740   6
  -5  -4   3 807.156  61.761   5
  -5   4   3 684.510  64.557   2
   5   4  -3 822.696  60.244   3
  -5   4   3 746.054  58.688   3
   5   4  -3 797.368  60.548   4
   5   4  -3 789.435  53.617   6
   4  -4  -3 518.833  49.804   6
  -4  -4   3 470.577  49.011   5
  -4  -4   3 473.429  51.408   2
   4  -4  -3 550.725  51.273   4
   4  -4  -3 484.520  35.366   1
  -4   4   3 507.005  46.679   2
   4   4  -3 517.930  42.546   4
  -4   4   3 478.307  48.797   3
   4   4  -3 422.514  34.565   6
   4   4  -3 437.310  46.052   3
  -3  -4   3 1901.38   75.92   1
   3  -4  -3 1867.49   84.34   1
   3  -4  -3 2043.55   94.88   6
   3  -4  -3 1851.54   94.50   4
  -3  -4   3 1923.67   98.57   2
  -3   4   3 1871.30   96.19   3
  -3   4   3 1979.05   89.45   2
   3   4  -3 1847.14   93.83   3
   3   4  -3 1916.15   82.55   6
   3   4  -3 1971.01   93.20   4
   2  -4  -3 2724.35  119.73   4
  -2  -4   3 2527.30  103.23   1
   2  -4  -3 2760.94  116.47   6
  -2  -4   3 2668.38  121.06   2
   2  -4  -3 2621.64  108.62   1
   2   4  -3 2680.17  102.01   6
  -2   4   3 2670.07  108.21   2
  -2   4   3 2647.02  119.97   3
   2   4  -3 2630.91  117.56   3
   2   4  -3 2668.59  113.04   4
   1  -4  -3 996.407  57.517   4
  -1  -4   3 1095.67   49.73   1
   1  -4  -3 1039.37   55.72   6
  -1  -4   3 951.788  59.020   2
   1  -4  -3 1074.10   51.74   1
  -1   4   3 976.683  56.679   3
   1   4  -3 1026.71   46.49   4
   1   4  -3 1054.01   55.45   3
   0  -4  -3 33.8147 12.0893   6
   0  -4  -3 61.2337 13.5130   1
   0  -4   3 52.5575 12.6901   1
   0  -4   3 65.6348  7.2224   4
   0  -4  -3 35.2860 14.5449   4
   0  -4   3 88.4559  9.8676   6
   0   4   3 59.3836 13.7268   3
   0   4  -3 61.2905 13.0757   3
   0   4  -3 69.6155 21.3440   2
   1  -4   3 1454.21   65.22   6
  -1  -4  -3 1383.24   70.00   6
   1  -4   3 1376.94   71.04   1
  -1  -4  -3 1492.87   63.16   2
   1  -4   3 1410.36   61.57   4
  -1  -4  -3 1461.84   69.72   1
   1   4   3 1592.49   75.84   6
  -1   4  -3 1407.49   67.22   3
  -1   4  -3 1560.62   77.72   2
   1   4   3 1498.21   69.58   3
   1   4   3 1454.84   79.68   4
  -2  -4  -3 2672.44  113.74   2
  -2  -4  -3 2756.23  117.67   6
   2  -4   3 2659.85  112.85   4
  -2  -4  -3 2646.62  114.81   1
   2  -4   3 2660.44  114.61   6
   2  -4   3 2706.85  119.20   1
   2   4   3 2726.74  121.59   6
   2   4   3 2614.63  112.38   3
   2   4   3 2667.81  128.30   4
  -2   4  -3 2755.36  110.55   3
  -2   4  -3 2473.96  121.60   2
   3  -4   3 2164.60  104.59   6
   3  -4   3 2093.34  105.09   1
   3  -4   3 2195.59  102.04   4
  -3  -4  -3 2188.38  108.05   5
  -3  -4  -3 2111.06  103.85   2
  -3  -4  -3 2187.08  101.90   1
  -3   4  -3 2324.52  113.09   2
   3   4   3 2258.01   93.75   3
  -3   4  -3 2188.28   93.44   3
   3   4   3 2230.46  115.06   4
   3   4   3 2314.67  109.30   6
   4  -4   3 656.906  49.695   4
   4  -4   3 773.340  55.181   6
  -4  -4  -3 691.637  56.180   2
   4  -4   3 811.726  57.541   1
  -4  -4  -3 773.199  52.632   1
   4   4   3 698.499  63.620   6
  -4   4  -3 800.442  62.349   2
   4   4   3 829.065  63.462   4
   5  -4   3 134.090  30.548   1
   5  -4   3 99.1937 25.8314   4
  -5  -4  -3 129.111  27.357   1
  -5  -4  -3 170.072  36.914   2
   5  -4   3 56.0076 23.8834   6
  -5   4  -3 137.800  33.509   2
   5   4   3 122.599  29.948   4
   5   4   3 193.516  35.605   6
   6  -4   3 258.734  45.444   6
   6  -4   3 399.247  50.550   4
  -6  -4  -3 343.274  44.663   1
   6  -4   3 259.710  44.700   1
  -6  -4  -3 424.652  59.610   2
   6   4   3 388.214  54.271   6
  -6   4  -3 403.920  59.167   2
   6   4   3 275.234  48.327   4
   7  -4   3 1180.34   94.65   6
  -7  -4  -3 1434.50  107.07   2
   7  -4   3 1343.56   96.54   4
  -7   4  -3 1340.79  105.67   2
   7   4   3 1485.14  107.81   4
   7   4   3 1386.67  102.73   6
   8  -4   3 138.463  42.954   6
  -8  -4  -3 176.473  51.984   2
   8  -4   3 252.882  50.559   4
   8   4   3 436.747  66.111   6
   8   4   3 235.569  54.021   4
  -8   4  -3 190.975  53.320   2
  -8  -5   3  3.8361 27.1848   2
   8  -5  -3 13.7070 30.3050   4
   8  -5  -3  5.7855 26.6018   6
  -8   5   3 -10.671  30.465   2
   8   5  -3 85.1717 38.2037   4
   7  -5  -3 341.548  53.694   6
   7  -5  -3 313.861  51.762   4
  -7  -5   3 264.974  51.805   2
  -7  -5   3 343.676  56.676   5
  -7   5   3 263.968  50.807   2
   7   5  -3 297.267  52.244   4
  -6  -5   3  1.5855 19.6508   2
  -6  -5   3 16.0736 23.9832   5
   6  -5  -3 11.1410 18.3837   6
   6  -5  -3  8.6629 19.6112   4
  -6   5   3  5.2194 18.5171   3
   6   5  -3 -8.2429 18.0591   4
   6   5  -3 15.6886 19.5997   3
  -6   5   3  5.7676 22.0733   2
  -5  -5   3 2854.25  145.46   2
  -5  -5   3 2798.75  139.97   5
   5  -5  -3 2770.42  138.36   6
   5  -5  -3 2984.09  143.60   4
   5   5  -3 2709.25  126.58   6
  -5   5   3 2667.28  136.77   2
   5   5  -3 2895.89  137.92   3
   5   5  -3 2839.75  141.69   4
  -5   5   3 2700.98  136.59   3
   4  -5  -3 67.9084 20.5713   6
  -4  -5   3 70.9782 24.7196   2
   4  -5  -3 59.5334 19.0988   4
   4  -5  -3 89.9371 19.4532   1
   4   5  -3 61.7731 15.7687   6
  -4   5   3 84.7716 21.4904   2
   4   5  -3 86.9812 21.9115   4
  -4   5   3 69.6922 20.3276   3
   4   5  -3 91.7824 23.2803   3
   3  -5  -3 2138.89   97.04   1
   3  -5  -3 2221.60  107.59   4
   3  -5  -3 2349.36  106.69   6
  -3  -5   3 2102.96   88.87   1
  -3  -5   3 2101.78  109.73   2
   3   5  -3 2299.78  104.08   4
  -3   5   3 2292.12  110.20   3
   3   5  -3 2147.44  106.64   3
   3   5  -3 2174.31   91.07   6
  -3   5   3 2193.35  100.21   2
  -2  -5   3 41.8255 16.5525   2
   2  -5  -3 11.8861 10.8123   1
   2  -5  -3  5.8595 10.8590   6
  -2  -5   3 36.6234 11.5889   1
   2  -5  -3 -2.3971  9.3397   4
   2   5  -3 38.1348 11.5132   4
   2   5  -3 29.6777 12.8402   3
  -2   5   3 26.0100 10.0996   2
  -2   5   3 25.2432 12.9625   3
   1  -5  -3 431.134  32.203   1
   1  -5  -3 460.986  35.141   6
  -1  -5   3 465.669  44.213   2
  -1  -5   3 502.502  32.160   1
   1  -5  -3 483.996  37.231   4
  -1   5   3 485.773  37.362   3
   1   5  -3 374.777  41.769   2
   1   5  -3 432.367  34.324   3
   1   5  -3 464.604  24.896   4
   0  -5   3 382.476  20.673   6
   0  -5  -3 342.028  33.583   6
   0  -5   3 399.049  30.450   1
   0  -5  -3 443.438  43.168   4
   0  -5  -3 407.609  30.911   1
   0   5   3 311.739  33.504   3
   0   5  -3 382.606  43.075   2
   0   5  -3 397.591  30.841   3
  -1  -5  -3 2280.60   93.28   2
   1  -5   3 2267.69   94.71   6
  -1  -5  -3 2259.82  100.90   1
   1  -5   3 2170.05  102.76   1
  -1  -5  -3 2431.76  104.57   6
   1  -5   3 2370.61   91.49   4
   1   5   3 2437.24  105.54   3
   1   5   3 2143.80  112.50   4
  -1   5  -3 2233.05  110.42   2
  -1   5  -3 2386.79  102.32   3
   2  -5   3 11.4980 12.7419   1
  -2  -5  -3 49.1397 15.5687   6
   2  -5   3 47.6087 10.7886   4
  -2  -5  -3 47.1321 14.1163   2
   2  -5   3 30.3580 12.9138   6
  -2  -5  -3 45.3624 15.2053   1
   2   5   3 37.1975 17.6518   4
   2   5   3 60.8319 14.9923   3
  -2   5  -3 55.5888 17.7065   2
  -2   5  -3 39.7914 12.5618   3
   2   5   3 26.9824 14.8192   6
   3  -5   3 1710.98   84.53   4
   3  -5   3 1876.99   93.38   1
  -3  -5  -3 1757.82   94.70   5
  -3  -5  -3 1692.15   88.36   2
   3  -5   3 1696.06   87.60   6
  -3  -5  -3 1596.55   85.32   1
  -3   5  -3 1777.07   81.70   3
   3   5   3 1790.18   93.43   6
   3   5   3 1718.58   98.15   4
   3   5   3 1805.67   82.35   3
  -3   5  -3 1766.80   97.53   2
  -4  -5  -3 -7.5597 13.9568   1
   4  -5   3 24.0762 17.1290   1
   4  -5   3 19.3502 14.1691   4
  -4  -5  -3 26.9609 18.5604   2
   4  -5   3  9.0995 14.7676   6
  -4   5  -3 22.2091 18.9933   2
   4   5   3 15.1020 16.8897   6
   4   5   3 13.5247 16.5296   4
  -5  -5  -3 7311.48  303.75   2
   5  -5   3 7299.78  294.12   1
  -5  -5  -3 7178.84  285.64   1
   5  -5   3 7117.74  297.91   6
   5  -5   3 7277.36  302.11   4
   5   5   3 7011.06  315.90   4
   5   5   3 7107.62  300.08   6
  -5   5  -3 7016.27  308.42   2
   6  -5   3 48.8449 28.5359   6
   6  -5   3 87.6760 27.1467   1
   6  -5   3 33.2229 23.9082   4
  -6  -5  -3 60.9585 31.9927   2
  -6  -5  -3 39.3999 23.6654   1
   6   5   3 67.6255 28.5188   6
  -6   5  -3 25.1701 25.4779   2
   6   5   3 51.2194 28.7130   4
   7  -5   3 41.9278 28.4068   4
  -7  -5  -3 36.9328 33.9242   2
   7  -5   3 42.0638 31.7194   6
   7   5   3 35.9727 30.2975   4
   7   5   3 62.7015 33.6764   6
  -7   5  -3 55.2575 34.9912   2
  -8  -5  -3 128.165  48.043   2
   8  -5   3 119.281  42.013   4
   8   5   3 90.0191 41.7961   6
   8  -6  -3 10.3779 26.9522   6
   8  -6  -3  3.1994 30.3956   4
  -8  -6   3 -0.5299 28.6079   2
  -8  -6   3 -1.3032 32.1567   5
   8   6  -3 44.7298 33.8560   4
  -8   6   3 50.4921 35.6321   2
   7  -6  -3 654.238  73.787   6
   7  -6  -3 700.588  76.792   4
  -7  -6   3 697.295  81.350   2
  -7  -6   3 692.221  80.071   5
   7   6  -3 710.184  80.070   4
  -7   6   3 692.517  79.903   2
  -6  -6   3 780.973  80.730   2
  -6  -6   3 857.369  83.068   5
   6  -6  -3 785.409  75.432   4
   6  -6  -3 728.561  73.049   6
  -6   6   3 661.089  70.461   2
  -6   6   3 732.357  69.786   3
   6   6  -3 684.111  69.444   3
   6   6  -3 741.770  73.679   4
  -5  -6   3 499.370  60.103   2
   5  -6  -3 334.645  46.666   4
   5  -6  -3 356.096  47.882   6
  -5  -6   3 420.607  55.463   5
  -5   6   3 454.519  51.306   2
   5   6  -3 401.333  49.059   3
   5   6  -3 468.576  51.805   4
  -5   6   3 434.710  50.945   3
   4  -6  -3 58.4436 20.3432   4
   4  -6  -3 26.4025 17.8015   6
   4  -6  -3 79.8523 20.3746   1
  -4  -6   3 50.5837 21.9497   2
  -4   6   3 71.0449 20.8738   2
   4   6  -3 52.3086 18.9232   4
   4   6  -3 59.5028 19.6565   3
  -4   6   3 49.3090 20.3328   3
  -3  -6   3 3493.51  158.49   2
   3  -6  -3 3234.31  149.27   6
   3  -6  -3 3173.49  152.29   4
   3  -6  -3 3311.10  141.97   1
  -3  -6   3 3438.79  134.83   1
   3   6  -3 3480.89  152.67   3
   3   6  -3 3331.11  146.79   4
  -3   6   3 3471.32  144.06   2
  -3   6   3 3512.78  155.49   3
  -2  -6   3 767.065  56.493   2
   2  -6  -3 836.527  49.600   1
   2  -6  -3 784.017  51.069   6
   2  -6  -3 806.948  51.114   4
  -2  -6   3 787.135  44.572   1
   2   6  -3 738.626  42.912   4
  -2   6   3 849.935  55.841   3
  -2   6   3 789.366  42.570   2
   2   6  -3 783.728  52.285   3
  -1  -6   3 2398.82  120.69   2
   1  -6  -3 2508.72  120.11   4
   1  -6  -3 2420.35  112.45   6
   1  -6  -3 2503.50  111.53   1
  -1  -6   3 2649.14  109.62   1
   1   6  -3 2752.14  118.27   3
   1   6  -3 2542.39  101.20   4
  -1   6   3 2585.49  118.86   3
   0  -6  -3 114.682  19.822   1
   0  -6   3 110.666  18.885   1
   0  -6  -3 64.5972 18.9826   4
   0  -6  -3 70.4958 16.7414   6
   0   6  -3 111.307  25.825   2
   0   6   3 127.368  22.944   3
   0   6  -3 140.208  21.975   3
   1  -6   3 1139.98   61.82   1
   1  -6   3 1005.69   43.57   4
  -1  -6  -3 1162.80   62.57   6
  -1  -6  -3 1008.08   50.36   2
   1  -6   3 1123.77   52.01   6
  -1  -6  -3 981.446  58.353   1
   1   6   3 1152.61   63.80   3
   1   6   3 1038.18   66.81   4
  -1   6  -3 1040.79   58.93   3
  -1   6  -3 1065.79   68.62   2
   2  -6   3 988.151  47.941   4
  -2  -6  -3 991.339  57.941   6
   2  -6   3 976.848  60.632   1
  -2  -6  -3 1089.20   59.78   1
  -2  -6  -3 931.538  53.146   2
  -2  -6  -3 949.968  61.299   5
   2  -6   3 981.593  54.572   6
  -2   6  -3 899.198  63.038   2
   2   6   3 916.907  56.859   3
  -2   6  -3 969.845  55.419   3
   2   6   3 783.517  62.152   4
   2   6   3 959.341  61.149   6
   3  -6   3 2724.38  120.51   4
  -3  -6  -3 2827.51  133.85   5
   3  -6   3 2807.19  125.68   6
  -3  -6  -3 2650.35  123.59   1
   3  -6   3 2694.28  129.29   1
  -3  -6  -3 2741.54  125.92   2
  -3   6  -3 2845.81  136.75   2
   3   6   3 2687.34  121.09   3
   3   6   3 2808.59  131.18   6
   3   6   3 2565.05  137.46   4
  -3   6  -3 2755.22  121.79   3
   4  -6   3 111.227  28.275   1
   4  -6   3 113.238  23.132   4
  -4  -6  -3 100.056  27.939   2
  -4  -6  -3 118.485  34.118   5
  -4  -6  -3 127.177  26.520   1
   4  -6   3 86.6989 24.1961   6
  -4   6  -3 133.335  33.129   2
   4   6   3 113.520  27.621   6
   4   6   3 87.1940 28.7015   4
  -5  -6  -3 306.051  47.321   2
   5  -6   3 330.398  45.655   1
  -5  -6  -3 214.460  35.595   1
   5  -6   3 279.035  43.707   6
   5  -6   3 330.539  42.363   4
   5   6   3 241.291  41.609   6
   5   6   3 347.111  52.533   4
  -5   6  -3 282.522  49.128   2
  -6  -6  -3 189.478  43.953   2
   6  -6   3 101.491  31.014   4
   6  -6   3 211.605  41.788   1
   6  -6   3 253.590  45.706   6
   6   6   3 160.360  38.546   6
  -6   6  -3 157.402  42.385   2
   6   6   3 197.929  44.851   4
  -7  -6  -3 1723.88  119.06   2
   7  -6   3 1392.39  106.67   6
  -7   6  -3 1755.24  123.86   2
   7   6   3 1643.60  120.21   4
   7   6   3 1773.70  117.38   6
  -8  -6  -3 63.2801 44.9111   2
   8   6   3 122.360  44.177   6
   8  -7  -3 1932.11  129.89   4
  -8  -7   3 1789.07  129.73   5
  -8  -7   3 1820.95  133.77   2
   8   7  -3 1923.86  133.54   4
  -8   7   3 1897.32  132.29   2
   7  -7  -3 12.6807 25.9774   4
  -7  -7   3 -33.440  25.929   5
  -7  -7   3  2.8339 26.7772   2
   7  -7  -3 17.7794 26.4524   6
   7   7  -3 32.9236 28.3775   4
  -7   7   3 -6.6336 27.6221   2
   6  -7  -3 14.5241 21.3522   6
   6  -7  -3 17.4869 23.4961   4
  -6  -7   3 -12.333  23.863   5
  -6  -7   3 -1.2446 23.3019   2
  -6   7   3 -11.673  20.208   2
  -6   7   3  5.8471 19.4789   3
   6   7  -3 13.5476 19.8070   3
   6   7  -3  6.2559 21.2554   4
   5  -7  -3 964.070  62.917   1
   5  -7  -3 838.132  67.628   4
   5  -7  -3 857.995  68.680   6
  -5  -7   3 854.874  83.237   2
  -5  -7   3 951.142  86.991   5
   5   7  -3 1029.35   69.31   4
  -5   7   3 819.914  66.797   3
   5   7  -3 913.811  68.397   3
  -5   7   3 948.695  68.680   2
   4  -7  -3 1649.61   93.53   4
  -4  -7   3 1588.27   99.31   2
   4  -7  -3 1668.02   86.51   1
   4  -7  -3 1580.00   91.83   6
   4   7  -3 1682.14   89.91   4
   4   7  -3 1546.98   93.14   3
  -4   7   3 1687.44   89.53   2
  -4   7   3 1643.13   95.25   3
  -3  -7   3 463.081  51.901   2
   3  -7  -3 396.517  42.038   4
  -3  -7   3 372.285  34.243   1
   3  -7  -3 412.769  41.520   1
   3  -7  -3 346.438  40.028   6
  -3   7   3 309.373  34.611   2
   3   7  -3 384.617  36.884   4
  -3   7   3 458.255  50.024   3
   3   7  -3 422.013  45.924   3
   2  -7  -3 -1.9611 12.3402   6
  -2  -7   3  2.5571 14.7464   2
   2  -7  -3 13.6458 13.2113   1
   2  -7  -3  2.4598 11.0340   4
  -2  -7   3 -5.7741  9.1953   1
  -2   7   3 12.5511  9.8635   2
  -2   7   3 14.8996 13.6388   3
   2   7  -3 -4.8478  9.2720   3
   2   7  -3 12.0028  9.2542   4
   1  -7  -3 747.321  48.134   1
  -1  -7   3 705.334  54.416   2
   1  -7  -3 693.841  52.167   4
  -1  -7   3 675.170  44.507   1
   1  -7  -3 778.556  48.767   6
  -1   7   3 615.400  48.908   3
   1   7  -3 677.381  48.595   3
  -1   7   3 688.251  37.502   2
   0  -7  -3 4991.81  184.38   2
   0  -7  -3 4859.88  199.04   6
   0  -7  -3 5015.17  198.38   1
   0  -7  -3 4950.36  211.33   4
   0  -7   3 4824.89  196.83   1
   0   7   3 4700.51  204.88   3
   0   7  -3 5090.19  214.13   2
   0   7  -3 4793.98  204.54   3
   1  -7   3 722.042  38.954   6
   1  -7   3 711.487  49.718   1
  -1  -7  -3 685.995  48.619   6
  -1  -7  -3 638.419  46.758   1
  -1  -7  -3 711.785  39.429   2
  -1   7  -3 623.258  62.815   2
  -1   7  -3 638.350  47.122   3
   1   7   3 819.366  53.428   3
   1   7   3 658.700  52.993   4
   2  -7   3 959.659  54.029   6
  -2  -7  -3 901.868  53.772   2
   2  -7   3 925.659  46.453   4
   2  -7   3 939.180  61.362   1
  -2  -7  -3 1002.94   60.41   6
  -2  -7  -3 927.211  62.478   5
  -2  -7  -3 951.572  59.115   1
  -2   7  -3 955.873  65.981   2
   2   7   3 871.500  64.888   4
  -2   7  -3 910.116  57.035   3
   2   7   3 1071.76   61.64   3
   2   7   3 906.205  62.926   6
  -3  -7  -3 192.439  29.511   2
  -3  -7  -3 178.971  29.317   1
  -3  -7  -3 147.657  31.736   5
   3  -7   3 164.311  27.353   6
   3  -7   3 187.170  23.519   4
   3  -7   3 100.565  25.978   1
  -3   7  -3 163.875  32.690   2
   3   7   3 139.059  30.796   4
  -3   7  -3 120.639  22.708   3
   3   7   3 134.699  29.218   6
   3   7   3 142.096  25.184   3
  -4  -7  -3 732.205  56.106   1
  -4  -7  -3 884.355  62.979   2
  -4  -7  -3 701.614  72.713   5
   4  -7   3 668.413  65.002   1
   4  -7   3 799.284  57.846   6
   4   7   3 725.568  73.153   4
   4   7   3 683.015  65.892   6
  -4   7  -3 780.284  76.567   2
   5  -7   3 990.937  73.234   1
  -5  -7  -3 1033.35   94.41   5
  -5  -7  -3 1110.93   79.03   2
   5  -7   3 933.716  71.537   6
  -5  -7  -3 1008.95   68.80   1
   5   7   3 929.265  74.046   6
  -5   7  -3 892.363  89.059   2
   5   7   3 999.406  80.275   4
   6  -7   3 231.563  46.098   6
   6  -7   3 201.462  41.672   1
  -6  -7  -3 292.496  53.416   2
   6   7   3 274.714  52.730   4
   6   7   3 236.896  48.406   6
  -6   7  -3 267.818  52.934   2
   7  -7   3 15.2786 27.7138   6
  -7  -7  -3 -1.4950 31.1591   2
   7   7   3 25.7842 32.0350   4
  -7   7  -3 -25.069  27.734   2
   7   7   3 11.2527 29.6059   6
   8  -8  -3 226.764  54.245   4
  -8  -8   3 156.989  52.582   5
   8   8  -3 259.119  58.991   4
  -7  -8   3 67.2950 39.2366   5
   7  -8  -3 61.0078 33.5194   6
  -7  -8   3 44.8128 35.4552   2
   7  -8  -3 23.6393 29.2623   4
   7   8  -3 53.8110 31.7743   4
   6  -8  -3 2246.81  135.56   6
  -6  -8   3 2696.65  149.11   5
  -6  -8   3 2323.24  144.01   2
   6  -8  -3 2484.02  140.33   4
   6   8  -3 2449.60  138.93   4
  -6   8   3 2646.42  140.25   2
  -6   8   3 2613.85  138.91   3
   6   8  -3 2469.94  138.00   3
   5  -8  -3 87.8782 25.8410   1
  -5  -8   3 174.107  39.840   2
  -5  -8   3 133.787  37.193   5
   5  -8  -3 71.9171 27.4495   6
   5  -8  -3 98.5418 28.3220   4
   5   8  -3 137.768  32.300   3
  -5   8   3 108.886  30.943   3
   5   8  -3 77.2581 25.7777   4
  -5   8   3 78.9581 28.0532   2
   4  -8  -3 41.1338 22.2156   6
  -4  -8   3 16.7588 21.0396   2
   4  -8  -3 -2.1596 16.4336   4
   4  -8  -3 30.2538 17.7187   1
   4   8  -3 27.7701 18.4751   4
  -4   8   3 81.1975 23.4309   2
   4   8  -3 51.0936 21.8980   3
  -4   8   3 47.0029 22.6707   3
  -3  -8   3 88.5423 19.2570   1
   3  -8  -3 103.955  23.750   4
  -3  -8   3 134.268  31.889   2
   3  -8  -3 65.2282 20.5002   1
   3  -8  -3 84.5224 23.7298   6
   3   8  -3 133.284  22.566   4
   3   8  -3 122.754  26.970   3
  -3   8   3 106.160  26.865   3
  -3   8   3 61.4262 18.5335   2
  -2  -8   3 3469.43  171.75   2
   2  -8  -3 3624.05  167.38   4
   2  -8  -3 4004.83  162.54   1
   2  -8  -3 3804.81  163.05   6
  -2  -8   3 3841.33  156.06   1
   2   8  -3 3683.69  169.48   3
  -2   8   3 3676.82  151.63   2
  -2   8   3 3721.94  170.96   3
  -1  -8   3 37.6839 15.0165   1
   1  -8  -3 42.5606 15.7219   1
  -1  -8   3 58.1323 23.2272   2
   1  -8  -3 77.9447 23.3848   4
   1  -8  -3 54.5718 16.9771   6
   1   8  -3 56.4278 19.0593   3
  -1   8   3 69.5776 20.2003   3
  -1   8   3 27.5467 11.6321   2
   0  -8  -3 482.814  45.096   6
   0  -8  -3 471.990  47.527   4
   0  -8   3 443.305  45.335   1
   0  -8  -3 501.931  47.675   1
   0   8   3 497.553  49.566   3
   0   8  -3 590.497  60.224   2
   0   8  -3 638.528  56.856   3
  -1  -8  -3 49.2131 20.8591   5
  -1  -8  -3 77.3130 14.9833   2
  -1  -8  -3 30.8732 17.9970   6
  -1  -8  -3 67.4162 19.4626   1
   1  -8   3 27.6199 16.0847   1
   1  -8   3 81.3097 15.0519   6
   1   8   3 56.7472 19.4001   3
   1   8   3 69.9378 23.2907   4
  -1   8  -3 80.3391 21.2251   3
  -1   8  -3 12.7737 17.8369   2
   2  -8   3 2445.18  104.43   6
  -2  -8  -3 2314.42  112.09   6
  -2  -8  -3 2167.06  110.64   1
  -2  -8  -3 2475.11  117.97   5
   2  -8   3 2324.97  114.99   1
  -2  -8  -3 2360.86  105.88   2
   2   8   3 2293.85  114.26   3
   2   8   3 2497.97  124.40   4
  -2   8  -3 2208.72  120.42   2
   2   8   3 2030.06  113.87   6
  -2   8  -3 2153.57  110.88   3
   3  -8   3 223.460  32.156   6
  -3  -8  -3 275.277  36.853   2
  -3  -8  -3 253.423  36.846   1
  -3  -8  -3 263.803  43.632   5
   3  -8   3 295.763  41.684   1
  -3   8  -3 214.590  39.157   2
   3   8   3 218.608  33.970   3
   3   8   3 211.647  39.474   4
   3   8   3 200.137  35.339   6
  -3   8  -3 238.421  33.916   3
   4  -8   3 168.911  34.205   1
  -4  -8  -3 207.386  42.064   5
  -4  -8  -3 215.313  35.595   1
   4  -8   3 234.386  37.674   6
  -4  -8  -3 204.933  38.218   2
  -4   8  -3 160.046  38.111   2
   4   8   3 198.878  37.463   6
   4   8   3 212.238  41.915   4
  -5  -8  -3 10.2509 21.3798   1
  -5  -8  -3 27.4687 29.8439   5
  -5  -8  -3 13.8885 24.8942   2
   5  -8   3  9.1989 21.6917   6
   5  -8   3  0.0170 19.3991   1
   5   8   3 40.1230 27.1420   6
   5   8   3  2.9333 23.2210   4
  -5   8  -3 -0.5085 25.1521   2
  -6  -8  -3 1254.50   98.58   2
   6  -8   3 1288.27   91.13   1
   6  -8   3 1317.07   93.11   6
  -6   8  -3 1376.14  107.26   2
   6   8   3 1331.26  103.43   4
  -7  -8  -3  9.5452 35.6402   2
   7  -8   3 76.9749 37.6780   6
   7  -8   3 75.4530 31.9810   1
   7   8   3 81.1043 39.2743   4
  -7   8  -3 25.9268 38.3436   2
  -8  -9   3 729.236  99.248   5
  -7  -9   3 21.1192 34.9627   2
   7  -9  -3 57.3988 37.2255   4
  -7  -9   3 112.825  46.216   5
   7  -9  -3 83.7524 38.1758   6
   6  -9  -3 123.934  37.237   6
  -6  -9   3 166.240  44.436   5
   6  -9  -3 184.362  40.778   4
  -6  -9   3 179.627  47.385   2
  -6   9   3 135.553  37.428   3
   6   9  -3 122.650  35.785   3
  -5  -9   3 568.837  71.092   2
   5  -9  -3 414.126  55.709   4
   5  -9  -3 572.578  64.050   6
  -5  -9   3 692.124  77.646   5
   5  -9  -3 493.549  55.252   1
  -5   9   3 599.356  66.252   3
   5   9  -3 560.058  63.613   3
   4  -9  -3 2786.50  145.67   4
   4  -9  -3 3111.25  141.31   1
   4  -9  -3 2900.09  144.77   6
  -4  -9   3 2820.23  153.68   2
  -4   9   3 3021.80  152.60   3
   4   9  -3 3072.64  152.09   3
  -3  -9   3 1000.70   76.79   2
   3  -9  -3 979.195  65.943   1
   3  -9  -3 1162.29   71.50   4
  -3  -9   3 1050.07   62.30   1
   3  -9  -3 1014.56   68.94   6
   3   9  -3 904.414  70.647   3
  -3   9   3 1178.34   77.84   3
  -2  -9   3 413.982  52.020   2
  -2  -9   3 493.760  44.842   1
   2  -9  -3 426.298  47.113   1
   2  -9  -3 540.894  51.066   6
   2  -9  -3 579.124  53.301   4
  -2   9   3 518.283  55.323   3
   2   9  -3 515.855  53.246   3
  -1  -9   3 809.905  55.007   1
  -1  -9   3 881.953  65.995   2
   1  -9  -3 874.677  56.742   6
   1  -9  -3 832.448  58.370   1
   1  -9  -3 888.272  65.253   4
   1   9  -3 797.531  60.558   3
  -1   9   3 839.087  63.035   3
   0  -9   3 1154.64   72.17   1
   0  -9  -3 1260.52   71.67   6
   0  -9  -3 1225.36   73.69   1
   0  -9  -3 1264.11   74.68   4
   0   9   3 1243.82   78.12   4
   0   9   3 1240.82   79.08   3
   0   9  -3 1254.68   80.85   2
   0   9  -3 1209.81   76.57   3
  -1  -9  -3 691.143  53.143   1
  -1  -9  -3 664.012  51.693   6
  -1  -9  -3 700.705  54.427   5
   1  -9   3 706.467  54.495   1
   1   9   3 735.050  56.832   4
  -1   9  -3 595.922  65.796   2
   1   9   3 616.114  59.856   3
  -1   9  -3 664.231  52.901   3
  -2  -9  -3 240.493  34.944   1
  -2  -9  -3 209.525  33.819   6
  -2  -9  -3 226.403  38.050   5
   2  -9   3 213.705  29.495   6
   2  -9   3 229.819  36.212   1
   2   9   3 213.323  33.735   3
   2   9   3 264.166  41.448   4
  -2   9  -3 219.233  33.517   3
   2   9   3 162.925  33.341   6
  -2   9  -3 195.363  38.348   2
   3  -9   3 336.413  45.976   1
  -3  -9  -3 321.962  49.186   5
   3  -9   3 395.502  43.406   6
  -3  -9  -3 440.232  48.892   1
  -3   9  -3 289.379  46.788   2
   3   9   3 259.617  41.794   6
   3   9   3 379.785  46.068   3
   3   9   3 350.232  48.602   4
  -3   9  -3 344.373  42.333   3
   4  -9   3 979.123  74.953   1
  -4  -9  -3 1002.86   94.57   5
   4  -9   3 1128.86   73.87   6
  -4  -9  -3 1100.64   74.81   1
   4   9   3 1112.79   84.12   4
  -4   9  -3 1168.71   87.17   2
   4   9   3 1184.60   80.48   6
   5  -9   3 697.059  70.223   6
  -5  -9  -3 588.481  78.032   5
  -5  -9  -3 738.587  68.428   1
   5  -9   3 723.639  73.285   1
   5   9   3 732.190  80.983   4
  -5   9  -3 803.981  86.581   2
   6  -9   3 253.769  49.539   1
   6  -9   3 283.927  50.257   6
   6   9   3 270.464  57.234   4
  -6   9  -3 227.298  54.824   2
   7  -9   3 11.1272 32.8304   6
   7  -9   3 19.6720 30.3998   1
  -7   9  -3 -0.5579 35.6572   2
   7   9   3  0.7121 35.2801   4
  -9 -10   3 116.496  54.523   5
  -8 -10   3 -17.033  41.632   5
  -7 -10   3 642.570  88.390   2
   7 -10  -3 663.569  80.458   6
  -7 -10   3 773.729  97.697   5
  -6 -10   3 345.894  63.539   2
   6 -10  -3 245.520  49.986   6
  -6 -10   3 283.309  60.938   5
   6  10  -3 279.870  51.388   3
   5 -10  -3 711.182  72.541   6
  -5 -10   3 636.537  78.686   5
   5 -10  -3 542.052  58.938   1
  -5 -10   3 698.943  80.675   2
   5  10  -3 813.384  81.478   3
  -5  10   3 504.318  64.105   3
  -4 -10   3 -5.7083 23.5206   2
   4 -10  -3 11.1084 21.8973   4
   4 -10  -3  3.5260 18.6378   1
   4 -10  -3 10.8150 20.2393   6
  -4  10   3 -10.781  18.666   3
   4  10  -3 23.9909 21.7404   3
  -3 -10   3 1445.55   81.05   1
   3 -10  -3 1503.71   86.91   1
   3 -10  -3 1425.45   87.76   4
   3 -10  -3 1578.07   89.63   6
  -3 -10   3 1436.43   96.98   2
  -3  10   3 1359.01   92.82   3
   3  10  -3 1425.76   93.68   3
   2 -10  -3 231.855  36.563   4
  -2 -10   3 248.868  35.040   1
   2 -10  -3 263.882  38.989   1
  -2 -10   3 272.592  44.288   2
   2 -10  -3 251.077  37.259   6
  -2  10   3 261.513  42.405   3
   2  10  -3 218.479  38.765   3
  -1 -10   3 2015.65  113.47   2
   1 -10  -3 2102.97  104.09   6
   1 -10  -3 2086.56  110.69   4
  -1 -10   3 2006.19  103.17   1
   1 -10  -3 1971.78  106.04   1
   1  10  -3 2171.36  115.55   3
  -1  10   3 1987.58  114.36   3
   0 -10  -3 -3.6583 14.8162   6
   0 -10  -3 -10.066  12.452   1
   0 -10   3 13.6092 15.3792   1
   0  10   3 10.7543 19.8747   4
   0  10   3  8.4426 16.6599   3
   0  10  -3 -15.653  11.184   3
   0  10  -3  8.2290 20.5143   2
  -1 -10  -3 730.587  64.570   5
   1 -10   3 630.632  61.512   1
  -1 -10  -3 623.812  57.099   6
  -1 -10  -3 600.069  58.347   1
   1  10   3 620.155  61.421   3
  -1  10  -3 482.125  62.853   2
  -1  10  -3 779.511  59.042   3
   1  10   3 818.602  59.835   4
  -2 -10  -3 140.274  32.686   5
  -2 -10  -3 217.207  35.094   1
  -2 -10  -3 175.097  33.086   6
   2 -10   3 199.102  35.797   1
   2  10   3 194.821  36.685   3
  -2  10  -3 181.165  32.922   3
   2  10   3 182.935  34.173   4
   2  10   3 151.596  34.150   6
  -2  10  -3 216.392  45.086   2
  -3 -10  -3 3398.67  167.77   5
   3 -10   3 3247.48  163.00   1
  -3 -10  -3 3655.86  164.44   1
   3 -10   3 3511.07  152.86   6
  -3  10  -3 3344.13  160.04   3
   3  10   3 3311.54  163.26   3
  -3  10  -3 3263.08  172.07   2
   3  10   3 3385.69  170.47   4
   4 -10   3  0.5688 21.6919   1
  -4 -10  -3  0.9546 21.5065   1
   4 -10   3 92.4950 28.1069   6
  -4 -10  -3 43.3838 29.8736   5
  -4  10  -3 60.1650 32.4058   2
   4  10   3 16.4597 24.7523   4
  -5 -10  -3 35.7382 27.3873   1
   5 -10   3 18.5626 26.4774   6
  -5 -10  -3 69.8896 39.1006   5
   5 -10   3 23.3134 23.6403   1
   5  10   3 40.1303 29.3240   4
  -5  10  -3 23.3622 30.1977   2
  -6 -10  -3 103.735  45.928   5
   6 -10   3 41.9523 31.7452   6
   6 -10   3 72.7919 33.4084   1
  -6  10  -3  8.8573 34.7370   2
   6  10   3 -14.156  29.431   4
   7 -10   3 1360.84  103.87   1
   7 -10   3 1337.62  106.48   6
  -9 -11   3 524.381  97.035   5
  -8 -11   3 84.2830 53.3679   5
  -7 -11   3 323.536  67.198   2
   7 -11  -3 341.694  64.738   6
  -7 -11   3 434.980  78.227   5
   6 -11  -3 43.4605 31.3578   6
  -6 -11   3 17.9925 33.2953   2
  -6 -11   3 10.2555 35.7960   5
   6  11  -3 -3.5571 28.0551   3
   5 -11  -3 562.691  64.819   1
  -5 -11   3 687.779  83.123   2
   5 -11  -3 556.803  68.248   6
  -5 -11   3 511.221  75.134   5
   5  11  -3 624.581  75.763   3
  -5  11   3 694.572  78.140   3
   4 -11  -3 81.9847 27.5147   1
   4 -11  -3 77.8870 29.5652   6
  -4 -11   3 69.8487 30.6060   2
  -4  11   3 114.189  35.332   3
   4  11  -3 133.094  35.046   3
  -3 -11   3 428.567  46.769   1
  -3 -11   3 452.223  60.420   2
   3 -11  -3 497.929  55.174   6
   3 -11  -3 453.649  51.825   1
  -3  11   3 517.881  63.577   3
   3  11  -3 386.397  54.614   3
  -2 -11   3 39.4160 23.6046   2
   2 -11  -3 13.1500 17.6709   1
  -2 -11   3 -15.811  16.265   1
   2 -11  -3  6.2937 18.0142   6
   2  11  -3  3.1098 15.6657   3
  -2  11   3 12.4685 19.0503   3
  -1 -11   3 3507.95  154.90   1
   1 -11  -3 3479.09  152.56   6
  -1 -11   3 3329.59  165.05   2
   1 -11  -3 3217.91  156.17   1
   1  11  -3 3183.00  164.71   3
  -1  11   3 3250.83  167.15   3
   0 -11  -3 970.873  69.556   1
   0 -11  -3 875.228  61.756   6
   0 -11   3 986.968  69.413   1
   0  11  -3 942.565  72.096   3
   0  11   3 1034.55   74.41   3
   0  11  -3 1062.63   80.02   2
   1 -11   3 3608.91  167.04   1
  -1 -11  -3 3694.46  159.39   6
  -1 -11  -3 3380.14  162.72   1
  -1 -11  -3 3353.58  161.63   5
   1  11   3 3783.77  168.61   4
   1  11   3 3296.74  167.75   3
  -1  11  -3 3169.62  165.05   3
  -1  11  -3 3573.06  176.34   2
  -2 -11  -3 120.215  31.803   1
   2 -11   3 52.5480 25.5337   1
  -2 -11  -3 121.748  32.859   5
  -2  11  -3 119.692  29.140   3
   2  11   3 139.293  32.463   3
   2  11   3 38.2995 23.1801   4
  -2  11  -3 86.4292 34.5526   2
  -3 -11  -3 92.9805 29.6175   1
   3 -11   3 141.025  34.911   1
  -3 -11  -3 142.741  38.973   5
   3  11   3 129.073  32.327   3
   3  11   3 65.8887 28.8822   4
  -3  11  -3 86.9297 36.1308   2
  -3  11  -3 68.5568 26.5695   3
   4 -11   3 -11.963  22.435   1
  -4 -11  -3 11.9582 30.1986   5
  -4 -11  -3 -15.982  19.900   1
   4  11   3 14.7166 27.4111   4
  -4  11  -3 -14.130  27.329   2
   5 -11   3 786.790  84.203   1
  -5 -11  -3 1095.84   83.66   1
  -5 -11  -3 935.825 104.195   5
   5  11   3 1105.01   89.61   4
  -5  11  -3 987.481 104.028   2
  -6 -11  -3 -42.030  31.170   5
   6 -11   3 12.3072 30.6202   6
   6 -11   3 33.4440 34.3586   1
  -6  11  -3 -9.0276 34.6152   2
   6  11   3 28.5332 32.6165   4
  -9 -12   3 -55.060  51.804   5
  -8 -12   3 50.2206 53.0271   5
  -7 -12   3 374.743  73.230   5
   6 -12  -3 818.998  89.443   6
  -6 -12   3 817.744  99.192   2
  -6 -12   3 810.519 103.330   5
   6  12  -3 862.341  97.760   3
   5 -12  -3 333.758  51.466   1
   5 -12  -3 535.464  69.082   6
  -5 -12   3 528.557  78.529   5
  -5 -12   3 472.021  73.202   2
   5  12  -3 473.502  69.980   3
  -5  12   3 476.123  66.961   3
   4 -12  -3 36.9219 26.7393   6
  -4 -12   3 47.8853 31.0016   2
   4 -12  -3  5.0767 23.0752   1
   4  12  -3 72.8447 33.5868   3
  -4  12   3 98.7835 32.6273   3
  -3 -12   3 236.087  39.437   1
  -3 -12   3 326.479  54.317   2
   3 -12  -3 203.756  39.440   1
   3 -12  -3 242.560  42.943   6
  -3  12   3 315.548  52.744   3
   3  12  -3 140.651  36.758   3
  -2 -12   3 1701.18  107.44   2
   2 -12  -3 1726.47  100.13   1
   2 -12  -3 1694.61   96.01   6
  -2 -12   3 1704.89   95.83   1
  -2  12   3 1539.91  106.53   3
   2  12  -3 1629.77  106.75   3
   1 -12  -3 264.665  42.127   1
   1 -12  -3 288.292  39.374   6
  -1 -12   3 193.583  35.044   1
  -1 -12   3 241.343  46.278   2
   1  12  -3 259.190  44.697   3
  -1  12   3 332.722  50.122   3
   0 -12   3 455.705  53.388   1
   0 -12  -3 398.807  51.020   1
   0  12   3 493.906  58.977   3
   0  12  -3 441.280  59.574   2
   0  12  -3 569.476  64.396   3
  -1 -12  -3 788.433  74.551   1
   1 -12   3 1035.71   74.61   1
  -1 -12  -3 1030.62   73.46   5
   1  12   3 965.655  74.376   3
  -1  12  -3 1000.43   74.38   3
  -1  12  -3 1066.89   81.67   2
  -2 -12  -3 1006.76   76.92   1
   2 -12   3 821.795  79.855   1
  -2 -12  -3 906.729  84.912   5
   2  12   3 1052.52   78.31   3
  -2  12  -3 1045.20   77.28   3
  -2  12  -3 1219.14   95.02   2
  -3 -12  -3 1502.74  105.79   5
   3 -12   3 1849.19  111.26   1
  -3 -12  -3 1597.68  102.60   1
  -3  12  -3 1650.34  119.17   2
   3  12   3 1448.13  100.41   3
  -3  12  -3 1767.77  104.88   3
  -4 -12  -3 61.8191 37.9690   5
  -4 -12  -3 102.516  36.010   1
   4 -12   3 27.1682 28.7640   1
  -4  12  -3 65.5772 37.7827   2
  -5 -12  -3 -5.2710 31.7502   5
   5 -12   3 26.4289 29.9414   1
  -5 -12  -3 -3.1359 29.2683   1
  -5  12  -3 -25.294  32.351   2
   6 -12   3 770.372  88.711   1
  -6 -12  -3 596.293  92.361   5
  -6  12  -3 751.257 100.162   2
  -9 -13   3 -5.7524 56.9311   5
  -8 -13   3 937.269 122.537   5
  -7 -13   3  6.2449 45.5067   5
   6 -13  -3 50.0124 40.5780   6
  -6 -13   3 74.2774 46.1311   5
  -6 -13   3 26.8464 39.5708   2
   5 -13  -3 -0.8360 25.3572   1
  -5 -13   3 18.6914 34.9722   5
   5 -13  -3  9.2223 32.1863   6
  -5 -13   3 -18.983  31.933   2
  -5  13   3 26.4307 26.5797   3
   5  13  -3 -19.784  24.787   3
   4 -13  -3 1990.86  122.91   1
   4 -13  -3 2448.05  133.03   6
  -4 -13   3 2159.14  136.97   2
   4  13  -3 2166.83  141.16   3
  -4  13   3 2408.32  143.64   3
   3 -13  -3 26.1686 24.0246   1
  -3 -13   3  6.5525 24.2079   1
  -3 -13   3 -2.9704 26.7892   2
   3 -13  -3 14.9518 24.7306   6
   3  13  -3  3.8529 20.2640   3
  -3  13   3 17.2976 24.6492   3
  -2 -13   3 274.740  40.958   1
  -2 -13   3 157.149  40.569   2
   2 -13  -3 163.582  35.275   1
  -2  13   3 184.382  43.236   3
   2  13  -3 176.226  40.229   3
  -1 -13   3 20.7318 21.6185   1
  -1 -13   3 31.9523 26.6318   2
   1 -13  -3 53.3039 26.0032   1
  -1  13   3 52.6739 26.2751   3
   1  13  -3 34.3361 22.1647   3
   0 -13  -3 1793.87  107.01   1
   0 -13   3 1774.50  104.61   1
   0 -13   3 1992.73  113.74   2
   0  13   3 1518.57  106.67   3
   0  13  -3 1711.30  111.87   3
   0  13  -3 1807.09  112.80   2
  -1 -13  -3 16.0554 26.8547   5
   1 -13   3 -9.0041 19.5701   1
  -1 -13  -3 35.7201 23.2813   1
  -1  13  -3 26.6180 22.9934   3
  -1  13  -3 36.4331 28.9568   2
   1  13   3 28.1984 22.7094   3
   2 -13   3 115.348  33.639   1
  -2 -13  -3 61.5353 32.5188   5
  -2 -13  -3 123.123  34.886   1
  -2  13  -3 72.8155 37.3005   2
   2  13   3 94.6742 29.6396   3
  -2  13  -3 69.0022 28.4047   3
  -3 -13  -3 35.6560 31.8764   5
   3 -13   3 33.8927 25.2540   1
  -3 -13  -3 154.154  39.719   1
  -3  13  -3 56.0575 42.0933   2
  -3  13  -3 107.939  31.993   3
   3  13   3 100.317  33.758   3
  -4 -13  -3 1395.61  129.90   5
   4 -13   3 1639.86  111.06   1
  -4 -13  -3 1742.61  113.43   1
  -4  13  -3 1656.28  126.93   2
  -5 -13  -3 114.915  46.984   5
   5 -13   3 70.5588 35.1108   1
  -5  13  -3 84.4721 50.2426   2
  -6 -13  -3 425.971  81.075   5
  -9 -14   3 14.5709 65.8972   5
  -8 -14   3 45.7002 60.7008   5
  -7 -14   3 42.1057 52.1474   5
   6 -14  -3 1581.62  120.31   6
  -6 -14   3 1542.50  150.41   5
  -5 -14   3 117.196  46.890   5
  -5 -14   3 130.449  50.227   2
   5 -14  -3 73.9824 33.2867   1
   5  14  -3 70.3239 42.8113   3
  -5  14   3 49.8655 36.7520   3
   4 -14  -3 66.4114 33.5998   1
  -4 -14   3 97.5446 42.0275   2
   4  14  -3 92.7370 39.5873   3
  -4  14   3  3.7642 27.6667   3
   3 -14  -3 564.912  66.830   1
  -3 -14   3 445.264  66.053   2
  -3  14   3 409.605  63.118   3
   3  14  -3 547.199  73.375   3
  -2 -14   3 1319.22   96.20   2
  -2 -14   3 1161.20   84.52   1
   2 -14  -3 1239.52   88.50   1
  -2  14   3 1263.78   96.27   3
   2  14  -3 1165.17   94.21   3
  -1 -14   3 425.500  61.290   2
   1 -14  -3 386.669  52.939   1
  -1 -14   3 481.131  56.755   1
   1  14  -3 204.183  43.451   3
  -1  14   3 506.347  63.105   3
   0 -14   3 12.2131 21.0222   1
   0 -14  -3 12.0922 21.8811   1
   0 -14   3 18.0000 28.3582   2
   0  14  -3  2.1199 20.2652   3
   0  14   3  6.6197 20.5857   3
  -1 -14  -3 141.334  37.987   1
   1 -14   3 55.2367 28.8786   1
  -1  14  -3 108.670  34.806   3
  -1  14  -3 33.9803 29.1937   2
   1  14   3 88.4689 30.6558   3
   2 -14   3 1141.82   92.02   1
  -2 -14  -3 1325.57   95.70   1
  -2 -14  -3 1413.15   98.20   5
  -2  14  -3 1288.57  102.69   2
   2  14   3 1309.04   96.69   3
  -2  14  -3 1439.92   97.24   3
  -3 -14  -3 165.786  45.977   5
   3 -14   3 105.404  36.722   1
  -3 -14  -3 124.059  38.125   1
  -3  14  -3 183.291  43.076   3
  -3  14  -3 234.990  60.227   2
   3  14   3 204.297  47.359   3
  -4 -14  -3 236.622  55.695   5
   4 -14   3 168.477  44.699   1
  -4 -14  -3 245.887  52.983   1
  -4  14  -3 184.968  61.885   2
  -5 -14  -3 12.2164 39.0472   5
  -6 -14  -3 517.029  90.732   5
  -8 -15   3 235.491  84.174   5
  -7 -15   3 147.478  68.796   5
  -6 -15   3 60.9697 49.7732   5
  -5 -15   3 507.839  86.158   5
   4 -15  -3 420.551  62.626   1
  -4  15   3 328.865  60.618   3
   4  15  -3 109.494  43.304   3
   3 -15  -3 501.936  65.908   1
  -3  15   3 410.342  66.907   3
   3  15  -3 515.204  75.177   3
   2 -15  -3 28.8708 25.7367   1
  -2 -15   3 -0.3331 24.9930   1
  -2  15   3 26.3336 25.9299   3
   2  15  -3 23.0400 28.5930   3
  -1 -15   3 403.950  55.763   1
   1 -15  -3 419.255  57.477   1
   1  15  -3 339.769  57.670   3
  -1  15   3 487.224  68.638   3
   0 -15   3 441.854  60.296   1
   0 -15  -3 367.910  56.143   1
   0  15   3 480.982  65.761   3
   0  15  -3 436.377  62.982   3
  -1 -15  -3 1109.61   99.84   1
   1 -15   3 1168.76   90.52   1
   1  15   3 1197.66   94.07   3
  -1  15  -3 1368.41  100.55   3
   2 -15   3 11.1410 27.8472   1
  -2 -15  -3 -2.5394 31.7579   5
  -2 -15  -3 -3.3045 26.9264   1
  -2  15  -3 38.5471 29.0807   3
   2  15   3 46.2914 28.9200   3
  -3 -15  -3 206.434  50.248   1
  -3 -15  -3 219.389  50.270   5
   3 -15   3 209.214  48.252   1
   3  15   3 295.754  58.702   3
  -3  15  -3 235.434  48.408   3
  -4 -15  -3 112.303  46.279   1
  -4 -15  -3 100.780  44.711   5
  -5 -15  -3 1702.61  136.09   5
  -6 -15  -3 49.4758 47.5383   5
  -8 -16   3 -3.5283 67.5317   5
  -7 -16   3 629.220 107.016   5
  -6 -16   3 -1.0159 44.8008   5
  -5 -16   3 255.334  64.567   5
   3 -16  -3 1073.08   98.62   1
   3  16  -3 841.053 101.672   3
  -3  16   3 841.715  98.030   3
   2 -16  -3 -5.4080 24.3339   1
  -2 -16   3 12.7535 29.4476   1
   2  16  -3 25.0573 29.3696   3
  -2  16   3 41.0463 28.8042   3
   1 -16  -3 787.772  80.700   1
  -1 -16   3 576.769  70.469   1
   1  16  -3 705.620  82.194   3
  -1  16   3 845.723  91.646   3
   0 -16   3 -8.7097 26.6121   1
   0 -16  -3 27.5450 29.3792   1
   0  16   3 -11.671  21.735   3
   0  16  -3 -2.4672 21.4225   3
   1 -16   3 654.264  75.700   1
  -1 -16  -3 470.424  67.919   1
   1  16   3 547.722  72.416   3
  -1  16  -3 675.597  83.086   3
   2 -16   3 74.6657 34.6378   1
  -2 -16  -3 115.780  42.594   1
   2  16   3 167.397  46.118   3
  -2  16  -3 76.8199 35.7318   3
  -3 -16  -3 1148.37  110.12   1
  -3 -16  -3 1297.09  121.91   5
  -3  16  -3 1425.72  105.98   3
   3  16   3 1428.77  109.60   3
  -4 -16  -3 19.2087 39.9879   5
  -5 -16  -3 146.612  57.288   5
  -6 -16  -3 -22.167  44.592   5
  -7 -17   3 -23.373  57.610   5
  -6 -17   3  4.5488 47.8156   5
  -5 -17   3 897.152 117.413   5
  -2 -17   3 24.3713 33.9168   1
  -1 -17   3 101.436  39.143   1
   0 -17   3 693.388  82.018   1
   0  17  -3 693.814  86.064   3
   0  17   3 647.481  81.786   3
   1  17   3 371.805  61.197   3
  -1  17  -3 373.339  64.700   3
  -3 -17  -3 367.338  69.002   5
  -4 -17  -3 349.571  74.906   5
  -5 -17  -3 858.977 113.269   5
  -6 -17  -3 189.259  68.274   5
  -7 -18   3 -13.779  63.261   5
  -6 -18   3 630.504 107.888   5
  -5 -18   3 -85.977  43.733   5
  -4 -18  -3 76.1418 57.0406   5
  -5 -18  -3 37.8619 49.9858   5
  -6 -18  -3 460.714  94.907   5
  -6 -19   3 -21.450  52.631   5
  -5 -19   3 28.2288 51.4577   5
  -4 -19   3 675.413  98.798   5
  -5 -19  -3  1.6284 52.8693   5
  -6 -19  -3 -22.336  55.316   5
  -5 -20   3 76.0748 60.4863   5
  -4 -20   3 -1.5541 42.9305   5
  -4 -21   3 14.7493 53.5464   5
  -3 -22   3 125.599  62.343   5
   9   0  -4  6.5089 32.7561   6
   8   0  -4 879.368  85.784   6
   8   0  -4 931.838  93.794   4
  -8   0   4 788.562  89.264   2
   7   0  -4 -7.2642 18.7535   6
   7   0  -4 -7.1754 19.2180   4
  -7   0   4 -5.6469 23.0047   2
  -6   0   4 3016.23  150.47   2
   6   0  -4 2765.20  148.28   4
   6   0  -4 2707.85  139.80   6
  -6   0   4 2943.23  148.48   3
   5   0  -4 13.6408 15.4311   6
  -5   0   4 -11.692  13.607   2
   5   0  -4  0.5414 13.6794   4
   5   0  -4  5.6376 13.4980   3
   4   0  -4 378.574  39.468   6
   4   0  -4 452.659  44.870   4
   4   0  -4 375.927  42.409   3
  -4   0   4 447.150  44.574   2
   3   0  -4 15.4985 11.3836   3
  -3   0   4 -0.7766  9.9741   2
   3   0  -4 17.2076 11.1259   4
   3   0  -4 15.8357 10.9658   6
   2   0  -4 4847.32  194.84   6
  -2   0   4 5026.09  196.87   2
   2   0  -4 4996.45  202.45   3
   2   0  -4 5137.10  205.56   4
   2   0  -4 5079.95  179.24   1
   1   0  -4 4.46250 7.67819   6
   1   0  -4 -7.1890  8.0248   4
  -1   0   4 -4.0400  5.9895   2
   1   0  -4 -3.1517  6.8860   3
   1   0  -4 0.25381 5.84144   1
   0   0  -4 468.243  30.371   3
   0   0  -4 484.449  29.542   1
   0   0  -4 429.961  35.338   2
   0   0  -4 533.320  31.369   6
   0   0  -4 497.653  40.682   4
   1   0   4 19.1753 12.4076   4
  -1   0  -4 10.3582  8.2342   6
   1   0   4 41.6705 12.7420   6
  -1   0  -4 17.8839  7.0429   3
  -1   0  -4 3.57340 9.07073   2
  -1   0  -4 24.7977 10.3621   1
   2   0   4 6004.11  243.41   6
  -2   0  -4 6283.58  245.47   2
  -2   0  -4 6256.91  239.23   1
   2   0   4 6303.76  253.87   4
  -3   0  -4 -0.9328 12.0464   2
  -3   0  -4 10.9433 12.3231   1
   3   0   4  6.7027 11.8658   6
   3   0   4 20.7578 12.6052   4
  -4   0  -4 -2.3600 12.1421   1
   4   0   4  6.1217 12.6898   6
   4   0   4 -5.5000 13.2140   4
  -4   0  -4  1.1793 14.4607   2
   5   0   4 -4.8710 16.6245   4
  -5   0  -4 -12.064  16.753   1
  -5   0  -4 -0.0111 18.5199   2
   5   0   4 -4.1989 16.6681   6
   6   0   4 1808.46  109.51   6
  -6   0  -4 1690.26   97.28   1
   6   0   4 1712.64  108.24   4
  -6   0  -4 1808.96  113.19   2
   7   0   4 12.6908 21.9932   4
  -7   0  -4 -16.418  23.673   2
   7   0   4  2.0031 22.5106   6
  -8   0  -4 46.3797 34.2998   2
   8   0   4 18.2678 30.6322   6
   8   0   4  5.7834 29.1338   4
   9   1  -4 341.766  62.207   6
   8  -1  -4 1575.25  108.55   6
  -8  -1   4 1686.55  116.42   2
   8  -1  -4 1395.44  108.10   4
   8   1  -4 1364.79  106.53   4
   8   1  -4 1564.19  107.80   6
  -8   1   4 1640.44  117.56   2
   7  -1  -4 34.2462 23.3350   6
   7  -1  -4 38.9023 24.0995   4
  -7  -1   4 27.6403 25.0129   2
   7   1  -4 13.2686 21.8606   6
  -7   1   4 -4.7156 23.6098   2
   7   1  -4 47.5705 26.7734   4
   6  -1  -4 272.206  41.485   6
  -6  -1   4 326.650  43.992   5
  -6  -1   4 263.481  44.642   2
   6  -1  -4 299.154  44.958   4
  -6   1   4 304.863  46.316   2
   6   1  -4 282.974  44.369   4
   6   1  -4 269.818  42.450   3
  -6   1   4 314.469  46.254   3
   6   1  -4 339.478  43.740   6
   5  -1  -4 1415.54   84.70   4
   5  -1  -4 1416.48   80.52   6
  -5  -1   4 1283.92   75.70   5
  -5  -1   4 1314.01   83.33   2
  -5   1   4 1320.03   83.61   3
  -5   1   4 1388.85   83.50   2
   5   1  -4 1375.88   77.68   6
   5   1  -4 1241.28   80.00   3
   5   1  -4 1277.75   81.27   4
   4  -1  -4 718.330  49.761   6
   4  -1  -4 745.882  53.398   4
  -4  -1   4 616.437  50.975   2
   4   1  -4 713.670  47.109   6
  -4   1   4 638.909  52.171   3
  -4   1   4 746.621  51.647   2
   4   1  -4 724.321  52.826   3
   4   1  -4 686.458  50.257   4
  -3  -1   4 222.903  29.500   2
   3  -1  -4 204.043  26.294   6
   3  -1  -4 240.845  29.719   4
   3  -1  -4 216.027  30.240   3
   3   1  -4 239.306  29.520   4
   3   1  -4 244.849  32.189   3
  -3   1   4 234.761  27.965   2
   3   1  -4 202.072  25.582   6
  -3   1   4 221.239  30.840   3
   2  -1  -4 1562.84   81.99   3
   2  -1  -4 1719.82   82.78   4
   2  -1  -4 1747.91   67.10   1
   2  -1  -4 1698.69   79.42   6
  -2  -1   4 1596.23   79.82   2
  -2   1   4 1683.51   84.50   3
  -2   1   4 1727.05   76.26   2
   2   1  -4 1779.38   81.11   4
   2   1  -4 1787.92   76.59   6
   2   1  -4 1681.71   83.11   3
   1  -1  -4 2033.42   90.08   6
   1  -1  -4 2173.88   96.35   4
  -1  -1   4 2083.13   91.66   2
   1  -1  -4 2141.96   82.86   1
  -1   1   4 1970.58   84.19   2
  -1   1   4 1973.39   93.36   3
   1   1  -4 2081.08   80.92   1
   1   1  -4 1950.16   91.75   3
   1   1  -4 2192.73   92.71   4
   1   1  -4 2080.42   85.72   6
   0  -1  -4 5517.52  195.59   1
   0  -1  -4 5435.68  200.41   6
   0  -1  -4 4388.62  199.08   2
   0  -1  -4 5098.10  220.57   4
   0   1  -4 5223.80  214.51   4
   0   1  -4 5360.57  196.22   6
   0   1  -4 5226.95  194.44   1
   0   1   4 5478.66  202.49   3
   0   1  -4 5129.51  210.05   2
   0   1  -4 5148.75  200.14   3
   1  -1   4 1382.53   69.74   6
  -1  -1  -4 1500.90   71.07   6
   1  -1   4 1483.33   73.79   4
  -1  -1  -4 1585.35   70.88   1
  -1  -1  -4 1537.57   69.16   2
  -1   1  -4 1531.06   68.90   6
   1   1   4 1432.19   73.24   6
  -1   1  -4 1533.41   64.36   3
  -1   1  -4 1478.62   69.66   1
   1   1   4 1364.70   76.93   4
   1   1   4 1533.54   64.30   3
  -1   1  -4 1626.32   74.99   2
   2  -1   4 44.4994 14.4112   6
  -2  -1  -4 33.8200 13.1983   2
   2  -1   4 54.3969 14.4930   4
  -2  -1  -4 53.1026 15.2422   1
   2   1   4 49.9916 15.3496   4
  -2   1  -4 59.5437 15.2182   1
   2   1   4 45.7999 15.3904   6
  -2   1  -4 16.8495 12.7345   2
   3  -1   4 1279.09   75.00   4
  -3  -1  -4 1426.68   77.94   2
  -3  -1  -4 1358.06   73.64   1
   3  -1   4 1381.03   76.75   6
   3   1   4 1414.55   77.71   6
  -3   1  -4 1407.92   74.03   1
   3   1   4 1588.06   83.42   4
  -3   1  -4 1440.07   79.77   2
  -4  -1  -4 1250.99   70.06   1
  -4  -1  -4 1048.08   71.68   2
   4  -1   4 1094.23   70.38   4
   4  -1   4 1066.46   70.43   6
   4   1   4 1123.58   71.69   6
   4   1   4 1094.58   74.18   4
  -4   1  -4 1196.53   69.22   1
  -4   1  -4 1098.08   73.53   2
   5  -1   4 988.057  69.961   6
  -5  -1  -4 873.228  62.170   1
  -5  -1  -4 923.804  70.129   2
   5  -1   4 808.236  64.573   4
  -5   1  -4 942.836  71.425   2
  -5   1  -4 863.547  61.314   1
   5   1   4 862.888  68.741   4
   5   1   4 896.553  68.062   6
   6  -1   4 74.4724 29.0282   1
   6  -1   4 63.9248 25.9296   6
   6  -1   4 15.1705 22.1057   4
  -6  -1  -4 30.8614 25.3003   2
  -6  -1  -4 46.0332 22.9503   1
   6   1   4 50.9225 24.6601   6
   6   1   4 66.5873 27.6990   4
  -6   1  -4 52.5233 26.7297   2
   7  -1   4 109.684  35.150   4
   7  -1   4 40.1996 26.6322   6
  -7  -1  -4 111.214  38.967   2
   7   1   4 72.5344 33.2704   6
  -7   1  -4 80.8541 33.8801   2
   7   1   4 32.6730 25.0661   4
   8  -1   4 1806.61  123.74   4
  -8  -1  -4 1496.75  119.84   2
   8   1   4 1621.84  120.41   4
  -8   1  -4 1592.54  123.81   2
   8  -2  -4 100.721  36.407   4
  -8  -2   4 126.207  43.995   2
   8  -2  -4 152.670  42.422   6
  -8   2   4 186.648  45.777   2
   8   2  -4 124.931  40.353   4
   8   2  -4 110.059  36.009   6
  -7  -2   4 931.913  91.084   2
   7  -2  -4 978.933  77.483   6
   7  -2  -4 997.522  81.681   4
   7   2  -4 910.772  72.921   6
  -7   2   4 878.475  88.835   2
   7   2  -4 991.450  80.471   4
   6  -2  -4 171.478  34.401   4
  -6  -2   4 115.062  31.660   5
  -6  -2   4 145.455  35.725   2
   6  -2  -4 164.912  33.593   6
   6   2  -4 111.849  29.966   4
   6   2  -4 122.780  32.484   3
   6   2  -4 147.540  30.482   6
  -6   2   4 73.1759 29.0476   2
  -6   2   4 117.721  31.313   3
   5  -2  -4 18.8734 15.2442   6
  -5  -2   4 -16.580  14.750   2
  -5  -2   4 27.8139 18.2638   5
   5  -2  -4 20.5491 16.9744   4
  -5   2   4 19.1040 18.0752   2
   5   2  -4 22.1354 15.1576   4
  -5   2   4  8.5869 16.4806   3
   5   2  -4 19.9492 14.2962   6
   5   2  -4  5.3851 15.0413   3
   4  -2  -4 22.7635 13.5949   6
   4  -2  -4 50.1102 16.6925   4
  -4  -2   4 24.1658 15.5469   2
  -4   2   4 39.9707 17.7509   3
   4   2  -4  2.9902 10.0938   6
  -4   2   4  9.1635 12.4364   2
   4   2  -4 34.2413 15.0498   4
   4   2  -4 19.9612 13.7601   3
   3  -2  -4 6614.30  238.79   1
   3  -2  -4 6639.75  270.20   4
   3  -2  -4 6609.42  258.92   6
  -3  -2   4 6600.36  263.63   2
   3   2  -4 6823.61  266.21   3
  -3   2   4 6619.60  266.83   3
  -3   2   4 6626.10  256.83   2
   3   2  -4 6247.94  251.24   6
   3   2  -4 6684.29  267.67   4
  -2  -2   4 300.002  16.558   1
  -2  -2   4 262.891  30.871   2
   2  -2  -4 230.936  27.730   6
   2  -2  -4 317.474  20.733   1
   2  -2  -4 298.528  31.507   4
   2   2  -4 339.107  24.223   6
  -2   2   4 288.788  25.526   2
   2   2  -4 335.130  26.198   4
  -2   2   4 308.856  33.374   3
   2   2  -4 296.069  32.547   3
  -1  -2   4 1049.52   59.24   2
  -1  -2   4 1120.10   50.57   1
   1  -2  -4 1124.15   51.02   1
   1  -2  -4 1105.46   61.16   4
   1  -2  -4 1088.36   57.02   6
   1   2  -4 1149.12   58.27   3
  -1   2   4 1019.88   58.41   3
   1   2  -4 1210.93   56.11   4
   1   2  -4 1115.56   61.10   2
  -1   2   4 1045.09   47.30   2
   1   2  -4 1073.92   48.91   6
   0  -2  -4 1218.31   74.58   4
   0  -2  -4 1026.09   55.56   2
   0  -2  -4 1243.45   61.90   6
   0  -2  -4 1371.89   60.20   1
   0  -2   4 1276.00   57.59   6
   0   2  -4 1347.28   64.64   4
   0   2  -4 1298.44   73.44   2
   0   2  -4 1253.38   60.20   3
   0   2  -4 1268.24   55.60   6
   0   2  -4 1374.24   58.99   1
   0   2   4 1260.45   61.26   3
  -1  -2  -4 3557.19  143.93   6
  -1  -2  -4 3519.39  141.60   1
  -1  -2  -4 3433.91  138.90   2
   1  -2   4 3425.46  140.65   6
   1  -2   4 3615.82  145.61   4
   1   2   4 3490.80  137.87   3
   1   2   4 3334.75  156.75   4
  -1   2  -4 3566.34  137.42   3
  -1   2  -4 3619.78  141.27   1
   1   2   4 3625.35  148.30   6
  -1   2  -4 3460.95  148.00   2
  -2  -2  -4 442.255  36.059   6
  -2  -2  -4 463.368  35.650   2
  -2  -2  -4 509.344  37.444   1
   2  -2   4 511.273  37.406   6
   2  -2   4 445.185  34.631   4
   2   2   4 539.821  43.625   4
  -2   2  -4 459.964  44.449   2
  -2   2  -4 523.680  36.936   1
  -2   2  -4 502.940  26.187   3
   2   2   4 476.485  44.030   6
   2   2   4 541.978  28.836   3
   3  -2   4 2726.66  123.75   4
  -3  -2  -4 2532.63  122.21   2
  -3  -2  -4 2704.60  120.70   1
   3  -2   4 2633.01  122.80   6
  -3   2  -4 2752.20  128.90   2
  -3   2  -4 2740.31  119.98   1
   3   2   4 2600.41  124.77   6
   3   2   4 2608.73  131.04   4
   4  -2   4 212.194  31.458   4
   4  -2   4 158.514  31.684   1
  -4  -2  -4 237.034  37.199   2
   4  -2   4 261.649  38.010   6
  -4  -2  -4 267.426  34.642   1
   4   2   4 235.102  37.188   4
  -4   2  -4 253.804  33.944   1
   4   2   4 195.570  33.581   6
  -4   2  -4 290.980  41.737   2
   5  -2   4 996.633  70.110   4
  -5  -2  -4 921.204  71.655   2
   5  -2   4 991.599  72.256   1
  -5  -2  -4 1089.80   68.44   1
   5  -2   4 964.847  71.076   6
  -5   2  -4 969.849  74.902   2
   5   2   4 938.888  70.931   6
   5   2   4 949.780  73.692   4
   6  -2   4 847.019  78.256   1
   6  -2   4 640.114  69.624   6
  -6  -2  -4 719.115  78.971   2
   6  -2   4 737.434  71.767   4
  -6  -2  -4 789.599  68.646   1
  -6   2  -4 709.699  79.158   2
   6   2   4 560.165  68.524   4
   6   2   4 739.107  73.983   6
   7  -2   4 1028.42   93.70   6
   7  -2   4 1085.61   85.18   4
  -7  -2  -4 896.048  93.896   2
  -7   2  -4 909.307  96.201   2
   7   2   4 1042.68   97.70   6
   7   2   4 863.428  91.216   4
   8  -2   4 31.1847 31.9467   6
  -8  -2  -4 23.4197 35.7044   2
   8  -2   4 127.817  41.415   4
   8   2   4 148.573  45.649   6
   8   2   4 53.2963 35.6848   4
   8  -3  -4 29.7366 28.7522   6
  -8  -3   4 37.3080 32.1194   2
   8  -3  -4 59.6814 34.1085   4
   8   3  -4 -4.4435 24.4374   4
  -8   3   4 11.8907 28.3098   2
  -7  -3   4  1.1368 24.5842   5
   7  -3  -4 16.0039 21.4353   6
   7  -3  -4 -31.448  18.548   4
  -7  -3   4 -0.9409 25.0503   2
  -7   3   4 14.9982 25.6109   2
   7   3  -4 -15.188  18.342   6
   7   3  -4 12.1205 21.7122   4
  -6  -3   4 18.3485 21.1868   5
   6  -3  -4 19.1863 18.6918   6
  -6  -3   4 13.8239 19.2137   2
   6  -3  -4 21.8655 20.6815   4
  -6   3   4 -3.9976 19.0179   2
   6   3  -4 16.4378 17.9753   6
   6   3  -4 -9.7837 16.9658   3
  -6   3   4  7.3220 17.2872   3
   6   3  -4 18.0768 18.5133   4
  -5  -3   4 3702.54  176.75   2
   5  -3  -4 3700.46  170.88   6
   5  -3  -4 4049.93  180.89   4
  -5  -3   4 3564.43  166.89   5
  -5   3   4 3435.67  171.26   3
   5   3  -4 3696.38  162.87   6
   5   3  -4 3833.68  174.47   3
  -5   3   4 3954.88  173.83   2
   5   3  -4 3940.50  178.50   4
   4  -3  -4 93.8233 15.8565   1
   4  -3  -4 79.9788 21.1169   4
   4  -3  -4 65.4768 19.7869   6
  -4  -3   4 100.617  24.925   2
  -4   3   4 102.649  22.964   2
   4   3  -4 70.9024 20.1503   3
   4   3  -4 99.3689 19.4781   6
   4   3  -4 85.6224 21.4897   4
  -4   3   4 28.5848 15.6863   3
   3  -3  -4 896.340  44.653   1
   3  -3  -4 891.709  56.202   6
   3  -3  -4 1046.43   60.56   4
  -3  -3   4 851.775  57.901   2
   3   3  -4 901.529  54.421   4
  -3   3   4 910.225  52.008   2
   3   3  -4 936.098  58.145   3
  -3   3   4 934.408  60.294   3
   3   3  -4 865.835  48.007   6
   2  -3  -4 75.0922 17.5705   4
   2  -3  -4 123.528  20.218   6
  -2  -3   4 102.292  11.959   1
   2  -3  -4 91.3381 13.9149   1
  -2  -3   4 93.5268 20.4644   2
   2   3  -4 86.7457 18.7111   3
  -2   3   4 77.7077 18.4789   3
   2   3  -4 109.295  14.147   6
   2   3  -4 97.4186 16.1646   4
  -2   3   4 77.7982 13.2620   2
   1  -3  -4 4006.15  170.21   6
  -1  -3   4 4066.63  160.09   1
   1  -3  -4 4555.67  182.43   4
   1  -3  -4 4295.92  162.31   1
   1   3  -4 4153.86  156.88   6
   1   3  -4 4064.92  177.66   2
   1   3  -4 4318.46  172.07   3
  -1   3   4 4460.27  175.37   3
   1   3  -4 4246.99  169.34   4
   0  -3   4 396.883  24.316   6
   0  -3   4 338.543  31.397   1
   0  -3  -4 389.145  43.137   4
   0  -3  -4 363.449  28.285   1
   0  -3  -4 332.725  32.496   6
   0   3  -4 344.066  27.212   3
   0   3   4 318.586  30.965   3
   0   3  -4 382.128  44.603   2
   0   3  -4 374.654  25.677   4
   0   3  -4 348.924  22.913   6
  -1  -3  -4 791.057  47.534   1
  -1  -3  -4 813.953  48.817   6
   1  -3   4 799.513  50.119   1
   1  -3   4 817.355  43.326   4
   1  -3   4 942.743  46.466   6
  -1  -3  -4 868.938  42.161   2
   1   3   4 819.771  44.116   3
   1   3   4 724.767  55.394   4
  -1   3  -4 871.386  54.440   2
  -1   3  -4 882.629  43.947   3
   1   3   4 858.517  53.077   6
  -2  -3  -4 -2.0580  8.9688   6
  -2  -3  -4 10.6591 11.2931   2
  -2  -3  -4 -20.204   8.097   1
   2  -3   4 2.44992 8.25387   4
   2  -3   4 -3.9983  8.7175   6
   2  -3   4 -10.837  10.611   1
  -2   3  -4 -6.7185 11.1841   2
   2   3   4  5.4436 13.8478   4
  -2   3  -4 4.17750 6.17078   3
   2   3   4 -0.7672 11.6440   6
   2   3   4 6.03947 8.54758   3
  -3  -3  -4 2515.57  119.88   2
   3  -3   4 2517.44  123.22   1
  -3  -3  -4 2549.26  118.39   1
   3  -3   4 2611.98  119.91   4
   3  -3   4 2439.22  119.39   6
  -3   3  -4 2718.63  128.61   2
   3   3   4 2694.19  103.09   3
   3   3   4 2646.36  125.23   6
   3   3   4 2745.55  132.59   4
   4  -3   4 96.4596 22.8402   4
   4  -3   4 167.474  32.466   1
  -4  -3  -4 122.270  28.569   2
   4  -3   4 178.619  31.095   6
  -4  -3  -4 144.872  28.007   1
   4   3   4 113.608  28.207   6
  -4   3  -4 149.812  31.924   2
   4   3   4 205.955  36.460   4
  -5  -3  -4 2938.71  149.11   2
   5  -3   4 2969.22  145.89   4
   5  -3   4 3042.21  148.18   6
  -5  -3  -4 2884.97  138.34   1
   5  -3   4 2705.26  143.56   1
  -5   3  -4 2694.82  150.06   2
   5   3   4 3232.40  152.38   6
   5   3   4 3008.62  156.95   4
   6  -3   4  6.7304 22.2221   1
  -6  -3  -4 45.8614 28.7995   2
   6  -3   4 33.7739 21.7002   4
  -6  -3  -4 31.1398 25.1917   1
   6  -3   4 13.7459 21.1986   6
   6   3   4 26.8562 25.0751   4
   6   3   4 43.1700 26.7585   6
  -6   3  -4 56.7035 30.0319   2
   7  -3   4 171.740  42.573   4
  -7  -3  -4 331.439  59.830   2
   7  -3   4 213.978  44.698   6
   7   3   4 238.064  48.796   6
   7   3   4 228.465  49.949   4
  -7   3  -4 152.691  46.200   2
  -8  -3  -4 38.8636 37.1873   2
   8  -3   4 -13.056  26.734   4
   8   3   4  1.6869 31.4969   6
   8  -4  -4 552.211  75.392   4
   8  -4  -4 481.669  66.413   6
  -8  -4   4 466.001  72.365   2
   8   4  -4 624.952  78.469   4
  -8   4   4 665.705  82.460   2
  -7  -4   4 1308.49   94.17   5
  -7  -4   4 1427.43  103.29   2
   7  -4  -4 1317.84   95.61   6
   7  -4  -4 1396.10  100.37   4
   7   4  -4 1628.52  106.37   4
  -7   4   4 1389.35  101.35   2
   6  -4  -4 1490.10   97.12   6
   6  -4  -4 1509.42  100.51   4
  -6  -4   4 1365.11   99.53   2
  -6  -4   4 1719.36  100.94   5
   6   4  -4 1729.37  103.73   4
  -6   4   4 1553.76   98.94   2
   6   4  -4 1741.21  102.38   3
   6   4  -4 1748.27   94.40   6
  -6   4   4 1625.39   99.32   3
  -5  -4   4 76.0717 25.7769   2
   5  -4  -4 61.0098 21.7669   4
  -5  -4   4 130.660  30.177   5
   5  -4  -4 85.1150 25.2579   6
  -5   4   4 82.3723 24.4132   3
   5   4  -4 38.7270 21.0641   4
   5   4  -4 148.543  25.980   6
   5   4  -4 67.2089 25.2463   3
  -5   4   4 101.871  26.854   2
   4  -4  -4 121.129  25.619   4
   4  -4  -4 147.378  26.809   6
   4  -4  -4 166.001  22.147   1
  -4  -4   4 176.144  32.705   2
   4   4  -4 178.210  28.845   4
   4   4  -4 151.548  22.431   6
  -4   4   4 153.372  29.144   3
  -4   4   4 133.997  24.838   2
   4   4  -4 179.317  30.363   3
   3  -4  -4 2168.61  104.51   4
   3  -4  -4 2022.80   88.62   1
   3  -4  -4 2012.31   99.15   6
  -3  -4   4 2047.23   79.68   1
  -3  -4   4 1836.64  102.13   2
  -3   4   4 2056.52   93.65   2
  -3   4   4 1964.32  103.07   3
   3   4  -4 2046.72   97.58   4
   3   4  -4 2088.62  102.35   3
   3   4  -4 2147.81   88.16   6
   2  -4  -4 1484.63   76.59   4
  -2  -4   4 1385.87   78.12   2
   2  -4  -4 1344.47   64.52   1
   2  -4  -4 1436.31   73.67   6
  -2  -4   4 1372.84   60.70   1
  -2   4   4 1356.44   61.74   2
   2   4  -4 1450.60   74.56   3
   2   4  -4 1333.06   66.97   4
  -2   4   4 1411.16   76.59   3
   2   4  -4 1443.22   58.87   6
   1  -4  -4 4.76675 8.25653   1
  -1  -4   4 1.96385 7.51479   1
   1  -4  -4 13.3073 11.2797   6
  -1  -4   4 12.6783  5.5421   6
   1  -4  -4 -4.6622  9.8661   4
   1   4  -4 14.0008  7.7804   4
   1   4  -4 9.07155 8.86662   3
  -1   4   4 23.0096 11.5982   3
   1   4  -4 11.1983  4.6842   6
   1   4  -4 15.4601 14.5497   2
   0  -4  -4 775.680  54.772   4
   0  -4  -4 734.854  42.915   1
   0  -4  -4 655.056  44.942   6
   0  -4   4 702.316  43.049   1
   0  -4   4 678.931  34.935   6
   0   4  -4 694.931  42.633   3
   0   4  -4 737.283  56.814   2
   0   4  -4 753.948  35.556   4
   0   4   4 673.485  43.236   3
   1  -4   4 4634.33  181.04   1
  -1  -4  -4 4449.52  182.02   6
   1  -4   4 4607.33  174.23   6
   1  -4   4 4600.79  175.73   4
  -1  -4  -4 4667.08  179.51   1
  -1  -4  -4 4397.01  170.25   2
  -1   4  -4 4380.41  188.84   2
  -1   4  -4 4581.98  177.01   3
   1   4   4 4521.11  186.87   6
   1   4   4 3736.03  193.76   4
   1   4   4 4436.55  178.16   3
   2  -4   4 2303.33  103.84   6
   2  -4   4 2311.62  108.92   1
   2  -4   4 2288.74  101.53   4
  -2  -4  -4 2181.37  100.98   2
  -2  -4  -4 2445.59  108.11   6
  -2  -4  -4 2294.51  105.68   1
  -2   4  -4 2247.64  112.49   2
   2   4   4 2284.42  112.31   6
   2   4   4 2199.13  117.93   4
   2   4   4 2423.37  101.69   3
  -2   4  -4 2344.89   97.15   3
   3  -4   4 1958.29  103.39   1
  -3  -4  -4 2124.89  100.67   2
   3  -4   4 1975.53  100.13   6
   3  -4   4 2068.78   98.76   4
  -3  -4  -4 2022.32  100.20   1
  -3   4  -4 2013.19  108.80   2
   3   4   4 2155.14  113.90   4
   3   4   4 2102.13  106.50   6
   3   4   4 2125.09   88.46   3
   4  -4   4 34.1164 19.2966   6
   4  -4   4  8.8791 13.0831   4
  -4  -4  -4 10.2176 16.7698   2
   4  -4   4  7.8835 15.8831   1
  -4  -4  -4 21.9250 16.7878   1
   4   4   4 16.1023 17.8844   4
   4   4   4  1.0601 15.9276   6
  -4   4  -4 17.1790 17.7856   2
  -5  -4  -4 619.515  67.091   2
  -5  -4  -4 676.270  61.614   1
   5  -4   4 706.105  66.324   6
   5  -4   4 626.057  64.351   1
   5  -4   4 728.172  57.027   4
  -5   4  -4 617.333  70.720   2
   5   4   4 591.476  65.248   6
   5   4   4 626.375  69.864   4
   6  -4   4 989.599  75.571   4
  -6  -4  -4 1028.05   82.54   2
  -6  -4  -4 1030.88   73.54   1
   6  -4   4 1048.95   78.98   1
   6  -4   4 923.134  85.083   6
   6   4   4 1065.60   83.64   6
   6   4   4 959.946  92.445   4
  -6   4  -4 871.303  90.050   2
   7  -4   4 521.413  67.023   1
   7  -4   4 527.093  68.816   6
  -7  -4  -4 680.160  83.670   2
   7  -4   4 602.874  69.194   4
   7   4   4 571.592  74.733   4
  -7   4  -4 456.198  72.163   2
   7   4   4 541.088  70.748   6
  -8  -4  -4 68.5621 43.5494   2
   8  -4   4 41.4270 35.8953   4
   8   4   4 57.0961 36.3814   6
   8  -5  -4 588.131  76.840   4
   8  -5  -4 577.523  74.317   6
  -8  -5   4 662.478  78.681   5
  -8  -5   4 557.052  76.714   2
  -8   5   4 538.966  77.107   2
   8   5  -4 613.537  79.468   4
  -7  -5   4 -5.1641 22.6469   2
  -7  -5   4 20.9951 29.8068   5
   7  -5  -4 13.2160 24.1861   4
   7  -5  -4 21.3175 24.2851   6
   7   5  -4 -14.393  21.206   4
  -7   5   4  1.6712 25.3685   2
   6  -5  -4 1499.42  100.32   6
  -6  -5   4 1476.10  103.64   2
   6  -5  -4 1739.90  106.00   4
  -6  -5   4 1520.56   99.98   5
   6   5  -4 1661.03  102.00   3
   6   5  -4 1743.46  105.71   4
  -6   5   4 1710.43  103.28   2
  -6   5   4 1820.34  105.11   3
  -5  -5   4 58.3910 26.2706   5
   5  -5  -4 67.3032 23.5138   6
   5  -5  -4 46.5256 20.6164   4
  -5  -5   4 37.9318 22.0111   2
  -5   5   4 69.9956 23.6606   2
  -5   5   4 49.4943 21.7847   3
   5   5  -4 117.342  28.009   3
   5   5  -4 40.5071 20.3061   4
   4  -5  -4 5633.29  235.80   6
   4  -5  -4 5734.59  218.93   1
  -4  -5   4 5854.99  245.02   2
   4  -5  -4 5163.23  241.52   4
   4   5  -4 5475.07  218.95   6
  -4   5   4 5750.80  241.12   3
   4   5  -4 5499.47  238.21   4
  -4   5   4 5864.97  231.15   2
   4   5  -4 5765.28  239.39   3
   3  -5  -4  0.5938 11.3742   6
   3  -5  -4  0.9807 11.4959   4
  -3  -5   4 -4.3099 14.7579   2
   3  -5  -4 -8.8062  9.3817   1
  -3  -5   4 14.7043  8.5839   1
   3   5  -4 -0.3635  7.0670   6
  -3   5   4  4.1500 13.0417   3
  -3   5   4  9.4455 10.0647   2
   3   5  -4 -9.8936  9.5267   4
   3   5  -4 -5.9489  9.3720   3
  -2  -5   4 45.5558 12.0233   1
   2  -5  -4 81.1790 16.1985   1
   2  -5  -4 53.9428 16.5749   4
  -2  -5   4 14.3474 15.8836   2
   2  -5  -4 72.3875 18.6028   6
   2   5  -4 35.0749 13.6679   3
  -2   5   4 59.1474 11.1782   2
  -2   5   4 65.4754 18.6920   3
   2   5  -4 55.4232 13.3570   4
   1  -5  -4 175.691  23.388   1
   1  -5  -4 183.607  26.013   6
  -1  -5   4 203.025  22.617   1
   1  -5  -4 181.136  28.233   4
   1   5  -4 151.556  16.016   4
  -1   5   4 175.175  25.762   3
   1   5  -4 146.945  23.842   3
   1   5  -4 202.820  32.735   2
   0  -5  -4 4117.91  183.00   4
   0  -5   4 3891.34  153.54   4
   0  -5  -4 3836.47  167.18   6
   0  -5   4 3959.28  162.03   1
   0  -5  -4 4055.76  162.82   1
   0  -5   4 4031.99  151.27   6
   0   5   4 4244.90  169.18   3
   0   5  -4 4117.10  183.49   2
   0   5  -4 4044.28  166.70   3
  -1  -5  -4 398.052  37.193   1
   1  -5   4 339.529  36.678   1
   1  -5   4 332.999  20.610   4
  -1  -5  -4 314.103  34.890   6
  -1  -5  -4 327.935  23.110   2
   1  -5   4 361.536  30.058   6
   1   5   4 364.065  35.151   3
  -1   5  -4 262.679  28.504   3
  -1   5  -4 292.987  38.826   2
   1   5   4 299.855  41.499   4
  -2  -5  -4 1582.17   80.55   1
   2  -5   4 1636.71   78.29   6
  -2  -5  -4 1477.05   81.61   5
  -2  -5  -4 1618.10   82.44   6
   2  -5   4 1514.41   72.25   4
  -2  -5  -4 1536.73   75.36   2
   2  -5   4 1669.45   85.35   1
   2   5   4 1646.67   87.90   6
   2   5   4 1370.22   89.78   4
  -2   5  -4 1575.45   87.44   2
   2   5   4 1670.40   78.88   3
  -2   5  -4 1544.48   74.41   3
  -3  -5  -4 28.2595 15.5652   2
  -3  -5  -4 -2.8242 11.8790   1
   3  -5   4  9.4964 13.7020   6
   3  -5   4  1.1566 13.7467   1
   3  -5   4 -2.2450  9.3662   4
   3   5   4 10.8577 16.6780   4
   3   5   4 21.6253 16.3624   6
  -3   5  -4 -1.9623 15.5626   2
  -3   5  -4 20.3969 10.0603   3
   3   5   4 7.10824 9.41877   3
  -4  -5  -4 3514.94  158.40   1
  -4  -5  -4 3556.03  163.41   2
   4  -5   4 3529.96  160.59   6
   4  -5   4 3613.98  164.89   1
   4  -5   4 3599.68  159.57   4
  -4   5  -4 3545.93  173.10   2
   4   5   4 3516.13  176.92   4
   4   5   4 3385.45  165.29   6
   5  -5   4 45.3767 25.3535   6
   5  -5   4 62.8334 25.5273   1
   5  -5   4 57.4768 23.5703   4
  -5  -5  -4 15.7623 21.8314   1
  -5  -5  -4 39.4062 26.1973   2
   5   5   4 63.9350 26.7810   6
   5   5   4 78.0860 31.5568   4
  -5   5  -4 50.5674 27.6854   2
  -6  -5  -4 41.5047 26.0127   1
  -6  -5  -4 14.7697 26.7940   2
   6  -5   4 55.7227 26.2911   1
   6  -5   4 42.7123 24.9000   4
   6  -5   4 43.6412 26.6142   6
  -6   5  -4 30.5413 27.3147   2
   6   5   4 15.7324 27.2282   6
   6   5   4  4.2800 23.1322   4
  -7  -5  -4 17.8408 30.1157   2
   7  -5   4 26.5628 29.6100   6
   7  -5   4 10.7817 26.1765   4
   7  -5   4 30.7770 29.3098   1
   7   5   4 -22.678  26.482   6
  -7   5  -4  0.5295 24.2830   2
   7   5   4 -0.2475 28.1326   4
   8   5   4 1016.78  106.50   6
   8  -6  -4 662.566  80.765   4
  -8  -6   4 371.872  65.896   2
  -8  -6   4 452.799  67.014   5
   8  -6  -4 795.990  86.145   6
   8   6  -4 456.162  71.707   4
  -8   6   4 523.418  76.344   2
   7  -6  -4 505.567  66.019   4
  -7  -6   4 390.978  61.160   5
  -7  -6   4 589.755  74.366   2
   7  -6  -4 401.702  60.051   6
   7   6  -4 466.873  64.619   4
  -7   6   4 568.982  70.016   2
   6  -6  -4 1875.55  117.97   4
  -6  -6   4 2122.85  126.74   2
  -6  -6   4 1951.85  119.19   5
  -6   6   4 2112.48  118.83   2
  -6   6   4 2031.68  118.56   3
   6   6  -4 2098.26  121.09   4
   6   6  -4 2139.39  119.96   3
  -5  -6   4 148.899  36.047   2
   5  -6  -4 203.072  37.411   4
  -5  -6   4 117.461  33.848   5
   5  -6  -4 157.095  32.463   6
  -5   6   4 150.290  33.169   3
   5   6  -4 110.342  28.736   3
   5   6  -4 200.109  35.030   4
  -5   6   4 108.592  28.123   2
   4  -6  -4 329.979  42.593   6
  -4  -6   4 378.690  49.582   2
   4  -6  -4 328.300  42.114   4
   4  -6  -4 315.367  35.645   1
   4   6  -4 339.012  40.493   4
  -4   6   4 320.015  37.927   2
   4   6  -4 332.785  43.598   3
  -4   6   4 362.147  46.334   3
   3  -6  -4 1128.39   62.29   1
   3  -6  -4 1058.48   67.78   4
   3  -6  -4 1057.14   66.96   6
  -3  -6   4 1059.77   73.87   2
  -3  -6   4 1211.18   55.94   1
  -3   6   4 1039.83   58.74   2
   3   6  -4 1103.46   70.13   3
  -3   6   4 1021.94   70.04   3
   3   6  -4 1131.37   62.36   4
  -2  -6   4 3070.69  123.80   1
   2  -6  -4 2979.16  135.01   6
   2  -6  -4 2991.12  128.87   1
   2  -6  -4 2974.79  139.71   4
  -2  -6   4 2966.52  142.64   2
   2   6  -4 3154.18  127.25   4
   2   6  -4 2992.51  137.59   3
  -2   6   4 2863.98  118.64   2
  -2   6   4 3073.92  140.47   3
  -1  -6   4 292.657  29.832   1
   1  -6  -4 291.344  37.871   4
   1  -6  -4 253.126  32.426   6
   1  -6  -4 316.026  32.824   1
   1   6  -4 270.007  32.680   3
   1   6  -4 362.360  45.010   2
  -1   6   4 295.896  35.567   3
   1   6  -4 278.110  19.132   4
   0  -6  -4 86.6289 23.1691   4
   0  -6   4 75.1041 10.6262   6
   0  -6  -4 59.9740 17.8586   6
   0  -6  -4 55.7183 16.5780   1
   0  -6   4 77.9120 17.1758   1
   0   6  -4 102.506  20.633   3
   0   6   4 95.7340 21.1314   3
   0   6  -4 56.5391 23.2352   2
  -1  -6  -4 269.186  21.332   2
   1  -6   4 258.064  15.722   4
  -1  -6  -4 207.957  28.382   1
   1  -6   4 289.375  26.170   6
  -1  -6  -4 218.426  30.924   6
   1  -6   4 222.891  30.098   1
  -1   6  -4 223.592  36.202   2
  -1   6  -4 235.938  29.046   3
   1   6   4 255.660  38.351   4
   1   6   4 283.460  32.548   3
  -2  -6  -4 2045.00   91.84   2
  -2  -6  -4 2004.32  101.58   5
   2  -6   4 2148.42   93.96   6
  -2  -6  -4 1980.13  100.66   6
   2  -6   4 1845.24   86.66   4
  -2  -6  -4 2033.26   99.79   1
   2  -6   4 2041.06  102.42   1
   2   6   4 1797.95  108.99   4
  -2   6  -4 2013.79   95.15   3
   2   6   4 2246.00  100.22   3
  -2   6  -4 1916.45  105.95   2
   2   6   4 2117.78  107.67   6
  -3  -6  -4 228.895  37.396   5
   3  -6   4 171.682  32.152   1
  -3  -6  -4 218.122  32.726   2
   3  -6   4 223.140  27.007   4
  -3  -6  -4 222.895  33.431   1
   3  -6   4 194.480  29.762   6
   3   6   4 164.458  34.901   4
  -3   6  -4 221.008  26.576   3
   3   6   4 218.156  28.912   3
   3   6   4 262.325  39.189   6
  -3   6  -4 233.806  38.814   2
  -4  -6  -4  0.8422 16.1246   1
  -4  -6  -4  6.4814 18.2773   2
   4  -6   4 49.2532 20.2470   6
   4  -6   4 33.6769 17.8715   4
   4  -6   4 14.2752 18.8931   1
   4   6   4 19.1178 19.8831   6
  -4   6  -4 45.3787 25.4691   2
   4   6   4  0.2346 19.1529   4
   5  -6   4 538.411  60.529   6
  -5  -6  -4 592.186  65.155   2
  -5  -6  -4 588.078  58.903   1
   5  -6   4 622.172  65.286   1
   5  -6   4 413.443  49.502   4
  -5   6  -4 524.440  67.270   2
   5   6   4 655.448  69.077   6
   5   6   4 460.246  64.444   4
  -6  -6  -4 1458.21   91.00   1
   6  -6   4 1309.32   94.43   1
  -6  -6  -4 1470.67  102.28   2
   6  -6   4 1524.87   99.74   6
   6   6   4 1413.52  105.94   4
  -6   6  -4 1226.28  101.38   2
   6   6   4 1488.19  103.73   6
   7  -6   4 439.551  60.898   1
  -7  -6  -4 497.023  73.612   2
   7  -6   4 320.618  54.499   6
   7   6   4 212.756  51.158   6
  -7   6  -4 443.669  70.607   2
   7   6   4 361.837  63.409   4
   8  -7  -4 154.649  45.121   6
   8  -7  -4 326.081  58.577   4
  -8  -7   4 294.749  59.603   5
   8   7  -4 175.240  49.191   4
   7  -7  -4 -13.047  23.651   6
  -7  -7   4 26.6491 27.8311   2
  -7  -7   4  8.6506 30.1377   5
   7  -7  -4 -18.842  23.570   4
   7   7  -4 -16.861  21.946   4
  -6  -7   4 56.0221 32.0905   5
   6  -7  -4 43.1542 25.6898   6
   6  -7  -4 45.5153 28.2195   4
  -6  -7   4 84.5760 34.1033   2
  -6   7   4 41.5402 27.7112   2
   6   7  -4 136.165  34.179   3
  -6   7   4 85.8910 29.0873   3
   6   7  -4 100.842  31.432   4
  -5  -7   4 1828.56  116.56   2
  -5  -7   4 2012.49  115.38   5
   5  -7  -4 2073.78  114.70   4
   5  -7  -4 1815.61  109.10   6
  -5   7   4 1901.12  111.69   3
   5   7  -4 1910.81  111.02   3
   5   7  -4 1954.63  109.35   4
  -5   7   4 1950.60  106.42   2
   4  -7  -4 431.299  49.858   6
  -4  -7   4 462.234  56.100   2
   4  -7  -4 497.601  46.788   1
   4  -7  -4 452.711  51.350   4
   4   7  -4 427.434  45.698   4
  -4   7   4 445.681  52.886   3
   4   7  -4 409.406  49.466   3
  -4   7   4 515.403  47.687   2
   3  -7  -4 188.747  31.528   4
   3  -7  -4 210.982  33.820   6
  -3  -7   4 167.164  23.309   1
   3  -7  -4 167.251  27.862   1
  -3  -7   4 122.605  31.581   2
  -3   7   4 139.691  29.067   3
   3   7  -4 197.366  25.720   4
   3   7  -4 191.845  31.699   3
  -3   7   4 204.344  25.864   2
  -2  -7   4  6.4051 10.6861   1
   2  -7  -4 24.1071 16.2088   4
   2  -7  -4 23.2253 14.1279   1
   2  -7  -4  7.2965 12.7994   6
  -2  -7   4 19.3455 18.0912   2
   2   7  -4  6.1075 11.5633   3
   2   7  -4 28.6249 11.3634   4
  -2   7   4 50.8733 19.1736   3
  -2   7   4 31.6879 10.5218   2
  -1  -7   4 4117.44  173.46   1
   1  -7  -4 4240.17  177.52   1
   1  -7  -4 4563.77  182.43   6
   1  -7  -4 4081.86  195.35   4
  -1   7   4 4069.63  185.66   3
   1   7  -4 4407.79  194.71   2
   1   7  -4 4532.95  187.23   3
   0  -7  -4 930.674  65.237   4
   0  -7   4 948.586  58.855   1
   0  -7  -4 988.284  60.588   1
   0  -7  -4 992.037  62.047   6
   0   7  -4 1087.49   62.77   3
   0   7   4 874.209  60.240   3
   0   7  -4 1098.74   73.67   2
  -1  -7  -4 1140.96   65.32   1
  -1  -7  -4 1021.81   66.78   6
   1  -7   4 1111.36   66.06   1
   1  -7   4 1157.06   54.89   6
  -1   7  -4 1038.13   63.94   3
   1   7   4 1005.10   72.64   4
  -1   7  -4 1125.96   78.45   2
   1   7   4 1107.92   67.16   3
   2  -7   4 77.6069 22.7159   1
   2  -7   4 82.2824 19.1367   6
  -2  -7  -4 90.8670 23.6624   6
  -2  -7  -4 101.336  27.125   5
  -2  -7  -4 87.4350 18.6989   2
  -2  -7  -4 43.5064 19.4061   1
   2   7   4 61.7255 19.0469   3
  -2   7  -4 91.1618 27.2014   2
   2   7   4 39.0214 21.1930   6
  -2   7  -4 60.1778 17.9517   3
   2   7   4 55.9525 23.7776   4
   3  -7   4 891.136  58.644   6
  -3  -7  -4 911.896  61.217   1
  -3  -7  -4 932.051  68.612   5
   3  -7   4 877.039  64.117   1
  -3  -7  -4 834.560  57.367   2
   3   7   4 776.748  73.273   6
   3   7   4 854.383  57.277   3
  -3   7  -4 929.747  70.204   2
  -3   7  -4 878.873  54.631   3
   3   7   4 813.117  68.710   4
  -4  -7  -4 907.242  83.049   5
   4  -7   4 860.704  77.540   1
  -4  -7  -4 886.288  66.695   2
   4  -7   4 949.259  65.920   6
  -4  -7  -4 951.974  65.438   1
   4   7   4 827.490  82.757   4
  -4   7  -4 995.153  77.611   2
   4   7   4 858.539  78.794   6
  -5  -7  -4 826.367  78.680   2
   5  -7   4 787.799  76.214   1
  -5  -7  -4 639.277  66.290   1
   5  -7   4 901.702  69.160   6
   5   7   4 931.281  86.018   6
  -5   7  -4 808.179  83.708   2
   5   7   4 797.135  83.631   4
   6  -7   4 14.8834 24.0377   1
  -6  -7  -4 18.0844 25.2495   1
  -6  -7  -4 -15.437  27.660   2
   6  -7   4 47.5140 26.0099   6
   6   7   4 39.2762 32.7831   6
   6   7   4 26.1009 29.4190   4
  -6   7  -4 39.4857 31.3730   2
  -7  -7  -4 368.778  63.200   2
   7  -7   4 523.656  67.094   1
   7  -7   4 546.848  71.439   6
   7   7   4 376.103  64.137   6
   7   7   4 470.185  73.155   4
  -7   7  -4 440.502  72.133   2
  -9  -8   4 13.3530 41.0450   5
  -8  -8   4 -30.902  33.755   5
   8  -8  -4 25.7366 36.3076   4
   8   8  -4 28.2868 36.6154   4
  -7  -8   4 1174.63  113.82   5
   7  -8  -4 1182.03   97.61   6
  -7  -8   4 1471.12  112.21   2
   7  -8  -4 1440.81  105.47   4
   7   8  -4 1541.03  107.54   4
  -6  -8   4 188.319  45.589   2
   6  -8  -4 203.050  42.181   4
  -6  -8   4 136.660  41.505   5
   6  -8  -4 123.322  36.713   6
   6   8  -4 130.185  37.869   4
   6   8  -4 131.409  36.542   3
  -6   8   4 147.569  38.146   3
   5  -8  -4 270.992  44.399   4
  -5  -8   4 296.784  51.232   2
   5  -8  -4 174.098  38.388   6
  -5  -8   4 301.335  49.351   5
  -5   8   4 200.144  39.538   3
   5   8  -4 217.746  41.201   3
   5   8  -4 197.925  36.724   4
   4  -8  -4 281.077  37.141   1
  -4  -8   4 253.068  44.527   2
   4  -8  -4 179.888  33.895   6
   4  -8  -4 193.989  35.919   4
   4   8  -4 190.800  31.455   4
   4   8  -4 256.596  41.619   3
  -4   8   4 201.068  37.548   3
   3  -8  -4 2938.09  136.73   1
   3  -8  -4 3220.73  145.36   6
  -3  -8   4 2965.45  153.48   2
   3  -8  -4 2829.79  144.81   4
  -3  -8   4 2849.62  128.63   1
  -3   8   4 3167.92  151.63   3
   3   8  -4 3274.52  150.85   3
  -2  -8   4 335.302  46.170   2
   2  -8  -4 219.352  32.762   1
   2  -8  -4 288.016  38.551   4
   2  -8  -4 356.063  41.945   6
  -2  -8   4 249.396  30.590   1
   2   8  -4 273.801  38.243   3
  -2   8   4 321.285  42.521   3
   1  -8  -4 120.091  24.956   1
  -1  -8   4 89.7706 25.7229   2
   1  -8  -4 211.464  31.155   6
  -1  -8   4 207.132  28.856   1
   1  -8  -4 151.637  33.158   4
  -1   8   4 197.329  30.953   3
   1   8  -4 109.096  29.479   2
   1   8  -4 98.7504 24.1477   3
   0  -8  -4 1091.20   72.34   4
   0  -8   4 1113.71   66.95   1
   0  -8  -4 1176.05   68.71   1
   0  -8  -4 1048.50   67.25   6
   0   8   4 1215.36   72.80   3
   0   8  -4 1124.51   70.05   3
   0   8  -4 1133.93   78.08   2
   1  -8   4 4571.60  172.52   6
  -1  -8  -4 4325.48  185.83   5
  -1  -8  -4 3971.54  188.39   6
  -1  -8  -4 4509.12  189.20   1
   1  -8   4 4271.98  188.02   1
  -1   8  -4 4564.07  191.77   3
   1   8   4 4513.54  194.58   3
   1   8   4 4574.04  204.19   4
  -1   8  -4 4497.31  208.40   2
  -2  -8  -4 50.5792 23.6713   5
   2  -8   4 97.1287 20.6908   6
  -2  -8  -4 74.8171 23.0811   6
   2  -8   4 87.7781 24.4285   1
  -2  -8  -4 34.1516 18.6498   1
  -2   8  -4 121.136  31.321   2
   2   8   4 107.787  25.093   3
  -2   8  -4 74.6334 21.3092   3
   2   8   4 63.3555 25.0020   6
   2   8   4 68.3992 25.0618   4
   3  -8   4 3364.78  141.98   6
  -3  -8  -4 3141.01  148.84   6
  -3  -8  -4 3204.37  147.54   1
  -3  -8  -4 3155.75  153.68   5
   3  -8   4 2873.10  147.54   1
  -3   8  -4 3019.48  140.69   3
   3   8   4 2931.97  143.57   3
   3   8   4 3016.28  160.13   4
   3   8   4 3047.96  153.89   6
  -3   8  -4 3296.92  160.68   2
   4  -8   4 336.011  43.927   6
  -4  -8  -4 306.255  52.437   5
   4  -8   4 285.334  43.097   1
  -4  -8  -4 275.623  42.111   1
  -4   8  -4 230.578  46.491   2
   4   8   4 260.083  46.976   4
   4   8   4 272.342  45.809   6
   5  -8   4 318.661  49.095   1
   5  -8   4 442.111  54.614   6
  -5  -8  -4 283.391  45.089   1
   5   8   4 229.935  47.754   6
   5   8   4 277.595  52.793   4
  -5   8  -4 395.975  62.559   2
   6  -8   4 208.692  45.661   6
   6  -8   4 146.605  38.926   1
   6   8   4 97.1235 39.0824   4
   6   8   4 143.263  42.465   6
  -6   8  -4 134.855  46.526   2
   7  -8   4 639.564  78.199   1
   7  -8   4 641.359  78.576   6
   7   8   4 679.579  90.460   4
  -7   8  -4 800.429  97.184   2
  -9  -9   4 695.332  99.512   5
  -8  -9   4 443.369  77.156   5
  -7  -9   4 -11.903  29.124   5
  -7  -9   4  5.1240 31.3644   2
   7  -9  -4 -26.379  26.792   6
   7  -9  -4 19.8203 29.4557   4
  -6  -9   4 345.276  61.316   5
  -6  -9   4 260.878  54.923   2
   6  -9  -4 231.813  46.947   6
   6  -9  -4 142.689  40.198   4
   6   9  -4 169.049  42.598   3
  -6   9   4 223.888  46.440   3
   5  -9  -4 911.087  83.159   6
   5  -9  -4 844.191  70.844   4
  -5  -9   4 984.077  96.019   2
  -5   9   4 940.687  87.634   3
   5   9  -4 955.793  76.833   3
  -4  -9   4 532.852  66.098   2
   4  -9  -4 493.587  58.172   6
   4  -9  -4 472.494  55.962   4
   4  -9  -4 522.888  53.414   1
  -4   9   4 559.974  64.214   3
   4   9  -4 443.392  57.024   3
  -3  -9   4 20.7175 16.1724   1
   3  -9  -4 18.7910 16.4781   4
   3  -9  -4 35.6067 18.7406   1
  -3  -9   4 40.7682 23.4821   2
   3  -9  -4 25.3020 18.7178   6
  -3   9   4 19.5916 19.2227   3
   3   9  -4 -0.7779 14.8490   3
   2  -9  -4 65.4373 22.4060   6
   2  -9  -4 43.7255 20.8837   4
  -2  -9   4 96.8734 28.9410   2
  -2  -9   4 63.0690 19.5528   1
   2  -9  -4 30.1034 18.1671   1
   2   9  -4 63.5649 21.3042   3
  -2   9   4 57.1051 22.6102   3
   1  -9  -4 3335.09  158.25   1
   1  -9  -4 3800.11  162.44   6
  -1  -9   4 3582.19  156.63   1
  -1  -9   4 3909.35  176.57   2
   1  -9  -4 3543.21  176.23   4
   1   9  -4 3514.06  167.99   3
  -1   9   4 3626.95  170.21   3
   0  -9  -4 1272.10   77.19   1
   0  -9  -4 1316.38   81.92   4
   0  -9   4 1228.32   76.79   1
   0  -9  -4 1397.40   78.60   6
   0   9   4 1262.73   84.16   4
   0   9   4 1291.80   82.79   3
   0   9  -4 1394.16   89.40   2
   0   9  -4 1477.70   84.17   3
   1  -9   4 1113.27   72.84   1
  -1  -9  -4 1085.19   71.96   6
  -1  -9  -4 1150.53   72.75   1
  -1  -9  -4 1144.67   71.42   5
  -1   9  -4 1229.38   88.83   2
  -1   9  -4 1088.09   72.26   3
   1   9   4 1072.11   76.89   4
   1   9   4 1193.03   75.18   3
  -2  -9  -4 -9.7712 15.3935   6
  -2  -9  -4 -15.484  12.666   1
   2  -9   4 -5.8083 15.0863   1
  -2  -9  -4 35.2024 23.1264   5
  -2   9  -4 -5.4270 12.5595   3
   2   9   4 -7.4739 19.3596   6
  -2   9  -4 -2.2775 22.2382   2
   2   9   4 26.4736 20.6278   4
   2   9   4 -15.852  11.576   3
  -3  -9  -4 1989.49  115.72   5
   3  -9   4 2043.67  112.10   1
   3  -9   4 2210.14  103.19   6
  -3  -9  -4 1787.88  106.15   1
  -3  -9  -4 1910.31  107.76   6
   3   9   4 2074.93  109.21   3
   3   9   4 2161.64  120.80   4
   3   9   4 1676.92  109.98   6
  -3   9  -4 2027.85  120.20   2
  -3   9  -4 1859.20  102.25   3
   4  -9   4 876.305  77.781   1
   4  -9   4 769.384  61.724   6
  -4  -9  -4 855.519  85.649   5
  -4  -9  -4 830.006  74.083   1
   4   9   4 677.693  73.845   6
   4   9   4 792.849  81.669   4
  -4   9  -4 663.761  77.778   2
   5  -9   4 1074.45   83.12   1
   5  -9   4 1017.16   78.66   6
  -5  -9  -4 1133.76   80.07   1
   5   9   4 1127.32   92.08   4
  -5   9  -4 1157.74  108.88   2
   5   9   4 985.386  93.600   6
   6  -9   4  6.1676 24.7893   1
   6  -9   4 41.1979 32.0575   6
  -6   9  -4  8.0523 33.1626   2
   6   9   4 11.5527 29.7455   4
   7  -9   4 85.6069 38.7538   1
   7  -9   4 52.3223 36.7635   6
  -9 -10   4  2.6511 45.4520   5
  -8 -10   4 402.789  80.450   5
  -7 -10   4 88.1235 42.9568   5
   7 -10  -4 49.2647 36.4306   6
  -7 -10   4 65.3843 40.4853   2
  -6 -10   4 966.564 103.760   5
   6 -10  -4 1083.03   85.50   4
   6 -10  -4 1171.72   89.62   6
  -6 -10   4 917.743 100.493   2
   6  10  -4 1098.60  102.47   3
  -6  10   4 1118.48  102.12   3
   5 -10  -4 11.3176 21.1097   1
  -5 -10   4 25.9645 30.2335   2
   5 -10  -4 51.7167 27.2086   6
   5 -10  -4 22.7319 27.5631   4
  -5  10   4 38.5515 27.2864   3
   5  10  -4 -1.3406 20.3552   3
   4 -10  -4 475.959  57.607   4
   4 -10  -4 437.495  50.915   1
  -4 -10   4 412.932  61.794   2
   4 -10  -4 565.816  61.348   6
   4  10  -4 463.052  59.105   3
  -4  10   4 477.440  61.990   3
   3 -10  -4 488.264  52.770   1
  -3 -10   4 480.539  48.505   1
  -3 -10   4 467.700  61.384   2
   3 -10  -4 539.443  57.678   6
   3 -10  -4 427.006  52.531   4
   3  10  -4 457.677  58.411   3
  -3  10   4 440.248  56.034   3
  -2 -10   4 2062.92  117.97   2
  -2 -10   4 1953.05   99.74   1
   2 -10  -4 2087.17  107.04   6
   2 -10  -4 1916.39  112.48   4
   2 -10  -4 2020.87  106.40   1
   2  10  -4 1900.78  113.12   3
  -2  10   4 1910.39  113.93   3
   1 -10  -4 167.206  31.113   1
  -1 -10   4 108.987  31.231   2
   1 -10  -4 170.532  34.125   4
  -1 -10   4 119.969  27.079   1
   1 -10  -4 133.561  28.014   6
  -1  10   4 139.290  32.226   3
   1  10  -4 106.270  27.435   3
   0 -10  -4 586.929  55.327   6
   0 -10  -4 621.575  58.208   1
   0 -10   4 497.700  53.195   1
   0  10  -4 520.743  57.806   3
   0  10  -4 639.141  68.532   2
   0  10   4 638.334  63.955   3
   0  10   4 626.006  64.409   4
   1 -10   4 283.288  41.328   1
  -1 -10  -4 276.879  41.753   5
  -1 -10  -4 328.170  43.485   6
  -1 -10  -4 320.067  41.485   1
  -1  10  -4 307.188  43.741   3
   1  10   4 361.663  48.456   4
  -1  10  -4 137.536  39.319   2
   1  10   4 309.587  44.183   3
  -2 -10  -4 3469.33  162.04   5
   2 -10   4 3438.46  162.58   1
  -2 -10  -4 3253.63  158.13   1
  -2 -10  -4 3013.72  154.72   6
  -2  10  -4 3387.65  176.12   2
   2  10   4 3751.93  172.84   4
   2  10   4 3071.14  162.09   6
  -2  10  -4 3200.17  157.85   3
   2  10   4 3563.16  162.42   3
  -3 -10  -4 141.242  36.868   5
   3 -10   4 133.903  34.054   1
  -3 -10  -4 62.3379 28.3893   6
  -3 -10  -4 140.304  33.691   1
  -3  10  -4 149.432  39.332   2
  -3  10  -4 116.333  26.627   3
   3  10   4 133.595  31.142   3
   3  10   4 21.6189 24.4534   6
   3  10   4 53.9743 29.4751   4
   4 -10   4 -1.9335 18.4043   1
   4 -10   4  5.4596 22.7033   6
  -4 -10  -4 -0.3282 22.5656   1
  -4 -10  -4 -2.2520 27.8738   5
   4  10   4 -15.187  22.256   4
  -4  10  -4 -46.550  21.690   2
   5 -10   4 36.9807 31.3376   6
   5 -10   4 33.1074 29.4583   1
  -5 -10  -4 22.9367 32.9763   5
  -5 -10  -4 66.9989 30.5877   1
  -5  10  -4 18.0035 33.6025   2
   5  10   4 41.0887 33.3684   4
   6 -10   4 993.741  97.474   1
   6 -10   4 1242.98   93.73   6
  -6  10  -4 1172.33  118.67   2
   6  10   4 895.827 102.369   4
   7 -10   4 95.3343 46.7164   6
  -9 -11   4 311.756  77.260   5
  -8 -11   4 1287.77  133.72   5
  -7 -11   4 53.1568 43.4660   5
   6 -11  -4 157.517  45.186   6
  -6 -11   4 191.426  53.321   2
  -6 -11   4 128.446  51.921   5
  -6  11   4 151.386  42.098   3
   6  11  -4 196.065  49.428   3
  -5 -11   4 12.8577 31.8829   2
   5 -11  -4 -2.9185 23.5944   6
   5 -11  -4 17.2996 23.4844   1
  -5  11   4 11.1894 24.2333   3
   5  11  -4 24.8638 28.5564   3
   4 -11  -4 1080.18   81.46   6
   4 -11  -4 1108.89   77.22   1
  -4 -11   4 1094.15  102.21   2
  -4  11   4 985.975  92.021   3
   4  11  -4 1036.04   97.12   3
   3 -11  -4 115.566  31.167   6
   3 -11  -4 88.0440 27.2015   1
  -3 -11   4 84.6609 25.0163   1
  -3 -11   4 123.774  37.403   2
   3 -11  -4 55.8895 27.4425   4
  -3  11   4 79.0829 29.6114   3
   3  11  -4 101.329  32.647   3
   2 -11  -4 642.407  71.167   4
   2 -11  -4 570.891  59.370   6
  -2 -11   4 703.572  74.380   2
   2 -11  -4 628.998  62.774   1
  -2 -11   4 698.342  53.804   1
  -2  11   4 598.909  68.202   3
   2  11  -4 638.000  69.465   3
   1 -11  -4 607.659  61.237   1
  -1 -11   4 688.383  71.899   2
   1 -11  -4 708.352  55.925   6
   1 -11  -4 544.911  59.775   4
  -1 -11   4 661.376  60.720   1
  -1  11   4 676.972  71.780   3
   1  11  -4 737.023  72.033   3
   0 -11   4 2899.88  144.92   1
   0 -11  -4 3309.72  145.48   6
   0 -11  -4 2799.68  144.97   1
   0  11  -4 2953.96  153.72   3
   0  11   4 3066.31  155.06   4
   0  11  -4 3099.59  161.60   2
   0  11   4 3051.84  155.72   3
  -1 -11  -4 392.530  50.570   5
   1 -11   4 491.394  55.697   1
  -1 -11  -4 491.048  53.600   6
  -1 -11  -4 473.943  54.719   1
   1  11   4 387.282  52.952   3
  -1  11  -4 512.039  64.593   2
  -1  11  -4 469.065  56.389   3
   1  11   4 555.891  61.232   4
  -2 -11  -4 91.6243 29.4053   6
  -2 -11  -4 43.8799 25.5662   1
  -2 -11  -4 66.1013 30.7412   5
   2 -11   4 43.8053 24.8580   1
  -2  11  -4 82.8975 26.3041   3
   2  11   4 71.4902 25.6624   3
   2  11   4 59.1141 26.7690   4
  -2  11  -4 58.1874 32.3098   2
  -3 -11  -4 31.2043 26.7469   5
  -3 -11  -4 14.0449 23.5495   1
   3 -11   4 14.9802 22.8595   1
  -3  11  -4 37.2169 20.9350   3
   3  11   4 12.2086 24.8763   4
  -3  11  -4  5.1439 28.7053   2
   3  11   4 17.6574 20.1334   3
   4 -11   4 927.168  86.948   1
  -4 -11  -4 941.855  94.855   5
  -4 -11  -4 892.182  84.181   1
  -4  11  -4 920.459 100.145   2
   4  11   4 995.786  94.495   4
   5 -11   4 63.5587 31.5335   1
  -5 -11  -4 15.6726 34.8098   5
  -5 -11  -4 24.5976 29.1870   1
   5  11   4 80.4721 37.2083   4
  -5  11  -4 32.6420 38.0771   2
   6 -11   4 -9.5433 28.4380   1
  -6  11  -4 68.7939 44.9879   2
   6  11   4 45.0854 36.5711   4
  -9 -12   4  9.3765 50.8767   5
  -8 -12   4 328.411  77.395   5
  -7 -12   4 347.051  73.301   5
  -6 -12   4 484.038  79.448   5
  -6 -12   4 385.447  72.699   2
   6 -12  -4 564.187  77.237   6
   6  12  -4 462.688  73.083   3
  -6  12   4 451.240  68.887   3
   5 -12  -4  7.3277 28.8216   6
  -5 -12   4 14.5965 33.4664   2
   5 -12  -4 21.3375 27.5955   1
   5  12  -4 -2.8021 27.1522   3
  -5  12   4 -3.0417 23.2957   3
  -4 -12   4 69.4296 34.4565   2
   4 -12  -4 76.1695 27.4977   1
   4 -12  -4 67.4213 31.7780   6
   4  12  -4 40.9463 27.9851   3
  -4  12   4  5.9715 24.6725   3
   3 -12  -4 1509.40   92.77   1
  -3 -12   4 1327.45  101.12   2
   3 -12  -4 1307.20   90.34   6
   3  12  -4 1493.86  103.55   3
  -3  12   4 1370.26  100.72   3
  -2 -12   4 659.409  74.646   2
   2 -12  -4 740.483  68.199   6
  -2 -12   4 702.700  64.254   1
   2 -12  -4 672.233  66.141   1
   2  12  -4 718.480  77.849   3
  -2  12   4 598.955  72.327   3
   1 -12  -4 514.464  56.414   1
   1 -12  -4 445.554  50.543   6
  -1 -12   4 528.867  62.246   2
  -1 -12   4 340.972  44.839   1
  -1  12   4 397.586  54.667   3
   1  12  -4 281.315  47.257   3
   0 -12  -4 -8.7312 17.9744   6
   0 -12  -4 -17.743  16.182   1
   0 -12   4 16.0835 20.1496   1
   0  12   4 -3.0178 18.3294   3
   0  12  -4 10.6797 18.6269   3
   0  12  -4 15.2462 24.5945   2
   1 -12   4 830.877  77.171   1
  -1 -12  -4 760.232  73.310   1
   1  12   4 896.805  80.656   3
  -1  12  -4 738.406  75.729   3
  -1  12  -4 697.559  77.768   2
  -2 -12  -4 737.858  73.842   5
   2 -12   4 522.264  63.846   1
  -2 -12  -4 500.984  61.911   1
   2  12   4 674.835  70.103   3
   2  12   4 745.054  73.612   4
  -2  12  -4 634.940  82.217   2
  -2  12  -4 620.804  67.483   3
  -3 -12  -4 784.067  87.583   5
   3 -12   4 902.820  86.904   1
  -3 -12  -4 976.184  87.870   1
  -3  12  -4 856.667  97.266   2
   3  12   4 983.241  88.402   3
   3  12   4 820.784  83.309   4
  -3  12  -4 914.950  72.037   3
  -4 -12  -4 74.7100 39.7802   5
   4 -12   4 94.7150 34.6819   1
  -4 -12  -4 53.8198 32.2875   1
   4  12   4 102.706  37.150   4
  -4  12  -4 82.8937 43.9666   2
  -5 -12  -4 483.170  67.351   1
  -5 -12  -4 447.132  71.238   5
   5 -12   4 257.456  51.472   1
  -5  12  -4 392.681  72.888   2
   5  12   4 346.846  61.417   4
   6  12   4 728.047  90.636   4
  -9 -13   4 353.373  91.450   5
  -8 -13   4 -23.001  41.884   5
  -7 -13   4 -36.202  42.087   5
  -6 -13   4 -25.186  42.254   5
  -6 -13   4  4.3987 36.2078   2
   6 -13  -4  8.8614 34.4763   6
   6  13  -4 -11.372  34.499   3
  -6  13   4  2.3055 32.8916   3
   5 -13  -4 2272.13  131.19   1
   5 -13  -4 2231.23  138.95   6
  -5 -13   4 2355.35  151.50   2
   5  13  -4 2188.69  149.21   3
  -5  13   4 2231.05  145.52   3
  -4 -13   4  3.6148 30.2203   2
   4 -13  -4 26.0276 29.1774   6
   4 -13  -4 91.8446 30.6024   1
  -4  13   4 44.1285 30.0519   3
   4  13  -4 33.8953 26.6918   3
   3 -13  -4 260.269  45.535   6
   3 -13  -4 334.806  49.384   1
  -3 -13   4 370.824  61.211   2
   3  13  -4 269.560  53.672   3
  -3  13   4 403.043  61.717   3
   2 -13  -4 32.1435 21.5745   6
  -2 -13   4  2.8621 27.9847   2
  -2 -13   4 -1.8602 21.1808   1
   2 -13  -4 -17.999  18.431   1
   2  13  -4 -16.757  17.469   3
  -2  13   4 21.2977 22.6092   3
  -1 -13   4 1731.98  100.98   1
  -1 -13   4 1659.14  111.42   2
   1 -13  -4 1605.13  102.74   1
   1  13  -4 1704.22  111.03   3
  -1  13   4 1586.10  109.78   3
   0 -13   4 17.5326 24.3356   1
   0 -13  -4 -3.7882 19.6532   1
   0  13  -4 32.8047 24.4933   3
   0  13  -4 -25.152  25.009   2
   0  13   4 -0.0927 19.5521   3
   1 -13   4 371.495  52.175   1
  -1 -13  -4 357.828  53.525   1
  -1  13  -4 488.133  61.659   3
   1  13   4 480.178  61.471   3
  -1  13  -4 389.947  60.062   2
  -2 -13  -4 20.0228 25.5100   1
   2 -13   4 13.3737 25.2141   1
  -2 -13  -4  2.8250 27.2809   5
  -2  13  -4  7.5696 31.9220   2
   2  13   4 -8.1488 18.6596   3
  -2  13  -4 -8.7961 17.2570   3
  -3 -13  -4 1080.81   99.27   1
   3 -13   4 1305.65   97.29   1
  -3 -13  -4 1072.82  103.41   5
   3  13   4 1394.94   96.44   3
  -3  13  -4 1310.65  126.58   2
  -3  13  -4 1173.32   88.67   3
  -4 -13  -4 -3.3438 32.7874   5
   4 -13   4  4.0477 27.0502   1
  -4 -13  -4  3.9946 29.3156   1
  -4  13  -4 77.7546 45.2074   2
  -5 -13  -4 1201.15  110.48   1
   5 -13   4 929.568  98.264   1
  -5 -13  -4 1197.66  120.73   5
  -5  13  -4 962.513 120.024   2
  -9 -14   4 65.3351 69.3076   5
  -8 -14   4 290.615  82.608   5
  -7 -14   4 860.390 114.861   5
  -6 -14   4 377.121  80.840   5
  -5 -14   4 -11.951  37.823   2
   5 -14  -4  6.6872 36.3889   6
   5 -14  -4 11.1787 29.9855   1
  -5  14   4 -17.633  27.815   3
   5  14  -4 27.4042 35.4627   3
   4 -14  -4 66.3807 38.2395   6
  -4 -14   4 25.3875 35.9016   2
   4 -14  -4 16.8216 26.3511   1
   4  14  -4 46.6950 31.9249   3
  -4  14   4 14.7719 28.6950   3
   3 -14  -4 1619.86  105.56   1
  -3 -14   4 1521.63  114.25   2
   3  14  -4 1343.69  109.69   3
  -3  14   4 1619.57  115.81   3
  -2 -14   4 317.819  49.581   1
   2 -14  -4 263.837  48.373   1
  -2 -14   4 326.717  57.903   2
  -2  14   4 167.547  42.386   3
   2  14  -4 210.705  47.632   3
   1 -14  -4 364.142  52.330   1
  -1 -14   4 453.240  57.741   1
  -1 -14   4 530.920  67.871   2
   1  14  -4 412.874  60.053   3
  -1  14   4 312.632  53.243   3
   0 -14  -4 51.4866 26.9913   1
   0 -14   4 71.4551 32.0106   1
   0 -14   4 55.6978 31.3132   2
   0  14  -4 43.4594 27.7187   3
   0  14  -4 106.612  39.783   2
   0  14   4 88.3258 33.1418   3
   1 -14   4 1075.81   96.40   1
  -1 -14  -4 888.227  87.291   1
  -1  14  -4 1095.28   86.91   3
  -1  14  -4 1221.98   95.76   2
   1  14   4 1002.34   81.66   3
   2 -14   4 711.556  79.038   1
  -2 -14  -4 445.614  64.506   5
  -2 -14  -4 588.134  69.141   1
  -2  14  -4 600.504  73.165   3
   2  14   4 640.941  73.475   3
  -2  14  -4 515.457  77.034   2
  -3 -14  -4 692.630  79.768   1
  -3 -14  -4 675.474  83.116   5
   3 -14   4 492.756  70.344   1
   3  14   4 518.367  67.675   3
  -3  14  -4 460.819  82.406   2
  -4 -14  -4 24.4748 39.8934   5
   4 -14   4 22.2483 30.9188   1
  -4 -14  -4 58.2598 36.4886   1
  -4  14  -4 57.6345 48.5936   2
  -5 -14  -4 718.731  95.185   5
  -5  14  -4 622.012 100.969   2
  -8 -15   4 209.724  76.858   5
  -7 -15   4 -45.191  47.377   5
  -6 -15   4 461.319  88.833   5
  -5 -15   4 216.347  59.150   2
  -5 -15   4 244.574  62.408   5
   4 -15  -4 1345.03   99.10   1
  -4 -15   4 1171.66  115.78   2
   4  15  -4 1167.62  120.63   3
  -4  15   4 1258.24  118.92   3
   3 -15  -4 45.4678 30.2002   1
  -3 -15   4 -18.904  33.191   2
   3  15  -4 33.9076 31.0426   3
  -3  15   4 26.2975 27.0727   3
   2 -15  -4 -1.5410 22.9028   1
  -2 -15   4 45.9262 29.6521   1
  -2 -15   4 25.1349 32.1035   2
   2  15  -4 77.8187 35.0365   3
  -2  15   4 30.9976 26.9892   3
  -1 -15   4 396.932  56.018   1
   1 -15  -4 573.303  68.664   1
  -1 -15   4 638.659  77.526   2
   1  15  -4 394.907  62.286   3
  -1  15   4 406.314  62.867   3
   0 -15   4 1057.65   99.18   2
   0 -15   4 900.815  86.876   1
   0 -15  -4 948.044  90.344   1
   0  15   4 1020.06   98.77   3
   0  15  -4 1128.53  103.27   3
  -1 -15  -4 176.310  41.595   1
   1 -15   4 170.833  43.625   1
  -1  15  -4 147.961  41.893   3
   1  15   4 226.115  47.109   3
  -1  15  -4 179.484  52.580   2
  -2 -15  -4 182.899  46.878   1
   2 -15   4 204.942  48.056   1
  -2  15  -4 210.050  53.235   2
  -2  15  -4 146.045  42.867   3
   2  15   4 244.472  49.470   3
   3 -15   4 151.961  44.616   1
  -3 -15  -4 143.851  46.265   1
  -3 -15  -4 122.112  47.260   5
  -3  15  -4 160.051  62.367   2
   3  15   4 159.285  46.298   3
  -4 -15  -4 1160.22  119.87   5
  -4 -15  -4 1153.35  110.35   1
  -5 -15  -4 185.769  60.834   5
  -8 -16   4 219.015  83.545   5
  -7 -16   4 30.7378 59.6442   5
  -6 -16   4 823.417 117.675   5
  -5 -16   4 26.9493 41.9029   5
   3 -16  -4 51.7412 33.4035   1
  -2 -16   4 1211.67   90.24   1
   2 -16  -4 1026.76   99.82   1
  -2  16   4 911.212 100.586   3
   2  16  -4 1036.83  109.90   3
   1 -16  -4 28.5374 28.6088   1
  -1 -16   4 25.8911 31.4646   1
   1  16  -4 62.0636 32.5525   3
  -1  16   4 12.1457 27.2444   3
   0 -16   4 68.6356 33.7778   1
   0 -16  -4 88.3778 38.1121   1
   0  16  -4 61.9705 33.5125   3
   0  16   4 19.4234 24.1611   3
  -1 -16  -4 24.8284 29.5431   1
   1 -16   4 37.4733 32.7459   1
  -1  16  -4 35.6373 29.5537   3
   1  16   4 20.7689 29.4358   3
  -2 -16  -4 1141.81  104.90   1
   2 -16   4 1002.29  101.11   1
   2  16   4 1267.52  112.50   3
  -2  16  -4 1035.58  103.19   3
  -3 -16  -4  8.7715 39.9453   5
   3  16   4  8.4276 32.5141   3
  -4 -16  -4 20.9104 40.9228   5
  -5 -16  -4 104.344  53.478   5
  -7 -17   4 60.5972 69.1186   5
  -6 -17   4 165.651  68.899   5
  -5 -17   4 443.563  88.597   5
  -1 -17   4 358.236  60.667   1
   0 -17   4 283.337  55.057   1
  -4 -17  -4 841.318 108.730   5
  -5 -17  -4 334.533  77.686   5
  -7 -18   4 746.151 125.013   5
  -6 -18   4 63.1952 55.0121   5
  -5 -18   4 69.1514 59.3747   5
  -5 -18  -4 241.056  70.582   5
  -6 -19   4 32.8732 61.8089   5
  -5 -19   4 346.855  82.530   5
  -5 -20   4 -26.330  50.355   5
  -4 -20   4 166.846  65.813   5
  -4 -21   4 372.514  80.435   5
   9   0  -5 493.195  71.835   6
   8   0  -5 -29.210  25.873   4
  -8   0   5 -2.1810 25.8511   2
   8   0  -5 77.1441 30.1094   6
  -7   0   5 1810.67  117.44   2
   7   0  -5 1856.05  112.15   6
   7   0  -5 1899.36  120.76   4
   6   0  -5  5.1290 16.9238   4
  -6   0   5 -18.177  16.006   3
   6   0  -5 23.4481 17.3122   6
  -6   0   5  7.0805 19.5663   2
   5   0  -5 173.963  35.158   3
   5   0  -5 251.167  35.604   6
   5   0  -5 239.354  37.797   4
  -5   0   5 369.088  46.458   2
   4   0  -5 -6.4915 10.4766   6
   4   0  -5 -22.886   8.331   3
   4   0  -5 -0.0025 12.9832   4
  -4   0   5  2.8681 11.7940   2
   3   0  -5 7629.24  308.72   3
  -3   0   5 7606.33  301.48   2
   3   0  -5 7787.26  298.47   6
   3   0  -5 7988.99  314.22   4
  -2   0   5 3.80386 8.41354   2
   2   0  -5 1.32687 9.00266   3
   2   0  -5 4.32194 9.82502   4
   2   0  -5 3.74711 9.19313   6
   2   0  -5 4.19606 5.48489   1
   1   0  -5 168.799  21.484   6
   1   0  -5 177.374  18.703   1
   1   0  -5 141.079  23.161   4
  -1   0   5 194.029  22.686   2
   1   0  -5 171.005  24.145   3
   0   0  -5 4.25371 7.48882   3
   0   0  -5 4.12984 7.91426   6
   0   0  -5 12.3515 13.3331   2
   0   0  -5 31.1734  9.9472   1
   0   0  -5 -11.442  12.340   4
   1   0   5 4971.54  189.46   3
  -1   0  -5 4834.02  191.31   1
  -1   0  -5 4562.69  191.85   6
   1   0   5 5074.58  208.49   4
  -1   0  -5 5124.72  198.43   2
   1   0   5 4815.21  196.37   6
   2   0   5 11.4430 12.7777   4
  -2   0  -5 -14.756   9.009   1
   2   0   5 18.1444 12.9845   6
  -2   0  -5  4.1043 11.2518   2
   2   0   5 8.05840 5.29659   3
   3   0   5 327.194  39.909   4
  -3   0  -5 281.589  38.068   2
  -3   0  -5 317.394  36.680   1
   3   0   5 354.364  41.022   6
   4   0   5 -2.1345 13.8777   6
   4   0   5 21.8908 16.9131   4
  -4   0  -5  1.1259 13.7602   1
  -4   0  -5 -13.338  14.054   2
   5   0   5 2780.34  140.20   6
  -5   0  -5 2585.66  141.11   2
   5   0   5 2545.97  139.35   4
  -5   0  -5 2747.35  132.79   1
   6   0   5 -1.6322 20.1932   6
  -6   0  -5 11.0883 24.8044   2
   6   0   5 -23.684  18.953   4
  -6   0  -5 23.7484 23.3972   1
   7   0   5 391.920  58.555   4
  -7   0  -5 460.926  68.007   2
   9  -1  -5 603.624  77.537   6
   9   1  -5 626.516  78.278   6
   8  -1  -5 89.0489 37.4222   4
   8  -1  -5 98.1721 35.3732   6
  -8  -1   5 81.9632 38.4622   2
  -8   1   5 108.544  39.349   2
   8   1  -5 91.2796 33.9035   6
   8   1  -5 117.224  40.534   4
  -7  -1   5 152.202  39.349   2
   7  -1  -5 152.214  36.994   6
   7  -1  -5 200.485  43.973   4
   7   1  -5 222.975  43.559   4
   7   1  -5 178.869  38.835   6
  -7   1   5 97.5869 33.8097   2
  -6  -1   5 888.634  81.495   2
   6  -1  -5 883.747  70.566   4
   6  -1  -5 698.956  68.574   6
   6   1  -5 866.875  69.281   4
  -6   1   5 896.228  82.867   3
   6   1  -5 944.432  70.813   3
  -6   1   5 805.665  76.852   2
   6   1  -5 726.775  67.493   6
   5  -1  -5 2780.88  140.29   4
  -5  -1   5 2666.42  125.71   5
  -5  -1   5 2640.22  136.33   2
   5  -1  -5 2995.59  136.36   6
  -5   1   5 2657.79  139.79   3
   5   1  -5 2683.14  137.81   3
   5   1  -5 2730.97  139.44   4
  -5   1   5 2781.69  136.05   2
   5   1  -5 2686.04  129.45   6
   4  -1  -5 469.909  47.904   4
  -4  -1   5 500.344  49.431   2
   4  -1  -5 522.591  48.222   6
   4   1  -5 509.647  45.349   6
  -4   1   5 417.151  45.244   2
  -4   1   5 452.862  51.938   3
   4   1  -5 395.046  45.760   3
   4   1  -5 446.010  47.281   4
   3  -1  -5 365.103  39.299   4
   3  -1  -5 366.004  37.801   6
  -3  -1   5 470.597  42.752   2
   3  -1  -5 359.436  41.011   3
   3   1  -5 382.204  35.351   6
  -3   1   5 309.393  39.639   3
   3   1  -5 450.396  35.710   4
  -3   1   5 368.767  36.313   2
   3   1  -5 408.922  42.796   3
   2  -1  -5 336.920  21.720   1
   2  -1  -5 294.063  33.963   3
  -2  -1   5 415.662  36.282   2
   2  -1  -5 340.150  33.616   6
   2  -1  -5 329.946  34.138   4
   2   1  -5 334.037  30.609   6
   2   1  -5 381.024  35.268   4
   2   1  -5 311.170  19.143   1
  -2   1   5 360.991  31.043   2
   2   1  -5 358.219  38.247   3
  -2   1   5 280.675  35.352   3
   1  -1  -5 6280.32  242.58   4
   1  -1  -5 5652.20  225.44   6
   1  -1  -5 5855.29  215.93   1
   1   1  -5 5976.17  236.96   4
   1   1  -5 5574.42  229.63   2
   1   1  -5 5773.53  230.59   3
  -1   1   5 5892.48  232.96   3
   1   1  -5 5943.73  221.49   6
   1   1  -5 5638.34  214.28   1
  -1   1   5 5696.09  221.41   2
   0  -1  -5 359.615  31.608   1
   0  -1  -5 371.344  32.847   6
   0  -1  -5 330.457  40.527   4
   0  -1  -5 350.001  34.386   2
   0  -1   5 401.931  29.524   6
   0   1  -5 365.911  41.331   2
   0   1   5 404.660  30.077   3
   0   1  -5 381.383  27.096   6
   0   1  -5 342.393  26.909   1
   0   1  -5 344.543  28.211   3
   0   1  -5 383.928  38.858   4
  -1  -1  -5 867.422  49.663   6
   1  -1   5 840.855  51.599   4
  -1  -1  -5 808.532  48.319   1
  -1  -1  -5 869.925  48.604   2
   1  -1   5 787.082  48.634   6
   1   1   5 952.855  54.511   6
  -1   1  -5 732.555  50.479   2
  -1   1  -5 850.544  47.798   6
   1   1   5 886.049  59.037   4
  -1   1  -5 797.763  43.105   3
  -1   1  -5 834.604  48.275   1
   1   1   5 810.415  43.383   3
  -2  -1  -5 1600.62   81.20   1
  -2  -1  -5 1666.41   82.26   2
   2  -1   5 1672.09   84.25   4
   2  -1   5 1436.87   80.02   6
  -2  -1  -5 1592.04   81.17   6
  -2   1  -5 1582.99   66.17   3
  -2   1  -5 1625.14   80.73   1
   2   1   5 1671.29   65.99   3
   2   1   5 1693.55   90.09   4
   2   1   5 1733.37   86.56   6
  -2   1  -5 1567.69   84.47   2
  -3  -1  -5 1563.31   84.34   2
   3  -1   5 1557.54   84.23   4
  -3  -1  -5 1462.14   80.39   1
   3  -1   5 1486.51   83.26   6
  -3   1  -5 1468.89   85.48   2
   3   1   5 1539.41   88.10   4
  -3   1  -5 1487.60   80.56   1
   3   1   5 1541.67   85.49   6
   4  -1   5 812.911  58.157   4
  -4  -1  -5 759.248  55.294   1
   4  -1   5 661.692  62.766   6
  -4  -1  -5 659.921  64.231   2
  -4   1  -5 727.108  54.373   1
  -4   1  -5 597.705  63.141   2
   4   1   5 700.111  64.468   6
   4   1   5 575.018  60.893   4
  -5  -1  -5 801.731  68.363   1
  -5  -1  -5 598.246  67.895   2
   5  -1   5 691.334  67.328   4
   5  -1   5 577.898  64.000   6
   5   1   5 604.342  65.877   6
  -5   1  -5 687.737  63.666   1
  -5   1  -5 611.282  68.967   2
   5   1   5 714.493  71.384   4
   6  -1   5 45.2243 28.3301   1
  -6  -1  -5 17.9120 24.3440   1
  -6  -1  -5 -19.844  21.104   2
   6  -1   5 21.2756 25.7821   6
   6  -1   5 22.1816 21.0484   4
   6   1   5 -4.5480 22.0689   4
   6   1   5 27.3532 26.0439   6
  -6   1  -5 40.1593 24.4429   1
  -6   1  -5 53.8194 28.9808   2
   7  -1   5 764.392  80.842   4
   7  -1   5 693.735  79.221   6
  -7  -1  -5 1027.84  100.01   2
   7  -1   5 840.914  87.037   1
  -7   1  -5 775.087  88.176   2
   7   1   5 673.493  79.946   6
   7   1   5 723.431  83.639   4
   8  -1   5 302.524  59.688   4
  -8  -2   5 1113.89  108.83   2
   8  -2  -5 1202.80   97.19   4
   8   2  -5 1221.96   97.88   4
  -8   2   5 1244.82  114.31   2
   8   2  -5 970.865  92.999   6
  -7  -2   5 106.233  34.382   2
   7  -2  -5 46.6840 28.9082   4
   7  -2  -5 47.2490 27.4820   6
  -7   2   5 37.2460 29.6902   2
   7   2  -5 43.1131 28.3769   4
   7   2  -5 59.1282 29.0125   3
   7   2  -5 42.2128 25.8629   6
   6  -2  -5 592.349  66.144   4
   6  -2  -5 610.075  63.878   6
  -6  -2   5 776.330  68.143   5
  -6  -2   5 705.766  72.754   2
  -6   2   5 636.901  68.254   2
  -6   2   5 657.593  69.833   3
   6   2  -5 742.667  65.450   6
   6   2  -5 628.412  67.774   3
   6   2  -5 629.051  66.155   4
   5  -2  -5 329.507  43.364   6
  -5  -2   5 294.496  44.216   2
   5  -2  -5 213.218  36.475   4
  -5  -2   5 376.506  42.640   5
   5   2  -5 277.343  41.730   3
   5   2  -5 364.857  41.061   6
  -5   2   5 315.892  41.195   2
  -5   2   5 320.525  45.065   3
   5   2  -5 347.291  43.915   4
  -4  -2   5 1396.86   84.33   2
   4  -2  -5 1533.25   86.65   4
   4  -2  -5 1595.84   83.92   6
   4   2  -5 1451.00   87.33   3
   4   2  -5 1483.06   84.77   4
   4   2  -5 1519.23   77.27   6
  -4   2   5 1289.22   85.14   3
  -4   2   5 1586.39   82.39   2
   3  -2  -5 2778.40  128.88   6
   3  -2  -5 2811.46  111.00   1
  -3  -2   5 3045.32  134.12   2
   3  -2  -5 2730.68  133.72   4
   3   2  -5 2909.36  132.32   4
  -3   2   5 3077.35  126.33   2
   3   2  -5 3308.73  139.07   3
   3   2  -5 2720.90  121.31   6
  -3   2   5 2807.32  135.74   3
  -2  -2   5 2409.47  113.87   2
   2  -2  -5 2667.71  119.48   4
   2  -2  -5 2538.11   99.57   1
  -2  -2   5 2458.81   95.91   1
   2  -2  -5 2410.87  111.57   6
   2   2  -5 2543.61  112.69   4
   2   2  -5 2572.72  116.83   3
  -2   2   5 2399.37  116.63   3
  -2   2   5 2525.54  104.28   2
   2   2  -5 2439.16  104.15   6
   1  -2  -5  4.8482 10.6118   6
   1  -2  -5 21.3097  9.3724   1
  -1  -2   5 29.2393 10.0637   1
   1  -2  -5 14.6600 12.6576   4
   1   2  -5 26.8433 12.2229   3
   1   2  -5 27.6200  9.4229   1
  -1   2   5 5.98566 9.92405   3
   1   2  -5 50.5055 17.5880   2
  -1   2   5 25.2152  8.2472   2
   1   2  -5 18.2259  8.4860   6
   1   2  -5 10.8586 10.6684   4
   0  -2   5 1376.50   67.60   6
   0  -2  -5 1392.96   68.90   2
   0  -2  -5 1483.36   69.74   1
   0  -2  -5 1446.01   86.57   4
   0  -2  -5 1465.02   72.62   6
   0   2  -5 1463.43   68.06   1
   0   2  -5 1515.71   71.10   3
   0   2  -5 1424.40   65.53   6
   0   2  -5 1521.04   85.85   2
   0   2   5 1566.20   73.08   3
   0   2  -5 1541.80   76.31   4
   1  -2   5 931.767  52.180   6
  -1  -2  -5 913.841  53.434   1
  -1  -2  -5 913.182  50.352   2
  -1  -2  -5 973.741  54.921   6
   1  -2   5 935.340  54.041   4
   1   2   5 988.867  58.825   6
  -1   2  -5 960.906  52.705   1
   1   2   5 875.075  62.796   4
  -1   2  -5 968.323  59.666   2
   1   2   5 1017.89   48.91   3
  -1   2  -5 900.611  47.629   3
  -2  -2  -5 2444.15  115.69   6
  -2  -2  -5 2557.52  115.21   1
   2  -2   5 2603.82  116.72   4
  -2  -2  -5 2480.00  112.70   2
   2  -2   5 2548.14  114.49   6
   2   2   5 2573.85  101.67   3
   2   2   5 2397.43  118.15   6
  -2   2  -5 2634.61  121.52   2
  -2   2  -5 2475.38  113.00   1
  -2   2  -5 2464.14  100.98   3
   2   2   5 2688.85  128.28   4
   3  -2   5 24.8619 14.6852   6
  -3  -2  -5 -13.607  12.761   2
   3  -2   5 24.7911 13.7474   4
  -3  -2  -5 12.7300 13.3967   1
  -3   2  -5  1.7660 11.6738   1
   3   2   5 -6.4631 12.7894   6
   3   2   5 19.1727 16.7383   4
  -3   2  -5  6.6763 14.0179   2
  -4  -2  -5 1161.92   76.10   2
   4  -2   5 1142.30   73.37   4
  -4  -2  -5 1197.27   73.62   1
   4  -2   5 1167.37   75.36   6
  -4   2  -5 1229.69   80.95   2
   4   2   5 1156.62   77.50   6
   4   2   5 1193.27   80.94   4
  -4   2  -5 1151.42   72.41   1
   5  -2   5 387.908  49.313   6
  -5  -2  -5 329.518  44.369   1
   5  -2   5 356.601  50.717   1
  -5  -2  -5 327.524  50.817   2
   5  -2   5 329.306  45.273   4
   5   2   5 297.991  48.537   4
   5   2   5 456.212  55.819   6
  -5   2  -5 331.090  51.519   2
   6  -2   5 1822.97  114.39   4
  -6  -2  -5 1853.32  108.19   1
   6  -2   5 2137.13  121.91   1
   6  -2   5 1896.09  117.30   6
  -6  -2  -5 1820.51  119.22   2
   6   2   5 2034.71  124.57   4
   6   2   5 1954.15  119.61   6
  -6   2  -5 1895.64  122.78   2
   7  -2   5 209.960  45.151   6
  -7  -2  -5 199.827  50.532   2
   7  -2   5 235.131  47.377   4
   7  -2   5 164.954  44.195   1
  -7   2  -5 151.889  43.690   2
   7   2   5 209.715  46.587   6
   7   2   5 241.975  51.171   4
   8  -2   5 -34.741  28.640   4
   8  -3  -5 546.358  72.355   4
   8  -3  -5 437.123  63.699   6
  -8  -3   5 534.895  73.908   2
   8   3  -5 346.009  60.724   4
  -8   3   5 412.959  64.132   2
   7  -3  -5  9.5610 23.0041   4
  -7  -3   5  0.7745 23.2195   2
   7  -3  -5 -6.2975 20.0529   6
   7   3  -5 21.1990 24.7668   3
  -7   3   5 38.0644 26.4359   2
   7   3  -5 -6.7827 23.6290   4
   6  -3  -5 1526.26   99.70   4
  -6  -3   5 1452.20  100.19   2
  -6  -3   5 1510.57   93.67   5
   6  -3  -5 1603.95   99.02   6
   6   3  -5 1547.76   99.73   4
   6   3  -5 1544.91   99.08   3
  -6   3   5 1709.34  102.85   3
  -6   3   5 1599.16  100.34   2
   6   3  -5 1496.89   89.76   6
  -5  -3   5 247.985  41.097   2
   5  -3  -5 163.336  31.947   6
   5  -3  -5 238.216  37.926   4
  -5  -3   5 250.146  38.236   5
   5   3  -5 201.525  29.654   6
   5   3  -5 222.928  35.882   4
  -5   3   5 145.308  30.921   2
  -5   3   5 236.906  38.997   3
   5   3  -5 293.064  43.065   3
   4  -3  -5 817.089  58.309   4
  -4  -3   5 803.234  58.348   2
   4  -3  -5 740.242  54.761   6
  -4   3   5 610.768  48.853   2
   4   3  -5 638.308  61.277   3
   4   3  -5 747.787  47.034   6
   4   3  -5 715.938  52.681   4
  -4   3   5 585.911  59.668   3
   3  -3  -5  0.6086 12.5164   4
  -3  -3   5  1.5605 11.9580   2
   3  -3  -5 17.3696 13.7463   6
   3  -3  -5 6.80893 8.50180   1
   3   3  -5 3.53383 9.16008   6
   3   3  -5  9.7475 12.2286   3
  -3   3   5 27.2611 16.4355   3
   3   3  -5 26.6440 12.3723   4
  -3   3   5  9.3738 10.0860   2
   2  -3  -5 2526.80  102.78   1
  -2  -3   5 2685.89  120.12   2
   2  -3  -5 2539.49  115.12   6
   2  -3  -5 2520.01  119.23   4
  -2  -3   5 2437.26   97.71   1
   2   3  -5 2595.87  102.89   6
   2   3  -5 2371.61  116.65   3
   2   3  -5 2544.55  112.13   4
  -2   3   5 2585.37  103.27   2
  -2   3   5 2292.04  117.41   3
   1  -3  -5 859.161  56.772   4
   1  -3  -5 763.975  50.505   6
   1  -3  -5 803.114  45.003   1
  -1  -3   5 852.798  45.181   1
   1   3  -5 814.576  40.437   6
   1   3  -5 871.824  47.825   4
  -1   3   5 843.277  37.829   2
   1   3  -5 923.296  52.674   3
  -1   3   5 816.663  52.669   3
   1   3  -5 855.666  59.585   2
   0  -3  -5 3451.35  143.56   6
   0  -3  -5 3440.76  160.91   4
   0  -3  -5 3317.02  132.19   2
   0  -3   5 3501.47  140.08   1
   0  -3  -5 3408.93  137.58   1
   0  -3   5 3121.63  133.16   6
   0   3   5 3470.40  142.88   3
   0   3  -5 3181.17  130.88   6
   0   3  -5 3397.21  141.88   4
   0   3  -5 3559.28  159.85   2
   0   3  -5 3327.85  140.23   3
  -1  -3  -5 -1.9074  8.1531   2
  -1  -3  -5 -11.011   9.022   1
  -1  -3  -5 -5.5209  8.7713   6
   1  -3   5 13.0912 11.7719   1
   1  -3   5 -1.4499  7.6051   6
   1  -3   5 -2.3048  9.0161   4
   1   3   5 5.20265 7.44553   3
  -1   3  -5 1.19284 7.42146   3
   1   3   5 -3.4357 11.3252   6
  -1   3  -5 -5.8894 11.6906   2
   1   3   5 -10.223  12.370   4
   2  -3   5 2069.75  102.59   1
  -2  -3  -5 2165.76   96.76   2
   2  -3   5 2211.06  100.24   6
  -2  -3  -5 1983.76   99.31   1
  -2  -3  -5 2171.14  102.48   6
   2  -3   5 2091.17   97.88   4
  -2   3  -5 2053.03   88.43   3
   2   3   5 2144.54  107.04   6
  -2   3  -5 2121.21  107.21   2
   2   3   5 2205.73   90.83   3
   2   3   5 1882.94  109.90   4
  -3  -3  -5 223.579  32.709   1
   3  -3   5 221.717  32.949   6
  -3  -3  -5 243.116  33.318   2
   3  -3   5 249.931  37.096   1
   3  -3   5 184.331  27.346   4
  -3   3  -5 198.508  35.629   2
   3   3   5 176.478  34.786   4
   3   3   5 221.206  34.501   6
  -4  -3  -5 2345.15  116.07   1
  -4  -3  -5 2318.59  119.05   2
   4  -3   5 2212.14  120.66   1
   4  -3   5 2342.08  116.32   4
   4  -3   5 2217.95  117.44   6
   4   3   5 2227.00  121.30   6
  -4   3  -5 2250.48  124.03   2
   4   3   5 2410.40  130.20   4
   5  -3   5 23.2029 18.7205   4
   5  -3   5  3.7557 18.9468   6
  -5  -3  -5  8.0185 18.6799   1
   5  -3   5 36.5443 24.7051   1
  -5  -3  -5 15.0314 20.6890   2
   5   3   5 13.9222 22.1131   4
   5   3   5 12.8021 19.1968   6
  -5   3  -5  1.9102 20.5522   2
  -6  -3  -5 553.061  61.743   1
   6  -3   5 474.207  63.282   1
   6  -3   5 511.321  60.421   4
  -6  -3  -5 495.441  66.080   2
   6  -3   5 516.265  63.316   6
   6   3   5 501.846  66.080   4
  -6   3  -5 412.746  64.744   2
   6   3   5 517.882  66.191   6
   7  -3   5 114.159  36.428   4
  -7  -3  -5 33.2907 32.6033   2
   7  -3   5 64.3936 35.3258   1
   7  -3   5 47.4809 30.2359   6
  -7   3  -5 47.1524 35.6940   2
   7   3   5 98.0152 38.1654   4
   7   3   5 81.1619 36.3181   6
   8  -3   5 1525.87  113.47   4
   8  -4  -5 303.461  55.291   6
  -8  -4   5 286.900  58.133   2
   8  -4  -5 425.201  63.410   4
  -8   4   5 515.460  72.783   2
   8   4  -5 443.583  67.416   4
  -7  -4   5 1078.15   99.27   2
  -7  -4   5 1048.32   82.12   5
   7  -4  -5 1030.49   84.84   4
   7  -4  -5 934.351  90.187   6
   7   4  -5 1156.98   86.67   3
  -7   4   5 942.471  91.050   2
   7   4  -5 1037.09   84.86   4
   6  -4  -5 330.987  48.471   6
   6  -4  -5 406.125  54.522   4
  -6  -4   5 483.483  60.926   2
  -6  -4   5 411.294  52.370   5
   6   4  -5 368.148  50.784   4
  -6   4   5 435.174  54.833   2
   6   4  -5 430.030  57.590   3
  -6   4   5 366.976  52.264   3
  -5  -4   5 10.8324 16.8940   2
   5  -4  -5 37.1902 20.2258   4
  -5  -4   5 44.3352 20.4277   5
   5  -4  -5 29.8172 18.9990   6
   5   4  -5 40.1802 21.0950   4
  -5   4   5 20.7988 18.1268   2
   5   4  -5 29.5575 20.7227   3
  -5   4   5 48.0295 22.6641   3
   5   4  -5 26.6424 16.6275   6
   4  -4  -5 914.602  63.913   4
   4  -4  -5 876.419  61.637   6
  -4  -4   5 949.975  67.356   2
   4   4  -5 883.431  52.276   6
  -4   4   5 971.818  59.090   2
  -4   4   5 1007.82   67.72   3
   4   4  -5 931.496  61.435   4
   4   4  -5 760.400  61.304   3
   3  -4  -5 1676.52   94.00   4
  -3  -4   5 1818.86   71.72   1
   3  -4  -5 1880.44   80.75   1
  -3  -4   5 1875.56   99.77   2
   3  -4  -5 1747.68   92.98   6
   3   4  -5 1824.39   96.71   3
  -3   4   5 1726.03   83.54   2
   3   4  -5 1792.84   79.85   6
  -3   4   5 1688.78   95.81   3
   3   4  -5 1880.84   90.74   4
  -2  -4   5 518.571  30.520   1
   2  -4  -5 523.649  34.312   1
   2  -4  -5 515.642  42.202   4
   2  -4  -5 452.875  44.501   6
  -2  -4   5 516.260  50.812   2
   2   4  -5 462.150  28.359   6
  -2   4   5 487.906  29.275   2
  -2   4   5 569.011  52.369   3
   2   4  -5 538.294  35.899   4
   2   4  -5 554.786  42.457   3
   1  -4  -5 180.666  22.541   1
  -1  -4   5 168.430  21.450   1
   1  -4  -5 198.368  31.463   4
   1  -4  -5 214.757  28.886   6
  -1  -4   5 186.011  17.318   6
   1   4  -5 178.838  15.808   6
  -1   4   5 234.499  30.839   3
   1   4  -5 232.213  29.479   3
   1   4  -5 187.658  21.453   4
   1   4  -5 145.700  30.405   2
   0  -4  -5 1479.71   87.25   4
   0  -4   5 1293.10   69.53   1
   0  -4  -5 1423.86   70.39   1
   0  -4   5 1440.70   63.53   6
   0  -4  -5 1406.98   74.15   6
   0   4  -5 1277.28   69.79   3
   0   4   5 1347.04   71.95   3
   0   4  -5 1467.13   65.41   4
   0   4  -5 1461.65   88.39   2
   1  -4   5 4354.37  173.82   4
  -1  -4  -5 4559.92  182.15   6
   1  -4   5 4288.48  178.58   1
  -1  -4  -5 4306.64  175.78   1
   1  -4   5 4319.05  172.20   6
  -1  -4  -5 4245.95  167.28   2
  -1   4  -5 4331.96  173.48   3
  -1   4  -5 4308.64  189.90   2
   1   4   5 4149.01  198.23   4
   1   4   5 4380.25  186.29   6
   1   4   5 4295.79  174.75   3
  -2  -4  -5 992.834  61.151   6
  -2  -4  -5 915.324  58.193   1
  -2  -4  -5 918.414  53.997   2
   2  -4   5 1055.51   64.81   1
   2  -4   5 1021.95   54.30   4
   2  -4   5 1015.96   58.14   6
  -2   4  -5 962.773  65.979   2
   2   4   5 816.954  65.407   4
   2   4   5 987.198  65.731   6
  -2   4  -5 1030.59   51.15   3
   2   4   5 961.441  53.393   3
   3  -4   5 1551.80   81.75   4
   3  -4   5 1614.19   91.00   1
  -3  -4  -5 1646.19   85.91   2
   3  -4   5 1563.97   85.41   6
  -3  -4  -5 1458.01   84.59   1
   3   4   5 1702.04  100.66   4
  -3   4  -5 1423.01   91.38   2
   3   4   5 1787.41   95.57   6
   4  -4   5 59.3365 21.1990   6
  -4  -4  -5 64.0175 23.9513   2
   4  -4   5 67.7262 20.6409   4
   4  -4   5 89.5789 28.0484   1
  -4  -4  -5 13.2767 16.5116   1
  -4   4  -5 79.0888 26.9346   2
   4   4   5 58.9841 23.6579   6
   4   4   5 48.0578 25.5687   4
   5  -4   5 644.063  69.115   1
  -5  -4  -5 654.487  68.764   2
   5  -4   5 774.250  73.447   6
  -5  -4  -5 641.210  63.401   1
   5  -4   5 669.811  63.047   4
   5   4   5 743.366  74.269   6
   5   4   5 622.759  71.377   4
  -5   4  -5 557.889  67.715   2
  -6  -4  -5 368.374  58.195   2
   6  -4   5 470.716  57.080   4
   6  -4   5 341.498  52.119   6
  -6  -4  -5 324.152  51.285   1
   6  -4   5 382.847  54.971   1
   6   4   5 285.810  52.825   6
   6   4   5 418.885  61.643   4
  -6   4  -5 306.921  55.723   2
   7  -4   5 25.4526 29.4074   1
   7  -4   5 37.3520 30.9911   4
  -7  -4  -5 65.8871 35.4140   2
   7  -4   5 45.3257 31.9382   6
   7   4   5 17.0005 28.6198   6
  -7   4  -5  5.4148 30.2719   2
   7   4   5 52.8586 34.7485   4
   8  -5  -5 12.1142 25.3137   6
  -8  -5   5  4.5384 30.4387   2
  -8  -5   5 18.3143 29.6339   5
   8  -5  -5 -8.1976 28.1816   4
  -8   5   5  1.7172 29.6392   2
   8   5  -5 -1.2003 29.8365   4
   7  -5  -5 497.323  65.178   4
  -7  -5   5 426.708  65.710   2
   7  -5  -5 474.128  62.295   6
  -7  -5   5 393.631  58.983   5
   7   5  -5 483.993  64.325   3
   7   5  -5 441.812  62.271   4
  -7   5   5 414.873  60.909   2
  -6  -5   5 62.2297 29.7122   2
   6  -5  -5 124.969  32.563   4
   6  -5  -5 51.0394 25.5905   6
  -6  -5   5 209.913  42.037   5
  -6   5   5 38.7679 24.8280   3
   6   5  -5 103.389  31.435   4
   6   5  -5 99.9774 31.8147   3
  -6   5   5 94.6132 30.4703   2
  -5  -5   5 1734.87  106.40   2
   5  -5  -5 1764.18  104.56   4
  -5  -5   5 1687.76   98.99   5
   5  -5  -5 1524.00   97.05   6
   5   5  -5 1785.65  103.17   3
   5   5  -5 1824.27  101.02   4
  -5   5   5 1734.07  103.78   3
  -5   5   5 1626.19   94.09   2
  -4  -5   5 128.331  30.517   2
   4  -5  -5 56.1160 16.3415   1
   4  -5  -5 59.9481 20.8990   4
   4  -5  -5 131.266  27.852   6
  -4   5   5 109.584  22.200   2
   4   5  -5 47.5615 20.0029   3
  -4   5   5 96.0101 26.6060   3
   4   5  -5 99.8070 23.5798   4
  -3  -5   5 293.634  22.177   1
   3  -5  -5 192.426  32.042   4
   3  -5  -5 251.668  28.372   1
   3  -5  -5 323.174  38.870   6
  -3  -5   5 316.788  42.359   2
   3   5  -5 199.371  31.575   3
  -3   5   5 246.866  37.040   3
  -3   5   5 272.953  28.112   2
   3   5  -5 277.379  31.543   4
   2  -5  -5 74.7954 16.8228   1
   2  -5  -5 74.9843 21.1737   4
   2  -5  -5 61.3729 19.1824   6
  -2  -5   5 74.7478 14.5983   1
  -2  -5   5 69.8356 21.8381   2
  -2   5   5 68.0410 19.8575   3
   2   5  -5 86.2529 16.6365   4
   2   5  -5 80.9263 10.0759   6
  -2   5   5 65.1986 11.1250   2
   2   5  -5 48.2067 16.1581   3
   1  -5  -5 9427.33  356.54   1
   1  -5  -5 9854.44  370.24   6
  -1  -5   5 9772.14  355.02   1
   1   5  -5 9999.99  346.73   6
   1   5  -5 9255.25  368.43   4
   1   5  -5 9388.09  384.85   2
   1   5  -5 9778.50  372.44   3
  -1   5   5 9405.83  374.76   3
   0  -5  -5  9.0809 12.6674   6
   0  -5   5 28.5758 13.1664   1
   0  -5  -5 59.3567 21.6853   4
   0  -5   5 19.2889  8.3685   4
   0  -5   5 30.9072  9.6530   6
   0  -5  -5 26.3974 12.8260   1
   0   5   5 16.3584 11.3566   3
   0   5  -5 31.4508 12.2125   3
   0   5  -5 20.5577 19.7427   2
   1  -5   5 1009.59   53.46   6
   1  -5   5 988.091  61.377   1
  -1  -5  -5 1020.31   63.28   6
  -1  -5  -5 976.946  59.102   1
  -1  -5  -5 945.552  47.509   2
   1  -5   5 973.191  48.039   4
  -1   5  -5 976.494  69.848   2
   1   5   5 1008.21   73.41   4
   1   5   5 1015.46   57.64   3
  -1   5  -5 1065.03   57.11   3
   2  -5   5 87.5072 16.7494   4
   2  -5   5 116.167  22.104   6
  -2  -5  -5 80.2892 20.4903   1
  -2  -5  -5 93.5426 23.9588   6
   2  -5   5 86.8883 23.6027   1
  -2  -5  -5 85.5612 19.3757   2
   2   5   5 137.060  29.243   6
  -2   5  -5 93.3477 17.8368   3
  -2   5  -5 112.824  27.196   2
   2   5   5 100.056  28.128   4
   2   5   5 121.958  20.682   3
   3  -5   5 2769.68  124.09   6
   3  -5   5 2475.72  126.37   1
  -3  -5  -5 2421.34  121.53   1
  -3  -5  -5 2555.48  121.12   2
   3  -5   5 2597.28  119.09   4
  -3   5  -5 2696.65  135.65   2
   3   5   5 2451.65  138.67   4
   3   5   5 2757.98  134.61   6
   4  -5   5 61.1229 24.0766   1
   4  -5   5 63.0296 21.1218   4
  -4  -5  -5 82.7549 25.6173   1
  -4  -5  -5 71.0466 25.3976   2
   4  -5   5 76.4034 25.6908   6
   4   5   5 73.6708 27.0197   6
   4   5   5 46.8534 25.3682   4
  -4   5  -5 79.6146 25.7128   2
   5  -5   5 56.9952 26.0962   6
   5  -5   5 69.2741 27.8816   1
  -5  -5  -5 97.1976 33.3615   2
  -5  -5  -5 77.1919 26.9698   1
   5  -5   5 124.548  28.550   4
  -5   5  -5 117.373  35.561   2
   5   5   5 94.4084 33.7375   4
   5   5   5 75.9668 29.8859   6
   6  -5   5 50.6184 28.6213   1
  -6  -5  -5 42.4841 27.0426   1
  -6  -5  -5 80.5248 36.7753   2
   6  -5   5 74.8038 30.9956   4
   6  -5   5 49.0772 26.7565   6
   6   5   5 73.8271 31.3815   6
   6   5   5 -6.1939 24.4536   4
  -6   5  -5 66.7327 32.0060   2
   7  -5   5 839.106  87.853   1
  -7  -5  -5 732.488  89.325   2
   7  -5   5 981.587  95.416   6
   7   5   5 1007.92  102.91   4
  -7   5  -5 928.642  99.983   2
  -8  -6   5 90.3163 41.5428   2
  -8  -6   5 155.207  48.575   5
   8  -6  -5 172.375  46.202   6
   8  -6  -5 128.319  41.371   4
   8   6  -5 34.1324 35.1334   4
   7  -6  -5 1550.07  109.02   4
  -7  -6   5 1316.88  106.12   2
   7  -6  -5 1396.66  101.06   6
  -7  -6   5 1380.76  102.61   5
   7   6  -5 1458.04  103.29   3
   7   6  -5 1471.34  103.91   4
   6  -6  -5 -7.4985 17.5735   6
  -6  -6   5 18.6704 25.1409   5
   6  -6  -5 -24.861  18.286   4
  -6  -6   5  1.8997 22.5931   2
   6   6  -5 -24.745  18.668   4
   6   6  -5 -15.813  18.088   3
  -6   6   5 14.2648 20.9560   3
  -6   6   5  6.1619 21.7205   2
   5  -6  -5 234.348  40.724   6
  -5  -6   5 296.938  48.424   2
   5  -6  -5 268.556  43.201   4
   5   6  -5 264.735  40.400   4
   5   6  -5 225.390  40.744   3
  -5   6   5 298.699  46.237   3
  -5   6   5 244.338  37.515   2
   4  -6  -5 959.822  69.597   4
  -4  -6   5 1021.33   75.96   2
   4  -6  -5 988.184  58.069   1
   4  -6  -5 969.324  68.352   6
  -4   6   5 942.426  71.075   3
   4   6  -5 957.257  63.642   4
   4   6  -5 940.103  69.209   3
  -4   6   5 1005.43   61.35   2
  -3  -6   5 3532.72  136.91   1
   3  -6  -5 3416.72  144.56   1
   3  -6  -5 3236.22  160.46   4
   3  -6  -5 3515.32  158.13   6
  -3  -6   5 3432.15  166.62   2
   3   6  -5 3434.01  151.19   4
  -3   6   5 3402.28  162.36   3
   3   6  -5 3498.45  160.52   3
  -3   6   5 3483.06  141.93   2
  -2  -6   5 377.800  48.879   2
   2  -6  -5 494.593  42.821   1
  -2  -6   5 414.689  31.745   1
   2  -6  -5 370.971  44.307   4
   2  -6  -5 528.399  49.181   6
  -2   6   5 407.626  47.732   3
   2   6  -5 370.917  29.855   4
   2   6  -5 391.758  43.083   3
  -1  -6   5 -0.7044  9.0785   1
   1  -6  -5 11.1028 14.5813   4
   1  -6  -5 -16.382   8.580   1
   1  -6  -5 -0.7846 11.6288   6
   1   6  -5 -1.0594  7.7550   4
  -1   6   5 -5.1788 10.4766   3
   1   6  -5 -8.3496 15.2191   2
   1   6  -5  7.1785 10.6741   3
   0  -6   5 232.736  30.972   1
   0  -6  -5 272.671  35.646   6
   0  -6  -5 288.838  32.664   1
   0  -6   5 268.643  15.902   4
   0  -6   5 261.089  21.878   6
   0  -6  -5 241.280  38.262   4
   0   6   5 238.090  32.361   3
   0   6  -5 278.895  44.002   2
   0   6  -5 232.767  30.415   3
  -1  -6  -5 4996.90  209.52   6
   1  -6   5 5064.25  194.07   6
   1  -6   5 4857.97  204.60   1
  -1  -6  -5 4617.78  201.77   1
   1  -6   5 5028.40  192.37   4
  -1   6  -5 5159.69  204.68   3
  -1   6  -5 5391.01  226.86   2
   1   6   5 4469.64  202.99   3
   1   6   5 5260.13  229.95   4
  -2  -6  -5 201.540  34.096   6
   2  -6   5 191.788  32.814   1
   2  -6   5 164.931  26.390   6
  -2  -6  -5 241.639  27.768   2
   2  -6   5 250.167  24.246   4
  -2  -6  -5 232.901  32.829   1
   2   6   5 176.317  35.339   4
  -2   6  -5 210.852  36.462   2
   2   6   5 250.314  39.682   6
  -2   6  -5 199.025  26.302   3
   2   6   5 313.638  35.703   3
  -3  -6  -5 1045.65   63.52   2
   3  -6   5 967.374  68.574   1
   3  -6   5 1061.04   65.05   6
  -3  -6  -5 1017.70   69.22   6
  -3  -6  -5 891.111  64.458   1
   3   6   5 994.531  77.405   4
   3   6   5 910.947  71.562   6
  -3   6  -5 905.975  72.620   2
  -4  -6  -5 151.017  31.146   1
  -4  -6  -5 113.388  30.782   2
   4  -6   5 46.3520 21.4789   1
   4  -6   5 102.471  27.081   6
  -4   6  -5 93.8002 32.2137   2
   4   6   5 78.6342 28.7248   6
   4   6   5 75.1690 30.0009   4
   5  -6   5 1161.17   85.50   1
  -5  -6  -5 1170.05   86.95   2
   5  -6   5 1347.60   88.02   6
  -5  -6  -5 1184.07   81.45   1
   5   6   5 1536.93  105.14   4
   5   6   5 1285.74   93.54   6
  -5   6  -5 1257.41   95.79   2
  -6  -6  -5 367.374  53.830   1
  -6  -6  -5 257.919  50.164   2
   6  -6   5 262.787  49.095   6
   6  -6   5 236.961  46.709   1
   6   6   5 221.907  51.431   4
  -6   6  -5 202.732  52.072   2
   6   6   5 221.115  48.878   6
   7  -6   5 68.9732 36.1850   1
  -7  -6  -5 143.312  47.216   2
   7  -6   5 152.949  44.418   6
   7   6   5 91.4656 43.3834   4
  -7   6  -5 73.9822 40.8014   2
   7   6   5 157.245  46.908   6
  -9  -7   5 105.781  47.561   5
   8  -7  -5 273.165  57.812   4
  -8  -7   5 210.990  54.790   5
   8   7  -5 207.392  52.750   4
   7  -7  -5 41.9129 29.8971   6
   7  -7  -5  9.1616 28.7718   4
  -7  -7   5 11.8080 30.2568   5
  -7  -7   5 11.0668 25.7045   2
   7   7  -5 27.1169 29.1015   4
   7   7  -5 36.6381 29.6097   3
  -6  -7   5 909.460  91.332   5
  -6  -7   5 1077.40  100.25   2
   6  -7  -5 1029.73   82.31   4
   6  -7  -5 1045.75   82.17   6
   6   7  -5 1109.98   80.63   4
   6   7  -5 850.374  84.214   3
  -6   7   5 977.136  79.482   3
  -5  -7   5 742.340  78.986   2
   5  -7  -5 828.825  77.639   4
   5  -7  -5 797.878  74.227   6
  -5   7   5 777.583  78.381   3
   5   7  -5 831.385  79.249   3
   5   7  -5 677.288  66.157   4
   4  -7  -5 678.631  66.126   4
  -4  -7   5 772.075  75.961   2
   4  -7  -5 581.031  62.660   6
   4  -7  -5 659.107  49.792   1
   4   7  -5 823.298  55.561   4
  -4   7   5 653.095  66.474   3
   4   7  -5 675.697  67.431   3
   3  -7  -5 18.4564 16.9559   6
   3  -7  -5 25.0336 15.6791   1
   3  -7  -5 18.7834 15.9930   4
  -3  -7   5  7.8199 12.3280   1
  -3  -7   5  5.2137 17.7899   2
   3   7  -5  5.9960 12.8865   4
   3   7  -5 17.9209 15.2375   3
  -3   7   5 -12.387  10.628   3
   2  -7  -5 1400.31   78.74   6
   2  -7  -5 1180.62   79.55   4
  -2  -7   5 1377.89   67.83   1
  -2  -7   5 1268.87   85.71   2
   2  -7  -5 1266.19   71.87   1
   2   7  -5 1255.03   78.16   3
  -2   7   5 1408.12   82.74   3
   1  -7  -5 1879.74   96.17   6
   1  -7  -5 1941.09   93.16   1
  -1  -7   5 1795.05   88.76   1
   1  -7  -5 1812.52  109.28   4
   1   7  -5 1726.35   96.35   3
   1   7  -5 1923.07  110.06   2
  -1   7   5 1805.48   98.76   3
   0  -7  -5 2767.00  130.68   1
   0  -7  -5 2963.42  146.41   4
   0  -7  -5 2715.21  133.50   6
   0  -7   5 2966.20  131.05   1
   0   7   5 2969.92  136.82   3
   0   7  -5 2942.08  135.50   3
   0   7  -5 3034.13  150.11   2
  -1  -7  -5 24.7511 18.4342   5
  -1  -7  -5 33.1465 19.2838   6
   1  -7   5 36.2593 12.3200   6
  -1  -7  -5 -1.2590 13.6262   1
   1  -7   5 -3.2892 13.2807   1
   1   7   5 24.5548 14.4258   3
   1   7   5 32.6540 20.1963   4
  -1   7  -5 12.7930 21.0421   2
  -1   7  -5 24.0526 13.7377   3
  -2  -7  -5 397.354  45.788   5
  -2  -7  -5 441.715  48.654   6
   2  -7   5 349.314  35.459   6
   2  -7   5 461.379  49.942   1
  -2  -7  -5 353.904  42.115   1
   2   7   5 255.428  44.786   4
  -2   7  -5 303.799  46.149   2
   2   7   5 348.444  40.300   3
  -2   7  -5 333.087  36.946   3
   2   7   5 387.211  52.081   6
   3  -7   5 1010.55   63.90   6
   3  -7   5 964.416  70.146   1
  -3  -7  -5 995.865  71.106   6
  -3  -7  -5 1025.23   67.85   1
  -3   7  -5 853.191  81.369   2
   3   7   5 936.772  73.432   6
   3   7   5 755.530  80.458   4
  -4  -7  -5 796.959  62.495   1
   4  -7   5 820.669  74.849   1
   4  -7   5 912.340  65.731   6
   4   7   5 655.315  76.464   4
  -4   7  -5 923.979  88.807   2
   4   7   5 712.154  75.701   6
   5  -7   5 308.915  50.076   1
   5  -7   5 241.499  43.044   6
  -5  -7  -5 220.705  41.964   1
   5   7   5 205.365  46.546   4
  -5   7  -5 277.752  52.212   2
   5   7   5 263.102  50.828   6
  -6  -7  -5 337.116  52.451   1
   6  -7   5 295.754  52.981   6
   6  -7   5 386.439  58.035   1
   6   7   5 401.309  67.018   4
  -6   7  -5 409.721  67.788   2
   7  -7   5 116.536  42.574   6
   7  -7   5 100.642  37.038   1
  -7   7  -5 147.643  53.192   2
   7   7   5 92.3940 44.4432   4
   7   7   5 118.565  45.956   6
  -9  -8   5 74.4847 50.8569   5
   8  -8  -5 2069.44  137.39   4
  -8  -8   5 1661.77  127.96   5
   7  -8  -5 157.304  43.691   6
  -7  -8   5 116.711  43.621   2
  -7  -8   5 115.740  42.846   5
   7  -8  -5 76.2414 37.3976   4
  -6  -8   5 820.950  92.300   2
  -6  -8   5 991.590  97.991   5
   6  -8  -5 1050.42   93.69   6
   6  -8  -5 1006.87   83.80   4
   6   8  -5 815.494  85.581   3
  -6   8   5 1122.77   85.76   3
   5  -8  -5 149.197  35.914   6
   5  -8  -5 222.859  39.833   4
  -5  -8   5 117.913  35.504   2
  -5   8   5 159.812  37.359   3
   5   8  -5 136.087  34.747   3
   4  -8  -5 703.862  66.339   6
   4  -8  -5 644.917  65.738   4
   4  -8  -5 618.877  55.555   1
  -4  -8   5 637.718  70.749   2
  -4   8   5 538.424  62.320   3
   4   8  -5 638.215  65.027   3
   3  -8  -5 902.830  59.978   1
   3  -8  -5 921.437  66.411   6
  -3  -8   5 807.936  78.059   2
   3  -8  -5 928.774  67.652   4
  -3   8   5 879.057  68.638   3
   3   8  -5 854.124  66.912   3
  -2  -8   5 667.435  46.462   1
   2  -8  -5 611.026  54.791   1
   2  -8  -5 519.354  54.332   6
  -2  -8   5 634.916  68.473   2
   2  -8  -5 687.216  65.169   4
   2   8  -5 723.101  66.067   3
  -2   8   5 700.919  67.323   3
   1  -8  -5 542.344  62.656   4
   1  -8  -5 534.883  51.864   6
  -1  -8   5 520.928  47.900   1
   1  -8  -5 539.889  50.421   1
   1   8  -5 626.749  66.427   2
  -1   8   5 519.518  54.534   3
   1   8  -5 511.795  52.905   3
   0  -8   5 2535.80  119.40   1
   0  -8  -5 2490.30  119.33   1
   0  -8  -5 2320.82  128.64   4
   0  -8  -5 2572.95  122.87   6
   0   8   5 2241.64  121.02   3
   0   8  -5 2585.32  136.35   2
   0   8  -5 2656.65  124.84   3
  -1  -8  -5 273.220  38.907   5
   1  -8   5 363.615  42.730   1
  -1  -8  -5 323.479  41.233   1
  -1  -8  -5 319.178  42.704   6
  -1   8  -5 326.120  39.393   3
   1   8   5 280.422  38.314   3
   1   8   5 316.337  46.533   4
  -1   8  -5 300.876  51.432   2
   2  -8   5 3194.36  135.51   6
  -2  -8  -5 3115.67  151.38   6
  -2  -8  -5 3033.29  147.16   5
   2  -8   5 3101.28  148.22   1
  -2  -8  -5 3230.16  148.45   1
  -2   8  -5 3103.88  143.05   3
   2   8   5 2808.25  153.87   6
  -2   8  -5 2926.26  159.45   2
   2   8   5 3416.41  166.07   4
   2   8   5 3146.28  146.68   3
  -3  -8  -5 99.0583 27.5171   1
   3  -8   5 103.052  27.537   1
   3  -8   5 137.646  28.048   6
  -3  -8  -5 147.231  33.821   6
  -3  -8  -5 177.868  36.378   5
  -3   8  -5 97.5674 32.5484   2
   3   8   5 159.439  38.145   6
   3   8   5 169.624  39.583   4
   4  -8   5 721.375  71.925   1
   4  -8   5 587.622  60.776   6
  -4  -8  -5 709.536  67.573   1
  -4   8  -5 765.257  80.936   2
   4   8   5 606.378  73.718   4
   4   8   5 715.905  76.977   6
  -5  -8  -5 65.2985 27.7559   1
   5  -8   5 72.2785 29.5261   6
   5  -8   5 83.1571 30.2012   1
   5   8   5 74.0928 33.6217   4
   5   8   5 35.5145 32.0864   6
  -5   8  -5 20.5856 28.4342   2
   6  -8   5 1713.14  109.01   6
   6  -8   5 1434.99  103.28   1
   6   8   5 1505.37  113.51   6
  -6   8  -5 1603.14  121.14   2
   6   8   5 1349.28  113.97   4
   7  -8   5 61.9384 37.2428   6
   7  -8   5 -5.4341 30.2392   1
  -9  -9   5 294.578  71.567   5
  -8  -9   5 174.998  55.895   5
   7  -9  -5 106.792  39.313   6
  -7  -9   5 207.883  51.099   2
  -7  -9   5 54.9886 39.2804   5
   7  -9  -5 276.311  55.302   4
   6  -9  -5 609.749  72.333   4
  -6  -9   5 469.316  71.640   5
  -6  -9   5 620.068  81.226   2
   6  -9  -5 515.726  68.682   6
  -6   9   5 536.926  69.541   3
   6   9  -5 647.856  76.185   3
  -5  -9   5 1335.78  103.23   2
   5  -9  -5 1370.67   97.08   6
   5  -9  -5 1553.01  102.82   4
  -5   9   5 1373.01   98.50   3
   5   9  -5 1461.20   99.87   3
   4  -9  -5 637.927  66.438   6
   4  -9  -5 533.967  54.517   1
  -4  -9   5 455.578  62.462   2
   4  -9  -5 474.493  58.980   4
   4   9  -5 726.152  73.717   3
  -4   9   5 525.915  63.414   3
   3  -9  -5  9.7292 18.4925   6
   3  -9  -5 -13.579  18.371   4
  -3  -9   5  5.9618 20.4357   2
   3  -9  -5 17.4689 18.5846   1
   3   9  -5 17.7672 17.3167   3
  -3   9   5 19.0282 18.9155   3
   2  -9  -5 416.376  46.232   1
  -2  -9   5 340.821  39.067   1
   2  -9  -5 298.986  45.283   4
   2  -9  -5 422.743  48.671   6
  -2  -9   5 302.134  49.159   2
   2   9  -5 362.338  47.139   3
  -2   9   5 449.900  55.782   3
   1  -9  -5 663.003  60.254   1
   1  -9  -5 666.841  69.812   4
  -1  -9   5 599.992  55.894   1
   1  -9  -5 755.305  56.897   6
  -1  -9   5 702.909  71.452   2
  -1   9   5 674.041  64.021   3
   1   9  -5 717.948  73.519   2
   1   9  -5 737.388  58.362   3
   0  -9  -5 323.142  42.152   1
   0  -9  -5 415.620  49.547   4
   0  -9   5 330.840  42.879   1
   0  -9  -5 327.403  41.610   6
   0   9  -5 368.838  52.709   2
   0   9   5 333.861  44.206   3
   0   9  -5 309.112  42.049   3
  -1  -9  -5 55.7885 23.6150   5
  -1  -9  -5 19.4609 20.3822   6
  -1  -9  -5  0.9248 16.1167   1
   1  -9   5 17.2938 17.4334   1
  -1   9  -5 39.7252 17.9508   3
  -1   9  -5  9.1686 22.3504   2
   1   9   5 58.4046 22.4872   3
   1   9   5 51.1383 24.7314   4
  -2  -9  -5 1949.31  107.15   5
   2  -9   5 1866.81  106.24   1
  -2  -9  -5 1979.20  106.60   1
  -2  -9  -5 1645.91  103.16   6
   2   9   5 2007.97  117.39   4
  -2   9  -5 1857.27  101.20   3
   2   9   5 1945.22  104.88   3
   2   9   5 1755.90  111.40   6
  -3  -9  -5 1337.07   93.11   6
   3  -9   5 1634.48   97.66   1
  -3  -9  -5 1545.64   98.26   5
  -3  -9  -5 1705.09   96.81   1
  -3   9  -5 1482.58  104.51   2
   3   9   5 1599.23  107.14   4
   3   9   5 1506.09  101.86   6
  -4  -9  -5 1411.87   92.57   1
   4  -9   5 1377.51   87.00   6
   4  -9   5 1290.85   92.29   1
   4   9   5 1305.13   97.59   6
   4   9   5 1479.31  105.18   4
  -4   9  -5 1457.62  105.59   2
  -5  -9  -5 560.619  65.896   1
   5  -9   5 631.594  73.353   1
   5  -9   5 443.772  59.288   6
  -5   9  -5 359.786  63.962   2
   5   9   5 236.767  54.934   4
   5   9   5 428.976  65.091   6
   6  -9   5 -5.0696 26.8116   1
   6  -9   5  5.7540 29.4137   6
  -6  -9  -5 46.1989 34.2387   1
  -6   9  -5 30.8099 36.5265   2
   6   9   5 13.7809 31.2548   4
   7  -9   5 329.265  62.549   6
  -9 -10   5 273.394  71.268   5
  -8 -10   5 -18.808  42.371   5
  -7 -10   5 780.825  96.814   5
   7 -10  -5 765.208  89.583   6
  -7 -10   5 832.650 100.476   2
   6 -10  -5  5.4666 27.9521   6
  -6 -10   5 47.9267 35.3907   2
   6 -10  -5 -14.638  27.016   4
  -6 -10   5 33.1798 36.1023   5
   6  10  -5 37.4689 28.2004   3
  -6  10   5 -30.586  21.626   3
   5 -10  -5 117.152  35.965   4
   5 -10  -5 72.4759 29.1437   6
  -5 -10   5 56.7915 33.3877   2
  -5  10   5 91.6800 33.5338   3
   5  10  -5 89.3255 32.4688   3
   4 -10  -5 165.890  38.489   4
   4 -10  -5 67.1321 27.7147   6
   4 -10  -5 246.449  39.798   1
  -4 -10   5 49.8815 32.2165   2
   4  10  -5 157.285  38.175   3
  -4  10   5 194.239  41.258   3
   3 -10  -5 2947.78  147.18   6
  -3 -10   5 2542.07  154.24   2
   3 -10  -5 2999.80  153.48   4
   3 -10  -5 2998.23  141.29   1
   3  10  -5 2990.76  154.30   3
  -3  10   5 2786.81  152.99   3
   2 -10  -5 192.007  41.041   4
   2 -10  -5 147.658  31.829   6
  -2 -10   5 105.292  33.171   2
   2 -10  -5 199.070  35.614   1
  -2 -10   5 120.637  25.239   1
  -2  10   5 164.004  35.760   3
   2  10  -5 153.551  33.300   3
  -1 -10   5  6.7882 21.7331   2
   1 -10  -5 19.4436 20.2877   4
   1 -10  -5 -4.6518 15.3339   1
   1 -10  -5 31.1306 18.6286   6
  -1 -10   5 -19.499  14.174   1
  -1  10   5 -16.483  15.337   3
   1  10  -5  2.7562 14.9354   3
   0 -10   5 31.9798 20.0083   1
   0 -10  -5 67.4284 24.1121   6
   0 -10  -5 14.8442 17.1245   1
   0  10   5 20.5257 22.5826   4
   0  10  -5 40.9381 18.8575   3
   0  10   5 19.4150 17.9054   3
   0  10  -5 -1.7589 23.6010   2
  -1 -10  -5 2173.39  116.38   6
   1 -10   5 2348.26  119.62   1
  -1 -10  -5 2185.35  116.03   1
  -1 -10  -5 2122.01  113.02   5
   1  10   5 2054.05  122.83   4
   1  10   5 1978.94  116.62   3
  -1  10  -5 2124.11  116.36   3
  -1  10  -5 2404.81  137.64   2
  -2 -10  -5 64.9901 26.8501   1
  -2 -10  -5 50.2792 28.5182   5
  -2 -10  -5 58.0954 26.3804   6
   2 -10   5 12.2586 19.6950   1
  -2  10  -5 80.0134 24.0004   3
   2  10   5 77.1261 29.8514   6
   2  10   5 20.7303 18.9615   3
   2  10   5 36.8953 27.0894   4
  -2  10  -5 44.2010 28.9807   2
  -3 -10  -5 120.872  39.233   5
  -3 -10  -5 114.602  33.633   1
  -3 -10  -5 72.1521 31.2316   6
   3 -10   5 58.6369 26.1345   1
  -3  10  -5 132.122  39.904   2
   3  10   5 80.3999 35.5734   6
   3  10   5 138.366  38.679   4
  -4 -10  -5 177.921  43.895   5
  -4 -10  -5 142.420  37.005   1
  -4  10  -5 196.353  48.142   2
   4  10   5 173.955  44.639   6
   4  10   5 243.479  51.065   4
   5 -10   5 1617.02  111.60   1
  -5 -10  -5 1967.62  113.33   1
  -5  10  -5 1879.98  130.81   2
   5  10   5 1438.65  117.94   4
   6 -10   5 121.923  42.821   1
   6 -10   5 173.582  47.765   6
  -6  10  -5 255.312  60.143   2
   6  10   5 222.540  55.607   4
  -9 -11   5 520.988  94.103   5
  -8 -11   5 24.0897 45.1854   5
  -7 -11   5 313.328  69.863   5
  -6 -11   5 60.1706 44.4228   5
  -6 -11   5 152.604  48.174   2
   6 -11  -5 187.118  49.318   6
  -6  11   5 106.031  39.808   3
   6  11  -5 255.526  55.050   3
   5 -11  -5 2144.00  131.58   6
  -5 -11   5 2167.45  143.30   2
   5  11  -5 2227.41  137.75   3
  -5  11   5 2135.79  135.15   3
   4 -11  -5 15.2222 23.2336   6
  -4 -11   5 40.7723 32.7751   2
   4 -11  -5 53.4617 30.0514   4
   4 -11  -5 27.6269 23.7946   1
   4  11  -5 43.6528 27.5940   3
  -4  11   5 57.1243 28.6310   3
   3 -11  -5 132.655  31.273   1
   3 -11  -5 114.693  32.489   6
  -3 -11   5 188.349  45.399   2
   3 -11  -5 146.746  37.659   4
  -3  11   5 166.626  39.628   3
   3  11  -5 151.913  36.067   3
   2 -11  -5 48.3581 24.3861   6
  -2 -11   5 76.9762 25.8382   1
  -2 -11   5 59.6672 29.2720   2
   2 -11  -5 26.4867 20.8644   1
   2 -11  -5 53.4154 30.5344   4
  -2  11   5 116.441  33.601   3
   2  11  -5 21.5550 19.7840   3
   1 -11  -5 3031.66  156.03   4
  -1 -11   5 3123.95  145.50   1
  -1 -11   5 3171.86  162.28   2
   1 -11  -5 3035.08  146.76   6
   1 -11  -5 2829.04  146.42   1
  -1  11   5 3043.80  158.80   3
   1  11  -5 2874.75  155.44   3
   0 -11   5 -11.501  18.597   1
   0 -11  -5 41.5176 23.6338   1
   0 -11  -5 32.7911 21.8307   6
   0  11  -5 25.2408 26.5572   2
   0  11   5 -17.233  17.465   4
   0  11  -5 27.7355 20.3283   3
   0  11   5 32.0449 20.5550   3
   1 -11   5 48.0641 24.3030   1
  -1 -11  -5 91.0653 28.3352   1
  -1 -11  -5 72.0687 28.8796   6
   1  11   5 81.3413 27.2933   3
  -1  11  -5 113.133  35.959   2
   1  11   5 83.9452 31.0828   4
  -1  11  -5 94.3876 27.6688   3
  -2 -11  -5 183.817  40.095   1
  -2 -11  -5 167.069  38.384   6
  -2 -11  -5 303.587  50.003   5
   2 -11   5 245.107  42.441   1
   2  11   5 226.033  40.238   3
  -2  11  -5 163.709  36.262   3
   2  11   5 103.888  36.753   6
  -2  11  -5 221.413  52.231   2
   2  11   5 234.871  46.058   4
   3 -11   5 2329.79  126.92   1
  -3 -11  -5 1818.11  115.75   6
  -3 -11  -5 2039.48  123.46   5
  -3 -11  -5 2140.38  122.98   1
  -3  11  -5 2095.25  137.88   2
   3  11   5 1838.24  123.49   4
   4 -11   5 127.249  39.514   1
  -4 -11  -5 201.458  48.647   5
  -4 -11  -5 161.927  41.005   1
   4  11   5 113.464  38.385   4
  -4  11  -5 260.296  58.275   2
  -5 -11  -5 534.950  70.334   1
   5 -11   5 422.431  66.193   1
   5  11   5 477.264  75.321   4
  -5  11  -5 515.791  80.304   2
   6  11   5 63.8545 39.8893   4
  -9 -12   5 -18.149  49.254   5
  -8 -12   5 607.110  99.205   5
  -7 -12   5 293.012  71.970   5
  -6 -12   5 573.112  86.158   2
  -6 -12   5 382.260  71.331   5
   6 -12  -5 415.823  68.148   6
  -6  12   5 206.522  51.892   3
   6  12  -5 339.386  62.595   3
  -5 -12   5 91.0996 41.3310   2
   5 -12  -5 102.761  42.227   6
   5  12  -5 90.3262 38.8552   3
  -5  12   5 117.005  42.337   3
   4 -12  -5 499.265  60.335   1
   4 -12  -5 639.118  71.418   6
  -4 -12   5 526.848  75.552   2
  -4  12   5 406.169  61.628   3
   4  12  -5 515.196  69.803   3
   3 -12  -5 1862.41  108.41   1
  -3 -12   5 1888.35  125.01   2
   3 -12  -5 1885.34  110.72   6
   3  12  -5 1832.74  120.45   3
  -3  12   5 1660.55  116.08   3
  -2 -12   5 722.009  79.077   2
   2 -12  -5 568.974  64.097   1
  -2 -12   5 703.965  64.178   1
   2 -12  -5 588.464  63.662   6
  -2  12   5 683.302  77.765   3
   2  12  -5 655.257  74.466   3
  -1 -12   5 23.8368 20.4771   1
   1 -12  -5 18.7247 21.6160   6
   1 -12  -5 30.1647 24.5823   1
  -1 -12   5 16.4986 28.2354   2
   1 -12  -5 20.7817 22.7862   4
  -1  12   5  2.7597 20.1262   3
   1  12  -5 45.2784 24.8499   3
   0 -12   5 632.289  65.713   1
   0 -12  -5 666.874  64.149   6
   0 -12  -5 517.554  61.629   1
   0  12  -5 626.813  78.120   2
   0  12  -5 489.209  61.352   3
   0  12   5 671.157  70.509   4
   0  12   5 487.883  64.035   3
   1 -12   5 926.253  85.237   1
  -1 -12  -5 837.296  79.999   1
  -1 -12  -5 1075.43   76.52   6
  -1  12  -5 1078.71   80.31   3
   1  12   5 1101.03   84.34   4
  -1  12  -5 1148.55   90.51   2
   1  12   5 1012.13   79.08   3
  -2 -12  -5 723.254  77.356   5
  -2 -12  -5 821.109  78.875   1
   2 -12   5 798.824  79.585   1
  -2  12  -5 578.783  81.931   2
  -2  12  -5 714.577  74.310   3
   2  12   5 802.164  77.435   3
   2  12   5 782.048  79.465   4
   3 -12   5 67.8526 29.7724   1
  -3 -12  -5 124.733  42.902   5
  -3 -12  -5 118.531  39.129   1
  -3  12  -5 99.7175 43.9485   2
   3  12   5 154.303  40.933   4
  -4 -12  -5 361.442  57.934   1
   4 -12   5 307.368  54.691   1
  -4 -12  -5 309.126  61.592   5
  -4  12  -5 448.926  75.783   2
   4  12   5 439.770  67.520   4
  -5 -12  -5 114.998  43.226   1
   5 -12   5 179.406  47.571   1
  -5  12  -5 159.711  55.439   2
   5  12   5 253.625  56.052   4
  -9 -13   5  8.7551 55.9203   5
  -8 -13   5 245.487  75.970   5
  -7 -13   5 26.7806 49.1822   5
   6 -13  -5 1041.16  108.79   6
  -6 -13   5 1048.65  119.41   5
   6  13  -5 1040.41  113.81   3
  -6  13   5 889.958 101.674   3
   5 -13  -5 -22.552  28.827   6
  -5 -13   5 -4.3070 33.9086   2
   5  13  -5 -15.504  30.339   3
  -5  13   5 24.0632 30.0677   3
   4 -13  -5 496.464  66.483   6
   4 -13  -5 609.597  70.108   1
  -4 -13   5 477.962  72.075   2
   4  13  -5 508.670  73.592   3
  -4  13   5 555.932  75.700   3
  -3 -13   5 165.206  49.695   2
   3 -13  -5 110.034  35.690   6
   3 -13  -5 136.838  36.401   1
   3  13  -5 99.9330 36.1172   3
  -3  13   5 89.1516 33.1901   3
   2 -13  -5 734.288  76.845   1
  -2 -13   5 969.884  94.928   2
  -2 -13   5 792.008  72.288   1
   2 -13  -5 953.881  71.768   6
  -2  13   5 790.765  87.087   3
   2  13  -5 835.132  87.084   3
  -1 -13   5 159.848  35.226   1
   1 -13  -5 162.260  38.201   1
  -1 -13   5 219.685  45.896   2
   1 -13  -5 203.031  38.827   6
   1  13  -5 134.536  37.420   3
  -1  13   5 150.672  39.963   3
   0 -13  -5 1422.90   95.55   1
   0 -13   5 1581.34   97.00   1
   0  13  -5 1334.39   97.58   3
   0  13   5 1294.88   96.38   3
   0  13  -5 1311.27  103.97   2
   1 -13   5 64.1412 30.8565   1
  -1 -13  -5 54.6221 27.6681   1
   1  13   5 111.706  35.480   3
  -1  13  -5 92.8593 36.4663   2
  -1  13  -5 119.388  33.323   3
  -2 -13  -5 573.877  68.369   1
   2 -13   5 557.204  68.716   1
   2  13   5 384.914  60.158   3
  -2  13  -5 452.583  72.505   2
  -2  13  -5 545.509  67.343   3
   3 -13   5 42.0121 30.4509   1
  -3 -13  -5 -1.8693 30.9695   5
  -3 -13  -5 12.1266 27.9151   1
  -3  13  -5 15.1047 40.0104   2
  -4 -13  -5 1022.96  105.16   5
  -4 -13  -5 960.759  96.313   1
   4 -13   5 896.648  95.197   1
  -4  13  -5 1034.08  120.48   2
  -5 -13  -5 59.5487 40.4408   1
  -5  13  -5 -21.436  46.824   2
  -9 -14   5 34.7010 65.9424   5
  -8 -14   5 307.939  83.069   5
  -7 -14   5 338.759  82.240   5
  -6 -14   5 175.297  61.339   5
  -5 -14   5 85.0884 45.2402   2
   5 -14  -5 11.9040 36.5944   6
  -5  14   5 18.4047 32.8759   3
   5  14  -5 19.6814 35.8494   3
  -4 -14   5 1257.80  118.26   2
   4 -14  -5 1032.17   97.34   6
   4 -14  -5 1129.50   88.35   1
   4  14  -5 1235.27  118.89   3
  -4  14   5 921.067 105.484   3
  -3 -14   5 203.218  51.048   2
   3 -14  -5 262.677  48.932   1
   3 -14  -5 308.427  52.098   6
   3  14  -5 196.591  48.461   3
  -3  14   5 246.907  53.515   3
   2 -14  -5 697.563  73.007   1
  -2 -14   5 842.966  91.277   2
  -2 -14   5 558.754  64.249   1
   2  14  -5 570.180  75.327   3
  -2  14   5 660.594  79.135   3
  -1 -14   5 56.1046 34.8108   2
  -1 -14   5 41.1636 28.0767   1
   1 -14  -5 64.6091 29.5851   1
  -1  14   5 76.6330 31.4239   3
   1  14  -5 109.413  33.321   3
   0 -14   5 564.061  66.643   1
   0 -14   5 678.779  76.878   2
   0 -14  -5 628.983  72.665   1
   0  14  -5 543.542  73.557   2
   0  14  -5 506.467  68.693   3
   0  14   5 629.323  74.397   3
  -1 -14  -5 500.970  65.398   1
   1 -14   5 563.810  70.416   1
   1  14   5 565.364  70.752   3
  -1  14  -5 625.733  73.700   3
  -1  14  -5 529.425  75.272   2
  -2 -14  -5 419.900  62.345   1
   2 -14   5 466.754  66.826   1
  -2  14  -5 380.746  68.321   2
  -2  14  -5 599.924  73.025   3
   2  14   5 467.599  64.438   3
  -3 -14  -5 182.442  48.959   1
  -3 -14  -5 158.630  50.090   5
   3 -14   5 198.281  48.816   1
  -3  14  -5 184.076  59.585   2
  -4 -14  -5 363.452  64.405   1
  -4 -14  -5 349.736  65.467   5
  -4  14  -5 370.216  82.868   2
  -8 -15   5 127.020  70.930   5
  -7 -15   5 19.1033 54.9181   5
  -6 -15   5 110.641  61.504   5
   4 -15  -5 47.5731 35.1744   1
  -4 -15   5 50.1474 42.8430   2
   4  15  -5 85.0582 44.0897   3
  -3 -15   5 105.889  45.802   2
   3 -15  -5 20.6125 27.7161   1
  -3  15   5 34.4729 31.1011   3
   3  15  -5 43.5545 35.7477   3
  -2 -15   5 189.029  49.686   2
   2 -15  -5 223.636  43.675   1
  -2  15   5 190.698  47.772   3
   2  15  -5 150.225  42.745   3
  -1 -15   5 2219.10  134.45   2
   1 -15  -5 1949.29  122.09   1
  -1 -15   5 1972.74  119.32   1
   1  15  -5 1702.60  125.58   3
  -1  15   5 1851.72  128.48   3
   0 -15   5 89.1318 35.8362   1
   0 -15   5 155.617  43.068   2
   0 -15  -5 71.4309 32.8029   1
   0  15   5 122.934  38.178   3
   0  15  -5 120.174  37.977   3
  -1 -15  -5 126.881  39.122   1
   1 -15   5 83.9112 38.9908   1
   1  15   5 57.7919 30.8059   3
  -1  15  -5 158.702  50.148   2
  -1  15  -5 182.910  44.730   3
  -2 -15  -5 24.1203 30.6241   1
   2 -15   5 -5.5301 28.6402   1
  -2  15  -5 50.8265 39.7190   2
  -2  15  -5 60.6694 34.6784   3
   2  15   5 57.2778 32.1628   3
  -3 -15  -5 631.696  82.235   1
  -3  15  -5 894.594 113.649   2
  -4 -15  -5 260.408  63.805   5
  -8 -16   5 23.7131 67.0357   5
  -7 -16   5 726.297 118.245   5
  -6 -16   5 -13.075  51.292   5
  -3 -16   5 1393.60  129.12   2
  -2 -16   5 106.418  42.994   2
   2 -16  -5 145.881  40.531   1
  -2  16   5 73.7657 34.0373   3
   2  16  -5 160.967  46.643   3
  -1 -16   5 -11.439  29.539   1
   1 -16  -5 -6.1591 27.8160   1
  -1 -16   5 64.3445 37.8341   2
  -1  16   5  4.2232 24.9285   3
   1  16  -5 21.3631 29.0872   3
   0 -16   5 12.1269 33.3853   2
   0 -16   5 40.0827 33.8478   1
   0 -16  -5 16.5855 30.6452   1
   0  16  -5 17.7153 27.5293   3
   0  16   5 -18.368  24.775   3
   1 -16   5 2568.38  144.17   1
  -1 -16  -5 1973.13  133.21   1
  -1  16  -5 2068.57  138.16   3
   1  16   5 1950.31  135.26   3
  -2  16  -5  5.4463 43.0826   2
   2  16   5 13.0808 30.2136   3
  -2  16  -5 -22.376  23.955   3
  -4 -16  -5 39.7069 45.0913   5
  -7 -17   5 -25.302  57.985   5
  -6 -17   5 346.035  83.793   5
  -1 -17   5 824.452  89.728   1
  -7 -18   5 94.3414 72.3945   5
  -6 -18   5 210.440  74.130   5
  -5 -18   5 -29.168  47.608   5
  -6 -19   5 385.630  94.235   5
  -5 -19   5 35.2637 58.0225   5
  -5 -20   5 84.0597 66.4194   5
   9   0  -6 -15.486  29.658   6
   8   0  -6 1414.93  104.61   6
   8   0  -6 1555.08  113.73   4
  -8   0   6 1401.44  112.65   2
  -7   0   6 -2.3174 22.8378   2
  -7   0   6 21.4114 25.0761   3
   7   0  -6 -1.3449 21.1845   6
   7   0  -6 10.4968 23.8371   4
  -6   0   6 231.952  41.712   2
  -6   0   6 200.867  43.181   3
   6   0  -6 164.741  32.721   6
   6   0  -6 281.249  44.741   4
  -5   0   6  8.3339 15.6498   2
   5   0  -6  0.9334 13.5443   4
   5   0  -6 -14.866  11.291   6
   5   0  -6 -18.345  13.429   3
  -4   0   6 2456.38  121.03   2
   4   0  -6 2591.50  128.29   3
   4   0  -6 2391.18  117.18   6
   4   0  -6 2535.13  125.60   4
   3   0  -6 -8.7094  9.9680   6
  -3   0   6 -0.7255  9.4769   2
   3   0  -6  1.0464 11.3479   4
   3   0  -6  3.6980 11.3910   3
   2   0  -6 50.0261 10.8794   1
  -2   0   6 57.1607 15.2970   2
   2   0  -6 64.9135 16.3853   6
   2   0  -6 64.4767 18.5398   4
   2   0  -6 82.4733 19.7555   3
   1   0  -6 -2.1129  9.5901   3
   1   0  -6 -1.2953  7.9740   6
   1   0  -6 -5.4097  9.0928   4
   1   0  -6 5.92306 8.02049   1
  -1   0   6 14.0621  9.9971   2
   0   0  -6 4178.72  191.36   4
   0   0  -6 4628.96  175.67   3
   0   0  -6 4511.72  170.12   1
   0   0  -6 4494.71  174.10   6
   0   0  -6 3467.98  179.45   2
   1   0   6 6.85250 8.44802   3
  -1   0  -6 1.81158 9.57954   6
  -1   0  -6 5.24622 9.86320   1
  -1   0  -6 14.4037 12.7347   2
   1   0   6 11.6409 12.5445   6
   1   0   6  8.9511 14.1613   4
   2   0   6 1063.09   48.99   3
   2   0   6 1040.99   65.21   6
  -2   0  -6 1128.13   65.14   1
  -2   0  -6 1040.84   65.22   2
   2   0   6 1070.99   68.64   4
  -3   0  -6  4.5694 13.8186   2
   3   0   6  3.0700 13.8103   4
   3   0   6 -4.7243 12.9960   6
  -3   0  -6  4.9880 13.8670   1
  -4   0  -6 1236.75   85.20   2
   4   0   6 1367.22   86.18   4
   4   0   6 1231.13   82.98   6
  -4   0  -6 1446.27   83.51   1
   5   0   6 19.4897 21.5181   4
   5   0   6 16.1362 21.9530   6
  -5   0  -6 20.2037 22.0272   1
  -5   0  -6 -11.369  19.911   2
   6   0   6 836.023  83.960   4
  -6   0  -6 791.554  76.492   1
  -6   0  -6 1002.14   94.93   2
   6   0   6 765.817  81.534   6
   7   0   6 54.3063 33.3096   1
  -7   0  -6 -10.113  28.601   1
   7   0   6 24.2995 28.5099   4
   7   0   6 -8.4012 23.9577   6
  -7   0  -6 -12.079  28.162   2
   8  -1  -6 64.3167 32.8148   4
  -8  -1   6 19.0714 32.3705   2
   8  -1  -6 46.7713 31.2554   6
   8   1  -6 -3.8997 26.7830   6
  -8   1   6 28.1437 32.1980   2
   8   1  -6 33.1923 30.1212   4
  -7  -1   6 608.180  75.721   3
  -7  -1   6 540.896  70.974   2
   7  -1  -6 666.159  69.116   6
   7  -1  -6 605.091  71.390   4
   7   1  -6 512.889  62.638   6
   7   1  -6 546.380  68.937   4
  -7   1   6 662.692  76.606   3
  -7   1   6 629.652  73.781   2
   6  -1  -6 1745.75  109.50   4
  -6  -1   6 1654.01  106.02   2
   6  -1  -6 1722.35  102.69   6
  -6   1   6 1827.38  107.64   2
   6   1  -6 1690.35   99.58   6
  -6   1   6 1881.62  113.79   3
   6   1  -6 1677.09  107.48   4
   6   1  -6 1792.55  110.06   3
  -5  -1   6 724.643  68.563   2
   5  -1  -6 682.226  58.237   4
   5  -1  -6 713.242  65.123   6
   5   1  -6 717.361  55.408   6
  -5   1   6 875.117  68.883   3
  -5   1   6 757.485  60.135   2
   5   1  -6 780.425  61.204   4
   5   1  -6 783.308  73.731   3
  -4  -1   6 49.5576 18.0899   2
   4  -1  -6 38.1965 16.7828   6
   4  -1  -6 41.3270 17.8383   4
   4   1  -6 29.5639 17.5918   3
   4   1  -6 61.2190 17.7978   6
  -4   1   6 27.7418 14.6211   2
  -4   1   6 93.0519 26.7623   3
   4   1  -6 44.1156 19.0432   4
   3  -1  -6 82.5735 20.4764   6
   3  -1  -6 82.0891 21.8882   4
   3  -1  -6 55.5226  9.9730   1
   3  -1  -6 78.1533 21.2833   3
  -3  -1   6 69.9359 18.1322   2
  -3   1   6 95.6007 19.3133   2
   3   1  -6 44.6625 18.2046   3
   3   1  -6 59.7015 17.6489   6
   3   1  -6 88.9404 20.5366   4
  -3   1   6 65.3488 21.0767   3
   2  -1  -6 2735.28  130.13   3
  -2  -1   6 2828.20  125.39   2
   2  -1  -6 2729.83  110.67   1
   2  -1  -6 2785.16  131.29   4
   2  -1  -6 2777.96  124.10   6
  -2   1   6 2773.32  131.94   3
  -2   1   6 2790.87  119.60   2
   2   1  -6 2790.43  108.43   1
   2   1  -6 2873.76  129.97   4
   2   1  -6 2942.98  131.79   3
   2   1  -6 2871.56  120.84   6
   1  -1  -6 2525.29  121.59   4
   1  -1  -6 2460.83  102.66   1
   1  -1  -6 2616.32  111.06   6
  -1   1   6 2413.11  115.27   3
   1   1  -6 2464.17  105.57   6
   1   1  -6 2429.09  117.27   4
   1   1  -6 2449.62  101.32   1
   1   1  -6 2369.53  114.62   2
  -1   1   6 2489.48  104.98   2
   1   1  -6 2349.75  112.98   3
   0  -1  -6 794.819  49.026   6
   0  -1  -6 725.211  52.937   2
   0  -1   6 852.392  49.642   6
   0  -1  -6 848.880  61.527   4
   0  -1  -6 793.065  47.103   1
   0   1  -6 824.040  61.064   2
   0   1  -6 774.873  45.599   6
   0   1  -6 775.493  45.870   1
   0   1   6 902.582  51.260   3
   0   1  -6 727.135  54.274   4
   0   1  -6 856.105  49.458   3
   1  -1   6 102.761  20.509   6
  -1  -1  -6 34.2681 13.9315   1
  -1  -1  -6  9.3418 11.6768   2
  -1  -1  -6 53.1164 15.8199   6
   1  -1   6 24.9943 14.5195   4
   1   1   6 42.2237 11.9415   3
  -1   1  -6 32.2145 12.3808   6
   1   1   6 18.6088 13.5908   6
   1   1   6 46.7183 19.7937   4
  -1   1  -6 39.2198 11.9126   3
  -1   1  -6 44.1638 15.0285   1
  -1   1  -6 49.1905 17.6339   2
  -2  -1  -6 4676.80  195.27   6
   2  -1   6 4606.98  195.30   6
   2  -1   6 4749.89  203.65   4
  -2  -1  -6 4486.51  192.57   1
  -2  -1  -6 4694.70  195.56   2
  -2   1  -6 4710.43  200.02   2
   2   1   6 4688.24  199.67   6
   2   1   6 4668.70  178.47   3
  -2   1  -6 4843.12  193.69   1
   2   1   6 4831.63  210.95   4
  -3  -1  -6 696.782  52.218   1
   3  -1   6 657.207  60.771   6
  -3  -1  -6 677.293  61.017   2
   3  -1   6 621.554  50.374   4
  -3   1  -6 695.254  51.171   1
   3   1   6 589.844  60.735   4
  -3   1  -6 633.086  61.522   2
   3   1   6 655.332  61.444   6
   4  -1   6 607.764  60.272   4
   4  -1   6 595.700  61.279   6
  -4  -1  -6 562.484  60.212   2
  -4  -1  -6 605.983  59.168   1
  -4   1  -6 586.047  64.146   2
   4   1   6 541.919  59.704   6
  -4   1  -6 602.361  57.948   1
   4   1   6 627.452  64.989   4
  -5  -1  -6 36.3432 21.7520   1
   5  -1   6 48.5014 23.6180   6
   5  -1   6 56.5655 24.8251   4
  -5  -1  -6 59.6410 28.4783   2
  -5   1  -6 46.6886 25.2665   1
   5   1   6 128.820  32.592   6
  -5   1  -6 47.3408 28.7076   2
   5   1   6  7.9680 20.4814   4
   6  -1   6 987.540  92.162   1
  -6  -1  -6 1031.49   96.76   2
  -6  -1  -6 1137.79   79.85   1
   6  -1   6 995.519  80.273   4
   6  -1   6 935.104  89.364   6
  -6   1  -6 877.673  81.804   1
   6   1   6 1014.59   81.63   4
  -6   1  -6 957.403  97.847   2
   6   1   6 892.405  88.096   6
  -7  -1  -6 589.203  82.218   2
   7  -1   6 578.974  72.854   4
   7  -1   6 443.620  68.417   1
  -7  -1  -6 452.877  60.715   1
   7  -1   6 405.072  64.532   6
   7   1   6 518.342  73.392   4
   7   1   6 525.866  71.677   6
  -7   1  -6 570.414  79.746   2
  -8  -2   6 159.609  45.163   2
   8  -2  -6 91.9645 34.4529   6
   8  -2  -6 185.704  47.547   4
  -8   2   6 136.889  42.898   2
   8   2  -6 119.417  42.205   4
  -7  -2   6 458.066  64.742   2
   7  -2  -6 449.246  59.809   6
   7  -2  -6 462.614  62.854   4
   7   2  -6 477.944  65.042   3
  -7   2   6 494.022  67.450   3
   7   2  -6 349.683  52.052   6
   7   2  -6 379.373  58.331   4
  -7   2   6 413.653  59.085   2
   6  -2  -6 12.0017 18.8973   6
  -6  -2   6 39.3149 25.8636   2
   6  -2  -6 13.2402 20.5454   4
   6   2  -6 19.9283 22.5483   4
   6   2  -6 -18.304  18.089   3
   6   2  -6 26.6581 19.5494   6
  -6   2   6  9.3144 20.8246   3
  -6   2   6 -4.1468 20.9367   2
   5  -2  -6 2475.76  132.82   4
   5  -2  -6 2400.20  126.87   6
  -5  -2   6 2435.07  131.04   2
  -5  -2   6 2672.24  121.70   5
  -5   2   6 2404.34  133.90   3
   5   2  -6 2447.05  120.75   6
  -5   2   6 2485.44  127.07   2
   5   2  -6 2747.18  135.11   4
   5   2  -6 2551.42  134.61   3
  -4  -2   6 167.307  30.370   2
   4  -2  -6 169.434  30.535   4
   4  -2  -6 155.321  28.649   6
   4   2  -6 137.252  27.016   4
  -4   2   6 142.755  25.693   2
  -4   2   6 174.011  33.362   3
   4   2  -6 138.942  29.899   3
   4   2  -6 167.839  26.232   6
   3  -2  -6 6916.95  283.77   4
   3  -2  -6 6753.80  247.92   1
   3  -2  -6 6668.84  271.26   6
  -3  -2   6 6793.17  274.60   2
   3   2  -6 6630.27  262.00   6
   3   2  -6 6927.43  279.80   4
  -3   2   6 6746.58  280.37   3
   3   2  -6 6638.21  278.59   3
  -3   2   6 6889.42  265.25   2
   2  -2  -6 13.5472  8.8212   1
   2  -2  -6 -17.197   9.722   4
  -2  -2   6 22.7821  9.4027   1
   2  -2  -6 10.1479 11.4881   6
  -2  -2   6 26.8553 12.4526   2
   2   2  -6 29.8875 15.4111   3
  -2   2   6 19.8589  9.7119   2
  -2   2   6 23.2412 13.7540   3
   2   2  -6 7.37279 9.16827   6
   2   2  -6 27.8926 13.0917   4
   1  -2  -6 722.197  53.829   4
   1  -2  -6 666.235  45.872   6
   1  -2  -6 650.567  39.824   1
  -1   2   6 644.634  36.437   2
  -1   2   6 677.124  47.724   3
   1   2  -6 645.890  45.722   4
   1   2  -6 657.789  46.368   3
   1   2  -6 719.383  38.830   1
   1   2  -6 712.447  54.012   2
   1   2  -6 607.513  37.975   6
   0  -2   6 1575.61   77.71   6
   0  -2  -6 1710.93   97.75   4
   0  -2  -6 1633.82   78.03   1
   0  -2  -6 1438.09   78.77   2
   0  -2  -6 1704.26   83.04   6
   0   2  -6 1558.55   74.84   6
   0   2  -6 1639.50   76.95   1
   0   2  -6 1844.77   87.89   4
   0   2   6 1658.52   82.04   3
   0   2  -6 1693.89   80.96   3
   0   2  -6 1743.04   97.18   2
   1  -2   6 2805.51  126.07   6
  -1  -2  -6 2947.39  129.35   6
   1  -2   6 2961.49  131.92   4
  -1  -2  -6 2870.60  127.25   1
  -1  -2  -6 2933.43  125.34   2
   1   2   6 2818.50  145.68   4
   1   2   6 2842.51  133.32   6
   1   2   6 2974.33  122.31   3
  -1   2  -6 2991.41  122.63   3
  -1   2  -6 2875.67  135.79   2
  -1   2  -6 2846.29  124.85   1
  -1   2  -6 2835.96  123.36   6
  -2  -2  -6 11.1474 12.7764   6
  -2  -2  -6 34.0089 15.2209   2
   2  -2   6 42.9454 15.4171   4
   2  -2   6 56.2716 18.7752   6
  -2  -2  -6 13.6472 13.9110   1
  -2   2  -6 41.8087 18.7511   2
   2   2   6  7.5419 13.3591   6
  -2   2  -6 30.9398 10.2776   3
   2   2   6 27.6813  9.2092   3
   2   2   6 27.5308 17.2113   4
  -2   2  -6 19.5182 14.6283   1
  -3  -2  -6 144.238  28.833   2
   3  -2   6 134.635  27.687   6
   3  -2   6 223.783  31.873   4
  -3  -2  -6 179.585  29.844   1
   3   2   6 169.118  34.709   4
  -3   2  -6 204.644  31.804   1
   3   2   6 102.675  25.543   6
  -3   2  -6 200.178  34.990   2
   4  -2   6 497.384  55.335   6
  -4  -2  -6 460.665  53.918   2
   4  -2   6 439.312  49.027   4
  -4  -2  -6 367.604  47.118   1
  -4   2  -6 475.773  57.468   2
   4   2   6 415.980  53.304   6
   4   2   6 474.526  57.730   4
  -4   2  -6 468.025  51.049   1
  -5  -2  -6 2294.63  123.21   1
  -5  -2  -6 2416.43  131.48   2
   5  -2   6 2439.69  131.71   1
   5  -2   6 2205.65  127.04   6
   5  -2   6 2194.94  124.89   4
  -5   2  -6 2373.76  125.03   1
  -5   2  -6 2249.37  133.00   2
   5   2   6 2340.04  130.73   6
   5   2   6 2505.60  139.03   4
   6  -2   6 180.503  40.375   4
   6  -2   6 175.956  43.205   1
   6  -2   6 131.708  36.624   6
  -6  -2  -6 151.492  36.547   1
  -6  -2  -6 134.037  40.906   2
  -6   2  -6 105.756  37.548   2
   6   2   6 181.895  41.862   6
   6   2   6 154.503  40.581   4
   7  -2   6 33.3818 27.9855   4
  -7  -2  -6 -2.2160 27.4533   1
   7  -2   6 18.3193 29.7015   6
  -7  -2  -6  1.5669 29.8036   2
   7  -2   6 -1.9052 30.8900   1
   7   2   6 -19.273  25.058   4
   7   2   6 -32.434  23.009   6
  -7   2  -6 19.7704 30.3447   2
   8  -3  -6  2.6264 30.5498   4
  -8  -3   6  2.1590 27.6905   2
   8  -3  -6  3.2045 25.2111   6
   8   3  -6 -9.0544 28.7893   4
  -8   3   6 36.0460 35.5120   2
   7  -3  -6 909.875  85.240   6
  -7  -3   6 778.420  85.461   2
   7  -3  -6 866.432  87.767   4
   7   3  -6 933.826  91.384   3
  -7   3   6 862.088  88.776   2
  -7   3   6 792.216  85.151   3
  -6  -3   6 164.318  35.179   5
   6  -3  -6 107.278  29.336   6
   6  -3  -6 173.792  36.738   4
  -6  -3   6 75.7646 29.2426   2
  -6   3   6 125.369  35.058   3
   6   3  -6 107.182  26.344   6
  -6   3   6 98.2903 29.9819   2
   6   3  -6 175.684  39.147   3
   6   3  -6 115.532  33.184   4
   5  -3  -6 1671.03   98.64   6
  -5  -3   6 1698.96   94.28   5
  -5  -3   6 1572.42  101.20   2
   5  -3  -6 1738.25  105.05   4
   5   3  -6 1741.27   91.27   6
  -5   3   6 1797.98   98.91   2
   5   3  -6 1630.58  103.43   3
   5   3  -6 1818.11  103.08   4
  -5   3   6 1844.49  107.57   3
   4  -3  -6 88.6329 24.9248   4
  -4  -3   6 68.0965 22.9655   2
   4  -3  -6 68.8525 22.4805   6
   4   3  -6 112.706  27.379   3
   4   3  -6 106.108  20.913   6
  -4   3   6 71.3530 22.7773   3
  -4   3   6 88.0025 22.0138   2
   4   3  -6 73.5529 22.0500   4
  -3  -3   6 2439.01  119.78   2
   3  -3  -6 2324.93  114.92   6
   3  -3  -6 2294.93   96.94   1
   3  -3  -6 2568.70  121.52   4
  -3   3   6 2355.50  105.40   2
   3   3  -6 2285.48  118.76   3
   3   3  -6 2388.79  114.24   4
   3   3  -6 2308.64  102.98   6
  -3   3   6 2301.24  121.10   3
   2  -3  -6 850.524  57.326   4
  -2  -3   6 791.250  40.851   1
   2  -3  -6 696.814  42.127   1
  -2  -3   6 785.440  55.722   2
   2  -3  -6 719.490  51.214   6
  -2   3   6 798.881  56.533   3
   2   3  -6 700.437  41.572   6
  -2   3   6 831.232  42.401   2
   2   3  -6 842.534  55.664   3
   2   3  -6 741.043  48.216   4
   1  -3  -6 5740.91  243.06   4
  -1  -3   6 5567.77  213.11   1
   1  -3  -6 5373.13  212.43   1
   1  -3  -6 5610.49  224.43   6
  -1   3   6 5544.81  228.18   3
   1   3  -6 5506.87  225.63   3
   1   3  -6 5390.95  209.16   6
  -1   3   6 5550.40  206.83   2
   1   3  -6 5734.94  228.71   4
   1   3  -6 5306.81  236.01   2
   0  -3  -6 249.770  31.739   6
   0  -3  -6 167.532  22.278   2
   0  -3   6 299.167  32.150   1
   0  -3  -6 155.500  31.869   4
   0  -3  -6 245.277  28.694   1
   0  -3   6 309.388  28.546   6
   0   3  -6 212.716  27.181   4
   0   3   6 216.850  27.517   3
   0   3  -6 258.450  24.291   6
   0   3  -6 259.248  42.167   2
   0   3  -6 293.401  30.911   3
   1  -3   6 166.034  24.560   6
   1  -3   6 181.599  25.000   4
  -1  -3  -6 221.110  30.877   6
   1  -3   6 199.280  29.890   1
  -1  -3  -6 175.676  23.313   2
  -1  -3  -6 240.866  30.891   1
  -1   3  -6 226.209  35.650   2
   1   3   6 141.561  33.071   4
   1   3   6 227.508  33.088   6
  -1   3  -6 213.801  27.804   1
  -1   3  -6 265.669  27.449   3
   1   3   6 210.426  24.981   3
   2  -3   6 50.9480 15.6147   4
  -2  -3  -6  8.2120 12.4851   1
  -2  -3  -6 65.9788 18.2617   2
   2  -3   6 52.2184 17.3046   6
   2  -3   6 55.2551 20.0891   1
  -2  -3  -6 57.2543 18.6932   6
  -2   3  -6 69.5516 21.8026   2
   2   3   6 62.3021 13.7054   3
   2   3   6 84.9759 23.3251   6
   2   3   6 44.1645 21.8065   4
  -2   3  -6 51.3465 12.8808   3
  -2   3  -6 51.6570 17.8603   1
   3  -3   6 3752.24  164.88   1
  -3  -3  -6 3189.80  155.50   1
   3  -3   6 3544.83  159.13   6
   3  -3   6 3527.19  159.14   4
  -3  -3  -6 3522.82  158.03   2
  -3   3  -6 3313.75  166.42   2
   3   3   6 3731.74  177.14   4
  -3   3  -6 3522.15  157.73   1
   3   3   6 3734.78  168.04   6
   4  -3   6  0.7249 17.9939   1
   4  -3   6 25.7987 17.4237   4
  -4  -3  -6 -6.3051 16.7851   1
  -4  -3  -6 13.6767 19.0004   2
   4  -3   6 27.0876 19.3635   6
  -4   3  -6 24.2705 20.4244   2
   4   3   6 35.4025 24.0567   4
   4   3   6 42.6612 21.9927   6
   5  -3   6 48.3219 26.0725   6
  -5  -3  -6 19.7953 23.8318   2
   5  -3   6 17.9887 20.0566   4
  -5  -3  -6 36.9269 24.7355   1
   5  -3   6 46.0518 27.7678   1
   5   3   6 47.4131 25.9890   4
   5   3   6 16.3200 21.9052   6
  -5   3  -6 38.8291 27.6948   2
   6  -3   6 250.485  48.964   6
  -6  -3  -6 312.389  50.853   1
   6  -3   6 308.265  55.266   1
   6  -3   6 370.835  52.759   4
  -6  -3  -6 291.523  53.911   2
  -6   3  -6 295.530  56.348   2
   6   3   6 395.546  59.844   6
   6   3   6 263.144  52.272   4
   7  -3   6 925.796  94.487   1
  -7  -3  -6 851.641  95.726   2
   7  -3   6 595.905  76.816   6
  -7  -3  -6 935.952  85.349   1
   7  -3   6 893.864  88.303   4
  -7   3  -6 970.913 104.652   2
   7   3   6 821.434  94.095   4
   8  -4  -6 1013.36  100.32   6
  -8  -4   6 1030.30  105.74   2
   8  -4  -6 979.355  99.419   4
  -8   4   6 963.042 102.243   2
   8   4  -6 1030.79  104.42   4
   7  -4  -6 646.566  73.044   6
  -7  -4   6 448.492  67.131   2
   7  -4  -6 723.339  78.853   4
  -7   4   6 718.353  79.117   3
   7   4  -6 608.260  74.036   3
  -7   4   6 707.031  78.346   2
   7   4  -6 656.438  75.970   4
   6  -4  -6  6.6425 20.1590   6
  -6  -4   6  7.6491 20.1684   5
   6  -4  -6 51.4751 25.4884   4
  -6  -4   6 25.8192 24.4554   2
  -6   4   6  5.1489 20.4465   3
   6   4  -6 -25.851  16.865   3
   6   4  -6  9.4702 21.3836   4
  -6   4   6 29.5915 25.4669   2
  -5  -4   6 276.884  45.693   2
   5  -4  -6 296.633  44.233   4
   5  -4  -6 214.896  37.579   6
  -5   4   6 263.504  39.089   2
   5   4  -6 266.702  44.216   3
   5   4  -6 339.144  45.440   4
  -5   4   6 288.139  45.301   3
   4  -4  -6 734.803  59.851   4
  -4  -4   6 706.021  69.708   2
   4  -4  -6 810.177  61.311   6
  -4   4   6 845.540  55.257   2
  -4   4   6 792.109  63.498   3
   4   4  -6 812.989  50.342   6
   4   4  -6 868.694  59.799   4
   4   4  -6 887.369  65.495   3
   3  -4  -6 910.259  63.659   6
   3  -4  -6 824.858  63.495   4
  -3  -4   6 1214.62   74.31   2
   3  -4  -6 976.484  52.056   1
  -3   4   6 1044.32   69.86   3
   3   4  -6 1014.51   52.91   6
   3   4  -6 969.887  66.670   3
   3   4  -6 1076.15   61.88   4
  -3   4   6 1019.57   54.97   2
   2  -4  -6 14.9364 12.9885   6
   2  -4  -6 13.5330 13.0982   4
  -2  -4   6 23.3786 10.0756   1
   2  -4  -6 26.9265 12.1945   1
  -2  -4   6  4.5704 14.5322   2
  -2   4   6 47.1116 17.4796   3
   2   4  -6 19.5353  8.9149   6
   2   4  -6 10.6616 12.2898   4
  -2   4   6 26.5574  8.2173   2
   2   4  -6 28.1546 14.0992   3
  -1  -4   6 1166.25   60.06   1
   1  -4  -6 1032.33   73.58   4
  -1  -4   6 1089.94   54.30   6
   1  -4  -6 1042.35   66.22   6
   1  -4  -6 1246.58   62.19   1
   1   4  -6 1192.45   52.80   6
   1   4  -6 1042.60   77.00   2
  -1   4   6 1176.57   69.01   3
   1   4  -6 1177.31   67.45   3
   1   4  -6 1123.08   62.11   4
   0  -4  -6 4023.66  189.96   4
   0  -4  -6 4101.90  172.30   6
   0  -4   6 4038.97  159.22   6
   0  -4  -6 3795.25  163.36   1
   0  -4   6 4106.38  166.38   1
   0   4   6 4015.66  169.81   3
   0   4  -6 3945.51  167.90   3
   0   4  -6 3979.91  188.48   2
   0   4  -6 3874.64  156.47   6
   0   4  -6 4054.67  165.79   4
   1  -4   6 4397.60  183.13   1
  -1  -4  -6 4361.16  180.31   1
   1  -4   6 4499.20  175.93   6
   1  -4   6 4165.78  177.34   4
  -1  -4  -6 4467.12  171.20   2
  -1  -4  -6 4513.46  186.04   6
   1   4   6 4201.85  189.75   6
   1   4   6 4083.42  175.80   3
   1   4   6 3712.26  199.78   4
  -1   4  -6 4562.42  198.48   2
  -1   4  -6 4561.65  177.39   3
  -2  -4  -6 1140.88   65.32   2
   2  -4   6 1251.75   69.77   6
   2  -4   6 1225.37   65.74   4
  -2  -4  -6 1277.11   74.90   6
   2  -4   6 1195.77   75.66   1
  -2  -4  -6 1270.12   72.05   1
  -2   4  -6 1187.02   78.53   2
  -2   4  -6 1264.49   62.11   3
   2   4   6 1095.10   81.51   4
   2   4   6 1212.40   62.99   3
   2   4   6 1381.75   81.72   6
   3  -4   6 270.036  33.337   4
   3  -4   6 331.299  41.077   6
  -3  -4  -6 302.903  40.055   1
  -3  -4  -6 246.483  35.685   2
   3  -4   6 283.789  41.682   1
   3   4   6 351.408  47.240   6
  -3   4  -6 231.086  39.510   2
   3   4   6 270.686  43.973   4
   4  -4   6 1093.76   74.26   6
   4  -4   6 1101.41   78.65   1
   4  -4   6 952.426  67.728   4
  -4  -4  -6 1048.43   73.84   2
  -4  -4  -6 1079.86   72.90   1
  -4   4  -6 1153.45   83.72   2
   4   4   6 1256.83   83.76   6
   4   4   6 1048.83   82.94   4
   5  -4   6 372.804  49.609   4
  -5  -4  -6 549.688  59.775   1
  -5  -4  -6 620.508  68.581   2
   5  -4   6 572.034  63.027   6
   5  -4   6 437.884  60.094   1
   5   4   6 603.961  69.527   6
   5   4   6 442.548  62.888   4
  -5   4  -6 578.494  71.275   2
  -6  -4  -6 285.060  49.284   1
   6  -4   6 398.361  59.953   1
   6  -4   6 354.805  52.755   4
   6  -4   6 392.227  57.133   6
  -6  -4  -6 334.654  57.732   2
   6   4   6 325.232  57.895   6
  -6   4  -6 453.146  67.642   2
   6   4   6 361.416  60.204   4
  -7  -4  -6 46.7039 37.2752   2
   7  -4   6 25.3865 32.0269   6
   7  -4   6 33.9972 34.9790   1
   7   4   6 54.6120 35.9331   4
  -7   4  -6 25.2763 31.0079   2
   7   4   6  2.4389 28.7753   6
   8  -5  -6 269.565  57.687   4
  -8  -5   6 272.710  59.308   2
   8  -5  -6 241.553  53.459   6
   8   5  -6 336.859  61.937   4
  -7  -5   6 63.8637 33.9900   2
   7  -5  -6 55.7450 32.5882   4
  -7  -5   6 82.4377 36.3529   5
   7  -5  -6 112.026  35.934   6
   7   5  -6 79.8737 35.5519   3
   7   5  -6 72.5135 32.4881   4
  -7   5   6 13.4704 25.3392   3
  -6  -5   6 971.054  78.456   5
   6  -5  -6 1013.38   80.57   6
  -6  -5   6 1116.65   88.23   2
   6  -5  -6 1213.71   88.74   4
   6   5  -6 1219.06   88.02   3
  -6   5   6 1103.58   86.15   3
   6   5  -6 1098.64   82.50   4
  -6   5   6 1247.02   83.16   2
   5  -5  -6 151.983  35.139   4
   5  -5  -6 126.489  30.787   6
  -5  -5   6 158.163  36.842   2
  -5   5   6 98.4353 25.6326   2
  -5   5   6 147.336  34.812   3
   5   5  -6 88.4828 28.2434   4
   5   5  -6 153.136  34.734   3
   4  -5  -6 101.710  26.237   4
  -4  -5   6 109.496  29.955   2
   4  -5  -6 66.9631 22.6590   6
   4   5  -6 105.147  27.562   3
   4   5  -6 81.6358 22.4685   4
  -4   5   6 116.933  22.968   2
  -4   5   6 99.9567 26.0192   3
   3  -5  -6  2.7406 12.0485   4
   3  -5  -6 12.0594 14.8745   6
  -3  -5   6 20.4131 16.5377   2
   3  -5  -6 48.9011 15.8596   1
   3   5  -6 39.2679 15.3094   4
  -3   5   6 43.1775 13.7867   2
   3   5  -6 30.8929 16.7115   3
  -3   5   6 27.8637 18.1383   3
   2  -5  -6 3640.21  189.61   4
  -2  -5   6 4255.99  165.82   1
  -2  -5   6 4092.83  192.82   2
   2  -5  -6 4364.62  184.73   6
   2  -5  -6 4558.66  172.83   1
   2   5  -6 4439.26  177.88   4
  -2   5   6 4229.66  190.08   3
   2   5  -6 4299.55  187.28   3
   1  -5  -6 61.8235 24.0896   4
  -1  -5   6 87.9601 13.7128   6
  -1  -5   6 91.5924 18.3846   1
   1  -5  -6 134.085  25.796   6
   1  -5  -6 33.5463 14.2639   1
   1   5  -6 83.8112 29.3516   2
  -1   5   6 65.6183 19.6640   3
   1   5  -6 88.1034 12.2572   6
   1   5  -6 84.3705 19.8458   3
   1   5  -6 75.0463 16.6621   4
   0  -5   6 887.198  55.401   1
   0  -5  -6 742.914  55.942   6
   0  -5  -6 867.669  67.224   4
   0  -5   6 839.625  45.683   6
   0  -5  -6 822.564  53.619   1
   0  -5   6 920.120  47.578   4
   0   5  -6 863.751  80.441   2
   0   5   6 850.965  55.159   3
   0   5  -6 820.480  54.514   3
   1  -5   6 19.1408 15.0634   1
  -1  -5  -6  8.2213 13.9512   6
   1  -5   6 -3.1319  9.1391   6
   1  -5   6 5.58260 8.15138   4
  -1  -5  -6 -14.174  11.077   1
   1   5   6  6.5445 19.7166   4
   1   5   6  8.3013 10.4368   3
  -1   5  -6 -8.8526  8.1828   3
   1   5   6  8.1958 14.5478   6
  -1   5  -6 -1.7928 16.6287   2
   2  -5   6 2010.55  105.22   1
  -2  -5  -6 1830.61   99.78   1
   2  -5   6 2070.52   93.60   4
  -2  -5  -6 1979.85   93.11   2
  -2  -5  -6 2276.02  109.90   6
   2  -5   6 1949.26   97.35   6
   2   5   6 2241.02  114.89   6
   2   5   6 1701.13  114.07   4
   2   5   6 1965.40   95.17   3
  -2   5  -6 1937.68  110.84   2
  -2   5  -6 1965.48   92.18   3
  -3  -5  -6 16.7993 16.7348   2
  -3  -5  -6 93.3327 24.6002   1
   3  -5   6 82.6277 20.0995   4
   3  -5   6 26.5600 20.3488   1
  -3  -5  -6 18.2389 19.2712   6
   3  -5   6 76.1697 22.7894   6
  -3   5  -6 71.6481 26.5166   2
   3   5   6 43.6679 24.1928   6
   3   5   6 49.8022 24.2931   4
  -4  -5  -6 593.052  61.448   1
  -4  -5  -6 678.782  64.191   2
   4  -5   6 477.016  57.740   1
   4  -5   6 655.922  64.072   6
   4  -5   6 543.412  52.874   4
   4   5   6 676.811  75.138   4
  -4   5  -6 545.484  65.866   2
   4   5   6 673.379  71.350   6
  -5  -5  -6  0.5954 22.6190   2
   5  -5   6 -28.848  18.505   1
   5  -5   6  8.1064 20.6866   6
  -5  -5  -6 34.2533 24.3554   1
   5   5   6 -16.542  22.059   6
  -5   5  -6 -9.7430 20.9864   2
   5   5   6 -2.0102 23.4474   4
  -6  -5  -6 925.819  85.842   1
   6  -5   6 1156.50  102.43   1
  -6  -5  -6 909.520  94.529   2
   6  -5   6 957.018  91.542   6
   6   5   6 1074.64  107.29   4
   6   5   6 1084.69  102.55   6
  -6   5  -6 1052.31  105.05   2
  -7  -5  -6 -11.569  30.072   2
   7  -5   6 -1.0425 31.0861   1
   7  -5   6  2.7787 31.3439   6
  -7   5  -6  9.4595 32.7830   2
   7   5   6 89.5657 41.2939   6
   7   5   6 -9.1203 30.4664   4
   8  -6  -6 1015.82  102.62   6
   8  -6  -6 1111.32  109.29   4
   8   6  -6 1136.55  110.71   4
  -7  -6   6 195.097  44.094   5
   7  -6  -6 161.617  40.937   6
   7  -6  -6 215.078  47.658   4
  -7  -6   6 329.152  60.335   2
  -7   6   6 298.401  55.557   3
   7   6  -6 156.875  41.444   4
   7   6  -6 115.519  41.377   3
   6  -6  -6 29.4549 25.7045   4
  -6  -6   6 28.1974 26.8697   2
   6  -6  -6 23.0408 21.8270   6
  -6  -6   6  5.1765 26.7175   5
   6   6  -6 23.1808 23.1721   3
   6   6  -6 31.3789 24.8075   4
  -6   6   6 29.3310 22.3537   3
   5  -6  -6 38.8902 24.3431   4
   5  -6  -6  7.3808 17.4660   6
  -5  -6   6 14.7984 23.9788   2
  -5   6   6 16.8231 19.8478   3
   5   6  -6 19.6350 20.9849   4
   5   6  -6 -9.8863 16.8146   3
   4  -6  -6 2093.05  120.24   4
   4  -6  -6 2056.69  115.74   6
  -4  -6   6 2309.88  127.02   2
   4   6  -6 2285.28  113.30   4
   4   6  -6 2052.29  119.17   3
  -4   6   6 2323.58  124.26   3
   3  -6  -6 118.780  26.742   4
  -3  -6   6 68.6232 26.6704   2
   3  -6  -6 105.433  25.720   6
   3  -6  -6 121.010  22.172   1
   3   6  -6 118.265  21.566   4
   3   6  -6 107.900  26.551   3
  -3   6   6 118.512  28.132   3
   2  -6  -6 400.233  46.506   6
   2  -6  -6 462.095  52.175   4
   2  -6  -6 429.137  40.911   1
  -2  -6   6 432.099  33.641   1
  -2  -6   6 413.541  53.565   2
   2   6  -6 478.779  34.051   4
   2   6  -6 414.978  46.779   3
  -2   6   6 444.914  51.632   3
   1  -6  -6 390.981  39.170   1
   1  -6  -6 377.333  52.642   4
  -1  -6   6 382.591  37.069   1
   1  -6  -6 420.438  45.541   6
   1   6  -6 405.568  55.794   2
   1   6  -6 288.904  38.094   3
  -1   6   6 328.254  41.694   3
   0  -6  -6 1953.92  110.08   4
   0  -6  -6 1816.47   92.79   1
   0  -6   6 1774.66   92.31   1
   0  -6  -6 1756.31   97.08   6
   0   6  -6 1870.11  112.55   2
   0   6  -6 1895.65   94.95   3
   0   6   6 1777.14   94.49   3
  -1  -6  -6 1221.33   72.23   1
   1  -6   6 1288.78   75.42   1
   1  -6   6 1242.39   64.53   6
  -1  -6  -6 1302.23   78.62   6
  -1   6  -6 1202.37   69.48   3
  -1   6  -6 1377.71   91.21   2
   1   6   6 1229.13   70.67   3
   1   6   6 1221.59   88.39   4
  -2  -6  -6 146.981  28.329   1
   2  -6   6 211.139  30.717   6
  -2  -6  -6 191.126  34.847   6
   2  -6   6 144.197  29.727   1
   2   6   6 232.846  31.751   3
   2   6   6 181.944  39.692   4
  -2   6  -6 148.245  33.734   2
   2   6   6 278.725  44.119   6
  -2   6  -6 179.741  25.805   3
   3  -6   6 202.339  37.140   1
  -3  -6  -6 285.070  43.782   6
  -3  -6  -6 235.436  36.520   1
   3  -6   6 300.856  39.909   6
   3   6   6 225.765  42.340   6
   3   6   6 181.596  41.329   4
  -3   6  -6 230.231  42.071   2
   4  -6   6 2771.25  143.74   1
  -4  -6  -6 2542.07  135.77   1
   4  -6   6 2748.84  137.67   6
   4   6   6 2758.75  157.53   4
  -4   6  -6 2755.41  152.47   2
   4   6   6 2763.71  149.68   6
  -5  -6  -6 230.029  42.339   1
   5  -6   6 131.998  35.947   1
   5  -6   6 177.201  37.781   6
  -5   6  -6 205.259  47.355   2
   5   6   6 197.287  46.708   6
   5   6   6 178.927  44.299   4
   6  -6   6 1016.68   95.65   6
  -6  -6  -6 1235.93   88.12   1
   6  -6   6 1176.31   91.30   1
  -6   6  -6 1056.84  110.10   2
   6   6   6 1213.48  115.66   4
   6   6   6 1025.57  103.68   6
   7  -6   6 24.6981 34.6376   6
   7  -6   6 -26.875  24.645   1
   7   6   6 -11.665  31.540   6
  -8  -7   6 48.5080 39.0373   5
   8  -7  -6 15.1312 33.7426   4
   8   7  -6 -21.243  30.332   4
  -7  -7   6 806.778  88.664   5
   7  -7  -6 890.727  91.374   6
  -7  -7   6 835.884  94.732   2
   7  -7  -6 960.180  95.831   4
   7   7  -6 928.021  91.076   4
  -7   7   6 921.541  94.214   3
   7   7  -6 810.416  90.339   3
   6  -7  -6 317.999  53.803   4
   6  -7  -6 277.922  49.358   6
  -6  -7   6 346.970  56.981   5
  -6  -7   6 338.983  55.691   2
   6   7  -6 253.151  47.881   3
   6   7  -6 298.340  48.017   4
  -6   7   6 346.097  55.022   3
  -5  -7   6 1661.64  109.45   2
   5  -7  -6 1498.42  100.57   4
   5  -7  -6 1452.71   98.76   6
  -5   7   6 1540.52  103.99   3
   5   7  -6 1643.01   96.57   4
   5   7  -6 1513.13  100.64   3
   4  -7  -6 37.7839 22.7625   4
   4  -7  -6 26.5803 20.9360   6
  -4  -7   6 40.6592 25.7772   2
   4  -7  -6 40.3518 18.9500   1
  -4   7   6 71.4991 27.8378   3
   4   7  -6 52.0964 23.0277   3
  -3  -7   6 1493.88  101.61   2
   3  -7  -6 1562.35   95.03   6
   3  -7  -6 1704.15   86.78   1
   3  -7  -6 1729.74  100.71   4
   3   7  -6 1784.53  100.60   3
  -3   7   6 1643.50  100.38   3
  -2  -7   6 1873.90   87.39   1
  -2  -7   6 1610.96  106.14   2
   2  -7  -6 1797.02   99.38   6
   2  -7  -6 1728.69  103.90   4
   2  -7  -6 1761.56   91.13   1
  -2   7   6 1909.50  104.09   3
   2   7  -6 1853.04  102.81   3
   1  -7  -6 2746.49  129.98   1
  -1  -7   6 2954.00  128.51   1
   1  -7  -6 3011.05  158.93   4
   1  -7  -6 2814.06  136.29   6
   1   7  -6 3147.04  156.89   2
   1   7  -6 2815.53  137.53   3
  -1   7   6 2697.41  137.83   3
   0  -7   6 196.480  31.575   1
   0  -7  -6 264.204  38.003   6
   0  -7  -6 296.564  37.175   1
   0  -7  -6 213.242  38.038   4
   0   7   6 185.461  31.354   3
   0   7  -6 308.201  38.415   3
   0   7  -6 267.053  46.660   2
   1  -7   6 158.625  22.777   6
   1  -7   6 127.696  28.497   1
  -1  -7  -6 117.899  28.013   6
  -1  -7  -6 158.281  28.589   1
   1   7   6 159.526  28.723   3
   1   7   6 203.530  41.290   4
  -1   7  -6 146.205  26.738   3
  -1   7  -6 173.611  41.118   2
   2  -7   6 170.489  32.723   1
   2  -7   6 278.700  34.640   6
  -2  -7  -6 200.308  33.781   1
  -2  -7  -6 212.685  37.971   6
   2   7   6 224.667  33.525   3
  -2   7  -6 287.453  35.129   3
   2   7   6 198.466  40.920   4
  -2   7  -6 229.770  42.617   2
   2   7   6 191.016  39.884   6
   3  -7   6 1905.04  112.07   1
  -3  -7  -6 2011.55  110.70   1
   3  -7   6 2161.08  106.64   6
  -3  -7  -6 2198.58  118.86   6
  -3   7  -6 2044.64  123.29   2
   3   7   6 1867.87  122.47   4
   3   7   6 2090.87  122.49   6
   4  -7   6 -2.5727 19.0566   1
   4  -7   6  0.0452 19.3896   6
  -4  -7  -6 -15.675  18.004   1
  -4   7  -6  3.1853 23.7841   2
   4   7   6 19.2912 23.9776   4
   4   7   6 43.9245 29.0920   6
   5  -7   6 -14.973  20.945   1
  -5  -7  -6 -16.642  22.085   1
   5  -7   6 -1.5124 21.8553   6
   5   7   6 14.7017 26.4559   4
  -5   7  -6 -14.808  23.771   2
   5   7   6 10.2889 28.8907   6
   6  -7   6 989.413  94.269   6
  -6  -7  -6 1005.97   91.87   1
   6  -7   6 1174.78  104.26   1
  -6   7  -6 971.521 106.087   2
   6   7   6 968.778 101.910   6
   6   7   6 936.625 106.882   4
   7  -7   6 951.291 100.106   6
   7  -7   6 965.875 101.390   1
  -8  -8   6  3.0951 34.9934   5
  -7  -8   6 650.148  81.647   5
  -7  -8   6 612.881  84.034   2
   7  -8  -6 646.932  78.364   6
   7  -8  -6 618.148  79.885   4
   7   8  -6 585.455  77.913   3
  -7   8   6 779.239  84.437   3
  -6  -8   6 43.2765 32.2617   5
  -6  -8   6 10.9563 27.4629   2
   6  -8  -6 40.6282 31.0405   6
   6  -8  -6 31.0151 27.7771   4
  -6   8   6 14.9489 25.1692   3
   6   8  -6 39.8226 26.5507   3
   5  -8  -6 1351.98   92.03   6
   5  -8  -6 1079.55   87.83   4
  -5  -8   6 1254.65   98.41   2
   5   8  -6 1307.52   93.19   3
  -5   8   6 1294.79   92.85   3
  -4  -8   6 127.852  35.723   2
   4  -8  -6 162.746  36.232   6
   4  -8  -6 117.192  32.186   4
   4  -8  -6 154.815  30.588   1
   4   8  -6 127.420  32.158   3
  -4   8   6 147.580  35.516   3
   3  -8  -6 3132.12  154.94   6
   3  -8  -6 3256.55  144.58   1
  -3  -8   6 3116.80  165.95   2
   3  -8  -6 3182.72  162.67   4
   3   8  -6 3271.66  160.78   3
  -3   8   6 3127.06  160.31   3
   2  -8  -6 142.214  30.812   6
   2  -8  -6 123.640  25.811   1
  -2  -8   6 72.9196 29.6023   2
   2  -8  -6 109.990  28.805   4
  -2  -8   6 84.9350 20.3053   1
  -2   8   6 139.969  31.136   3
   2   8  -6 127.004  30.651   3
   1  -8  -6 538.462  52.709   1
  -1  -8   6 538.285  49.821   1
   1  -8  -6 600.497  69.423   4
   1  -8  -6 600.355  58.032   6
  -1   8   6 682.035  66.564   3
   1   8  -6 634.329  59.708   3
   1   8  -6 594.001  68.146   2
   0  -8  -6 49.6131 21.2643   4
   0  -8  -6 93.5096 26.4960   6
   0  -8  -6 42.9932 19.1153   1
   0  -8   6 22.4955 17.5800   1
   0   8  -6  1.9316 17.4887   2
   0   8  -6 32.8751 17.0482   3
   0   8   6 45.1006 19.0896   3
   1  -8   6 2708.76  133.23   1
  -1  -8  -6 2693.75  132.17   1
  -1  -8  -6 2510.33  134.55   6
  -1   8  -6 2696.48  131.53   3
   1   8   6 2888.88  150.53   4
  -1   8  -6 2609.09  152.80   2
   1   8   6 2863.38  134.55   3
   2  -8   6 22.8019 20.8106   1
  -2  -8  -6 35.3479 23.5334   6
  -2  -8  -6 63.2126 24.0162   1
  -2   8  -6 19.1266 25.3751   2
   2   8   6  0.9182 14.6898   3
   2   8   6 14.7086 22.6504   6
   2   8   6 18.3189 22.9072   4
  -2   8  -6 35.6377 17.1880   3
  -3  -8  -6 -9.1711 16.4682   1
   3  -8   6 12.8297 18.9033   6
  -3  -8  -6 14.3669 22.3442   6
   3  -8   6 11.2816 18.7949   1
   3   8   6 -5.7694 21.2455   6
   3   8   6 15.2368 24.4957   4
  -3   8  -6  3.7245 21.8748   2
   4  -8   6 38.7874 25.3529   1
  -4  -8  -6  0.3342 21.3779   1
   4  -8   6 79.3790 27.9834   6
   4   8   6 50.9996 32.7477   6
   4   8   6 95.1900 37.2879   4
  -4   8  -6 88.7106 32.9163   2
   5  -8   6 1603.14  107.37   1
  -5  -8  -6 1667.59  103.24   1
   5  -8   6 1509.15   99.82   6
  -5   8  -6 1700.33  119.43   2
   5   8   6 1279.18  106.02   6
   5   8   6 1467.56  115.68   4
   6  -8   6 35.6385 31.3976   6
  -6  -8  -6  6.4788 29.2012   1
   6  -8   6 15.8739 29.2138   1
   6   8   6 -25.490  29.788   6
  -6   8  -6 -29.699  30.365   2
   6   8   6 10.8332 35.0721   4
   7   8   6 -12.223  40.026   6
  -9  -9   6 88.3191 54.5671   5
  -8  -9   6 -2.7674 40.1381   5
  -7  -9   6 778.162  97.391   5
   7  -9  -6 980.011 101.703   6
  -7  -9   6 757.487  99.455   2
   7  -9  -6 808.573  92.569   4
   7   9  -6 928.904 100.456   3
  -7   9   6 1176.05  108.11   3
   6  -9  -6 754.248  83.829   6
   6  -9  -6 909.134  93.225   4
  -6  -9   6 874.462  95.847   2
  -6  -9   6 945.088  96.548   5
   6   9  -6 768.711  85.892   3
  -6   9   6 904.689  90.892   3
   5  -9  -6 1021.89   84.79   4
   5  -9  -6 1086.30   85.07   6
  -5  -9   6 1155.03  110.19   2
  -5   9   6 1236.27   91.59   3
   5   9  -6 1187.66   89.96   3
   4  -9  -6 250.307  43.694   6
   4  -9  -6 176.901  38.434   4
  -4  -9   6 198.471  44.862   2
   4  -9  -6 162.727  31.701   1
   4   9  -6 204.626  39.616   3
  -4   9   6 187.746  40.128   3
   3  -9  -6 460.989  55.741   6
   3  -9  -6 367.811  46.295   1
  -3  -9   6 331.710  54.645   2
   3  -9  -6 541.560  62.049   4
   3   9  -6 388.081  55.372   3
  -3   9   6 523.326  62.273   3
  -2  -9   6 202.432  31.085   1
   2  -9  -6 306.123  49.551   4
   2  -9  -6 306.587  40.867   1
  -2  -9   6 267.965  48.560   2
   2  -9  -6 259.007  40.373   6
   2   9  -6 331.747  47.440   3
  -2   9   6 288.288  44.444   3
   1  -9  -6 2298.13  132.41   4
  -1  -9   6 2286.27  112.75   1
   1  -9  -6 2231.15  117.68   6
   1  -9  -6 2194.31  114.92   1
   1   9  -6 2366.67  134.40   2
  -1   9   6 2255.07  123.72   3
   1   9  -6 2194.76  121.71   3
   0  -9   6 66.5934 24.3212   1
   0  -9  -6 82.3586 24.2347   1
   0  -9  -6 83.9719 27.2578   6
   0  -9  -6 58.9445 25.5243   4
   0   9  -6 75.0028 29.7181   2
   0   9   6 80.8254 25.1575   3
   0   9  -6 35.6296 19.9533   3
   1  -9   6 25.4982 19.8940   1
  -1  -9  -6 55.8685 23.5718   6
  -1  -9  -6 40.7814 21.0014   1
  -1   9  -6  1.4403 23.7334   2
   1   9   6  3.0076 22.5578   4
  -1   9  -6 18.5657 17.6054   3
   1   9   6 31.6595 19.9957   3
  -2  -9  -6 1754.11  109.29   6
   2  -9   6 1919.87  108.50   1
  -2  -9  -6 1845.29  106.75   1
   2   9   6 1851.35  117.42   6
  -2   9  -6 1824.24  101.52   3
   2   9   6 1783.91  117.65   4
   2   9   6 1935.20  105.47   3
  -2   9  -6 2041.57  127.11   2
  -3  -9  -6 976.798  91.619   6
   3  -9   6 1444.56   90.53   1
  -3  -9  -6 1256.61   84.51   1
  -3   9  -6 993.411 100.697   2
   3   9   6 1295.64   96.57   4
   3   9   6 1248.85   94.86   6
   4  -9   6 329.743  51.885   1
  -4  -9  -6 451.094  56.987   1
   4   9   6 554.757  73.426   4
  -4   9  -6 555.256  74.451   2
   4   9   6 358.634  59.617   6
   5  -9   6 -29.231  20.490   1
  -5  -9  -6 -7.9405 26.6238   1
   5  -9   6 -10.527  25.002   6
  -5   9  -6 -5.7660 30.3089   2
   5   9   6 23.4100 34.3800   4
   5   9   6 13.2920 31.4737   6
   6  -9   6 132.133  41.790   1
  -6  -9  -6 75.0838 38.5333   1
   6  -9   6 170.631  46.908   6
   6   9   6 147.357  47.650   6
  -6   9  -6 48.3038 38.9015   2
   6   9   6 127.929  47.743   4
  -9 -10   6 113.617  58.948   5
  -8 -10   6 641.359  96.620   5
   7 -10  -6 28.3116 39.3059   4
  -7 -10   6 67.2728 41.8892   5
   7  10  -6 22.8277 33.6454   3
  -7  10   6  4.4934 33.1621   3
  -6 -10   6  9.2065 32.0254   2
  -6 -10   6 -0.9579 33.9533   5
   6 -10  -6 -1.4997 29.7634   6
   6 -10  -6  4.2598 31.0199   4
   6  10  -6 10.2958 26.4881   3
  -6  10   6 -20.449  22.090   3
   5 -10  -6 349.274  57.842   4
   5 -10  -6 424.636  61.575   6
  -5 -10   6 356.926  61.606   2
   5  10  -6 264.882  52.020   3
  -5  10   6 520.339  67.994   3
  -4 -10   6 2595.68  154.09   2
   4 -10  -6 2552.89  145.38   4
   4 -10  -6 2702.32  130.48   1
   4 -10  -6 2612.18  140.65   6
  -4  10   6 2407.90  144.54   3
   4  10  -6 2266.65  140.12   3
   3 -10  -6 588.294  69.344   4
  -3 -10   6 604.449  74.246   2
   3 -10  -6 729.524  70.770   6
   3 -10  -6 665.281  63.639   1
  -3  10   6 722.383  77.686   3
   3  10  -6 634.932  72.802   3
   2 -10  -6 205.114  37.831   6
  -2 -10   6 257.549  48.466   2
  -2 -10   6 240.712  36.306   1
   2 -10  -6 248.459  39.761   1
   2 -10  -6 269.741  51.400   4
   2  10  -6 200.023  36.847   3
  -2  10   6 223.161  42.271   3
  -1 -10   6 42.2760 26.5428   2
   1 -10  -6 27.1572 22.2169   6
   1 -10  -6 70.6096 29.5423   4
   1 -10  -6 84.9762 26.2696   1
  -1 -10   6 62.6788 23.4903   1
   1  10  -6 72.1627 31.4030   2
   1  10  -6 24.8923 20.6106   3
  -1  10   6 75.9968 28.5241   3
   0 -10  -6 1630.17  104.24   4
   0 -10  -6 1602.23   97.21   6
   0 -10  -6 1661.57   97.51   1
   0 -10   6 1607.07   95.91   1
   0  10   6 1511.42  105.34   4
   0  10  -6 1767.77  112.47   2
   0  10   6 1641.93  101.30   3
   0  10  -6 1831.04  104.28   3
  -1 -10  -6 112.278  30.343   1
   1 -10   6 90.1479 29.4234   1
  -1 -10  -6 139.493  35.716   6
   1  10   6 83.3973 31.6288   4
   1  10   6 119.657  31.376   3
  -1  10  -6 106.348  27.033   3
  -1  10  -6 85.1993 36.4978   2
  -2 -10  -6 161.321  37.179   1
  -2 -10  -6 181.008  40.150   5
   2 -10   6 175.614  37.472   1
  -2 -10  -6 183.079  39.464   6
   2  10   6 209.459  44.386   4
   2  10   6 160.591  34.413   3
   2  10   6 167.257  42.282   6
  -2  10  -6 226.087  38.133   3
  -2  10  -6 253.688  53.740   2
  -3 -10  -6 33.0388 29.8565   6
  -3 -10  -6 17.6784 23.7885   1
   3 -10   6 27.4125 24.4823   1
   3  10   6 69.0707 36.0570   6
  -3  10  -6 36.1585 34.1215   2
   3  10   6 53.6542 31.7081   4
   4 -10   6 1458.20  100.74   1
  -4 -10  -6 1494.49  101.24   1
   4  10   6 1268.04  104.74   6
  -4  10  -6 1633.99  118.82   2
   4  10   6 1592.38  115.87   4
   5 -10   6 220.023  46.701   1
  -5 -10  -6 137.056  42.608   1
  -5  10  -6 277.697  63.482   2
   5  10   6 176.383  50.683   4
  -6 -10  -6 884.029  92.806   1
  -9 -11   6 -42.256  46.980   5
  -8 -11   6 92.4534 55.9097   5
  -7 -11   6 73.7944 51.1665   5
   7  11  -6 97.3000 46.4384   3
   6 -11  -6 1710.70  118.95   6
  -6 -11   6 1426.73  135.05   2
  -6 -11   6 1585.34  122.29   5
   6  11  -6 1522.07  118.22   3
  -6  11   6 1383.84  111.53   3
   5 -11  -6 52.7067 33.5279   6
  -5 -11   6 92.1690 39.8254   2
   5 -11  -6 128.422  41.440   4
  -5  11   6 55.4467 30.2578   3
   5  11  -6 97.6493 36.2684   3
   4 -11  -6 145.637  41.134   4
   4 -11  -6 102.796  30.828   1
   4 -11  -6 215.918  45.253   6
  -4 -11   6 192.525  47.861   2
  -4  11   6 177.098  41.792   3
   4  11  -6 175.642  43.948   3
   3 -11  -6  9.0836 20.1367   1
   3 -11  -6  9.1759 24.1444   6
   3 -11  -6 54.8295 30.9609   4
  -3 -11   6 73.5935 36.4895   2
   3  11  -6 15.3308 22.6546   3
  -3  11   6  7.9422 21.8143   3
   2 -11  -6 1122.36   78.73   1
   2 -11  -6 1276.42   99.66   4
  -2 -11   6 1206.01   75.44   1
  -2 -11   6 1231.54   94.43   2
   2 -11  -6 1152.84   80.95   6
   2  11  -6 1087.75   85.72   3
  -2  11   6 1019.94   84.32   3
  -1 -11   6 113.876  36.289   2
   1 -11  -6 161.712  34.928   1
  -1 -11   6 179.058  35.206   1
   1 -11  -6 210.285  38.423   6
   1 -11  -6 169.282  37.890   4
   1  11  -6 219.948  40.787   3
  -1  11   6 133.928  33.254   3
   0 -11  -6 123.774  32.098   1
   0 -11   6 90.6166 28.2318   1
   0 -11  -6 133.573  32.089   6
   0  11   6 75.0471 30.0245   3
   0  11  -6 110.733  37.985   2
   0  11  -6 110.278  32.009   3
   0  11   6 179.861  41.136   4
   1 -11   6 54.6387 26.0344   1
  -1 -11  -6 -6.4606 18.6216   1
  -1 -11  -6 18.8163 22.6273   6
  -1  11  -6 18.8611 20.2281   3
   1  11   6  1.0261 24.0987   4
   1  11   6 22.1326 19.6283   3
  -1  11  -6 -2.6915 27.3022   2
  -2 -11  -6 2666.66  141.18   6
   2 -11   6 2486.82  137.36   1
  -2 -11  -6 2390.78  133.76   5
  -2 -11  -6 2380.88  135.82   1
  -2  11  -6 2390.13  157.75   2
  -2  11  -6 2413.22  131.85   3
   2  11   6 2550.01  147.31   6
   2  11   6 2434.54  134.00   3
   2  11   6 2637.43  147.50   4
   3 -11   6 87.7089 32.9282   1
  -3 -11  -6 242.085  46.735   5
  -3 -11  -6 174.031  43.875   6
  -3 -11  -6 183.335  40.019   1
   3  11   6 163.849  42.935   4
  -3  11  -6 137.783  44.326   2
   3  11   6 71.0916 36.2745   6
   4 -11   6 675.666  77.530   1
  -4 -11  -6 567.884  71.607   1
   4  11   6 529.806  76.251   4
  -4  11  -6 739.202  93.304   2
  -5 -11  -6 30.5696 33.9681   1
   5 -11   6 36.3673 30.8963   1
   5  11   6 44.3155 38.3751   4
  -5  11  -6 -18.826  34.990   2
  -9 -12   6 370.988  86.178   5
  -8 -12   6 369.790  80.237   5
  -7 -12   6 172.731  61.595   5
   6 -12  -6 27.8767 38.0945   6
  -6 -12   6 64.7150 43.5216   5
   6  12  -6 92.8662 43.9000   3
  -6  12   6 55.6351 36.7787   3
  -5 -12   6 618.856  84.447   2
   5 -12  -6 557.435  71.645   6
  -5  12   6 503.605  71.207   3
   5  12  -6 445.396  70.410   3
   4 -12  -6 342.759  54.377   6
   4 -12  -6 364.139  54.304   1
  -4 -12   6 243.450  55.135   2
   4  12  -6 277.574  56.200   3
  -4  12   6 367.215  59.913   3
   3 -12  -6 1767.57  107.93   1
  -3 -12   6 1806.83  126.45   2
   3 -12  -6 1962.59  130.65   4
   3 -12  -6 1975.13  115.62   6
  -3  12   6 1858.05  122.60   3
   3  12  -6 1660.85  118.09   3
  -2 -12   6 -7.5883 25.4440   2
   2 -12  -6  0.8902 20.4632   1
  -2 -12   6 -19.272  17.133   1
   2 -12  -6  0.8195 19.7061   6
   2 -12  -6 42.2199 31.3724   4
  -2  12   6 24.4898 22.3965   3
   2  12  -6  0.1179 20.7787   3
   1 -12  -6 64.0155 29.3470   1
  -1 -12   6 107.078  29.773   1
  -1 -12   6 92.7304 34.8630   2
   1 -12  -6 107.528  32.314   4
   1 -12  -6 59.3430 28.2805   6
   1  12  -6 75.5571 30.6641   3
  -1  12   6 35.2189 25.8879   3
   0 -12   6 2004.56  114.97   1
   0 -12  -6 1913.94  115.36   1
   0 -12  -6 2051.45  114.46   6
   0  12  -6 1781.97  117.27   3
   0  12   6 1909.18  122.03   4
   0  12  -6 1972.51  130.52   2
   0  12   6 1987.26  121.58   3
  -1 -12  -6 596.167  66.460   6
   1 -12   6 643.234  71.939   1
  -1 -12  -6 615.100  69.522   1
   1  12   6 652.122  74.092   6
   1  12   6 747.809  80.051   4
  -1  12  -6 607.566  68.555   3
  -1  12  -6 629.907  79.702   2
   1  12   6 716.190  73.262   3
   2 -12   6 333.571  52.749   1
  -2 -12  -6 278.378  51.112   6
  -2 -12  -6 263.388  47.652   1
  -2  12  -6 209.979  41.988   3
  -2  12  -6 353.299  65.903   2
   2  12   6 328.832  50.522   3
   2  12   6 258.203  50.949   4
  -3 -12  -6 143.882  43.711   5
   3 -12   6 93.8115 37.6004   1
  -3 -12  -6 116.023  37.620   1
   3  12   6 183.927  47.655   4
  -3  12  -6 124.208  48.082   2
   4 -12   6 341.811  57.582   1
  -4 -12  -6 407.788  63.894   1
  -4  12  -6 448.402  79.625   2
   4  12   6 393.919  65.809   4
  -5 -12  -6 1216.23  109.88   1
   5  12   6 1168.36  118.64   4
  -5  12  -6 1138.31  128.47   2
  -9 -13   6 170.058  75.113   5
  -8 -13   6 11.1737 52.8874   5
  -7 -13   6 475.877  91.952   5
  -6 -13   6  9.8147 41.8389   5
   5 -13  -6 1101.72  104.90   6
  -5 -13   6 1264.01  122.32   2
  -5  13   6 1072.22  109.72   3
   5  13  -6 860.686 103.908   3
   4 -13  -6 21.0231 28.0838   1
   4 -13  -6 45.8221 30.6042   6
  -4 -13   6 25.2526 33.3117   2
   4  13  -6 20.1553 29.8323   3
  -4  13   6 20.0743 25.5531   3
   3 -13  -6 762.485  79.312   6
  -3 -13   6 728.630  88.151   2
   3 -13  -6 817.094  78.213   1
   3  13  -6 739.718  87.326   3
  -3  13   6 698.410  84.409   3
  -2 -13   6 12.0936 29.2215   2
   2 -13  -6 -3.7514 21.1550   1
   2 -13  -6 -7.1722 24.4523   6
  -2  13   6 22.3392 24.0276   3
   2  13  -6 -0.9668 22.7692   3
   1 -13  -6 2142.20  127.75   1
   1 -13  -6 2266.99  125.92   6
  -1 -13   6 2235.53  124.44   1
  -1 -13   6 2175.36  136.30   2
   1  13  -6 2341.16  138.71   3
   0 -13  -6 37.1728 29.6556   6
   0 -13   6  7.3606 24.4144   1
   0 -13  -6 36.4714 25.7545   1
   0  13   6 -5.8938 19.9725   3
   0  13  -6  1.9495 30.2061   2
   0  13  -6 18.4693 23.5868   3
   1 -13   6 43.1957 31.1443   1
  -1 -13  -6 102.976  35.192   1
  -1  13  -6 45.0859 27.1821   3
  -1  13  -6 60.9006 35.6122   2
   1  13   6 65.3749 30.4591   3
   2 -13   6 106.386  38.191   1
  -2 -13  -6 32.7811 30.0807   1
  -2  13  -6 73.7333 43.7666   2
  -2  13  -6 85.1717 31.2250   3
   2  13   6 73.7884 32.0054   3
  -3 -13  -6 1271.87  103.46   5
   3 -13   6 1526.12  108.25   1
  -3 -13  -6 1586.89  109.84   1
  -3  13  -6 1497.46  145.74   2
   3  13   6 1559.52  110.82   4
   4 -13   6  5.5379 28.9616   1
  -4 -13  -6 31.9013 33.3986   1
  -4  13  -6 -13.597  41.959   2
   4  13   6  7.2902 32.2487   4
  -9 -14   6 281.608  88.096   5
  -8 -14   6 271.240  80.866   5
  -7 -14   6 337.051  81.169   5
  -6 -14   6 41.8652 42.8910   5
   5 -14  -6 292.880  60.245   6
   4 -14  -6 139.080  44.278   6
   4 -14  -6 187.021  45.616   1
  -4 -14   6 203.865  56.033   2
  -4  14   6 131.249  44.860   3
   4  14  -6 118.441  44.144   3
   3 -14  -6 934.208  88.356   1
   3 -14  -6 1017.56   92.68   6
  -3 -14   6 815.710  95.868   2
   3  14  -6 702.889  88.878   3
  -3  14   6 971.087 104.590   3
   2 -14  -6 -6.0422 26.4620   6
   2 -14  -6 20.8783 28.4649   1
  -2 -14   6 -6.6358 28.8421   2
   2  14  -6 49.3636 28.4637   3
  -2  14   6 53.7645 31.3725   3
  -1 -14   6 327.832  51.389   1
  -1 -14   6 350.556  60.888   2
   1 -14  -6 268.828  48.850   1
   1  14  -6 222.888  48.127   3
  -1  14   6 291.967  54.815   3
   0 -14   6 485.027  63.829   1
   0 -14  -6 393.317  58.525   1
   0  14   6 379.469  60.093   3
   0  14  -6 497.053  72.847   2
   0  14  -6 496.874  68.440   3
   1 -14   6 1958.44  120.97   1
  -1 -14  -6 1711.68  114.47   1
   1  14   6 1803.40  116.98   3
  -1  14  -6 1442.16  110.17   3
  -1  14  -6 1671.54  123.98   2
   2 -14   6 252.345  52.595   1
  -2 -14  -6 320.352  56.788   1
   2  14   6 284.926  52.584   3
  -2  14  -6 153.148  49.989   2
  -2  14  -6 207.899  46.035   3
   3 -14   6  7.3743 30.1120   1
  -3 -14  -6 26.9065 34.8872   1
  -3  14  -6 -21.221  47.425   2
  -8 -15   6 11.3447 58.7876   5
  -7 -15   6 216.027  75.525   5
  -6 -15   6 453.777  88.432   5
  -4 -15   6 -30.304  35.335   2
   4 -15  -6 -15.753  29.463   1
  -3 -15   6 109.828  47.925   2
   3 -15  -6 149.550  42.825   1
   3  15  -6 174.065  49.082   3
  -3  15   6 200.988  51.370   3
  -2 -15   6 1345.44  124.52   2
   2 -15  -6 1330.54   98.10   1
   2  15  -6 1109.86  113.05   3
  -1 -15   6 467.592  62.621   1
   1 -15  -6 680.196  77.368   1
  -1 -15   6 474.120  70.720   2
   1  15  -6 606.915  77.000   3
  -1  15   6 593.559  77.148   3
   0 -15  -6 192.222  45.624   1
   0 -15   6 97.9508 42.1919   2
   0 -15   6 152.234  39.534   1
   0  15  -6 164.316  43.331   3
   0  15   6 103.197  38.699   3
   1 -15   6  2.0453 29.5627   1
  -1 -15  -6 69.1375 32.8590   1
   1  15   6 30.4185 28.2495   3
  -1  15  -6  8.5509 37.6325   2
  -1  15  -6 -5.2640 24.8026   3
   2 -15   6 829.936  93.313   1
  -2 -15  -6 927.603  98.236   1
  -2  15  -6 950.840 111.309   2
   2  15   6 1053.69  101.17   3
  -3  15  -6 238.561  69.365   2
  -8 -16   6 372.119  97.703   5
  -7 -16   6 -40.017  53.805   5
  -6 -16   6 46.1034 55.5307   5
  -3 -16   6 31.5208 40.1546   2
  -2 -16   6 120.779  48.208   2
   1 -16  -6 10.9981 29.8062   1
  -1 -16   6 -25.372  25.135   1
  -1 -16   6 -5.7248 31.9435   2
   1  16  -6 -8.2436 25.9200   3
  -1  16   6 -18.389  24.099   3
   0 -16   6 1606.70  110.84   1
   0 -16   6 1279.58  120.60   2
   0  16  -6 1264.29  121.58   3
   0  16   6 1514.25  113.09   3
   1 -16   6 20.0495 33.8283   1
  -1  16  -6  0.4401 29.8383   3
  -1  16  -6 -23.585  37.873   2
   1  16   6 50.3919 31.9487   3
   2  16   6 258.122  54.409   3
  -2  16  -6 154.192  59.014   2
  -7 -17   6 145.505  77.349   5
  -6 -17   6 349.414  90.316   5
  -1 -17   6 402.450  65.348   1
  -6 -18   6 23.5793 65.2951   5
  -6 -19   6 197.539  81.166   5
  -5 -19   6 637.259 105.745   5
  -5 -20   6 61.3730 58.5657   5
   8   0  -7 -23.190  25.231   6
   8   0  -7 34.2163 30.3957   4
  -8   0   7 -8.8492 28.3555   2
  -7   0   7 420.224  64.112   3
   7   0  -7 498.879  65.345   4
   7   0  -7 414.925  56.629   6
  -7   0   7 470.203  63.089   2
   6   0  -7 32.3160 24.7290   4
  -6   0   7 43.8810 26.4393   3
   6   0  -7  9.6794 19.6035   6
  -6   0   7 10.5235 21.2365   2
   5   0  -7 2199.84  122.62   4
   5   0  -7 2296.93  115.91   6
   5   0  -7 2003.83  122.29   3
  -5   0   7 2266.12  118.76   2
   4   0  -7 20.3580 15.8855   6
   4   0  -7 -15.273  11.904   4
  -4   0   7  1.0475 12.8146   2
   4   0  -7  9.1927 14.3557   3
   3   0  -7 590.626  46.542   6
  -3   0   7 674.524  47.915   2
   3   0  -7 630.134  49.675   4
   3   0  -7 575.312  58.297   3
   2   0  -7 2.49066 7.91192   1
   2   0  -7 24.4029 14.1948   3
  -2   0   7 6.44263 9.86680   2
   2   0  -7 -0.9256 12.3827   4
   2   0  -7 27.4043 13.5744   6
   1   0  -7 5103.71  208.02   1
   1   0  -7 5596.04  239.23   4
   1   0  -7 5314.59  224.10   3
   1   0  -7 5668.50  218.32   6
   1   0  -7 5661.93  222.11   2
   0   0  -7 18.8766 16.7301   4
   0   0  -7 12.3001 15.7272   2
   0   0  -7 38.7973 13.8935   3
   0   0  -7 41.2095 14.1269   1
   0   0  -7 32.1831 13.3506   6
  -1   0  -7 7002.10  273.59   2
  -1   0  -7 6360.89  263.96   6
   1   0   7 7010.19  288.36   4
  -1   0  -7 6932.68  263.18   1
   1   0   7 6231.07  267.81   6
   1   0   7 6806.54  262.78   3
  -2   0  -7 -5.7869 11.3015   6
   2   0   7 -11.194  11.999   4
   2   0   7 -1.3271 11.5325   6
  -2   0  -7 -11.108  10.886   2
  -2   0  -7 -7.6088 12.0264   1
   3   0   7 68.8088 22.4057   4
  -3   0  -7 27.1942 19.3116   2
   3   0   7 52.0657 21.2062   6
  -3   0  -7 48.9707 20.0766   1
   4   0   7 -0.5877 17.3731   6
   4   0   7  8.9608 19.4664   4
  -4   0  -7 -11.746  16.478   2
  -4   0  -7  1.8814 17.1704   1
  -5   0  -7 807.940  83.641   2
  -5   0  -7 792.118  74.860   1
   5   0   7 712.363  74.430   6
   5   0   7 612.846  70.256   4
  -6   0  -7  7.0592 23.7068   1
   6   0   7 -28.734  21.790   6
   6   0   7 -11.308  21.002   4
  -6   0  -7 -5.7306 26.5724   2
  -7   0  -7 1210.41  119.31   2
  -7   0  -7 1357.14   99.25   1
   7   0   7 1357.01  105.67   1
   7   0   7 1456.83  109.09   4
   8  -1  -7  0.2852 27.2902   6
   8  -1  -7  7.2138 29.2028   4
  -8  -1   7 -2.8246 28.5070   2
   8   1  -7  6.9134 27.4204   4
  -8   1   7 -4.5068 29.7192   2
   7  -1  -7 1602.48  106.44   6
  -7  -1   7 1607.31  110.14   2
  -7  -1   7 1425.91  110.28   3
   7  -1  -7 1489.64  108.36   4
   7   1  -7 1607.29  103.61   6
  -7   1   7 1634.50  110.37   2
   7   1  -7 1591.12  111.11   4
  -7   1   7 1770.89  116.64   3
   6  -1  -7 283.700  48.111   4
  -6  -1   7 334.205  50.606   2
   6  -1  -7 316.734  47.137   6
  -6   1   7 303.117  51.846   3
   6   1  -7 304.596  44.733   6
   6   1  -7 267.183  46.412   4
  -6   1   7 261.013  45.534   2
   6   1  -7 384.652  55.523   3
  -5  -1   7 541.972  59.048   2
   5  -1  -7 581.096  59.956   6
   5  -1  -7 655.115  66.830   4
   5   1  -7 690.532  66.067   4
   5   1  -7 584.762  57.074   6
  -5   1   7 631.341  71.395   3
   5   1  -7 566.499  64.553   3
  -5   1   7 655.203  62.768   2
  -4  -1   7 700.177  56.505   2
   4  -1  -7 746.792  56.332   6
   4  -1  -7 792.704  59.440   4
  -4   1   7 707.300  70.874   3
   4   1  -7 856.666  64.650   3
   4   1  -7 784.229  59.103   4
   4   1  -7 668.764  52.492   6
  -4   1   7 746.576  55.925   2
   3  -1  -7 1647.47   97.33   3
  -3  -1   7 1688.56   90.94   2
   3  -1  -7 1828.28   98.61   4
   3  -1  -7 1686.24   90.80   6
  -3   1   7 1958.95  104.31   3
  -3   1   7 1707.09   87.53   2
   3   1  -7 1907.19   89.92   6
   3   1  -7 1697.57   97.48   3
   3   1  -7 1619.39   92.79   4
   2  -1  -7 3147.68  146.80   4
   2  -1  -7 3080.63  137.13   6
   2  -1  -7 3071.38  122.76   1
  -2  -1   7 3108.91  137.53   2
   2  -1  -7 2859.87  141.93   3
  -2   1   7 3125.60  146.29   3
   2   1  -7 3266.89  133.01   6
  -2   1   7 2824.54  129.36   2
   2   1  -7 3090.93  142.87   4
   2   1  -7 3072.02  120.64   1
   2   1  -7 3013.66  142.74   3
   1  -1  -7 1388.51   68.97   1
   1  -1  -7 1359.91   85.78   4
   1  -1  -7 1388.37   75.48   6
  -1   1   7 1463.41   81.47   3
  -1   1   7 1390.26   69.93   2
   1   1  -7 1400.38   83.08   4
   1   1  -7 1355.25   70.63   6
   1   1  -7 1504.64   82.37   2
   1   1  -7 1416.61   78.05   3
   1   1  -7 1524.27   69.00   1
   0  -1  -7 87.6262 24.9751   4
   0  -1  -7 103.239  21.198   6
   0  -1  -7 123.641  26.766   2
   0  -1  -7 118.162  20.483   1
   0  -1   7 134.103  23.006   6
   0   1  -7 90.1832 27.6462   2
   0   1  -7 136.820  23.067   3
   0   1  -7 94.1088 24.4555   4
   0   1  -7 114.396  20.409   1
   0   1   7 129.313  23.402   3
   0   1  -7 103.533  18.768   6
   1  -1   7 664.643  50.319   6
  -1  -1  -7 737.784  50.947   6
   1  -1   7 871.770  58.278   4
  -1  -1  -7 718.085  49.877   1
  -1  -1  -7 766.230  53.170   2
   1   1   7 691.289  45.158   3
  -1   1  -7 631.341  43.428   3
  -1   1  -7 806.968  51.306   1
   1   1   7 646.737  52.052   6
  -1   1  -7 717.417  47.316   6
  -1   1  -7 791.593  58.464   2
   1   1   7 802.914  63.217   4
  -2  -1  -7 902.321  58.690   1
  -2  -1  -7 786.579  56.671   6
   2  -1   7 691.834  55.187   6
  -2  -1  -7 792.959  57.760   2
   2  -1   7 822.094  59.174   4
  -2   1  -7 854.808  62.553   2
  -2   1  -7 894.953  58.226   1
   2   1   7 971.535  67.416   4
   2   1   7 797.403  59.619   6
  -3  -1  -7 1279.04   82.16   2
   3  -1   7 1334.17   82.22   4
  -3  -1  -7 1391.02   82.70   1
   3  -1   7 1271.89   80.02   6
   3   1   7 1480.18   91.35   4
   3   1   7 1282.42   83.29   6
  -3   1  -7 1300.32   79.82   1
  -3   1  -7 1331.53   84.61   2
  -4  -1  -7 12.1748 20.5968   2
  -4  -1  -7 10.1405 19.3192   1
   4  -1   7 -21.653  14.461   4
   4  -1   7 -18.931  14.616   6
   4   1   7 23.0625 21.2187   6
  -4   1  -7 10.8184 17.4936   1
  -4   1  -7  4.9603 19.1707   2
   4   1   7 17.4457 22.7158   4
   5  -1   7 328.003  50.477   6
  -5  -1  -7 276.861  50.756   2
  -5  -1  -7 352.883  50.652   1
   5  -1   7 271.936  45.397   4
   5   1   7 213.980  44.620   4
  -5   1  -7 309.124  47.311   1
  -5   1  -7 287.047  51.834   2
   5   1   7 265.796  46.724   6
   6  -1   7 823.520  83.534   4
   6  -1   7 738.546  83.801   1
   6  -1   7 815.848  84.056   6
  -6  -1  -7 884.720  83.241   1
  -6  -1  -7 815.575  89.771   2
   6   1   7 637.156  77.340   6
   6   1   7 772.406  84.710   4
  -6   1  -7 754.620  77.899   1
  -6   1  -7 897.742  93.282   2
   7  -1   7 517.440  71.516   4
  -7  -1  -7 468.476  61.967   1
   7  -1   7 349.449  62.352   6
  -7  -1  -7 331.872  66.167   2
   7  -1   7 575.107  78.416   1
  -7   1  -7 447.893  74.434   2
   7   1   7 487.648  69.611   4
   7   1   7 371.285  64.600   6
  -8  -2   7 550.380  77.221   2
   8  -2  -7 489.339  70.435   4
   8  -2  -7 503.369  70.286   6
   8   2  -7 606.919  79.191   4
  -8   2   7 532.358  76.350   2
   7  -2  -7  8.6356 23.8502   6
   7  -2  -7 88.0660 32.2952   4
  -7  -2   7 100.855  36.842   2
  -7   2   7 104.772  37.961   2
   7   2  -7 89.7248 34.3318   4
  -7   2   7 103.524  39.012   3
   7   2  -7 117.783  41.287   3
   6  -2  -7 518.534  60.328   6
   6  -2  -7 559.055  67.114   4
  -6  -2   7 554.518  65.039   2
  -6   2   7 497.693  59.739   2
  -6   2   7 508.225  66.234   3
   6   2  -7 670.565  71.987   3
   6   2  -7 508.416  55.163   6
   6   2  -7 489.399  61.071   4
  -5  -2   7 300.694  45.934   2
   5  -2  -7 387.622  49.217   6
   5  -2  -7 335.882  48.321   4
  -5   2   7 420.275  56.236   3
   5   2  -7 342.590  42.543   6
   5   2  -7 285.852  46.965   3
  -5   2   7 386.913  46.555   2
   5   2  -7 428.077  50.769   4
   4  -2  -7 2137.95  111.89   4
  -4  -2   7 1858.85  103.87   2
   4  -2  -7 1821.88  101.79   6
  -4   2   7 1872.89  110.50   3
  -4   2   7 1963.33   99.40   2
   4   2  -7 1791.82  108.10   3
   4   2  -7 1906.99   96.62   6
   4   2  -7 1958.49  106.02   4
   3  -2  -7 8.22768 9.23751   1
  -3  -2   7  3.8954 12.9191   2
   3  -2  -7 20.5558 16.4966   4
   3  -2  -7 28.7243 16.6250   6
  -3   2   7 -8.7725  7.9260   2
  -3   2   7  5.4147 13.8849   3
   3   2  -7 36.6204 17.7105   4
   3   2  -7 17.2338 14.0225   3
   3   2  -7 11.3993 11.4745   6
   2  -2  -7 51.4976 18.4024   6
  -2  -2   7 34.9502 15.7780   2
   2  -2  -7 22.0951 15.7697   4
  -2  -2   7 65.2203 14.7933   1
   2  -2  -7 60.0183 13.7602   1
   2   2  -7 62.0244 15.4708   6
   2   2  -7 40.7550 16.9372   4
   2   2  -7 81.7380 22.0794   3
  -2   2   7 52.6114 13.8608   2
  -2   2   7 55.9458 19.6191   3
   1  -2  -7 552.915  37.067   1
   1  -2  -7 503.180  55.804   4
   1  -2  -7 479.893  45.556   6
  -1   2   7 533.260  50.016   3
   1   2  -7 570.772  44.151   3
   1   2  -7 398.625  45.587   4
   1   2  -7 503.577  35.625   6
  -1   2   7 504.265  33.474   2
   1   2  -7 541.952  57.857   2
   1   2  -7 518.573  35.037   1
   0  -2  -7 4266.92  174.88   2
   0  -2  -7 4129.49  170.51   1
   0  -2  -7 4144.43  175.91   6
   0  -2   7 4210.05  172.31   6
   0  -2  -7 3767.04  193.14   4
   0   2  -7 4187.79  175.16   3
   0   2  -7 3962.31  191.11   2
   0   2  -7 4035.54  167.36   1
   0   2  -7 4402.40  169.08   6
   0   2  -7 4124.44  183.57   4
   0   2   7 4249.05  176.93   3
  -1  -2  -7 316.899  36.294   2
  -1  -2  -7 319.117  38.077   6
  -1  -2  -7 319.322  37.405   1
   1  -2   7 394.369  41.314   4
   1  -2   7 346.829  38.209   6
   1   2   7 405.406  36.307   3
  -1   2  -7 371.053  46.205   2
   1   2   7 413.597  45.948   6
  -1   2  -7 423.366  38.824   6
  -1   2  -7 358.132  34.398   3
  -1   2  -7 282.059  34.475   1
   1   2   7 385.759  51.016   4
  -2  -2  -7 48.3572 18.6152   6
  -2  -2  -7 28.0540 16.8944   1
   2  -2   7 38.8122 17.4047   4
   2  -2   7 56.7916 19.6452   6
  -2  -2  -7 33.6690 17.7662   2
   2   2   7  2.3838 18.4287   4
  -2   2  -7 40.4146 17.4356   1
   2   2   7 34.7891 19.4009   6
  -2   2  -7 -8.2382 14.6983   2
  -3  -2  -7 54.4041 21.4178   2
  -3  -2  -7  3.9847 15.9336   1
   3  -2   7 20.1918 17.7636   6
   3  -2   7 32.4054 17.7232   4
   3   2   7 41.7833 22.7094   4
  -3   2  -7 40.3952 19.5989   1
   3   2   7 61.9462 23.8209   6
  -3   2  -7 23.8589 20.1599   2
   4  -2   7 2618.06  136.07   6
  -4  -2  -7 2532.80  133.99   1
  -4  -2  -7 2637.51  138.30   2
   4  -2   7 2582.13  135.68   4
  -4   2  -7 2782.09  146.47   2
   4   2   7 2915.48  143.66   6
   4   2   7 2473.24  143.89   4
  -4   2  -7 2661.66  133.51   1
   5  -2   7 313.936  49.205   6
   5  -2   7 263.613  47.819   1
  -5  -2  -7 231.136  43.682   1
   5  -2   7 288.843  45.180   4
  -5  -2  -7 339.739  53.968   2
   5   2   7 271.501  47.864   4
  -5   2  -7 258.154  44.329   1
  -5   2  -7 307.647  53.622   2
   5   2   7 360.876  53.985   6
   6  -2   7 185.318  43.353   6
   6  -2   7 186.269  43.401   4
  -6  -2  -7 181.476  47.397   2
  -6  -2  -7 228.701  46.243   1
   6  -2   7 232.382  53.212   1
   6   2   7 214.524  48.479   4
   6   2   7 211.338  47.822   6
  -6   2  -7 296.011  57.231   2
   7  -2   7 58.5239 40.0027   1
  -7  -2  -7 86.8107 37.2093   1
   7  -2   7 17.7471 28.6459   4
   7  -2   7 20.8629 31.9089   6
  -7  -2  -7 34.2185 35.0884   2
   7   2   7 30.5599 33.9710   6
  -7   2  -7  9.6347 32.6413   2
   7   2   7 72.5942 38.0227   4
   8  -3  -7 194.440  46.898   6
   8  -3  -7 263.887  54.999   4
  -8  -3   7 213.611  51.240   2
  -8   3   7 196.513  51.214   2
   8   3  -7 262.280  56.470   4
   7  -3  -7 112.943  39.270   4
  -7  -3   7 49.3497 33.3654   2
   7  -3  -7 81.5176 31.8899   6
   7   3  -7 140.278  40.836   3
  -7   3   7 73.9987 34.4012   2
   7   3  -7 76.2949 34.0031   4
  -7   3   7 110.226  37.249   3
   6  -3  -7 1428.62   96.68   6
  -6  -3   7 1474.41  102.09   2
   6  -3  -7 1611.39  105.85   4
   6   3  -7 1601.10  102.00   4
   6   3  -7 1347.40  100.44   3
  -6   3   7 1620.98  107.29   3
  -6   3   7 1495.26   98.04   2
   5  -3  -7  1.4268 18.9339   4
   5  -3  -7 49.4869 22.8193   6
  -5  -3   7 19.5312 21.8517   2
   5   3  -7 69.8245 27.9031   3
  -5   3   7 -2.3585 17.5874   3
   5   3  -7 49.3451 22.4127   4
   5   3  -7 26.5054 17.2718   6
  -5   3   7 72.2226 24.3352   2
  -4  -3   7 434.325  51.709   2
   4  -3  -7 538.185  56.039   4
   4  -3  -7 410.095  49.013   6
  -4   3   7 442.732  44.236   2
   4   3  -7 448.942  55.965   3
   4   3  -7 489.101  51.320   4
   4   3  -7 501.870  45.236   6
  -4   3   7 519.968  60.434   3
  -3  -3   7 373.962  44.891   2
   3  -3  -7 342.335  30.875   1
   3  -3  -7 346.119  42.977   6
   3  -3  -7 305.802  41.955   4
  -3   3   7 383.687  35.108   2
   3   3  -7 410.507  36.080   6
   3   3  -7 271.314  36.499   4
   3   3  -7 315.283  43.623   3
  -3   3   7 274.786  41.447   3
   2  -3  -7 2973.77  145.68   4
  -2  -3   7 2848.25  139.40   2
   2  -3  -7 2930.03  121.27   1
   2  -3  -7 2820.40  134.03   6
  -2  -3   7 2890.26  118.75   1
   2   3  -7 2870.22  138.70   3
  -2   3   7 2938.37  119.91   2
   2   3  -7 2928.41  121.40   6
  -2   3   7 2905.82  141.45   3
   2   3  -7 2917.43  134.29   4
   1  -3  -7 30.6993 15.3550   6
   1  -3  -7  8.2392 10.4177   1
  -1  -3   7 15.8259 12.1724   1
   1  -3  -7 46.5617 22.2650   4
   1   3  -7 29.6763 18.9667   2
  -1   3   7 33.8449  9.9699   2
  -1   3   7  7.1988 12.1116   3
   1   3  -7 53.5101 17.1277   3
   1   3  -7 42.5653 17.7268   4
   1   3  -7 22.4025 10.5150   6
   0  -3   7 202.334  29.525   1
   0  -3  -7 270.894  34.749   6
   0  -3  -7 267.425  32.106   1
   0  -3   7 228.667  27.851   6
   0  -3  -7 213.507  37.881   4
   0  -3  -7 230.053  26.669   2
   0   3  -7 242.009  31.388   4
   0   3  -7 288.659  31.438   1
   0   3  -7 267.523  27.951   6
   0   3  -7 291.586  48.287   2
   0   3   7 258.757  32.318   3
   0   3  -7 231.443  30.825   3
  -1  -3  -7 52.6299 19.3710   6
   1  -3   7 161.381  25.941   4
  -1  -3  -7 115.146  22.469   2
  -1  -3  -7 104.345  22.899   1
   1  -3   7 114.595  21.866   6
  -1   3  -7 117.011  21.925   1
   1   3   7 84.6138 28.1418   4
  -1   3  -7 150.686  22.778   3
   1   3   7 104.378  25.746   6
  -1   3  -7 97.5387 28.2347   2
   1   3   7 139.239  21.767   3
   2  -3   7 6331.38  260.19   6
   2  -3   7 6430.56  266.45   4
  -2  -3  -7 6410.16  264.99   6
  -2  -3  -7 6769.82  263.06   1
  -2  -3  -7 6508.49  259.65   2
  -2   3  -7 6379.81  258.68   1
   2   3   7 6308.01  287.75   4
  -2   3  -7 6370.15  273.36   2
   2   3   7 6728.68  274.17   6
   3  -3   7 287.077  36.931   4
   3  -3   7 344.185  43.913   6
   3  -3   7 283.471  43.584   1
  -3  -3  -7 277.436  38.944   2
  -3  -3  -7 215.052  35.645   1
  -3   3  -7 287.112  46.833   2
  -3   3  -7 324.552  42.213   1
   3   3   7 334.547  49.752   4
   3   3   7 315.497  46.122   6
  -4  -3  -7 114.209  30.652   2
   4  -3   7 85.6211 28.1522   6
  -4  -3  -7 107.707  30.286   1
   4  -3   7 136.160  30.382   4
   4  -3   7 180.750  36.939   1
   4   3   7 112.693  31.850   4
   4   3   7 144.161  35.302   6
  -4   3  -7 153.406  37.818   2
   5  -3   7 -23.617  20.220   1
  -5  -3  -7  5.3780 24.9888   2
   5  -3   7 11.4559 20.1747   4
  -5  -3  -7 -5.6888 21.3274   1
   5  -3   7 -32.636  19.864   6
   5   3   7 -11.753  22.904   6
   5   3   7  3.0236 20.8598   4
  -5   3  -7 -7.1777 21.4878   2
   6  -3   7 1532.77  109.43   6
   6  -3   7 1762.93  110.09   4
  -6  -3  -7 1717.98  109.24   1
  -6  -3  -7 1680.64  116.24   2
   6  -3   7 1661.80  115.67   1
   6   3   7 1631.04  116.38   6
   6   3   7 1624.83  119.32   4
  -6   3  -7 1654.22  119.19   2
  -7  -3  -7 19.1811 36.2869   2
   7  -3   7 -42.735  29.565   1
   7  -3   7 10.4566 30.8315   6
  -7  -3  -7 17.4529 28.8789   1
   7  -3   7  4.8506 28.7760   4
   7   3   7 33.3555 35.3013   6
   7   3   7 16.4342 35.3616   4
  -7   3  -7 14.8472 33.1794   2
   8  -4  -7 623.986  80.707   4
  -8  -4   7 643.541  83.392   2
   8  -4  -7 605.673  76.023   6
   8   4  -7 508.602  74.313   4
   7  -4  -7 40.1387 28.0650   6
   7  -4  -7 68.4511 33.3083   4
  -7  -4   7 45.7002 30.8508   2
  -7   4   7  8.0951 24.9676   3
   7   4  -7 53.3159 31.5976   3
   7   4  -7 32.9383 28.3076   4
   6  -4  -7 99.3519 31.4673   6
  -6  -4   7 216.152  44.805   2
   6  -4  -7 184.181  40.640   4
   6   4  -7 279.693  46.710   4
   6   4  -7 52.2433 29.1875   3
  -6   4   7 188.854  41.169   3
  -6   4   7 129.092  34.370   2
  -5  -4   7 1355.16   92.38   2
   5  -4  -7 1389.38   89.71   6
   5  -4  -7 1310.37   91.70   4
   5   4  -7 1417.67   94.08   3
  -5   4   7 1316.66   92.98   3
   5   4  -7 1334.16   86.94   4
  -5   4   7 1314.98   83.22   2
   4  -4  -7 1045.63   74.87   6
   4  -4  -7 967.799  73.540   4
  -4  -4   7 1055.45   77.73   2
   4   4  -7 1126.94   71.67   4
   4   4  -7 1134.70   79.47   3
  -4   4   7 1217.87   68.04   2
  -4   4   7 1193.89   81.32   3
   3  -4  -7 1236.18   79.89   6
   3  -4  -7 1481.81   87.58   4
  -3  -4   7 1330.12   85.50   2
   3  -4  -7 1325.88   66.95   1
  -3   4   7 1359.84   68.11   2
   3   4  -7 1448.72   86.01   3
   3   4  -7 1353.90   66.94   6
   3   4  -7 1341.28   77.07   4
  -3   4   7 1358.39   86.11   3
   2  -4  -7 161.397  24.194   1
  -2  -4   7 165.111  21.619   1
   2  -4  -7 181.197  30.738   6
   2  -4  -7 107.584  28.145   4
  -2  -4   7 130.252  30.900   2
   2   4  -7 159.377  29.197   3
  -2   4   7 129.302  29.243   3
   2   4  -7 157.770  25.221   4
   2   4  -7 166.474  19.812   6
  -1  -4   7 1684.81   79.97   1
  -1  -4   7 1570.70   74.53   6
   1  -4  -7 1535.52   79.16   1
   1  -4  -7 1606.94   87.68   6
   1  -4  -7 1575.99  101.83   4
  -1   4   7 1673.14   90.00   3
   1   4  -7 1504.89   86.52   3
   1   4  -7 1306.48   94.97   2
   1   4  -7 1625.94   71.90   6
   1   4  -7 1709.38   86.42   4
   0  -4  -7 1111.01   69.92   6
   0  -4   7 1248.26   69.76   1
   0  -4  -7 1152.55   82.17   4
   0  -4   7 1153.22   61.22   6
   0  -4  -7 1151.08   66.27   1
   0   4  -7 1101.02   58.97   6
   0   4  -7 1142.75   83.94   2
   0   4  -7 1146.01   67.13   3
   0   4   7 1164.99   68.34   3
   0   4  -7 1144.35   63.13   4
  -1  -4  -7 518.269  50.460   1
  -1  -4  -7 633.868  58.637   6
   1  -4   7 621.487  44.577   6
   1  -4   7 699.201  52.473   1
   1  -4   7 599.966  41.472   4
   1   4   7 593.299  69.071   4
   1   4   7 542.295  41.479   3
   1   4   7 665.475  62.905   6
  -1   4  -7 672.818  45.125   3
  -1   4  -7 709.972  71.003   2
  -2  -4  -7  8.4536 14.6304   1
  -2  -4  -7  5.3418 13.3431   2
   2  -4   7  7.0524 14.1078   6
   2  -4   7  4.9857 11.3490   4
   2  -4   7  5.3782 16.2680   1
  -2  -4  -7 -5.9767 13.2926   6
   2   4   7  3.5560 17.6181   6
  -2   4  -7  8.2385 18.1332   2
   2   4   7  3.3526 18.7034   4
   2   4   7 10.1853 10.7719   3
  -3  -4  -7 730.228  55.223   2
   3  -4   7 658.829  48.685   4
  -3  -4  -7 596.386  60.114   1
   3  -4   7 638.517  60.917   6
   3  -4   7 486.229  59.659   1
   3   4   7 601.356  66.958   6
  -3   4  -7 571.378  65.381   2
   3   4   7 618.024  70.844   4
  -4  -4  -7 1784.44  107.30   2
   4  -4   7 2305.35  111.13   4
  -4  -4  -7 1886.03  109.65   1
   4  -4   7 1894.51  115.16   1
   4  -4   7 1916.05  110.63   6
   4   4   7 2105.28  127.66   4
  -4   4  -7 1742.53  116.10   2
   4   4   7 1977.14  119.47   6
  -5  -4  -7 857.369  79.247   1
   5  -4   7 1044.28   73.89   4
   5  -4   7 875.562  81.013   6
  -5  -4  -7 831.783  82.720   2
   5  -4   7 812.103  84.324   1
   5   4   7 840.190  86.261   6
   5   4   7 703.696  83.041   4
  -5   4  -7 892.666  91.296   2
   6  -4   7 195.880  45.870   1
  -6  -4  -7 241.670  51.004   2
  -6  -4  -7 231.160  45.004   1
   6  -4   7 142.907  40.780   6
  -6   4  -7 156.073  47.686   2
   6   4   7 267.540  58.044   4
   6   4   7 280.965  55.075   6
   7  -4   7 -0.6240 30.8781   6
  -7  -4  -7 -21.446  31.171   1
   7  -4   7 14.4017 34.0070   1
  -7  -4  -7 -6.9626 35.7224   2
   7   4   7 66.0285 40.5999   6
   8  -5  -7 28.6822 35.2520   4
   8  -5  -7  1.3417 30.1995   6
  -8  -5   7 15.4690 33.3928   2
   8   5  -7 68.1743 38.8048   4
   7  -5  -7 1709.19  117.97   6
  -7  -5   7 1685.60  122.72   2
   7  -5  -7 1946.00  127.21   4
   7   5  -7 1827.36  122.40   4
   7   5  -7 1878.29  124.24   3
  -7   5   7 2019.08  128.28   3
  -6  -5   7 112.593  34.480   5
   6  -5  -7 36.3103 23.8421   6
  -6  -5   7 70.9026 32.5252   2
   6  -5  -7 64.3390 28.0287   4
  -6   5   7 57.2205 28.0297   3
   6   5  -7 42.8944 25.8941   3
   6   5  -7 53.5714 28.1633   4
   5  -5  -7 930.701  72.028   6
   5  -5  -7 824.541  78.863   4
  -5  -5   7 771.530  80.355   2
  -5   5   7 847.671  82.087   3
   5   5  -7 810.042  65.164   4
   5   5  -7 967.414  76.400   3
  -4  -5   7  4.6846 19.1199   2
   4  -5  -7 -1.2582 16.3490   6
   4  -5  -7  9.4974 19.2230   4
  -4   5   7 14.4937 17.8890   3
   4   5  -7 27.9930 19.9664   3
   4   5  -7 19.0123 16.4228   4
   3  -5  -7 3334.98  153.99   6
   3  -5  -7 3268.94  135.13   1
  -3  -5   7 3274.72  160.76   2
   3  -5  -7 3087.14  158.47   4
   3   5  -7 3290.92  147.18   4
   3   5  -7 2967.19  153.18   3
  -3   5   7 3118.98  156.73   3
   2  -5  -7 70.2147 21.2909   6
  -2  -5   7 89.3761 27.2358   2
   2  -5  -7 82.8163 25.4588   4
   2  -5  -7 94.6044 20.1186   1
  -2  -5   7 50.7720 14.3308   1
  -2   5   7 87.3105 24.3259   3
   2   5  -7 66.9152 20.9519   3
   2   5  -7 49.1826 16.0972   4
   1  -5  -7 3133.41  165.27   4
  -1  -5   7 3107.59  133.26   1
   1  -5  -7 3069.02  134.83   1
   1  -5  -7 2765.30  140.53   6
  -1   5   7 3075.59  146.22   3
   1   5  -7 3218.02  140.90   4
   1   5  -7 3214.23  144.85   3
   1   5  -7 2874.45  158.06   2
   0  -5  -7 17.3348 13.7780   1
   0  -5   7 44.5432 14.2995   4
   0  -5   7 35.8609 17.8605   1
   0  -5  -7 14.6139 15.2399   6
   0  -5  -7 39.5390 21.8016   4
   0  -5   7 30.6155 12.8214   6
   0   5   7 30.9099 16.0841   3
   0   5  -7 43.7841 26.4959   2
   0   5  -7 41.3770 15.2335   3
  -1  -5  -7 993.585  67.128   6
   1  -5   7 919.344  63.384   1
   1  -5   7 884.857  55.302   6
   1  -5   7 899.931  51.482   4
  -1  -5  -7 999.723  63.160   1
  -1   5  -7 941.432  57.763   3
   1   5   7 1019.45   80.85   4
   1   5   7 738.668  72.226   6
   1   5   7 882.298  56.739   3
  -1   5  -7 947.506  86.880   2
   2  -5   7 238.299  38.408   1
  -2  -5  -7 194.819  32.303   1
   2  -5   7 228.213  33.071   6
  -2  -5  -7 172.966  34.538   6
   2  -5   7 193.014  25.723   4
   2   5   7 161.062  25.682   3
   2   5   7 145.691  36.946   4
   2   5   7 218.566  39.829   6
  -2   5  -7 216.433  41.509   2
   3  -5   7 1165.14   79.11   1
  -3  -5  -7 1130.48   79.12   6
   3  -5   7 1071.02   71.68   6
  -3  -5  -7 1042.09   74.05   1
  -3   5  -7 1154.51   84.71   2
   3   5   7 1145.84   84.42   6
   3   5   7 1015.41   85.61   4
   4  -5   7  4.0374 20.0934   6
   4  -5   7 17.3818 22.5962   1
  -4  -5  -7  1.6624 19.8968   1
  -4   5  -7 -5.1369 20.8112   2
   4   5   7 -20.432  17.350   4
   4   5   7 35.7603 24.9714   6
   5  -5   7 958.947  90.017   1
   5  -5   7 867.989  83.203   6
  -5  -5  -7 971.820  75.278   1
  -5   5  -7 818.775  90.268   2
   5   5   7 1008.32   99.45   4
   5   5   7 852.844  90.467   6
   6  -5   7 100.602  38.488   6
  -6  -5  -7 125.930  37.692   1
   6  -5   7 126.889  39.600   1
  -6   5  -7 51.3298 36.0736   2
   6   5   7 104.555  41.600   6
   6   5   7 123.861  40.655   4
   7  -5   7 1394.00  122.90   1
   7  -5   7 1202.26  111.54   6
   8   6  -7 471.506  72.185   4
   7  -6  -7 -15.565  25.781   4
   7  -6  -7 -8.1654 24.2905   6
  -7  -6   7 81.5258 37.3571   2
  -7  -6   7 -16.909  27.813   5
  -7   6   7 -1.6387 23.1510   3
   7   6  -7 -19.906  25.677   4
   7   6  -7 -16.208  26.312   3
  -6  -6   7 36.1343 26.7937   2
   6  -6  -7 49.8545 29.1850   4
   6  -6  -7 22.1971 24.5260   6
  -6  -6   7 40.6773 29.2729   5
   6   6  -7 34.1477 26.2945   4
  -6   6   7 22.0544 23.2338   3
   6   6  -7  2.5954 21.6720   3
  -5  -6   7 2715.09  157.78   2
   5  -6  -7 3065.74  154.44   6
   5  -6  -7 3065.35  159.90   4
   5   6  -7 3092.04  150.99   4
   5   6  -7 2767.02  154.87   3
  -5   6   7 2812.77  156.51   3
  -4  -6   7 546.717  64.586   2
   4  -6  -7 509.290  60.242   4
   4  -6  -7 414.251  53.804   6
   4   6  -7 554.585  62.958   3
  -4   6   7 673.359  70.328   3
   4   6  -7 566.721  53.699   4
  -3  -6   7 4001.37  183.00   2
   3  -6  -7 3267.16  173.79   4
   3  -6  -7 3657.08  153.23   1
   3  -6  -7 3531.81  168.66   6
   3   6  -7 3597.29  161.00   4
   3   6  -7 3672.41  173.89   3
  -3   6   7 3637.85  174.91   3
  -2  -6   7 112.240  20.233   1
   2  -6  -7 119.372  28.159   6
   2  -6  -7 115.944  29.002   4
  -2  -6   7 67.6657 27.0882   2
   2  -6  -7 85.7709 21.8250   1
   2   6  -7 110.530  26.468   3
  -2   6   7 82.5338 25.1893   3
  -1  -6   7 580.813  43.845   1
   1  -6  -7 589.130  52.712   1
   1  -6  -7 543.072  54.695   6
   1  -6  -7 609.984  71.725   4
   1   6  -7 570.828  56.816   3
  -1   6   7 621.436  60.228   3
   1   6  -7 654.589  73.915   2
   0  -6  -7 790.165  61.753   6
   0  -6  -7 1066.74   77.26   4
   0  -6  -7 867.251  59.426   1
   0  -6   7 903.355  60.508   1
   0   6  -7 860.175  84.674   2
   0   6  -7 954.288  62.274   3
   0   6   7 834.265  59.508   3
  -1  -6  -7 240.345  35.558   1
   1  -6   7 328.641  33.595   6
  -1  -6  -7 195.542  35.062   6
   1  -6   7 329.008  41.959   1
   1   6   7 291.572  36.528   3
   1   6   7 357.561  53.340   4
  -1   6  -7 207.194  31.196   3
  -1   6  -7 305.220  52.302   2
   1   6   7 327.857  47.543   6
   2  -6   7 11.9750 18.5816   1
   2  -6   7 16.9746 16.1843   6
  -2  -6  -7 17.9408 17.8611   1
  -2  -6  -7 18.6163 20.0344   6
   2   6   7  9.0510 13.3494   3
  -2   6  -7 16.6671 20.9662   2
   2   6   7 -4.1254 21.3381   4
   2   6   7 -24.288  15.944   6
  -3  -6  -7 1690.28   98.91   1
   3  -6   7 1784.43   96.51   6
  -3  -6  -7 1785.39  105.77   6
   3  -6   7 1738.97  102.93   1
   3   6   7 1765.45  111.04   6
  -3   6  -7 1570.59  107.14   2
   3   6   7 1405.88  108.70   4
  -4  -6  -7 852.218  76.880   1
   4  -6   7 688.743  74.808   1
   4  -6   7 861.674  67.414   6
  -4   6  -7 764.571  83.026   2
   4   6   7 772.329  86.063   4
   4   6   7 705.573  79.480   6
   5  -6   7 1348.05   95.60   6
   5  -6   7 1547.63  104.64   1
  -5  -6  -7 1497.16   97.74   1
  -5   6  -7 1363.89  108.62   2
   5   6   7 1317.98  107.55   4
   5   6   7 1627.63  113.53   6
  -6  -6  -7 77.9815 34.6819   1
   6  -6   7 116.538  40.408   6
   6  -6   7 117.908  40.826   1
   6   6   7 143.765  47.555   6
   6   6   7 138.059  48.781   4
  -6   6  -7 109.526  41.717   2
  -7  -7   7 285.085  59.036   2
   7  -7  -7 275.554  54.912   4
  -7  -7   7 267.769  55.037   5
   7  -7  -7 266.793  55.568   6
  -7   7   7 315.136  60.525   3
   7   7  -7 319.217  59.201   3
   6  -7  -7 1633.46  110.51   6
   6  -7  -7 1542.56  110.00   4
  -6  -7   7 1553.21  107.58   5
  -6  -7   7 1693.43  118.69   2
  -6   7   7 1638.26  113.07   3
   6   7  -7 1615.91  112.41   3
  -5  -7   7  5.6128 22.7990   2
   5  -7  -7  8.1411 22.3135   4
   5  -7  -7 19.3713 24.0526   6
  -5   7   7 -2.1312 18.5809   3
   5   7  -7 -26.534  15.798   3
   4  -7  -7 21.6487 21.0187   4
  -4  -7   7 42.6846 26.9514   2
   4  -7  -7 53.6386 25.0196   6
  -4   7   7 15.3141 19.2527   3
   4   7  -7 14.6348 17.9987   3
   3  -7  -7 1467.67   98.95   4
   3  -7  -7 1658.39   96.30   6
  -3  -7   7 1493.14  102.73   2
   3  -7  -7 1614.30   84.55   1
   3   7  -7 1592.43   97.69   3
  -3   7   7 1511.44   98.57   3
  -2  -7   7 868.843  53.506   1
   2  -7  -7 849.306  81.117   4
   2  -7  -7 981.231  60.774   1
   2  -7  -7 802.539  63.684   6
  -2  -7   7 747.069  80.807   2
   2   7  -7 900.174  66.655   3
  -2   7   7 876.507  68.077   3
   1  -7  -7 852.025  87.398   4
  -1  -7   7 890.958  58.646   1
   1  -7  -7 965.165  67.592   6
   1  -7  -7 813.054  58.788   1
   1   7  -7 927.350  66.694   3
   1   7  -7 1048.59   82.71   2
  -1   7   7 1011.47   69.28   3
   0  -7  -7 194.558  35.855   6
   0  -7   7 179.711  31.579   1
   0  -7  -7 174.739  31.353   1
   0  -7  -7 166.213  36.721   4
   0   7  -7 256.615  36.124   3
   0   7  -7 215.262  44.755   2
   0   7   7 178.402  31.807   3
   1  -7   7 19.8651 17.8810   1
  -1  -7  -7 62.9389 25.6256   6
  -1  -7  -7 48.1322 20.9991   1
  -1   7  -7 29.3053 15.4697   3
  -1   7  -7 -8.7656 22.1520   2
   1   7   7  8.8618 15.0012   3
   1   7   7 34.5586 25.1662   4
   2  -7   7 3171.49  139.25   6
   2  -7   7 2944.25  149.88   1
  -2  -7  -7 3025.22  148.24   1
  -2  -7  -7 3222.61  157.82   6
   2   7   7 2967.46  143.08   3
   2   7   7 3077.77  170.23   4
   2   7   7 3112.66  163.52   6
  -2   7  -7 3112.36  166.84   2
   3  -7   7 45.0665 23.4190   6
  -3  -7  -7 57.8286 25.9547   1
  -3  -7  -7 73.7324 30.4045   6
   3  -7   7 31.9952 20.3291   1
  -3   7  -7 26.3845 25.8984   2
   3   7   7 37.9185 29.7857   6
   3   7   7 90.6357 35.7010   4
   4  -7   7 69.9411 29.9334   1
  -4  -7  -7 32.0097 26.2948   1
   4  -7   7 19.6569 22.4011   6
   4   7   7 73.3282 34.7887   4
   4   7   7 12.7617 27.5063   6
  -4   7  -7 50.0829 33.2542   2
   5  -7   7 203.476  44.269   6
   5  -7   7 249.616  50.216   1
  -5  -7  -7 159.810  39.108   1
   5   7   7 223.555  50.375   4
   5   7   7 136.604  43.617   6
  -5   7  -7 141.373  45.338   2
  -6  -7  -7 963.074  93.126   1
   6  -7   7 933.168  94.016   1
   6  -7   7 978.969  96.657   6
  -6   7  -7 1073.24  114.31   2
   6   7   7 1096.66  109.97   6
   6   7   7 772.968 100.928   4
  -8  -8   7 671.571  92.056   5
   7  -8  -7 27.6287 31.4590   4
   7  -8  -7 -2.9419 30.7890   6
  -7  -8   7  9.7305 30.8116   2
  -7  -8   7 29.9863 32.5713   5
  -7   8   7  5.2741 26.9792   3
   7   8  -7  8.6082 30.1705   3
   6  -8  -7 351.334  60.375   4
  -6  -8   7 245.093  55.699   2
   6  -8  -7 210.037  47.013   6
  -6  -8   7 250.897  52.903   5
  -6   8   7 307.080  55.216   3
   6   8  -7 372.128  60.969   3
   5  -8  -7 22.1351 24.1393   6
   5  -8  -7 -26.909  17.773   4
  -5  -8   7 -1.2310 24.5813   2
   5   8  -7 19.1710 22.8817   3
  -5   8   7  3.1662 21.9023   3
  -4  -8   7 1646.30  114.73   2
   4  -8  -7 1480.06  103.83   4
   4  -8  -7 1684.14  104.07   6
   4   8  -7 1618.28  105.54   3
  -4   8   7 1671.14  107.03   3
  -3  -8   7  6.1175 21.2514   2
   3  -8  -7 24.0014 20.6373   4
   3  -8  -7  9.1933 19.5907   6
   3  -8  -7 -0.8556 14.6058   1
  -3   8   7 17.9233 18.6863   3
   3   8  -7 13.3863 17.0258   3
   2  -8  -7 221.524  37.301   6
  -2  -8   7 246.938  33.580   1
   2  -8  -7 317.930  40.021   1
  -2  -8   7 292.210  51.892   2
   2  -8  -7 271.158  48.757   4
   2   8  -7 234.876  40.242   3
  -2   8   7 281.363  43.716   3
   1  -8  -7  4.2883 21.6262   4
  -1  -8   7 37.6081 18.0099   1
   1  -8  -7 31.0239 18.0604   1
   1  -8  -7 -12.829  15.881   6
  -1   8   7  6.4653 16.5593   3
   1   8  -7 26.0850 26.2588   2
   1   8  -7 27.4557 16.9143   3
   0  -8  -7 4611.32  206.67   1
   0  -8  -7 4755.87  229.17   4
   0  -8   7 4939.76  206.57   1
   0  -8  -7 4782.55  213.83   6
   0   8   7 4737.91  213.40   3
   0   8  -7 4955.39  213.49   3
   0   8  -7 4981.63  231.29   2
   1  -8   7 69.1148 25.4163   1
  -1  -8  -7 65.3934 22.7937   1
  -1  -8  -7 73.4914 26.8834   6
   1   8   7 43.2540 27.2885   4
  -1   8  -7 72.2853 35.9015   2
   1   8   7 88.4555 25.4583   3
  -1   8  -7 45.9668 18.9525   3
   2  -8   7  8.3794 19.4598   1
  -2  -8  -7 10.7690 16.9289   1
  -2  -8  -7 33.5548 24.5513   6
   2   8   7 -2.4331 15.3942   3
   2   8   7 -1.8333 22.8581   6
  -2   8  -7  5.1864 25.3120   2
   2   8   7  0.8524 24.2338   4
  -3  -8  -7 -9.5328 19.3917   1
   3  -8   7 10.7146 21.5760   1
  -3  -8  -7 10.3794 25.0347   6
   3   8   7  5.1301 25.9772   4
  -3   8  -7 37.7602 28.5212   2
   3   8   7  1.5922 24.4128   6
  -4  -8  -7 2065.07  117.44   1
   4  -8   7 1742.72  115.12   1
   4  -8   7 2071.55  112.87   6
   4   8   7 1676.60  127.44   4
   4   8   7 2102.28  131.42   6
  -4   8  -7 1843.56  127.67   2
   5  -8   7 40.5514 29.1419   1
   5  -8   7 40.5779 30.9992   6
  -5  -8  -7 28.6276 28.5700   1
   5   8   7 60.6558 37.1094   6
  -5   8  -7 -14.314  31.215   2
   5   8   7 -0.6568 29.2224   4
   6  -8   7 103.910  40.658   6
  -6  -8  -7 94.1651 39.4521   1
   6  -8   7 128.931  40.442   1
   6   8   7 70.1590 44.3597   6
  -6   8  -7 67.4041 42.7958   2
   6   8   7 52.3617 40.7600   4
  -8  -9   7 40.0081 45.6324   5
  -7  -9   7 509.592  76.315   5
   7  -9  -7 296.469  58.616   6
   7  -9  -7 482.862  76.462   4
   7   9  -7 274.926  58.647   3
  -7   9   7 386.899  65.129   3
   6  -9  -7 440.282  66.923   4
   6  -9  -7 373.966  60.436   6
  -6  -9   7 374.030  66.910   2
   6   9  -7 350.960  60.619   3
  -6   9   7 376.069  63.481   3
   5  -9  -7 64.9303 29.7452   6
   5  -9  -7 57.3233 32.8151   4
  -5  -9   7 33.5006 30.3250   2
   5   9  -7 144.524  39.355   3
  -5   9   7 62.1321 29.7830   3
  -4  -9   7 535.248  75.218   2
   4  -9  -7 699.833  73.194   6
   4  -9  -7 672.186  74.722   4
  -4   9   7 602.836  70.465   3
   4   9  -7 559.491  70.210   3
   3  -9  -7 1114.31   85.70   4
  -3  -9   7 1019.73   98.14   2
   3  -9  -7 1049.24   78.63   6
   3  -9  -7 1144.27   73.00   1
   3   9  -7 870.321  85.496   3
  -3   9   7 1249.17   87.37   3
   2  -9  -7 2748.74  142.02   6
  -2  -9   7 3057.32  163.24   2
  -2  -9   7 2905.17  130.89   1
   2  -9  -7 2832.60  161.45   4
   2  -9  -7 2816.87  135.78   1
   2   9  -7 2627.67  146.60   3
  -2   9   7 2638.23  147.37   3
  -1  -9   7 741.088  56.709   1
   1  -9  -7 741.876  66.484   1
   1  -9  -7 739.799  78.550   4
   1  -9  -7 654.676  66.737   6
   1   9  -7 612.335  76.156   2
  -1   9   7 787.917  73.088   3
   1   9  -7 810.903  74.933   3
   0  -9  -7  1.9644 16.5880   1
   0  -9   7 -8.9181 15.9703   1
   0  -9  -7 21.9978 22.4345   4
   0  -9  -7  9.5925 17.7577   6
   0   9  -7 -11.403  13.528   3
   0   9   7  4.9567 16.9049   3
   0   9  -7 11.2989 25.2122   2
  -1  -9  -7 306.250  45.271   1
   1  -9   7 372.361  48.789   1
  -1  -9  -7 354.488  49.669   6
   1   9   7 444.302  60.648   4
  -1   9  -7 444.369  51.693   3
  -1   9  -7 381.488  63.695   2
   1   9   7 310.444  44.804   3
   2  -9   7 1532.94   93.50   1
  -2  -9  -7 1543.97   92.48   1
  -2  -9  -7 1184.73   91.12   6
  -2   9  -7 1189.44  115.21   2
   2   9   7 1336.54   86.08   3
   2   9   7 1264.14   99.36   6
   2   9   7 1535.18  105.78   4
  -3  -9  -7 485.303  61.476   1
   3  -9   7 557.482  64.481   1
  -3  -9  -7 452.246  63.503   6
  -3   9  -7 460.543  70.622   2
   3   9   7 557.894  74.326   4
   3   9   7 441.554  66.420   6
   4  -9   7 12.3808 21.3212   1
  -4  -9  -7  9.2871 24.3598   1
   4   9   7 58.3428 34.8977   6
   4   9   7  4.6034 31.2990   4
  -4   9  -7 -0.1561 28.6141   2
   5  -9   7 124.964  38.806   1
  -5  -9  -7 123.940  38.477   1
  -5   9  -7 229.537  58.299   2
   5   9   7 28.2721 36.3092   6
   5   9   7 173.874  51.314   4
  -6  -9  -7 1049.18   98.06   1
   6   9   7 738.341  98.545   6
  -9 -10   7 757.141 108.637   5
  -8 -10   7 -1.7104 40.8399   5
   7 -10  -7 113.248  46.267   4
  -7 -10   7 128.197  49.247   5
   7  10  -7 49.8728 41.5691   3
  -7  10   7 62.2706 39.7352   3
   6 -10  -7 110.158  42.942   6
  -6 -10   7 95.2772 43.6639   2
   6 -10  -7 112.667  41.870   4
  -6  10   7 75.5298 34.5151   3
   6  10  -7 50.0608 31.8779   3
   5 -10  -7 1550.87  106.36   6
   5 -10  -7 1449.04  108.48   4
  -5 -10   7 1449.59  115.86   2
  -5  10   7 1427.20  106.70   3
   5  10  -7 1399.52  106.86   3
  -4 -10   7 204.051  52.332   2
   4 -10  -7 390.889  56.511   6
   4 -10  -7 435.582  63.355   4
  -4  10   7 482.846  65.091   3
   4  10  -7 369.565  56.198   3
   3 -10  -7 600.167  65.749   6
  -3 -10   7 402.371  65.986   2
   3 -10  -7 527.793  68.297   4
   3 -10  -7 571.325  59.813   1
   3  10  -7 512.825  64.813   3
  -3  10   7 532.507  66.097   3
   2 -10  -7 -12.574  27.898   4
   2 -10  -7 20.4883 21.1759   6
   2 -10  -7 -0.0749 19.1106   1
  -2 -10   7 -17.161  14.929   1
  -2 -10   7 14.7571 25.8845   2
   2  10  -7 -1.6834 16.1732   3
  -2  10   7 29.4518 22.8323   3
  -1 -10   7 1776.88   98.76   1
   1 -10  -7 1608.83  110.87   4
   1 -10  -7 1775.10  102.63   1
   1 -10  -7 1765.80  105.02   6
  -1 -10   7 1838.32  117.26   2
   1  10  -7 1722.54  107.12   3
  -1  10   7 1640.46  106.86   3
   1  10  -7 1876.81  120.55   2
   0 -10  -7 82.7567 28.6508   6
   0 -10   7 120.457  32.287   1
   0 -10  -7 125.516  31.490   1
   0  10  -7 167.437  34.249   3
   0  10   7 72.5273 28.7720   3
   0  10   7 78.1652 34.2595   4
   0  10  -7 110.705  36.805   2
  -1 -10  -7 2260.46  126.81   6
  -1 -10  -7 2295.96  125.44   1
   1 -10   7 2326.77  124.67   1
  -1  10  -7 2302.44  124.28   3
   1  10   7 2053.48  129.79   6
  -1  10  -7 2063.28  139.42   2
   1  10   7 2317.22  136.80   4
   1  10   7 2189.32  123.49   3
  -2 -10  -7 152.295  36.146   1
  -2 -10  -7 125.398  38.257   6
   2 -10   7 167.253  38.235   1
  -2  10  -7 103.554  42.000   2
   2  10   7 152.229  33.990   3
   2  10   7 164.502  46.145   6
   2  10   7 114.113  39.507   4
  -3 -10  -7 137.876  35.165   1
   3 -10   7  8.9917 22.3424   1
  -3 -10  -7 59.6891 33.8346   6
   3  10   7 98.4705 37.8171   4
   3  10   7 134.214  43.050   6
  -3  10  -7 90.6592 40.1699   2
  -4 -10  -7 227.197  46.746   1
   4 -10   7 305.637  51.289   1
   4  10   7 455.091  71.746   4
  -4  10  -7 342.999  66.089   2
   4  10   7 323.174  62.210   6
  -5 -10  -7 603.143  74.973   1
   5 -10   7 627.486  76.266   1
   5  10   7 532.131  80.018   6
  -5  10  -7 532.836  85.569   2
   5  10   7 583.405  85.704   4
  -9 -11   7 -32.939  50.735   5
  -8 -11   7 22.6983 49.2416   5
  -7 -11   7 1470.01  140.08   5
   6 -11  -7 77.3052 41.7353   4
   6 -11  -7 95.3490 43.1079   6
  -6 -11   7 71.8371 43.1888   2
   6  11  -7 71.2607 38.8304   3
  -6  11   7 115.304  42.640   3
   5 -11  -7 688.546  80.976   6
  -5 -11   7 528.523  80.454   2
   5 -11  -7 658.901  82.689   4
   5  11  -7 535.039  74.813   3
  -5  11   7 482.934  71.261   3
   4 -11  -7 104.433  34.778   6
  -4 -11   7 76.8026 40.3078   2
   4 -11  -7 32.1447 26.9489   1
   4 -11  -7 73.1143 37.0980   4
  -4  11   7 63.5476 30.5454   3
   4  11  -7 75.1242 31.9210   3
  -3 -11   7 1271.58  102.38   2
   3 -11  -7 1188.83   84.09   1
   3 -11  -7 1329.90  104.05   4
   3 -11  -7 1242.12   89.83   6
  -3  11   7 1228.33   96.35   3
   3  11  -7 1435.03  102.59   3
   2 -11  -7 322.036  47.992   1
   2 -11  -7 272.328  46.538   6
   2 -11  -7 392.713  64.072   4
  -2 -11   7 358.346  59.482   2
  -2  11   7 291.221  50.261   3
   2  11  -7 325.452  52.012   3
   1 -11  -7 770.842  75.821   6
   1 -11  -7 870.516  80.179   1
  -1 -11   7 944.328  92.768   2
   1 -11  -7 953.331  79.032   4
  -1 -11   7 989.657  71.105   1
   1  11  -7 915.764  86.202   3
  -1  11   7 858.498  84.018   3
   0 -11  -7 43.3880 25.9103   6
   0 -11   7 46.3418 24.1854   1
   0 -11  -7 27.9764 24.2066   1
   0  11  -7 78.5001 28.1145   3
   0  11   7 43.4982 31.1084   4
   0  11  -7 44.2539 31.8058   2
   0  11   7 22.1084 22.6362   3
   1 -11   7 1017.43   79.55   1
  -1 -11  -7 1111.26   82.19   6
  -1 -11  -7 821.140  81.052   1
   1  11   7 1061.56   80.42   3
  -1  11  -7 1068.57   79.26   3
  -1  11  -7 789.540  92.907   2
   1  11   7 1023.17   97.46   4
   1  11   7 1080.09   97.49   6
   2 -11   7 102.445  34.003   1
  -2 -11  -7 137.698  40.950   6
  -2 -11  -7 107.673  33.216   1
   2  11   7 227.400  50.645   6
   2  11   7 151.224  35.833   3
   2  11   7 160.601  43.686   4
  -2  11  -7 139.723  45.149   2
   3 -11   7 1316.10   97.49   1
  -3 -11  -7 1256.94  100.22   6
  -3 -11  -7 1267.21   94.40   1
  -3  11  -7 1339.76  129.57   2
   3  11   7 1394.80  105.83   4
   3  11   7 1345.61  106.40   6
   4 -11   7 45.1119 29.7094   1
  -4 -11  -7  2.5846 31.0328   1
   4  11   7 29.3824 35.7252   4
  -4  11  -7  1.4650 34.2460   2
   4  11   7 -8.2437 32.5549   6
  -5 -11  -7 287.122  57.768   1
   5  11   7 333.433  67.865   4
  -9 -12   7 561.897 104.946   5
  -8 -12   7 450.647  87.860   5
  -7 -12   7 168.492  60.273   5
   5 -12  -7 388.515  65.588   6
  -5 -12   7 405.414  74.116   2
   5  12  -7 486.936  77.051   3
  -5  12   7 484.960  73.535   3
   4 -12  -7 840.052  93.648   4
  -4 -12   7 717.316  91.585   2
   4 -12  -7 717.087  74.021   1
   4 -12  -7 885.597  88.846   6
   4  12  -7 888.799  96.515   3
  -4  12   7 597.008  77.341   3
  -3 -12   7 41.1779 33.1637   2
   3 -12  -7 66.3161 28.4629   1
   3 -12  -7 47.1580 30.0986   6
   3 -12  -7 73.2412 38.8544   4
   3  12  -7 30.7000 26.6527   3
  -3  12   7 62.7860 32.7091   3
   2 -12  -7 56.2267 36.6961   4
  -2 -12   7 16.7376 29.1394   2
   2 -12  -7 12.2178 23.7550   6
   2 -12  -7 29.3503 26.7249   1
   2  12  -7 -6.5914 19.3471   3
  -2  12   7 19.5003 24.5422   3
   1 -12  -7 540.769  63.340   1
   1 -12  -7 646.096  67.837   6
   1 -12  -7 448.605  62.498   4
  -1 -12   7 523.276  61.082   1
  -1 -12   7 508.169  70.775   2
   1  12  -7 495.441  66.850   3
  -1  12   7 379.568  58.499   3
   0 -12  -7 1562.62   98.41   6
   0 -12   7 1497.80   97.80   1
   0 -12  -7 1488.64   98.06   1
   0  12   7 1358.61  104.47   4
   0  12   7 1234.86   96.21   3
   0  12  -7 1386.83  110.71   2
   0  12  -7 1265.47   96.20   3
  -1 -12  -7 666.901  72.372   6
   1 -12   7 548.785  67.109   1
  -1 -12  -7 588.202  70.120   1
  -1  12  -7 552.527  76.902   2
   1  12   7 646.466  72.288   3
   1  12   7 607.570  74.224   6
   1  12   7 540.326  70.434   4
  -1  12  -7 538.396  67.102   3
   2 -12   7 -9.1773 24.0129   1
  -2 -12  -7 22.4421 29.9230   6
  -2 -12  -7 -2.0909 25.4027   1
   2  12   7 11.3682 25.8390   4
  -2  12  -7 11.7613 33.7307   2
   2  12   7  4.6439 31.0017   6
   2  12   7 -20.931  18.850   3
   3 -12   7 -4.3733 25.1626   1
  -3 -12  -7 14.3678 27.1802   1
   3  12   7 35.0879 33.8859   4
  -3  12  -7 -3.6134 36.4921   2
   4 -12   7 694.628  83.488   1
  -4 -12  -7 831.864  90.486   1
   4  12   7 694.964  90.619   4
  -4  12  -7 723.163 107.569   2
  -9 -13   7  2.1253 60.0209   5
  -8 -13   7 63.2525 59.1573   5
  -7 -13   7 15.9928 51.6783   5
   5 -13  -7 29.9187 34.3334   6
  -5 -13   7 -13.215  37.476   2
   5  13  -7 48.2069 37.7416   3
  -5  13   7 20.6988 31.9272   3
   4 -13  -7 205.157  46.224   1
   4 -13  -7 201.208  47.884   6
  -4 -13   7 153.031  53.367   2
  -4  13   7 119.062  40.285   3
   4  13  -7 194.295  51.368   3
  -3 -13   7  6.4734 31.1057   2
   3 -13  -7 27.0735 26.7176   1
   3 -13  -7 -9.8935 26.1352   6
   3  13  -7 31.4071 29.5802   3
  -3  13   7 -2.5762 23.7689   3
  -2 -13   7 1839.27  127.31   2
   2 -13  -7 1647.99  110.40   1
   2 -13  -7 1861.91  113.11   6
  -2  13   7 1860.78  125.45   3
   2  13  -7 1735.06  121.95   3
   1 -13  -7 30.1012 26.5555   6
  -1 -13   7 36.1841 33.4857   2
  -1 -13   7 62.1286 29.8111   1
   1 -13  -7 -6.1919 23.7704   1
   1  13  -7 37.0282 26.9184   3
  -1  13   7 109.195  36.228   3
   0 -13  -7  5.5351 23.9358   1
   0 -13  -7 12.5192 25.3166   6
   0 -13   7 -5.3221 26.0511   1
   0  13  -7 17.0528 32.2086   2
   0  13   7 43.5751 30.2410   4
   0  13  -7 13.0145 24.3305   3
   0  13   7  2.2419 21.3162   3
  -1 -13  -7 59.7902 32.7246   6
   1 -13   7 38.7245 30.5677   1
  -1 -13  -7 10.4027 27.0921   1
  -1  13  -7 27.0384 24.7768   3
   1  13   7 98.1218 36.6568   4
  -1  13  -7 14.4534 32.2458   2
   1  13   7  9.2326 25.3720   3
   2 -13   7 1722.67  116.30   1
  -2 -13  -7 1681.26  116.75   1
   2  13   7 1667.86  119.71   4
  -2  13  -7 1555.82  145.00   2
  -3 -13  -7 46.3873 33.4284   1
   3 -13   7 -15.031  28.793   1
   3  13   7 -14.230  29.375   4
  -3  13  -7 51.5854 50.5214   2
   4  13   7  2.7078 32.4322   4
  -9 -14   7 156.743  77.517   5
  -8 -14   7 572.491 105.006   5
  -7 -14   7 41.3759 56.6527   5
   4 -14  -7 1164.49  100.73   1
  -4 -14   7 1132.44  117.90   2
   4 -14  -7 872.515  92.270   6
  -4  14   7 741.770  94.083   3
   4  14  -7 852.517 103.386   3
   3 -14  -7 172.402  42.490   6
   3 -14  -7 266.065  52.532   1
  -3 -14   7 305.806  63.506   2
   3  14  -7 283.608  60.569   3
  -3  14   7 198.254  49.654   3
   2 -14  -7 64.5372 34.5537   6
   2 -14  -7 85.7253 33.1386   1
  -2 -14   7 64.5724 40.5452   2
   2  14  -7 51.4862 31.7469   3
  -2  14   7 43.7971 32.4481   3
  -1 -14   7 153.003  40.305   1
   1 -14  -7 187.110  43.801   1
  -1 -14   7 171.296  47.967   2
   1 -14  -7 151.126  39.130   6
  -1  14   7 140.910  43.430   3
   1  14  -7 33.4917 30.3064   3
   0 -14  -7 917.758  92.244   1
   0 -14   7 1222.02   90.30   1
   0  14  -7 992.623 100.390   3
   0  14   7 1071.13  100.49   3
   0  14  -7 1057.19  111.07   2
   1 -14   7 42.3099 32.5347   1
  -1 -14  -7 104.543  38.983   1
  -1  14  -7 67.6396 33.7748   3
  -1  14  -7 90.9630 43.9077   2
   1  14   7 39.5865 30.7432   3
  -2 -14  -7 50.9501 32.9316   1
   2 -14   7 31.6163 34.5160   1
  -2  14  -7 -17.186  35.531   2
  -3  14  -7 76.6960 56.4439   2
  -8 -15   7 -35.000  55.219   5
  -7 -15   7 740.379 117.120   5
  -6 -15   7 158.221  63.825   5
   4 -15  -7 50.1830 36.9139   6
   4 -15  -7 -28.026  28.372   1
  -3 -15   7 456.548  77.156   2
   3 -15  -7 522.665  69.752   1
  -2 -15   7 125.031  46.576   2
   2 -15  -7 156.666  45.968   1
  -2  15   7 125.596  44.418   3
   2  15  -7 113.560  41.439   3
   1 -15  -7 279.217  53.287   1
  -1 -15   7 316.610  53.593   1
  -1 -15   7 252.129  60.532   2
   1  15  -7 412.873  69.694   3
  -1  15   7 264.372  56.336   3
   0 -15   7 101.026  39.430   1
   0 -15   7 42.6583 36.5286   2
   0 -15  -7  3.1937 28.5512   1
   0  15   7 100.076  37.187   3
   0  15  -7 36.1762 31.9692   3
  -1 -15  -7 765.231  86.918   1
   1 -15   7 762.134  85.430   1
  -1  15  -7 858.150  92.520   3
  -1  15  -7 781.637 100.642   2
   1  15   7 649.947  82.870   3
  -2  15  -7 422.338  75.581   2
  -7 -16   7 -53.498  57.654   5
  -6 -16   7 -18.394  54.060   5
  -1 -16   7 530.353  81.224   2
   0 -16   7  0.6615 34.0679   1
   0 -16   7 30.0269 38.5514   2
  -1  16  -7 450.829  69.456   3
   1  16   7 292.970  59.957   3
  -7 -17   7 337.744  90.504   5
  -6 -17   7 190.832  73.988   5
  -6 -18   7 56.7075 68.5809   5
  -8   0   8 744.880  88.120   2
  -8   0   8 605.122  81.379   3
   8   0  -8 688.706  80.392   6
   8   0  -8 684.127  84.961   4
   7   0  -8  0.5987 24.4315   6
  -7   0   8  4.2427 24.8418   3
   7   0  -8 44.3176 30.2975   4
  -7   0   8 17.1291 28.5932   2
   6   0  -8 1315.85   89.21   6
  -6   0   8 1395.14   93.92   2
   6   0  -8 1094.23   89.32   4
  -6   0   8 1349.56  101.25   3
   5   0  -8  2.3628 15.9154   6
   5   0  -8  2.6271 18.0176   3
  -5   0   8 19.3453 19.9873   3
  -5   0   8 17.9589 19.6212   2
   5   0  -8 14.0183 17.2254   4
   4   0  -8 443.618  52.708   4
  -4   0   8 394.494  46.206   2
   4   0  -8 438.478  48.801   6
   4   0  -8 470.182  58.174   3
   3   0  -8 -3.2018 13.0815   4
   3   0  -8  4.8240 12.5328   6
   3   0  -8 -11.994  11.913   3
  -3   0   8  3.7089 11.3383   2
   2   0  -8 2869.63  144.87   4
   2   0  -8 2750.16  138.91   3
   2   0  -8 2839.66  119.54   1
   2   0  -8 3037.89  132.66   6
  -2   0   8 3083.99  132.62   2
   1   0  -8 23.8331 19.9089   4
   1   0  -8 11.2208 15.6036   2
   1   0  -8 28.6419 12.6606   1
   1   0  -8 14.2173 13.5859   3
   1   0  -8  7.0257 12.0642   6
   0   0  -8 2847.85  152.64   2
   0   0  -8 3246.01  143.50   6
   0   0  -8 3416.30  141.78   1
   0   0  -8 3133.96  160.27   4
   0   0  -8 3542.38  148.50   3
   0   0   8 3371.01  148.84   6
   1   0   8 -10.969  13.019   6
  -1   0  -8  3.5019 12.9921   6
  -1   0  -8 14.1306 17.4570   2
  -1   0  -8 -6.4893 12.1110   1
   1   0   8 -6.4605 16.1831   4
   1   0   8  5.1998 11.0372   3
   2   0   8 756.688  60.867   4
   2   0   8 608.000  61.597   6
  -2   0  -8 632.744  57.839   1
  -2   0  -8 649.036  51.851   6
  -2   0  -8 711.015  65.417   2
  -3   0  -8 43.5734 21.9067   1
   3   0   8 -5.5388 14.2771   6
  -3   0  -8 22.7904 20.1126   2
   3   0   8 27.3336 20.1853   4
   4   0   8 3022.51  159.40   4
   4   0   8 3071.99  157.20   6
  -4   0  -8 2936.72  157.75   2
  -4   0  -8 3131.73  152.78   1
   5   0   8  0.2023 22.9237   6
  -5   0  -8 17.8674 29.1303   2
  -5   0  -8 31.0984 26.1389   1
   5   0   8 17.3009 22.9192   4
   6   0   8 21.4188 28.1502   4
  -6   0  -8  1.8074 25.3649   1
   6   0   8  9.7895 28.1154   6
  -6   0  -8  7.0400 29.8946   2
  -7   0  -8 29.6214 38.3455   2
   7   0   8 -4.0068 32.1755   4
  -7   0  -8 24.2050 32.2161   1
   7   0   8 11.3227 36.6437   1
  -8  -1   8 477.838  71.437   3
   8  -1  -8 485.249  69.644   6
  -8  -1   8 320.600  61.114   2
   8  -1  -8 492.335  74.632   4
  -8   1   8 499.851  76.159   3
  -8   1   8 540.747  78.399   2
   8   1  -8 528.918  74.359   4
  -7  -1   8 683.050  78.345   2
   7  -1  -8 504.933  69.362   4
  -7  -1   8 648.416  81.899   3
   7  -1  -8 477.744  64.926   6
  -7   1   8 494.730  66.864   2
   7   1  -8 627.335  74.684   4
  -7   1   8 609.401  79.982   3
   7   1  -8 591.852  67.897   6
   6  -1  -8 753.655  74.303   6
  -6  -1   8 648.211  73.588   2
   6  -1  -8 715.565  75.152   4
  -6   1   8 698.546  72.125   2
   6   1  -8 808.010  83.787   3
   6   1  -8 590.253  70.228   4
   6   1  -8 598.441  64.497   6
  -6   1   8 796.910  88.700   3
   5  -1  -8 120.658  31.418   4
  -5  -1   8 50.1469 23.5839   2
   5  -1  -8 36.8705 20.5329   6
  -5   1   8 53.2266 27.1010   3
   5   1  -8 42.4609 19.2116   6
   5   1  -8 21.3067 21.0035   3
   5   1  -8 45.1981 22.9053   4
  -5   1   8 69.2796 25.4355   2
   4  -1  -8 1838.03  100.62   6
   4  -1  -8 1900.94  106.08   4
  -4  -1   8 1693.31   99.13   2
  -4   1   8 1801.81  111.16   3
   4   1  -8 1887.91  106.09   4
  -4   1   8 1887.55   98.49   2
   4   1  -8 1849.97  109.33   3
   4   1  -8 1720.49   96.33   6
   3  -1  -8 1235.81   77.67   4
  -3  -1   8 1148.89   71.52   2
   3  -1  -8 1112.88   70.72   6
  -3   1   8 1082.51   65.01   2
   3   1  -8 1097.56   67.34   6
  -3   1   8 1132.08   79.76   3
   3   1  -8 1214.96   79.66   3
   3   1  -8 1111.15   74.03   4
  -2  -1   8 2100.57  103.99   2
   2  -1  -8 2123.78  114.95   4
   2  -1  -8 2197.83   92.68   1
   2  -1  -8 2237.20  105.57   6
   2   1  -8 1973.22  108.74   3
  -2   1   8 2013.62  112.19   3
  -2   1   8 2030.47   97.01   2
   2   1  -8 1953.34  109.62   4
   2   1  -8 2017.84   89.32   1
   2   1  -8 2128.76   99.58   6
   1  -1  -8 10.1057  9.5077   1
   1  -1  -8 -2.2479 10.3785   6
   1  -1  -8  5.6086 18.9863   4
  -1   1   8 13.0180 14.5166   3
   1   1  -8 15.1516 11.8589   6
   1   1  -8 21.4986 18.9001   4
   1   1  -8  1.2448 10.2466   1
   1   1  -8 14.5299 13.1145   3
   1   1  -8 17.1484 17.0433   2
  -1   1   8 31.5816 13.8715   2
   0  -1   8 1121.68   67.02   6
   0  -1  -8 1025.86   76.32   4
   0  -1  -8 1114.97   72.32   2
   0  -1  -8 1164.59   67.66   6
   0  -1  -8 1129.69   63.90   1
   0   1   8 1114.47   67.17   3
   0   1  -8 1151.92   66.13   3
   0   1  -8 1107.74   62.48   6
   0   1  -8 994.090  61.176   1
   0   1  -8 881.542  74.212   2
   0   1  -8 1155.49   74.66   4
   1  -1   8 1411.39   84.94   4
  -1  -1  -8 1390.46   78.86   6
   1  -1   8 1315.97   78.21   6
  -1  -1  -8 1353.73   81.83   2
  -1  -1  -8 1364.42   76.96   1
  -1   1  -8 1341.62   74.20   6
   1   1   8 1279.96   81.03   6
  -1   1  -8 1290.96   86.02   2
  -1   1  -8 1309.94   70.57   3
  -1   1  -8 1312.54   75.41   1
   1   1   8 1520.08   93.94   4
   1   1   8 1285.22   71.36   3
   2  -1   8 2376.44  123.25   6
  -2  -1  -8 2521.54  122.99   1
   2  -1   8 2652.83  131.08   4
  -2  -1  -8 2463.49  124.78   2
  -2  -1  -8 2552.20  124.87   6
  -2   1  -8 2330.35  119.81   1
   2   1   8 2529.88  128.37   6
   2   1   8 2658.05  138.09   4
  -2   1  -8 2368.15  128.09   2
  -3  -1  -8 48.0035 24.4474   1
  -3  -1  -8 68.3137 25.4260   2
   3  -1   8 64.5485 24.1375   4
   3  -1   8 72.7478 25.6714   6
  -3   1  -8 19.5778 18.5260   1
   3   1   8 41.1643 22.5731   6
   3   1   8 67.2096 26.3399   4
  -3   1  -8 32.9451 24.6684   2
   4  -1   8 158.373  35.169   4
  -4  -1  -8 105.414  30.595   1
   4  -1   8 80.3301 28.2475   6
  -4  -1  -8 171.560  39.146   2
  -4   1  -8 168.840  36.430   1
   4   1   8 121.991  34.135   6
   4   1   8 82.2460 31.2390   4
  -4   1  -8 82.0061 30.8560   2
  -5  -1  -8 488.591  65.651   2
  -5  -1  -8 527.157  62.639   1
   5  -1   8 498.115  62.862   4
   5  -1   8 434.009  60.229   6
   5   1   8 399.523  59.157   6
  -5   1  -8 347.774  58.590   2
  -5   1  -8 594.315  66.037   1
   5   1   8 453.325  62.991   4
   6  -1   8 1527.44  110.72   6
   6  -1   8 1663.77  111.49   4
   6  -1   8 1653.55  117.53   1
  -6  -1  -8 1447.57  112.68   2
   6   1   8 1823.91  120.08   4
  -6   1  -8 1439.38  103.63   1
  -6   1  -8 1418.35  113.89   2
   6   1   8 1628.29  113.80   6
   7  -1   8 138.861  44.441   4
  -7  -1  -8 187.261  46.338   1
  -7  -1  -8 71.5594 42.2161   2
   7  -1   8 122.127  48.646   1
   7   1   8 83.0979 42.2206   4
  -8  -2   8 36.2129 32.9202   3
   8  -2  -8 47.5757 34.1689   4
  -8  -2   8 -26.612  29.728   2
   8  -2  -8 28.5331 30.6049   6
  -8   2   8 -30.507  32.608   2
   8   2  -8  8.1074 31.3549   4
  -7  -2   8 32.1105 29.9583   2
   7  -2  -8 50.0308 30.3919   4
   7  -2  -8  9.2968 23.8268   6
   7   2  -8 -19.590  24.015   3
  -7   2   8 -1.0887 24.8749   3
   7   2  -8 -19.252  24.052   4
  -7   2   8 12.2197 27.1324   2
   6  -2  -8 131.297  35.950   4
  -6  -2   8 109.665  35.052   2
   6  -2  -8 75.8947 29.2368   6
   6   2  -8 80.2751 29.5595   4
  -6   2   8 54.8129 29.5227   3
  -6   2   8 137.522  34.914   2
   6   2  -8 115.961  37.511   3
   5  -2  -8 2405.68  135.43   6
   5  -2  -8 2754.84  147.62   4
  -5  -2   8 2650.69  141.44   2
   5   2  -8 2893.87  145.96   4
  -5   2   8 2826.69  136.15   2
   5   2  -8 2599.94  146.68   3
   5   2  -8 2668.49  131.84   6
  -5   2   8 2614.95  148.35   3
   4  -2  -8 62.9953 22.7336   6
   4  -2  -8 54.6249 22.1496   4
  -4  -2   8 73.4650 24.6844   2
   4   2  -8 43.4738 23.5280   3
  -4   2   8 98.1688 23.5555   2
   4   2  -8 53.3365 20.0400   6
  -4   2   8 70.5471 24.5168   3
   4   2  -8 88.4315 25.7815   4
   3  -2  -8 476.437  53.052   4
  -3  -2   8 428.887  48.827   2
   3  -2  -8 406.095  46.763   6
  -3   2   8 466.707  42.309   2
  -3   2   8 312.665  45.791   3
   3   2  -8 489.894  50.988   4
   3   2  -8 442.313  42.448   6
   3   2  -8 443.932  53.147   3
   2  -2  -8 269.503  40.777   4
  -2  -2   8 221.295  34.825   2
   2  -2  -8 276.367  30.379   1
  -2  -2   8 299.249  30.259   1
   2  -2  -8 253.613  35.851   6
   2   2  -8 262.824  39.804   3
  -2   2   8 272.260  29.283   2
  -2   2   8 317.000  44.064   3
   2   2  -8 355.290  42.169   4
   2   2  -8 279.209  31.213   6
   1  -2  -8 2572.79  139.94   4
   1  -2  -8 2258.01  107.24   1
   1  -2  -8 2472.96  117.05   6
  -1   2   8 2407.72  120.37   3
   1   2  -8 2247.84  125.67   4
   1   2  -8 2331.45  118.89   3
   1   2  -8 2552.95  129.71   2
   1   2  -8 2415.17  107.43   6
  -1   2   8 2458.58  105.25   2
   1   2  -8 2350.24  105.52   1
   0  -2  -8 782.672  77.851   4
   0  -2  -8 966.594  61.354   2
   0  -2   8 949.802  59.797   6
   0  -2  -8 846.342  56.967   1
   0  -2  -8 999.534  63.525   6
   0   2  -8 914.573  55.933   6
   0   2  -8 966.817  65.567   4
   0   2  -8 857.493  81.827   2
   0   2  -8 948.194  57.335   1
   0   2  -8 1052.65   63.50   3
   0   2   8 1158.06   65.57   3
  -1  -2  -8 83.6541 21.2920   1
   1  -2   8 101.176  23.258   6
  -1  -2  -8 138.882  27.968   2
  -1  -2  -8 69.6067 21.2375   6
   1  -2   8 128.733  26.429   4
   1   2   8 134.183  33.776   4
  -1   2  -8 86.5215 28.4276   2
  -1   2  -8 93.0093 19.8765   3
  -1   2  -8 132.015  24.471   6
  -1   2  -8 60.2199 19.1625   1
   1   2   8 64.7378 17.0702   3
   1   2   8 98.2457 27.1277   6
   2  -2   8 20.8109 18.2161   6
  -2  -2  -8 31.0694 17.6217   1
   2  -2   8 15.1566 15.5560   4
  -2  -2  -8 40.5837 20.5638   2
  -2  -2  -8 14.9729 15.8498   6
  -2   2  -8 26.6397 15.7194   1
   2   2   8 -2.2067 16.1099   6
   2   2   8  7.0680 15.9393   4
  -2   2  -8 16.7076 19.2957   2
   3  -2   8 1999.00  111.96   6
  -3  -2  -8 2139.74  113.10   1
   3  -2   8 2085.97  112.10   4
  -3  -2  -8 2106.67  114.20   2
  -3   2  -8 1944.20  109.33   1
   3   2   8 2159.73  125.50   4
  -3   2  -8 1924.08  117.11   2
   3   2   8 2066.20  117.32   6
  -4  -2  -8 171.757  37.480   2
   4  -2   8 151.491  32.854   4
   4  -2   8 133.485  34.781   6
  -4  -2  -8 175.163  38.543   1
  -4   2  -8 136.936  34.348   1
  -4   2  -8 180.986  41.922   2
   4   2   8 98.6450 32.0295   4
   4   2   8 154.370  37.268   6
   5  -2   8 764.451  77.398   4
   5  -2   8 788.968  81.239   6
   5  -2   8 803.119  85.841   1
  -5  -2  -8 796.462  80.361   1
  -5  -2  -8 878.192  87.058   2
  -5   2  -8 914.819  92.880   2
  -5   2  -8 794.316  78.627   1
   5   2   8 979.815  92.004   6
   5   2   8 890.220  90.275   4
   6  -2   8 50.1044 29.1933   4
   6  -2   8 31.2685 31.2498   1
  -6  -2  -8 42.1841 34.5321   2
  -6  -2  -8  1.1051 24.8388   1
   6  -2   8  1.7807 28.0464   6
   6   2   8  7.9030 30.8328   4
  -6   2  -8  2.8493 27.8576   2
   6   2   8 22.1529 28.4212   6
   7  -2   8 502.788  74.392   4
  -7  -2  -8 637.986  75.860   1
   7  -2   8 577.362  80.990   1
  -7  -2  -8 502.666  80.814   2
   8  -3  -8 195.638  46.701   6
   8  -3  -8 123.794  42.003   4
  -8  -3   8 267.406  57.719   2
  -8  -3   8 194.186  51.936   3
   8   3  -8 214.100  52.642   4
   8   3  -8 278.994  60.668   3
   7  -3  -8 1945.96  124.85   6
   7  -3  -8 1860.86  128.53   4
  -7  -3   8 1927.38  129.37   2
   7   3  -8 1867.86  127.98   3
   7   3  -8 2008.16  129.65   4
  -7   3   8 2207.40  137.01   3
   6  -3  -8 202.318  42.436   6
  -6  -3   8 182.134  43.600   2
   6  -3  -8 179.581  40.829   4
   6   3  -8 205.365  41.365   4
   6   3  -8 177.146  43.882   3
  -6   3   8 254.417  49.145   3
  -5  -3   8 10.3878 19.6193   2
   5  -3  -8 -1.9014 17.9972   6
   5  -3  -8 -0.2363 16.1399   4
   5   3  -8  4.9278 18.7641   3
   5   3  -8 25.1947 21.1888   4
  -5   3   8 -3.4830 17.6685   3
  -5   3   8 17.3292 17.8738   2
   4  -3  -8 344.793  48.750   4
   4  -3  -8 309.322  43.442   6
  -4  -3   8 272.848  41.599   2
   4   3  -8 238.091  41.693   3
   4   3  -8 312.149  41.836   4
   4   3  -8 283.659  35.219   6
  -4   3   8 180.523  37.475   3
  -4   3   8 281.510  36.512   2
   3  -3  -8 3750.90  181.42   4
   3  -3  -8 3635.00  170.00   6
  -3  -3   8 3698.03  174.28   2
   3   3  -8 3746.54  173.34   4
  -3   3   8 3765.73  157.88   2
  -3   3   8 4053.16  183.89   3
   3   3  -8 3775.99  157.37   6
   3   3  -8 3605.06  177.09   3
  -2  -3   8 339.163  32.357   1
  -2  -3   8 254.277  40.209   2
   2  -3  -8 208.029  38.521   4
   2  -3  -8 338.392  41.452   6
   2  -3  -8 229.270  29.009   1
   2   3  -8 259.318  38.904   3
   2   3  -8 244.309  28.343   6
  -2   3   8 282.514  40.583   3
  -2   3   8 285.925  27.760   2
   2   3  -8 344.144  41.463   4
   1  -3  -8 328.346  36.134   1
  -1  -3   8 323.309  36.738   1
   1  -3  -8 354.493  53.504   4
   1  -3  -8 249.755  36.414   6
  -1   3   8 318.625  40.848   3
  -1   3   8 318.039  24.869   2
   1   3  -8 360.117  33.339   6
   1   3  -8 391.974  47.152   4
   1   3  -8 281.986  46.692   2
   1   3  -8 338.527  42.474   3
   0  -3  -8 478.694  49.570   6
   0  -3  -8 352.734  39.466   1
   0  -3   8 318.178  37.232   6
   0  -3   8 388.490  44.066   1
   0  -3  -8 488.905  58.222   4
   0   3  -8 358.254  40.605   4
   0   3  -8 374.689  38.216   1
   0   3  -8 378.370  36.505   6
   0   3   8 386.207  43.244   3
   0   3  -8 396.533  42.361   3
   0   3  -8 414.392  56.636   2
   1  -3   8 1332.22   77.97   4
  -1  -3  -8 1349.12   81.16   6
   1  -3   8 1300.68   75.76   6
  -1  -3  -8 1219.84   74.23   2
  -1  -3  -8 1376.62   78.67   1
  -1   3  -8 1298.62   75.02   1
  -1   3  -8 1645.89  100.15   2
   1   3   8 1573.15   90.55   6
   1   3   8 1338.14   72.93   3
   1   3   8 1269.96   93.82   4
  -1   3  -8 1370.29   73.87   3
  -2  -3  -8 1880.79  100.00   6
  -2  -3  -8 1827.54   97.29   1
   2  -3   8 1618.14   91.65   4
  -2  -3  -8 1739.64   93.19   2
   2  -3   8 1674.09   93.76   6
  -2   3  -8 1614.02  102.99   2
   2   3   8 1726.32  104.24   6
  -2   3  -8 1673.19   93.37   1
   2   3   8 1817.05  114.64   4
  -3  -3  -8 331.464  46.521   1
  -3  -3  -8 477.485  53.631   2
   3  -3   8 400.802  55.156   1
   3  -3   8 388.304  49.209   6
   3  -3   8 402.184  46.370   4
   3   3   8 467.817  58.138   6
  -3   3  -8 482.393  60.383   2
  -3   3  -8 495.477  53.042   1
   3   3   8 416.747  59.138   4
  -4  -3  -8 122.426  32.716   1
   4  -3   8 96.3919 31.0700   1
   4  -3   8 224.051  40.764   6
   4  -3   8 223.178  37.960   4
  -4  -3  -8 100.420  31.909   2
   4   3   8 111.791  35.791   4
  -4   3  -8 83.1356 32.5925   2
   4   3   8 198.059  42.332   6
   5  -3   8 1197.67   86.79   4
   5  -3   8 1275.31   92.35   6
  -5  -3  -8 1544.12  101.33   2
   5  -3   8 1133.63  106.94   1
  -5  -3  -8 1158.34   88.15   1
   5   3   8 1358.03  102.13   4
   5   3   8 1240.05   96.87   6
  -5   3  -8 1275.98  101.40   2
   6  -3   8 40.8562 30.2049   4
   6  -3   8 12.8122 30.4732   1
  -6  -3  -8 34.6962 31.0491   1
   6  -3   8 68.9195 34.1638   6
  -6  -3  -8 -19.258  28.078   2
   6   3   8 11.6654 30.7275   6
  -6   3  -8 13.5819 32.0629   2
   6   3   8 10.1513 26.1243   4
  -7  -3  -8 247.751  52.050   1
   8  -4  -8 25.0092 31.4409   6
  -8  -4   8 88.5047 41.1490   2
   8   4  -8 84.4533 42.2769   3
   8   4  -8 114.411  43.739   4
   7  -4  -8 108.433  36.044   6
   7  -4  -8 110.225  40.119   4
  -7  -4   8 127.030  42.785   2
   7   4  -8 101.937  38.782   3
  -7   4   8 115.346  39.483   3
   7   4  -8 107.222  37.901   4
  -6  -4   8 926.689  91.826   2
   6  -4  -8 1024.24   95.16   4
   6  -4  -8 903.395  87.459   6
   6   4  -8 904.913  93.256   3
   6   4  -8 992.127  78.754   4
  -6   4   8 898.004  90.220   3
   5  -4  -8 2328.62  138.89   4
  -5  -4   8 2611.02  141.99   2
   5  -4  -8 2546.30  137.69   6
   5   4  -8 2625.71  145.92   3
  -5   4   8 2433.65  141.81   3
   5   4  -8 2611.11  137.83   4
   4  -4  -8 1111.63   78.90   4
   4  -4  -8 954.669  72.599   6
  -4  -4   8 993.517  76.156   2
   4   4  -8 1093.68   80.05   3
  -4   4   8 1031.97   78.65   3
   4   4  -8 951.506  68.697   4
  -3  -4   8 422.187  52.451   2
   3  -4  -8 458.496  35.113   1
   3  -4  -8 257.747  40.424   6
   3  -4  -8 400.722  51.756   4
  -3   4   8 551.722  60.760   3
   3   4  -8 411.503  46.173   4
   3   4  -8 422.752  52.752   3
   2  -4  -8 568.597  42.393   1
   2  -4  -8 583.065  63.095   4
   2  -4  -8 682.158  62.234   6
  -2  -4   8 639.591  42.099   1
  -2  -4   8 629.160  65.586   2
   2   4  -8 654.206  40.340   6
  -2   4   8 762.554  69.314   3
   2   4  -8 507.389  56.182   3
   2   4  -8 592.999  48.897   4
   1  -4  -8 1170.65   74.67   6
  -1  -4   8 1132.62   62.05   6
  -1  -4   8 1097.92   64.83   1
   1  -4  -8 1141.50   90.22   4
   1  -4  -8 1147.69   65.91   1
   1   4  -8 1326.25   79.02   4
   1   4  -8 1140.07   72.56   3
   1   4  -8 1050.50   98.26   2
  -1   4   8 974.260  70.312   3
   1   4  -8 1169.34   59.22   6
   0  -4   8 1948.36  103.12   1
   0  -4   8 2115.32   98.02   6
   0  -4  -8 1941.48  106.91   6
   0  -4  -8 2178.58  124.51   4
   0  -4   8 2093.56  104.12   4
   0  -4  -8 2024.37  101.42   1
   0   4  -8 2034.85  123.39   2
   0   4  -8 2181.85  105.39   3
   0   4  -8 1972.69  100.88   4
   0   4   8 2121.66  106.04   3
   0   4  -8 1987.11   94.78   6
   1  -4   8 63.3368 20.7118   6
  -1  -4  -8 74.3023 22.6315   1
   1  -4   8 67.0748 18.5196   4
  -1  -4  -8 95.8986 25.4375   6
   1  -4   8 57.9154 23.6063   1
   1   4   8 66.1516 17.6701   3
  -1   4  -8 49.5853 17.1211   3
   1   4   8 111.969  29.327   6
   1   4   8 63.6722 30.4587   4
  -1   4  -8 53.9832 27.9619   2
   2  -4   8 623.162  47.283   4
  -2  -4  -8 572.436  59.925   6
   2  -4   8 593.259  62.917   1
  -2  -4  -8 549.371  57.365   1
   2  -4   8 691.223  59.957   6
   2   4   8 546.576  70.946   4
  -2   4  -8 611.359  69.412   2
   2   4   8 598.772  65.944   6
   3  -4   8 1204.28   73.53   4
   3  -4   8 1174.60   77.17   6
  -3  -4  -8 1072.12   79.96   6
  -3  -4  -8 1145.71   78.21   1
   3  -4   8 1257.35   86.00   1
   3   4   8 1080.36   88.40   4
   3   4   8 1084.43   85.06   6
  -3   4  -8 1131.44   86.65   2
   4  -4   8 1690.52  101.87   6
   4  -4   8 1645.38   96.37   4
   4  -4   8 1440.63  103.35   1
  -4  -4  -8 1622.91  100.74   1
   4   4   8 1706.72  111.31   6
   4   4   8 1572.97  113.68   4
  -4   4  -8 1621.47  112.03   2
  -5  -4  -8 96.9759 33.6618   1
   5  -4   8 77.5898 33.0076   6
   5  -4   8 104.803  37.872   1
  -5   4  -8 64.9496 34.5172   2
   5   4   8 21.7612 29.7157   6
   5   4   8 71.9092 32.8027   4
   6  -4   8 40.9959 34.9226   1
  -6  -4  -8 20.2832 28.7125   1
   6  -4   8  6.3149 28.6676   6
   6   4   8 18.5606 31.2124   6
   6   4   8 55.3075 39.5405   4
  -6   4  -8  3.1064 31.7000   2
  -7  -4  -8 667.828  79.252   1
   8   5  -8 1159.95  117.75   3
   8   5  -8 1128.40  110.53   4
   7  -5  -8 86.6790 38.1481   6
   7  -5  -8 64.5914 33.6622   4
  -7  -5   8 47.2650 36.0144   2
   7   5  -8 36.1162 31.7073   3
   7   5  -8 98.7858 38.0231   4
  -7   5   8 136.732  41.722   3
  -6  -5   8 383.297  60.346   2
   6  -5  -8 585.276  70.538   4
   6  -5  -8 567.887  67.505   6
   6   5  -8 452.908  59.885   4
   6   5  -8 386.720  61.708   3
  -6   5   8 540.693  69.504   3
  -5  -5   8 50.0564 26.8089   2
   5  -5  -8 27.8912 24.6600   4
   5  -5  -8 -1.9779 19.9461   6
  -5   5   8 28.5414 25.0172   3
   5   5  -8 29.3811 22.9068   4
   5   5  -8 47.0395 25.3222   3
   4  -5  -8 1840.67  115.16   4
  -4  -5   8 2103.44  121.39   2
   4  -5  -8 1924.64  112.72   6
   4   5  -8 1922.03  116.15   3
  -4   5   8 1853.12  115.96   3
   4   5  -8 2113.69  109.98   4
   3  -5  -8 -0.9012 15.7969   6
  -3  -5   8 31.7963 23.8200   2
   3  -5  -8 29.2178 14.3065   1
   3  -5  -8 15.9388 21.4548   4
   3   5  -8  4.6652 14.4427   3
  -3   5   8 16.3297 18.3154   3
   3   5  -8  8.9073 16.4961   4
  -2  -5   8 1995.62  121.89   2
  -2  -5   8 2114.15   97.21   1
   2  -5  -8 2095.27  102.41   1
   2  -5  -8 2180.89  114.37   6
   2  -5  -8 2060.88  123.74   4
   2   5  -8 2242.31  117.07   3
  -2   5   8 2024.36  116.67   3
   2   5  -8 2401.42  110.70   4
   1  -5  -8  0.7009 12.1536   6
   1  -5  -8 -16.977  19.618   4
  -1  -5   8 -0.6178 13.2108   1
   1  -5  -8 -12.740  11.019   1
   1   5  -8  5.0200 12.6962   3
   1   5  -8 13.1998 21.9591   2
  -1   5   8 -5.4307 12.6787   3
   0  -5  -8 854.433  59.022   1
   0  -5   8 855.955  53.040   6
   0  -5  -8 964.882  76.604   4
   0  -5   8 973.121  63.239   1
   0  -5  -8 949.487  67.198   6
   0   5  -8 817.004  86.003   2
   0   5   8 801.685  60.363   3
   0   5  -8 902.508  61.598   3
  -1  -5  -8 10.6881 14.6169   1
  -1  -5  -8 22.6240 19.5292   6
   1  -5   8 34.8776 20.3677   1
   1  -5   8  5.1272 13.5639   6
   1   5   8 51.1172 17.0268   3
   1   5   8 -9.1348 20.5738   4
  -1   5  -8  9.9400 24.9722   2
   1   5   8  8.6629 20.2722   6
  -1   5  -8 28.1324 15.3755   3
  -2  -5  -8 3251.35  156.66   6
   2  -5   8 3073.69  152.12   1
   2  -5   8 3094.47  144.18   6
  -2  -5  -8 3210.60  150.21   1
   2   5   8 2419.81  162.41   4
  -2   5  -8 3471.30  169.48   2
   2   5   8 3269.79  163.18   6
  -3  -5  -8  4.8597 19.8674   6
  -3  -5  -8 14.7781 17.8781   1
   3  -5   8 -1.2511 17.0761   6
   3  -5   8 14.6274 21.1100   1
  -3   5  -8 22.5706 24.6416   2
   3   5   8  5.9978 24.1250   4
   3   5   8 12.0799 21.5306   6
   4  -5   8 328.460  52.531   1
   4  -5   8 322.497  49.294   6
  -4  -5  -8 287.716  47.594   1
   4   5   8 338.780  56.441   6
  -4   5  -8 270.006  51.795   2
   4   5   8 284.944  56.319   4
  -5  -5  -8 -3.2966 24.5322   1
   5  -5   8  2.1938 26.6924   6
   5  -5   8 40.3384 29.9578   1
   5   5   8  6.1960 27.6468   4
   5   5   8  9.8194 29.4439   6
  -5   5  -8 14.1937 32.3726   2
   6  -5   8 1840.30  123.27   6
   6  -5   8 1923.40  129.75   1
  -6  -5  -8 1825.89  121.67   1
  -6   5  -8 1860.61  135.08   2
   6   5   8 1730.99  135.85   4
   6   5   8 2208.49  140.91   6
   8   6  -8 36.3541 39.2530   3
   8   6  -8 88.4468 45.3147   4
   7  -6  -8 96.8698 37.6982   4
  -7  -6   8 23.7893 34.2640   2
   7  -6  -8 16.4035 28.2222   6
   7   6  -8 78.6305 38.7936   3
   7   6  -8 20.0026 29.0159   4
  -7   6   8 123.961  40.182   3
  -6  -6   8 1344.65  103.26   2
   6  -6  -8 1197.27   93.54   6
   6  -6  -8 1106.77   93.04   4
  -6  -6   8 1311.90   93.17   5
   6   6  -8 1296.01   93.88   4
  -6   6   8 1507.59  104.99   3
   6   6  -8 1218.86   96.60   3
   5  -6  -8 498.477  65.126   4
  -5  -6   8 590.916  71.305   2
   5  -6  -8 384.531  56.107   6
   5   6  -8 560.619  60.550   4
   5   6  -8 503.480  67.248   3
  -5   6   8 614.577  70.456   3
   4  -6  -8 1334.92   90.94   6
   4  -6  -8 1460.97   97.59   4
  -4  -6   8 1388.48   99.86   2
  -4   6   8 1304.20   94.05   3
   4   6  -8 1403.56   95.39   3
   3  -6  -8 -6.7399 14.4673   6
  -3  -6   8 92.2488 31.2240   2
   3  -6  -8 58.6795 26.3180   4
   3  -6  -8 60.6701 19.2692   1
  -3   6   8 34.4848 22.8394   3
   3   6  -8 41.8524 21.2152   3
  -2  -6   8 671.894  46.548   1
   2  -6  -8 690.397  64.713   6
  -2  -6   8 570.229  68.182   2
   2  -6  -8 699.913  50.814   1
   2  -6  -8 674.547  73.616   4
   2   6  -8 727.037  68.410   3
  -2   6   8 709.347  69.513   3
   1  -6  -8 491.321  67.775   4
   1  -6  -8 512.971  57.402   6
   1  -6  -8 495.049  49.443   1
  -1  -6   8 549.448  50.527   1
   1   6  -8 547.218  71.362   2
   1   6  -8 583.986  59.016   3
  -1   6   8 563.103  60.201   3
   0  -6   8 2002.13  105.36   1
   0  -6  -8 1939.32  110.63   6
   0  -6  -8 2105.59  105.35   1
   0  -6  -8 2043.74  124.08   4
   0   6  -8 1913.93  105.64   3
   0   6  -8 2229.47  129.54   2
   0   6   8 1988.95  106.82   3
  -1  -6  -8  6.7458 15.9105   1
   1  -6   8 24.0679 15.8024   6
  -1  -6  -8 45.2406 21.8532   6
   1  -6   8 17.2023 20.7348   1
  -1   6  -8 38.5597 29.5714   2
   1   6   8 64.9291 28.0637   4
   1   6   8 18.5973 16.0166   3
   1   6   8 14.5563 19.3400   6
  -1   6  -8 -0.4588 13.7370   3
  -2  -6  -8 893.961  65.936   1
   2  -6   8 869.524  61.774   6
   2  -6   8 895.363  69.125   1
  -2  -6  -8 833.772  80.518   6
   2   6   8 928.150  89.792   6
  -2   6  -8 897.702  92.387   2
   2   6   8 762.227  86.644   4
  -3  -6  -8 210.109  40.275   1
   3  -6   8 307.174  48.438   1
   3  -6   8 280.925  44.322   6
  -3  -6  -8 289.413  50.039   6
   3   6   8 319.273  54.365   6
   3   6   8 253.839  51.878   4
  -3   6  -8 317.204  53.887   2
   4  -6   8 2065.93  126.55   1
  -4  -6  -8 1985.35  120.16   1
   4  -6   8 2176.42  121.83   6
   4   6   8 2444.17  142.07   6
  -4   6  -8 2378.73  141.52   2
   4   6   8 1948.26  137.55   4
   5  -6   8  7.0566 26.5574   6
  -5  -6  -8 -17.981  24.283   1
   5  -6   8 58.0547 30.9380   1
   5   6   8 -2.0345 30.2856   4
   5   6   8 -0.3420 28.8428   6
  -5   6  -8 -3.0707 24.7869   2
   6  -6   8 -12.218  28.508   1
  -6  -6  -8 11.7209 30.8743   1
   6  -6   8 22.9762 32.8029   6
  -6   6  -8 -4.7710 31.1618   2
   6   6   8  6.3133 35.8897   6
   6   6   8  9.7009 29.3294   4
   7  -7  -8 2097.66  135.33   4
  -7  -7   8 1960.88  124.75   5
   7  -7  -8 1621.35  120.65   6
  -7  -7   8 1679.11  130.26   2
  -7   7   8 1952.35  132.25   3
   7   7  -8 1634.61  126.31   3
   6  -7  -8 111.213  39.112   4
  -6  -7   8 66.2609 35.6262   2
   6  -7  -8 93.9542 36.6738   6
   6   7  -8 92.8245 35.8876   3
  -6   7   8 53.4212 30.0354   3
   5  -7  -8 80.7156 31.0236   6
  -5  -7   8 69.0339 33.6958   2
   5  -7  -8 63.4525 31.5722   4
  -5   7   8 41.6089 25.8558   3
   5   7  -8 42.0726 26.8814   3
   4  -7  -8 162.969  38.558   4
   4  -7  -8 141.463  36.997   6
  -4  -7   8 112.126  36.475   2
   4   7  -8 166.916  36.259   3
  -4   7   8 158.162  36.682   3
   3  -7  -8 1746.78  106.31   6
   3  -7  -8 1898.37   94.66   1
  -3  -7   8 1741.52  116.29   2
   3  -7  -8 1635.49  111.75   4
   3   7  -8 1717.27  108.28   3
  -3   7   8 1992.92  114.57   3
   2  -7  -8 272.012  50.712   4
  -2  -7   8 310.275  52.450   2
   2  -7  -8 413.043  45.292   1
   2  -7  -8 424.866  50.869   6
  -2  -7   8 323.944  36.705   1
  -2   7   8 266.452  44.591   3
   2   7  -8 318.236  46.972   3
   1  -7  -8 101.404  37.590   4
   1  -7  -8 216.443  38.439   6
  -1  -7   8 148.749  28.300   1
   1  -7  -8 145.634  29.345   1
   1   7  -8 259.979  48.868   2
   1   7  -8 192.498  34.633   3
  -1   7   8 193.654  34.322   3
   0  -7  -8 434.293  52.072   6
   0  -7   8 434.906  51.611   1
   0  -7  -8 427.997  58.663   4
   0  -7  -8 441.829  48.509   1
   0   7  -8 464.356  50.776   3
   0   7   8 483.404  53.438   3
   0   7  -8 487.230  65.899   2
  -1  -7  -8 1320.45   82.33   1
  -1  -7  -8 1316.19   87.66   6
   1  -7   8 1213.93   81.71   1
   1   7   8 1120.63   88.64   6
   1   7   8 1362.96  100.51   4
  -1   7  -8 1448.60  106.85   2
  -1   7  -8 1226.99   77.63   3
   1   7   8 1357.87   80.51   3
  -2  -7  -8 1832.14  111.79   6
  -2  -7  -8 1786.92  103.31   1
   2  -7   8 1761.99  105.25   1
  -2   7  -8 1896.44  124.53   2
   2   7   8 1694.34  115.33   6
   2   7   8 1749.76  122.25   4
   3  -7   8 435.435  52.155   6
   3  -7   8 527.264  64.205   1
  -3  -7  -8 650.404  67.433   1
  -3  -7  -8 430.808  62.283   6
   3   7   8 375.319  62.425   4
  -3   7  -8 405.950  63.329   2
   3   7   8 454.130  66.408   6
   4  -7   8 26.7331 26.7466   6
   4  -7   8 15.9393 25.5849   1
  -4  -7  -8 32.7750 25.4748   1
   4   7   8 -1.1268 26.8443   4
  -4   7  -8 -19.187  26.768   2
   4   7   8 -15.351  27.194   6
   5  -7   8 915.464  93.940   1
   5  -7   8 1266.22   88.23   6
  -5  -7  -8 874.509  88.314   1
   5   7   8 975.996 108.480   4
  -5   7  -8 1004.66  106.88   2
   5   7   8 1064.72  108.69   6
   6  -7   8 324.106  58.344   6
   6  -7   8 287.407  57.361   1
  -6  -7  -8 173.235  48.040   1
   6   7   8 152.668  54.025   6
   7  -8  -8  1.2787 28.8481   6
  -7  -8   8 25.1341 40.8095   5
  -7  -8   8 37.5241 38.8048   2
   7  -8  -8 31.9856 35.7434   4
   7   8  -8 -5.5793 30.3138   3
  -7   8   8 -2.5240 29.5450   3
   6  -8  -8 -25.784  24.801   6
   6  -8  -8 19.1993 30.1740   4
  -6  -8   8 23.5902 32.4295   2
   6   8  -8 13.8537 27.4744   3
  -6   8   8  8.1703 25.0567   3
   5  -8  -8 1816.77  114.81   6
  -5  -8   8 1739.21  124.89   2
   5  -8  -8 1583.73  114.71   4
  -5   8   8 1780.90  118.24   3
   5   8  -8 1753.23  117.33   3
   4  -8  -8 14.6178 25.1321   4
  -4  -8   8 40.4672 32.8155   2
   4  -8  -8 18.4960 23.9909   6
  -4   8   8 14.6710 20.4493   3
   4   8  -8 44.1692 27.0257   3
   3  -8  -8 17.8583 22.5330   6
   3  -8  -8 32.4039 19.6788   1
  -3  -8   8 44.5322 29.1736   2
   3  -8  -8 53.7402 28.0546   4
   3   8  -8 55.1205 23.9499   3
  -3   8   8 89.4369 28.9087   3
   2  -8  -8 81.5291 34.8260   4
  -2  -8   8 85.2714 33.0726   2
   2  -8  -8 40.6217 24.6750   6
   2  -8  -8 69.6809 23.8044   1
  -2   8   8 73.4703 26.0271   3
   2   8  -8 51.8280 24.1294   3
   1  -8  -8 2562.40  144.96   4
   1  -8  -8 2129.31  115.62   1
  -1  -8   8 2287.13  113.58   1
   1  -8  -8 2238.99  124.69   6
  -1   8   8 2221.25  124.55   3
   1   8  -8 2244.15  123.73   3
   1   8  -8 2317.02  141.09   2
   0  -8  -8 65.1710 25.1278   1
   0  -8  -8 32.2335 22.1811   6
   0  -8  -8 43.4977 26.5754   4
   0  -8   8 79.1222 24.8252   1
   0   8  -8 22.0873 25.8305   2
   0   8  -8 66.8469 24.0337   3
   0   8   8 22.4196 18.8937   3
  -1  -8  -8 308.445  44.307   1
   1  -8   8 269.295  44.031   1
  -1  -8  -8 219.051  41.954   6
   1   8   8 230.974  48.440   4
   1   8   8 246.652  39.318   3
  -1   8  -8 299.374  58.328   2
   1   8   8 235.944  46.974   6
  -1   8  -8 267.653  39.904   3
  -2  -8  -8 17.5119 21.5814   1
  -2  -8  -8 10.8507 23.9471   6
   2  -8   8 -18.700  18.000   1
   2   8   8 21.7447 28.7245   6
   2   8   8 22.6738 26.9136   4
  -2   8  -8 -8.2511 23.6731   2
  -3  -8  -8 1054.27   99.70   6
  -3  -8  -8 1098.30   82.86   1
   3  -8   8 1288.55   88.62   1
  -3   8  -8 1178.21  113.24   2
   3   8   8 1140.67  108.16   6
   3   8   8 1214.81  114.68   4
  -4  -8  -8 36.5490 27.9419   1
   4  -8   8 56.8901 26.8747   1
  -4   8  -8 -10.491  26.624   2
   4   8   8 45.1122 36.3337   6
   4   8   8  4.7564 29.4978   4
   5  -8   8 359.554  57.908   6
   5  -8   8 304.299  57.932   1
  -5  -8  -8 490.215  63.841   1
   5   8   8 304.082  62.934   4
   5   8   8 379.268  70.246   6
  -5   8  -8 314.862  65.707   2
  -6  -8  -8 30.1102 35.4803   1
   6  -8   8  2.5598 35.1016   6
   6   8   8 -10.995  36.702   6
  -8  -9   8 44.4855 44.5127   5
  -7  -9   8 816.339  99.358   5
   7  -9  -8 759.279  94.705   4
   7   9  -8 713.227  93.208   3
  -7   9   8 734.940  89.777   3
   6  -9  -8 47.6519 31.1998   6
   6  -9  -8 53.5552 38.6949   4
  -6  -9   8 81.2947 41.4397   2
  -6   9   8 10.5854 25.9453   3
   6   9  -8 10.9423 28.1659   3
   5  -9  -8 -5.8910 27.2589   4
  -5  -9   8 -12.501  29.314   2
   5  -9  -8 10.5698 25.3483   6
  -5   9   8 12.0952 23.1905   3
   5   9  -8 -2.2050 21.4719   3
   4  -9  -8 922.807  86.953   6
   4  -9  -8 965.890  95.426   4
  -4  -9   8 1063.46  106.80   2
   4   9  -8 989.991  95.479   3
  -4   9   8 766.638  82.276   3
   3  -9  -8 1530.94  108.01   4
   3  -9  -8 1596.09   98.44   6
  -3  -9   8 1399.97  108.14   2
   3  -9  -8 1309.77   84.97   1
   3   9  -8 1425.76   99.56   3
   2  -9  -8 1337.73  106.83   4
   2  -9  -8 1292.20   80.85   1
   2  -9  -8 1345.47   89.23   6
  -2  -9   8 1044.09  104.69   2
  -2   9   8 1210.03   89.26   3
   2   9  -8 1167.60   86.44   3
   1  -9  -8 60.8106 27.0454   6
   1  -9  -8 71.4675 26.3093   1
  -1  -9   8 99.3689 27.7186   1
   1  -9  -8 40.0944 29.6085   4
  -1   9   8 70.4962 26.5255   3
   1   9  -8 138.539  43.767   2
   1   9  -8 87.7374 28.6559   3
   0  -9  -8 85.0343 28.6833   1
   0  -9  -8 72.0514 28.1183   6
   0  -9   8 32.1473 22.7590   1
   0  -9  -8 74.4421 31.3832   4
   0   9  -8 135.259  31.327   3
   0   9  -8 10.6224 29.8471   2
   0   9   8 47.4068 23.8206   3
   0   9   8 101.906  36.276   4
  -1  -9  -8 1673.62  102.80   1
  -1  -9  -8 1485.57  103.81   6
   1  -9   8 1701.57  103.88   1
  -1   9  -8 1970.02  129.05   2
   1   9   8 1777.07  103.40   3
  -1   9  -8 1810.42  102.67   3
   1   9   8 1589.18  112.34   6
   1   9   8 1768.01  118.42   4
   2  -9   8 325.759  50.765   1
  -2  -9  -8 355.762  55.423   6
  -2  -9  -8 403.614  53.722   1
   2   9   8 258.225  53.423   6
   2   9   8 340.707  59.337   4
  -2   9  -8 324.464  62.524   2
   3  -9   8 148.993  38.883   1
  -3  -9  -8 268.560  54.268   6
  -3  -9  -8 225.928  44.259   1
   3   9   8 230.585  52.967   6
   3   9   8 169.489  48.360   4
  -3   9  -8 236.294  54.680   2
  -4  -9  -8 79.1137 35.2902   1
   4  -9   8 140.362  39.936   1
  -4   9  -8 120.142  45.143   2
   4   9   8 123.653  45.178   4
   4   9   8 48.7778 36.9029   6
  -5  -9  -8 624.948  78.289   1
   5  -9   8 556.609  73.185   1
   5   9   8 557.902  81.789   6
   5   9   8 577.837  87.078   4
  -5   9  -8 460.920  78.560   2
  -8 -10   8 393.023  79.064   5
  -7 -10   8 -14.615  39.448   5
   6 -10  -8 735.823  93.585   4
  -6 -10   8 723.234  97.741   2
   6 -10  -8 849.707  93.106   6
   6  10  -8 918.935 102.822   3
  -6  10   8 910.402  97.582   3
  -5 -10   8 281.103  62.407   2
   5 -10  -8 262.439  54.224   6
   5 -10  -8 277.308  58.538   4
   5  10  -8 299.794  56.908   3
  -5  10   8 281.167  54.330   3
   4 -10  -8 338.276  53.161   6
  -4 -10   8 420.723  69.466   2
   4 -10  -8 363.988  61.098   4
   4  10  -8 298.513  53.857   3
  -4  10   8 446.393  66.300   3
  -3 -10   8 40.9640 30.7215   2
   3 -10  -8 89.0267 28.5515   1
   3 -10  -8 133.774  36.618   6
   3 -10  -8 55.8540 34.5449   4
   3  10  -8 102.731  34.261   3
  -3  10   8 121.016  34.543   3
  -2 -10   8 1827.59  125.49   2
   2 -10  -8 1606.74  123.94   4
   2 -10  -8 1780.04  108.16   6
   2 -10  -8 1798.63  104.03   1
   2  10  -8 1702.06  113.20   3
  -2  10   8 1883.31  117.54   3
  -1 -10   8 39.8718 29.0914   2
   1 -10  -8 13.3896 23.0482   6
   1 -10  -8 52.6195 27.2942   1
  -1 -10   8 22.5376 22.1619   1
   1 -10  -8 71.0489 30.7197   4
   1  10  -8 58.7846 34.7759   2
  -1  10   8 83.3745 30.9405   3
   1  10  -8 46.6757 26.2137   3
   0 -10   8 2644.60  136.36   1
   0 -10  -8 2260.58  135.80   6
   0 -10  -8 2769.37  139.27   1
   0  10  -8 2656.63  156.34   2
   0  10   8 2577.82  154.28   4
   0  10  -8 2672.83  141.20   3
   0  10   8 2421.25  138.15   3
   1 -10   8 25.4121 22.0467   1
  -1 -10  -8 -26.738  19.831   6
  -1 -10  -8  5.9522 19.2470   1
   1  10   8 13.6207 21.7004   3
  -1  10  -8 24.9181 21.6543   3
   1  10   8 -10.323  24.128   4
   1  10   8 23.2146 26.1057   6
  -1  10  -8 -5.4478 26.5561   2
  -2 -10  -8 264.720  50.439   6
  -2 -10  -8 237.966  44.174   1
   2 -10   8 212.394  42.622   1
  -2  10  -8 170.489  55.025   2
   2  10   8 251.458  52.224   4
   2  10   8 146.633  46.692   6
   3 -10   8 171.186  42.987   1
  -3 -10  -8 80.8913 37.1892   6
  -3 -10  -8 111.927  36.232   1
  -3  10  -8 162.425  50.843   2
   3  10   8 238.289  54.890   6
   3  10   8 186.867  49.438   4
   4 -10   8 1673.13  116.47   1
  -4 -10  -8 1874.64  120.60   1
  -4  10  -8 1773.96  138.07   2
   4  10   8 1910.85  137.40   4
  -5 -10  -8 23.8774 33.4015   1
   5  10   8  4.3629 41.0370   6
   5  10   8 -7.5747 37.3849   4
  -8 -11   8 337.479  79.509   5
  -7 -11   8 64.7981 49.3636   5
   6 -11  -8 384.531  67.592   6
   6 -11  -8 309.448  65.250   4
  -6  11   8 267.005  58.022   3
   6  11  -8 288.547  62.329   3
   5 -11  -8 78.3020 36.3143   6
   5 -11  -8 48.5139 36.5633   4
  -5 -11   8 62.8491 39.4864   2
  -5  11   8 60.3717 32.8024   3
   5  11  -8 -2.9916 24.8510   3
   4 -11  -8 1223.45  115.35   4
  -4 -11   8 1214.72  121.69   2
   4 -11  -8 1113.18  102.59   6
  -4  11   8 1041.06  106.01   3
   4  11  -8 1092.31  104.85   3
   3 -11  -8 96.2522 43.6019   4
  -3 -11   8 174.900  48.652   2
   3 -11  -8 138.627  36.440   1
   3 -11  -8 102.769  34.404   6
   3  11  -8 137.457  39.270   3
  -3  11   8 111.105  34.812   3
   2 -11  -8 1138.25   83.37   1
   2 -11  -8 1404.06  109.81   4
  -2 -11   8 1139.83  111.38   2
   2 -11  -8 1210.61   87.70   6
  -2  11   8 1161.84   93.16   3
   2  11  -8 1158.41   94.03   3
   1 -11  -8 111.443  36.914   4
   1 -11  -8 27.1454 26.4951   6
  -1 -11   8 180.249  45.748   2
   1 -11  -8 104.307  33.320   1
  -1 -11   8 105.181  30.475   1
  -1  11   8 60.7128 30.9693   3
   1  11  -8 89.0939 33.0770   3
   0 -11  -8 534.638  66.033   1
   0 -11   8 640.611  69.002   1
   0 -11  -8 726.598  76.304   6
   0  11  -8 625.921  81.086   2
   0  11   8 681.172  82.641   4
   0  11  -8 714.211  75.346   3
   0  11   8 678.611  75.155   3
   1 -11   8 569.141  68.174   1
  -1 -11  -8 596.597  69.891   6
  -1 -11  -8 584.029  70.459   1
   1  11   8 586.951  67.506   3
  -1  11  -8 602.722  66.634   3
   1  11   8 620.803  76.677   6
  -1  11  -8 491.605  72.543   2
   1  11   8 614.430  78.151   4
  -2 -11  -8 1741.27  112.25   1
  -2 -11  -8 1594.49  114.17   6
   2 -11   8 1701.28  111.08   1
   2  11   8 1853.51  126.45   4
   2  11   8 1723.66  124.64   6
  -2  11  -8 1688.97  133.24   2
   3 -11   8 108.972  39.971   1
  -3 -11  -8 213.289  50.456   6
  -3 -11  -8 203.254  47.100   1
  -3  11  -8 59.1231 43.2548   2
   3  11   8 99.5265 42.0539   4
   3  11   8 136.517  46.442   6
   4 -11   8 68.4851 34.5316   1
  -4 -11  -8 11.3368 32.2147   1
   4  11   8 63.2476 43.0108   6
   4  11   8 49.0455 41.1137   4
  -4  11  -8 81.6130 47.8359   2
  -9 -12   8 412.505  95.205   5
  -8 -12   8 -12.339  47.037   5
  -7 -12   8 -17.888  44.132   5
  -5 -12   8 582.037  89.797   2
   5 -12  -8 616.670  87.162   4
   5 -12  -8 679.398  82.472   6
   5  12  -8 434.353  73.191   3
  -5  12   8 613.696  81.258   3
   4 -12  -8 429.252  64.639   6
  -4 -12   8 339.185  68.109   2
   4 -12  -8 453.814  74.948   4
   4  12  -8 381.852  66.148   3
  -4  12   8 377.901  65.039   3
   3 -12  -8 40.5691 29.8264   6
   3 -12  -8  0.4199 34.9367   4
  -3 -12   8 30.7088 32.6156   2
   3 -12  -8  9.3566 25.1973   1
   3  12  -8  8.2869 22.0051   3
  -3  12   8  5.8078 23.4076   3
   2 -12  -8 359.640  62.738   4
   2 -12  -8 290.572  51.757   1
  -2 -12   8 368.974  65.432   2
   2 -12  -8 434.102  60.301   6
   2  12  -8 438.083  64.583   3
  -2  12   8 341.373  55.934   3
  -1 -12   8 1155.19   87.75   1
   1 -12  -8 1294.47   92.95   1
   1 -12  -8 1442.52   95.40   6
  -1 -12   8 1416.90  108.41   2
   1 -12  -8 1278.61   99.30   4
   1  12  -8 1373.31  100.47   3
  -1  12   8 1252.58   97.63   3
   0 -12  -8 978.039  92.092   1
   0 -12  -8 1024.34   81.39   6
   0 -12   8 977.853  88.987   1
   0  12  -8 960.328 104.981   2
   0  12   8 954.762  99.329   4
   0  12   8 1041.30   99.57   3
  -1 -12  -8 180.906  43.353   1
   1 -12   8 105.711  33.787   1
  -1 -12  -8 181.077  45.785   6
   1  12   8 172.144  45.902   4
  -1  12  -8 143.396  37.849   3
  -1  12  -8 182.923  48.209   2
   1  12   8 117.780  35.723   3
   1  12   8 175.205  47.502   6
  -2 -12  -8 117.623  38.033   1
  -2 -12  -8 49.4726 34.2921   6
   2 -12   8 77.8226 36.4510   1
  -2  12  -8 45.6371 41.0246   2
   2  12   8 36.6210 38.9481   6
   2  12   8 76.9858 38.0528   4
  -3 -12  -8 578.724  74.352   1
  -3 -12  -8 526.809  76.084   6
   3 -12   8 418.650  65.040   1
   3  12   8 354.749  67.399   6
  -3  12  -8 479.057  85.652   2
   3  12   8 527.182  77.487   4
  -4 -12  -8 516.173  74.270   1
   4  12   8 610.485  86.926   4
  -9 -13   8 41.8802 66.9524   5
  -8 -13   8 -64.313  50.221   5
  -7 -13   8 951.275 123.873   5
   5 -13  -8 -13.263  32.816   6
   4 -13  -8 115.721  43.255   6
  -4 -13   8 77.7957 45.1497   2
  -4  13   8 116.199  41.339   3
   4  13  -8 141.429  46.499   3
  -3 -13   8 2447.54  157.59   2
   3 -13  -8 2290.14  138.81   6
   3 -13  -8 2216.12  133.25   1
   3  13  -8 2440.89  154.76   3
   2 -13  -8 82.4447 41.1398   4
   2 -13  -8 103.067  36.706   1
   2 -13  -8 56.2822 30.8112   6
  -2 -13   8 56.0892 35.2551   2
   2  13  -8 77.4451 34.4032   3
  -2  13   8 123.007  41.067   3
   1 -13  -8 337.668  59.526   4
  -1 -13   8 288.446  50.226   1
   1 -13  -8 328.671  55.114   1
  -1 -13   8 276.383  58.756   2
   1 -13  -8 302.752  53.245   6
  -1  13   8 346.733  62.389   4
  -1  13   8 317.377  58.848   3
   1  13  -8 328.939  58.194   3
   0 -13  -8 -21.573  24.560   1
   0 -13  -8  2.4632 26.8902   6
   0 -13   8 -9.4982 25.2668   1
   0  13  -8 -5.4976 30.8599   2
   0  13   8 -11.171  29.249   4
   0  13   8 37.1024 30.0685   3
   0  13  -8 -12.741  20.954   3
   1 -13   8 593.118  73.544   1
  -1 -13  -8 555.659  73.231   1
  -1 -13  -8 558.426  70.675   6
  -1  13  -8 482.875  76.073   2
   1  13   8 533.513  70.523   3
   1  13   8 578.409  78.170   4
  -1  13  -8 580.981  74.288   3
   1  13   8 495.271  74.721   6
  -2 -13  -8 41.5510 32.1175   1
   2 -13   8 80.3332 37.8654   1
   2  13   8 18.2810 35.0209   4
  -2  13  -8 81.8398 44.3994   2
  -3 -13  -8 55.1301 35.9626   1
   3 -13   8 37.7220 36.0673   1
   3  13   8 60.0891 37.3911   4
  -3  13  -8 61.0712 50.7700   2
  -8 -14   8 14.3330 59.0214   5
  -7 -14   8 44.5348 59.8956   5
   4 -14  -8 226.549  53.079   6
   3 -14  -8 39.0308 33.2949   1
   3 -14  -8 121.009  40.565   6
  -3 -14   8 104.976  44.853   2
  -3  14   8 52.2438 34.3926   3
   3  14  -8 -3.4985 30.0295   3
   2 -14  -8 18.1020 31.8895   6
  -2 -14   8 28.6006 31.9539   2
   2 -14  -8 24.5490 32.5236   1
  -2  14   8 29.4060 31.5895   3
   2  14  -8 58.0837 37.0159   3
  -1 -14   8 843.420  95.993   2
   1 -14  -8 806.909  80.924   6
   1 -14  -8 719.654  80.385   1
  -1 -14   8 879.620  85.334   1
   1  14  -8 681.910  84.589   3
  -1  14   8 616.517  82.680   3
   0 -14   8 240.454  51.896   1
   0 -14  -8 204.193  47.580   1
   0  14  -8 326.782  57.782   3
   0  14   8 158.671  44.244   3
   0  14  -8 151.995  51.375   2
  -1 -14  -8 65.9719 36.2165   1
   1 -14   8 82.0652 41.7206   1
  -1  14  -8 43.6880 31.9983   3
   1  14   8 90.8207 35.1879   3
  -1  14  -8 87.4647 45.7932   2
   2 -14   8 82.6357 39.8320   1
  -2  14  -8 116.858  47.097   2
  -8 -15   8 620.094 112.475   5
  -7 -15   8 330.326  85.258   5
   3 -15  -8 205.160  50.875   6
  -2 -15   8 595.240  86.100   2
   2 -15  -8 463.419  70.348   1
  -1 -15   8 -35.064  31.379   2
   1 -15  -8  5.4337 29.1162   1
  -1  15   8 57.8032 35.9550   3
   1  15  -8 -35.956  25.074   3
   0 -15   8 489.398  77.747   2
   0 -15   8 355.797  61.535   1
   0  15   8 330.656  62.425   3
   0  15  -8 507.900  74.871   3
   1 -15   8 221.212  53.489   1
   1  15   8 275.081  56.699   3
  -1  15  -8 251.007  65.555   2
  -1  15  -8 340.757  62.479   3
  -7 -16   8 61.9143 66.8116   5
  -7 -17   8 103.502  70.915   5
  -6 -17   8 148.345  66.497   5
  -6 -18   8 49.2023 62.8725   5
  -8   0   9 14.9505 35.3038   2
   8   0  -9 14.5465 29.1051   4
  -8   0   9 58.9420 37.5536   3
  -7   0   9 770.987  92.781   3
   7   0  -9 756.054  85.535   4
   7   0  -9 578.870  69.970   6
  -7   0   9 897.799  89.180   2
  -6   0   9 -10.413  22.689   3
   6   0  -9 -8.5138 21.0853   6
  -6   0   9 -22.482  20.178   2
   6   0  -9 26.7093 25.9491   4
   5   0  -9 3652.75  184.10   3
  -5   0   9 3454.81  166.83   2
  -5   0   9 3248.10  180.63   3
   5   0  -9 3220.39  162.79   6
   5   0  -9 3613.00  179.07   4
   4   0  -9 -14.180  13.542   6
   4   0  -9 28.0169 21.2344   4
  -4   0   9  5.4641 14.2491   2
   4   0  -9 -8.2690 15.8282   3
   3   0  -9 264.149  41.338   4
  -3   0   9 286.434  36.926   2
   3   0  -9 270.707  37.300   6
   3   0  -9 304.689  44.117   3
   2   0  -9 18.5731 12.4065   1
   2   0  -9 14.1759 17.2267   4
  -2   0   9  0.2516 12.3246   2
   2   0  -9 -0.5189 13.2317   6
   2   0  -9 -7.7558 12.2829   3
   1   0  -9 1748.17   86.76   1
   1   0  -9 1896.23   93.01   6
   1   0  -9 1670.98  113.04   4
   1   0  -9 1561.02   94.17   3
   1   0  -9 1846.24   96.20   2
   0   0   9 -2.9042 13.3405   6
   0   0  -9 16.8513 18.7199   4
   0   0   9  7.2287 14.5918   3
   0   0  -9  0.8068 11.7268   6
   0   0  -9 -1.9029 19.3824   2
   0   0  -9 -1.9971 12.6796   1
  -1   0  -9 818.564  58.494   6
  -1   0  -9 817.349  58.451   1
   1   0   9 775.791  55.010   3
   1   0   9 879.977  70.603   4
  -1   0  -9 857.092  78.073   2
   1   0   9 783.508  61.393   6
   2   0   9 22.1678 19.2593   6
  -2   0  -9 -8.5733 14.1297   1
  -2   0  -9 -1.7744 18.8936   2
  -2   0  -9  5.5637 14.7802   6
   2   0   9 16.6880 19.4464   4
   3   0   9 3896.52  192.19   4
  -3   0  -9 4036.35  183.54   1
   3   0   9 3700.97  184.31   6
  -3   0  -9 3982.15  189.29   2
   4   0   9  2.5742 20.3375   4
  -4   0  -9 24.4053 24.9566   2
   4   0   9 48.0356 26.0366   6
  -4   0  -9  8.8481 20.8697   1
   5   0   9  0.1691 23.3013   4
   5   0   9 21.4239 27.1717   6
  -5   0  -9 42.5277 33.5105   2
  -5   0  -9 16.6876 28.5887   1
  -6   0  -9  3.1911 30.0521   1
   6   0   9 36.3908 35.2529   4
  -6   0  -9 -13.502  33.950   2
   6   0   9 23.3164 31.3084   6
   8  -1  -9 470.730  69.977   6
  -8  -1   9 383.502  71.197   3
  -8  -1   9 435.004  70.683   2
   8   1  -9 459.563  74.026   4
  -8   1   9 802.252  99.273   3
  -8   1   9 596.000  82.016   2
   7  -1  -9 1070.03  102.00   4
  -7  -1   9 987.715  96.318   2
   7  -1  -9 942.569  92.291   6
  -7  -1   9 1064.77  109.58   3
  -7   1   9 928.791  92.497   2
   7   1  -9 943.597  95.721   4
  -7   1   9 1083.17  109.44   3
  -6  -1   9  5.8589 25.0140   3
   6  -1  -9 -16.353  20.950   4
   6  -1  -9 -10.385  19.538   6
  -6  -1   9 49.2195 28.4804   2
   6   1  -9 12.4752 23.5387   4
   6   1  -9 52.6002 29.8258   3
  -6   1   9 -9.8772 20.8406   2
  -6   1   9 33.9284 28.5759   3
   6   1  -9  8.0476 21.3441   6
  -5  -1   9 180.245  37.538   2
   5  -1  -9 171.569  35.403   6
   5  -1  -9 123.630  33.815   4
   5   1  -9 128.799  33.728   4
   5   1  -9 139.646  31.485   6
   5   1  -9 121.830  35.313   3
  -5   1   9 103.563  34.265   3
  -5   1   9 178.890  35.112   2
   4  -1  -9 1285.13   79.70   6
   4  -1  -9 1248.16   85.63   4
  -4  -1   9 1012.99   73.95   2
  -4   1   9 1242.78   75.67   2
   4   1  -9 1173.28   85.39   3
   4   1  -9 1081.08   72.23   6
  -4   1   9 1075.96   85.24   3
   4   1  -9 1229.32   83.34   4
  -3  -1   9 1652.81   94.18   2
   3  -1  -9 1608.91  101.69   4
   3  -1  -9 1740.83   96.15   6
   3   1  -9 1732.36  101.14   4
   3   1  -9 1858.36  105.65   3
   3   1  -9 1686.88   90.17   6
  -3   1   9 1697.76   89.21   2
  -3   1   9 1608.98  103.96   3
   2  -1  -9 479.816  49.048   6
   2  -1  -9 360.344  50.358   4
   2  -1  -9 477.552  40.770   1
  -2  -1   9 408.014  45.984   2
  -2   1   9 456.487  54.305   3
   2   1  -9 406.143  49.274   3
   2   1  -9 415.603  43.231   6
   2   1  -9 488.216  55.110   4
  -2   1   9 488.167  43.069   2
   2   1  -9 449.914  38.095   1
   1  -1  -9 176.339  26.641   1
   1  -1  -9 178.014  41.047   4
   1  -1  -9 141.919  26.181   6
   1   1  -9 180.455  26.067   1
   1   1  -9 142.943  32.227   2
  -1   1   9 153.580  30.910   3
   1   1  -9 146.456  37.143   4
   1   1  -9 138.886  24.770   6
  -1   1   9 131.840  24.040   2
   1   1  -9 123.448  27.666   3
   0  -1   9 261.526  37.181   6
   0  -1  -9 331.714  38.579   1
   0  -1  -9 265.811  44.176   4
   0  -1  -9 296.213  41.203   2
   0  -1  -9 269.728  36.232   6
   0   1  -9 161.847  39.267   2
   0   1  -9 270.955  34.100   1
   0   1  -9 269.313  36.408   3
   0   1  -9 241.671  32.281   6
   0   1   9 264.465  37.342   3
   0   1  -9 214.278  37.792   4
   1  -1   9 1288.80   82.46   4
  -1  -1  -9 1173.71   74.14   6
   1  -1   9 1168.84   75.58   6
  -1  -1  -9 1169.99   72.23   1
  -1  -1  -9 1071.57   79.40   2
  -1   1  -9 1154.62   70.06   6
  -1   1  -9 1140.27   68.00   3
  -1   1  -9 1197.80   72.32   1
   1   1   9 1130.15   78.83   6
   1   1   9 1014.78   81.97   4
   1   1   9 1258.12   69.93   3
  -1   1  -9 1209.42   88.26   2
  -2  -1  -9 56.9164 21.4925   1
  -2  -1  -9 49.0633 21.2018   6
   2  -1   9 79.8038 26.0570   4
   2  -1   9 60.9264 23.4436   6
  -2  -1  -9 101.901  30.356   2
   2   1   9 117.016  32.577   4
  -2   1  -9 48.4440 26.4159   2
  -2   1  -9 75.4366 23.4268   1
   2   1   9 49.9523 23.7151   6
   3  -1   9 51.6346 26.0743   4
   3  -1   9 32.9139 23.6459   6
  -3  -1  -9 70.7269 24.4988   1
  -3  -1  -9 52.6631 26.8343   2
   3   1   9 71.9444 28.4226   6
  -3   1  -9 47.2377 23.2990   1
  -3   1  -9 15.7720 24.1601   2
   3   1   9 54.9765 27.4883   4
  -4  -1  -9 777.900  78.053   1
  -4  -1  -9 841.249  83.952   2
   4  -1   9 771.495  78.389   6
   4  -1   9 856.123  81.182   4
  -4   1  -9 787.442  76.343   1
  -4   1  -9 711.089  80.416   2
   4   1   9 726.518  78.295   6
   4   1   9 837.375  84.047   4
  -5  -1  -9 2098.20  130.07   2
   5  -1   9 1940.31  122.32   4
   5  -1   9 1789.64  118.53   6
   5   1   9 1751.55  121.05   6
  -5   1  -9 1887.97  118.17   1
  -5   1  -9 1900.35  128.23   2
   5   1   9 1934.73  126.69   4
   6  -1   9 913.726 101.098   1
   6  -1   9 803.115  89.156   4
  -6  -1  -9 793.363  85.393   1
   6  -1   9 827.180  89.703   6
  -6  -1  -9 758.994  93.422   2
   6   1   9 892.545  97.076   4
   6   1   9 1113.85  106.36   6
  -6   1  -9 859.434  98.579   2
   8  -2  -9 -4.2990 28.9322   6
  -8  -2   9 46.7374 35.6744   2
  -8  -2   9  5.3700 32.8484   3
   8   2  -9  7.3039 34.3892   4
  -8   2   9  1.5371 33.1055   3
   7  -2  -9 53.6419 30.8504   4
  -7  -2   9 13.5526 27.0390   2
  -7  -2   9 39.0954 33.4045   3
   7  -2  -9 59.2844 33.3170   6
  -7   2   9 79.7420 40.3023   3
   7   2  -9 20.8989 30.7374   4
   7   2  -9 64.3686 36.2888   3
   6  -2  -9 2261.93  136.16   6
   6  -2  -9 2509.10  147.13   4
  -6  -2   9 2333.34  139.33   2
  -6   2   9 2507.67  150.63   3
   6   2  -9 2672.63  145.71   4
   6   2  -9 2332.27  144.15   3
   5  -2  -9 327.876  48.077   6
   5  -2  -9 199.259  41.360   4
  -5  -2   9 254.519  45.326   2
   5   2  -9 273.352  46.064   4
  -5   2   9 285.436  49.724   3
  -5   2   9 269.194  41.331   2
   5   2  -9 249.841  48.322   3
  -4  -2   9 451.137  55.948   2
   4  -2  -9 656.405  67.712   4
   4  -2  -9 507.804  57.866   6
   4   2  -9 658.096  70.269   3
  -4   2   9 675.409  75.417   3
   4   2  -9 703.607  66.250   4
  -4   2   9 697.951  53.410   2
   4   2  -9 454.764  50.003   6
  -3  -2   9 45.1761 19.6026   2
   3  -2  -9  7.2382 19.4971   4
   3  -2  -9 20.4057 16.3933   6
  -3   2   9 30.5819 20.5159   3
   3   2  -9 24.8642 18.5142   4
  -3   2   9 30.7493 14.7109   2
   3   2  -9 19.0255 15.9777   6
   3   2  -9 40.6535 19.8515   3
   2  -2  -9 2024.25  117.99   4
   2  -2  -9 2033.79   92.98   1
   2  -2  -9 1970.39  104.60   6
  -2  -2   9 2108.82  109.42   2
  -2   2   9 1843.33   91.87   2
   2   2  -9 1919.54  110.84   4
   2   2  -9 1941.40   95.12   6
   2   2  -9 1926.61  109.21   3
  -2   2   9 1962.04  111.94   3
   1  -2  -9 1127.61   71.07   6
   1  -2  -9 1078.93   64.07   1
   1  -2  -9 1206.55   92.80   4
   1   2  -9 1092.84   63.61   6
   1   2  -9 1009.66   70.18   3
   1   2  -9 957.069  59.848   1
  -1   2   9 1138.97   60.10   2
  -1   2   9 1049.31   72.35   3
   1   2  -9 1153.53   81.80   2
   1   2  -9 1002.20   81.11   4
   0  -2  -9 730.827  75.241   4
   0  -2   9 735.817  54.865   6
   0  -2  -9 768.433  58.076   6
   0  -2  -9 785.622  54.480   1
   0   2  -9 946.427  88.148   2
   0   2  -9 634.754  49.565   1
   0   2  -9 831.055  61.736   4
   0   2  -9 767.564  55.511   3
   0   2   9 756.553  56.872   3
   0   2  -9 793.995  53.096   6
  -1  -2  -9 -7.3379 13.2305   6
  -1  -2  -9 -18.568  10.833   1
   1  -2   9  1.6452 15.5182   4
   1  -2   9 -0.5785 13.8862   6
  -1  -2  -9 -2.0176 19.0876   2
   1   2   9  7.0610 11.9205   3
  -1   2  -9 -2.1995 12.8284   3
   1   2   9 22.6851 22.3404   4
  -1   2  -9  8.2854 13.4027   6
  -1   2  -9  9.0781 15.0894   1
  -1   2  -9  0.3434 21.2555   2
   1   2   9 -2.2145 16.8070   6
   2  -2   9 2777.19  142.09   6
  -2  -2  -9 2949.46  144.49   2
   2  -2   9 2964.61  146.93   4
  -2  -2  -9 2912.25  143.57   1
  -2  -2  -9 2918.91  146.10   6
  -2   2  -9 2858.45  141.06   1
  -2   2  -9 3116.30  156.43   2
   2   2   9 3147.72  154.72   6
   2   2   9 3053.24  164.07   4
   3  -2   9 368.322  50.350   6
   3  -2   9 426.261  51.202   4
  -3  -2  -9 377.013  50.428   1
  -3  -2  -9 466.239  57.044   2
  -3   2  -9 410.178  57.732   2
   3   2   9 448.355  60.942   4
  -3   2  -9 315.379  45.864   1
   3   2   9 365.417  53.765   6
  -4  -2  -9 1748.43  111.85   2
   4  -2   9 1678.97  108.19   6
   4  -2   9 1745.32  106.93   4
  -4  -2  -9 1515.74  104.04   1
   4   2   9 1843.95  115.17   6
  -4   2  -9 1909.50  109.68   1
  -4   2  -9 1887.77  120.85   2
   4   2   9 1744.99  118.99   4
   5  -2   9 14.0968 26.7104   6
  -5  -2  -9 -0.0191 23.3064   1
   5  -2   9 -0.4511 24.3092   4
   5  -2   9 14.8362 29.6283   1
  -5  -2  -9 -3.4689 29.1337   2
   5   2   9 28.6128 30.4340   4
  -5   2  -9 30.3414 27.4935   1
  -5   2  -9 -8.0902 27.9443   2
   5   2   9 22.3835 28.4138   6
   6  -2   9 58.4066 36.5061   4
   6  -2   9 109.416  40.229   6
  -6  -2  -9 149.953  46.553   1
   6  -2   9 92.6772 45.1171   1
   6   2   9 137.676  44.818   4
   6   2   9 65.4427 36.9752   6
  -6   2  -9 129.744  47.366   2
  -8  -3   9 1203.01  120.86   3
  -8  -3   9 1043.76  109.48   2
   8  -3  -9 1034.54  104.83   6
   8   3  -9 1075.69  109.65   4
  -8   3   9 1346.56  126.26   3
   8   3  -9 1052.91  113.35   3
   7  -3  -9 614.647  77.533   4
  -7  -3   9 355.973  60.424   2
   7  -3  -9 373.725  60.250   6
   7   3  -9 466.649  67.492   4
   7   3  -9 531.449  73.843   3
  -7   3   9 531.838  74.904   3
   6  -3  -9 32.5027 27.2609   6
   6  -3  -9 36.4876 24.4282   4
  -6  -3   9 42.5649 31.2991   2
   6   3  -9 36.1107 26.1833   4
  -6   3   9 26.6971 25.0603   3
   6   3  -9 15.0420 23.3289   3
  -5  -3   9 21.6288 22.1459   2
   5  -3  -9 11.1849 20.8616   6
   5  -3  -9 40.2473 25.0607   4
   5   3  -9 65.4215 28.6278   3
  -5   3   9 -2.9469 20.0345   3
   5   3  -9 38.4903 24.4191   4
  -4  -3   9 3393.02  167.72   2
   4  -3  -9 3259.13  163.70   6
   4  -3  -9 3569.72  176.44   4
   4   3  -9 3379.74  174.48   3
   4   3  -9 3597.94  169.54   4
  -4   3   9 3203.54  173.99   3
   3  -3  -9 12.9237 15.9077   6
  -3  -3   9 37.8874 20.9973   2
   3  -3  -9 28.0260 20.7931   4
  -3   3   9 62.0057 24.6962   3
   3   3  -9 119.822  29.052   3
   3   3  -9 27.4280 20.4129   4
   3   3  -9 36.1084 15.6428   6
  -2  -3   9 860.413  55.231   1
   2  -3  -9 867.121  54.640   1
  -2  -3   9 877.771  69.050   2
   2  -3  -9 899.595  65.071   6
   2  -3  -9 1047.70   77.78   4
   2   3  -9 901.650  54.260   6
  -2   3   9 944.928  70.984   3
   2   3  -9 915.695  68.461   3
   2   3  -9 823.364  64.087   4
  -1  -3   9 203.409  29.765   6
   1  -3  -9 199.147  43.582   4
   1  -3  -9 174.524  31.331   6
   1  -3  -9 176.836  29.699   1
  -1  -3   9 180.781  30.246   1
   1   3  -9 220.250  28.083   6
   1   3  -9 193.956  33.022   3
   1   3  -9 197.981  41.996   2
   1   3  -9 165.668  35.851   4
  -1   3   9 206.321  35.639   3
   0  -3  -9 3786.90  170.59   6
   0  -3  -9 3302.62  182.71   4
   0  -3   9 3596.28  159.35   6
   0  -3  -9 3637.40  160.96   1
   0   3  -9 3477.69  182.33   2
   0   3  -9 3693.81  165.38   3
   0   3  -9 3810.92  170.65   4
   0   3  -9 3663.98  155.50   6
   0   3  -9 3607.52  157.05   1
   0   3   9 3729.55  166.54   3
  -1  -3  -9 611.155  59.761   1
  -1  -3  -9 642.321  62.934   6
   1  -3   9 696.009  61.565   6
   1  -3   9 723.754  55.505   4
   1   3   9 687.729  78.177   4
  -1   3  -9 681.856  51.433   3
   1   3   9 639.747  47.945   3
  -1   3  -9 822.345  84.379   2
   1   3   9 740.380  72.706   6
  -1   3  -9 586.731  55.628   1
   2  -3   9 3092.51  148.47   6
  -2  -3  -9 3115.82  149.11   1
  -2  -3  -9 3104.95  151.61   6
   2  -3   9 3139.95  148.97   4
  -2   3  -9 2778.09  143.25   1
   2   3   9 3083.19  159.41   6
  -2   3  -9 3184.69  164.00   2
   2   3   9 3083.99  170.54   4
  -3  -3  -9 197.073  37.248   1
   3  -3   9 199.397  35.019   4
   3  -3   9 213.675  38.964   6
   3  -3   9 192.863  40.474   1
   3   3   9 74.5128 33.3476   4
  -3   3  -9 172.482  33.269   1
  -3   3  -9 185.913  43.020   2
   3   3   9 82.6808 31.0201   6
   4  -3   9 578.132  67.446   6
   4  -3   9 479.093  64.755   1
   4  -3   9 554.840  61.681   4
  -4  -3  -9 598.616  66.436   1
  -4   3  -9 489.674  68.360   2
   4   3   9 540.815  71.830   4
   4   3   9 535.767  70.979   6
   5  -3   9 57.0408 36.4294   1
  -5  -3  -9 91.2739 35.0664   1
   5  -3   9 56.8972 30.9072   6
   5  -3   9 76.9721 31.7954   4
  -5   3  -9 131.384  42.914   2
   5   3   9 33.2152 29.7987   6
   5   3   9 69.5547 39.6752   4
  -6  -3  -9 782.424  84.597   1
   6  -3   9 717.035  89.428   1
   6  -3   9 856.472  90.801   6
  -6   3  -9 578.293  85.519   2
   6   3   9 786.897  96.748   4
   6   3   9 527.377  76.261   6
   8   4  -9 37.5745 40.3656   4
   8   4  -9 -5.0637 31.9881   3
  -8   4   9 -16.727  30.844   3
   7  -4  -9 234.795  50.988   6
  -7  -4   9 279.191  54.721   2
   7  -4  -9 164.074  48.215   4
   7   4  -9 206.479  51.747   4
  -7   4   9 229.458  52.463   3
   7   4  -9 191.341  50.223   3
   6  -4  -9 751.271  83.721   4
   6  -4  -9 908.178  88.575   6
  -6  -4   9 996.964  96.649   2
   6   4  -9 939.978  96.613   3
  -6   4   9 842.186  91.930   3
   6   4  -9 921.251  88.773   4
   5  -4  -9 922.219  88.456   4
   5  -4  -9 952.081  86.272   6
  -5  -4   9 832.974  82.908   2
  -5   4   9 974.607  95.016   3
   5   4  -9 935.301  91.725   3
   5   4  -9 806.017  68.971   4
  -4  -4   9 27.3119 21.7426   2
   4  -4  -9 25.8581 19.2815   4
   4  -4  -9 11.6171 17.2801   6
   4   4  -9  6.2886 16.5020   4
   4   4  -9  9.2867 18.6521   3
  -4   4   9  0.5109 17.0101   3
   3  -4  -9 505.074  56.197   6
   3  -4  -9 488.392  61.696   4
  -3  -4   9 458.625  57.277   2
   3   4  -9 466.679  60.131   3
   3   4  -9 515.023  54.044   4
  -3   4   9 430.476  55.337   3
   2  -4  -9 1540.86  104.26   4
  -2  -4   9 1525.89  100.32   2
   2  -4  -9 1642.22   82.23   1
   2  -4  -9 1618.71   93.87   6
   2   4  -9 1577.62   91.80   4
  -2   4   9 1405.67   94.11   3
   2   4  -9 1537.44   96.35   3
   1  -4  -9 1412.84   81.18   1
   1  -4  -9 1663.45  115.33   4
  -1  -4   9 1633.77   85.18   1
   1  -4  -9 1519.60   90.78   6
  -1  -4   9 1504.25   80.59   6
   1   4  -9 1334.30  101.97   2
  -1   4   9 1549.58   92.95   3
   1   4  -9 1510.65   90.99   3
   1   4  -9 1641.79   78.12   6
   1   4  -9 1521.27   95.08   4
   0  -4  -9 875.148  64.096   6
   0  -4   9 815.299  59.016   4
   0  -4   9 799.522  60.803   1
   0  -4  -9 884.000  84.660   4
   0  -4   9 787.530  54.414   6
   0  -4  -9 696.182  55.000   1
   0   4  -9 777.836  52.769   6
   0   4  -9 766.662  58.507   3
   0   4   9 828.755  60.435   3
   0   4  -9 911.106  88.602   2
   1  -4   9 -3.4626 12.5752   4
  -1  -4  -9 -0.7149 15.1170   1
  -1  -4  -9 -0.0613 15.2130   6
   1  -4   9 -14.592  14.552   1
   1  -4   9 -7.7734 13.8957   6
   1   4   9 16.7301 14.2568   3
   1   4   9 21.0347 24.7863   4
  -1   4  -9  7.2052 14.2821   3
  -1   4  -9 -5.4230 26.3316   2
   1   4   9 -0.2580 17.9130   6
   2  -4   9 733.532  58.193   6
   2  -4   9 745.447  54.702   4
  -2  -4  -9 708.849  67.598   1
   2  -4   9 842.129  77.339   1
  -2  -4  -9 748.781  72.125   6
   2   4   9 546.875  73.408   4
   2   4   9 665.301  72.600   6
  -2   4  -9 751.119  80.717   2
   3  -4   9 814.024  81.748   1
   3  -4   9 734.379  71.558   6
  -3  -4  -9 679.271  72.755   6
  -3  -4  -9 792.743  74.189   1
  -3   4  -9 690.420  79.887   2
   3   4   9 795.576  82.407   6
   3   4   9 603.630  78.188   4
   4  -4   9 435.115  64.405   1
  -4  -4  -9 616.895  70.704   1
   4  -4   9 636.469  69.810   6
  -4   4  -9 663.318  79.588   2
   4   4   9 617.318  76.823   6
   4   4   9 717.439  85.258   4
  -5  -4  -9 -1.5419 24.7346   1
   5  -4   9 -12.406  25.930   6
   5  -4   9 -8.5528 26.0830   1
   5   4   9 17.3684 31.5076   6
  -5   4  -9 22.7428 30.4199   2
   5   4   9 30.5441 34.2279   4
   6  -4   9 110.996  40.578   6
   6  -4   9 119.266  46.021   1
  -6  -4  -9 90.4507 38.8242   1
  -6   4  -9 74.5186 43.2603   2
   6   4   9 98.4333 46.6492   4
   6   4   9 61.5109 39.4187   6
  -8   5   9 74.0450 42.6063   3
   8   5  -9 91.7026 45.8159   3
   8   5  -9 123.660  46.207   4
  -7  -5   9 871.757  99.503   2
   7  -5  -9 695.521  86.022   4
   7  -5  -9 823.519  91.942   6
   7   5  -9 767.799  94.656   3
  -7   5   9 980.360 102.277   3
   7   5  -9 948.261  94.559   4
  -6  -5   9 36.0168 32.0522   2
   6  -5  -9 16.5235 25.0370   4
   6  -5  -9 30.3102 26.8011   6
   6   5  -9 32.3152 28.4350   4
   6   5  -9 21.2817 26.1729   3
  -6   5   9 -17.635  20.822   3
   5  -5  -9 112.857  34.210   4
   5  -5  -9 210.161  43.616   6
  -5  -5   9 186.558  44.078   2
  -5   5   9 155.948  38.140   3
   5   5  -9 166.999  39.655   3
   5   5  -9 124.939  33.589   4
   4  -5  -9 33.2927 24.6266   4
   4  -5  -9 77.9125 26.9086   6
  -4  -5   9 14.5207 25.0093   2
   4   5  -9 37.9172 23.3053   3
   4   5  -9 29.3657 20.8779   4
  -4   5   9  2.6203 17.4708   3
   3  -5  -9 2426.30  141.60   4
   3  -5  -9 2400.85  130.10   6
  -3  -5   9 2375.63  137.64   2
  -3   5   9 2507.28  137.27   3
   3   5  -9 2528.61  126.66   4
   3   5  -9 2441.40  135.75   3
   2  -5  -9 11.1267 13.9344   1
   2  -5  -9 12.8344 17.1689   6
  -2  -5   9 11.3911 21.7552   2
   2  -5  -9 -16.316  17.376   4
  -2   5   9 -5.4264 13.5948   3
   2   5  -9 10.7545 15.0238   3
   1  -5  -9 119.597  40.001   4
   1  -5  -9 230.614  38.833   6
   1  -5  -9 316.673  39.118   1
  -1  -5   9 290.976  37.474   1
   1   5  -9 217.460  36.356   3
   1   5  -9 269.851  50.327   2
  -1   5   9 271.507  42.436   3
   0  -5  -9 293.301  50.413   4
   0  -5   9 294.271  41.469   1
   0  -5  -9 309.450  43.983   6
   0  -5  -9 340.351  42.633   1
   0  -5   9 379.414  39.146   6
   0   5   9 293.445  41.293   3
   0   5  -9 327.452  55.277   2
   0   5  -9 226.237  35.466   3
   1  -5   9 2409.61  115.82   6
   1  -5   9 2376.97  124.50   1
  -1  -5  -9 2415.15  128.26   6
  -1  -5  -9 2293.40  120.87   1
  -1   5  -9 2682.57  152.85   2
  -1   5  -9 2306.18  117.03   3
   1   5   9 2512.35  148.76   4
   1   5   9 2345.44  134.46   6
   1   5   9 2183.01  114.54   3
  -2  -5  -9 315.382  48.680   6
  -2  -5  -9 223.736  39.745   1
   2  -5   9 259.751  44.267   1
   2  -5   9 293.732  41.506   6
  -2   5  -9 267.672  53.928   2
   2   5   9 273.896  49.448   6
   2   5   9 247.489  52.621   4
   3  -5   9 -24.945  18.788   6
  -3  -5  -9 -9.1768 20.2904   6
  -3  -5  -9 18.1383 22.0285   1
   3  -5   9 13.3878 22.6341   1
  -3   5  -9  8.5644 26.0740   2
   3   5   9 -13.224  24.709   4
   3   5   9 -22.736  21.064   6
  -4  -5  -9 39.0523 26.0131   1
   4  -5   9 -2.6563 24.3102   6
   4  -5   9 -16.915  21.790   1
  -4   5  -9 -9.3792 26.3068   2
   4   5   9 -29.578  21.372   4
   4   5   9 25.6818 29.1904   6
   5  -5   9 1333.73  118.78   1
  -5  -5  -9 1302.47   96.82   1
   5  -5   9 1442.08  100.96   6
   5   5   9 1342.34  130.04   4
   5   5   9 1329.83  121.35   6
  -5   5  -9 1374.53  110.06   2
  -6  -5  -9 -2.3869 30.1168   1
   6  -5   9 -21.147  32.238   6
   6  -5   9 48.3429 35.4760   1
   6   5   9 20.8200 38.1558   6
   7  -6  -9 123.217  45.116   6
  -7  -6   9 115.786  47.066   2
   7  -6  -9 98.3073 39.8757   4
  -7   6   9 129.072  42.327   3
   7   6  -9 105.886  41.459   3
   6  -6  -9 320.865  55.782   6
   6  -6  -9 447.574  65.877   4
  -6  -6   9 325.236  59.362   2
  -6   6   9 508.873  72.158   3
   6   6  -9 356.001  60.229   3
   5  -6  -9 1213.21   89.86   6
   5  -6  -9 1068.88   89.48   4
  -5  -6   9 1130.30  104.60   2
  -5   6   9 1025.92   99.55   3
   5   6  -9 1147.49  106.63   3
   4  -6  -9 22.3350 21.3585   6
  -4  -6   9 -15.959  20.243   2
   4  -6  -9 -8.3190 18.5231   4
  -4   6   9 17.1688 19.5451   3
   4   6  -9 41.4456 23.9036   3
  -3  -6   9 499.264  66.516   2
   3  -6  -9 504.137  60.011   6
   3  -6  -9 518.360  66.574   4
  -3   6   9 435.328  57.639   3
   3   6  -9 490.292  62.492   3
  -2  -6   9 598.098  72.250   2
   2  -6  -9 669.966  58.055   1
   2  -6  -9 744.516  82.042   4
   2  -6  -9 613.055  64.452   6
  -2   6   9 576.361  65.763   3
   2   6  -9 662.400  67.522   3
   1  -6  -9 2028.91  116.78   6
   1  -6  -9 2012.24  106.74   1
   1  -6  -9 2159.91  138.83   4
  -1  -6   9 2202.31  107.79   1
   1   6  -9 2277.28  120.35   3
  -1   6   9 2027.79  117.27   3
   1   6  -9 2172.80  135.40   2
   0  -6  -9 638.000  65.743   6
   0  -6  -9 560.906  57.191   1
   0  -6   9 569.694  58.180   1
   0  -6  -9 648.147  76.026   4
   0   6   9 596.898  59.955   3
   0   6  -9 594.035  74.347   2
   0   6  -9 783.011  58.881   3
  -1  -6  -9 14.6460 19.6008   6
   1  -6   9 17.1857 19.5298   1
  -1  -6  -9 11.8342 17.9956   1
   1   6   9  1.0050 14.1613   3
   1   6   9 15.2703 22.8750   6
  -1   6  -9 -12.102  13.250   3
  -1   6  -9 12.1395 27.5043   2
   1   6   9 -3.0522 19.7778   4
   2  -6   9 59.7896 28.4579   1
  -2  -6  -9 60.8952 27.4488   6
   2  -6   9 37.4865 20.6764   6
  -2  -6  -9 27.3202 20.1267   1
   2   6   9 61.1376 29.1863   6
   2   6   9 41.4671 31.7153   4
  -2   6  -9 35.2488 28.1408   2
   3  -6   9 1191.04   79.40   6
   3  -6   9 1024.43   81.26   1
  -3  -6  -9 1149.16   88.39   6
  -3  -6  -9 947.996  76.721   1
   3   6   9 1078.85  104.24   6
  -3   6  -9 1122.95  106.29   2
   3   6   9 1014.35  104.84   4
   4  -6   9 76.5261 32.8895   6
   4  -6   9 164.609  44.470   1
  -4  -6  -9 122.307  33.697   1
   4   6   9 120.516  43.541   6
   4   6   9 100.965  38.677   4
  -4   6  -9 167.114  44.971   2
   5  -6   9 -7.0299 25.4674   1
  -5  -6  -9  3.0166 25.0468   1
   5  -6   9 14.4019 31.6309   6
   5   6   9 82.7340 41.7514   4
  -5   6  -9 -26.391  27.978   2
   5   6   9 -56.962  26.730   6
  -6  -6  -9 78.1021 41.4257   1
   6  -6   9 89.7383 40.1910   6
   7  -7  -9 657.536  83.789   6
  -7  -7   9 765.601  96.697   2
   7  -7  -9 789.036  95.220   4
   7   7  -9 702.347  90.355   3
  -7   7   9 599.329  83.662   3
  -6  -7   9 33.5238 32.2709   2
   6  -7  -9 -1.8182 24.8956   6
   6  -7  -9 84.6370 38.8749   4
  -6   7   9 -16.955  20.584   3
   6   7  -9 48.0500 31.1497   3
   5  -7  -9 -24.796  20.054   6
  -5  -7   9 47.6071 31.4735   2
   5  -7  -9 -13.458  19.550   4
  -5   7   9  7.4768 21.9223   3
   5   7  -9 -1.3010 24.0191   3
  -4  -7   9 1550.11  111.12   2
   4  -7  -9 1397.42  104.46   4
   4  -7  -9 1336.66   94.28   6
  -4   7   9 1335.80   99.57   3
   4   7  -9 1495.67  102.90   3
   3  -7  -9 210.264  44.144   4
   3  -7  -9 159.065  30.276   1
  -3  -7   9 119.621  37.818   2
   3  -7  -9 150.528  35.918   6
   3   7  -9 145.166  35.609   3
  -3   7   9 139.144  36.370   3
  -2  -7   9 138.390  39.340   2
   2  -7  -9 175.942  32.121   1
   2  -7  -9 184.713  48.234   4
   2  -7  -9 84.9703 27.8260   6
  -2   7   9 98.7250 30.4444   3
   2   7  -9 143.752  34.874   3
  -1  -7   9 156.176  30.095   1
   1  -7  -9 158.242  36.007   6
   1  -7  -9 184.799  44.031   4
   1  -7  -9 98.8030 26.6504   1
   1   7  -9 59.5280 33.0307   2
   1   7  -9 127.214  31.924   3
  -1   7   9 82.2388 28.5358   3
   0  -7  -9 2247.22  119.13   1
   0  -7  -9 2532.41  144.31   4
   0  -7  -9 2095.50  124.30   6
   0  -7   9 2423.79  121.48   1
   0   7   9 2351.05  123.12   3
   0   7  -9 2170.79  120.85   3
   0   7  -9 2218.39  139.50   2
  -1  -7  -9 690.999  69.815   1
   1  -7   9 880.078  66.775   1
  -1  -7  -9 730.016  77.241   6
   1   7   9 733.995  67.264   3
  -1   7  -9 643.624  84.486   2
   1   7   9 939.949  90.683   6
   1   7   9 713.302  85.393   4
  -1   7  -9 778.444  60.319   3
   2  -7   9 1852.61  110.66   1
  -2  -7  -9 1808.34  116.33   6
  -2  -7  -9 1618.80  102.96   1
  -2   7  -9 1791.44  126.88   2
   2   7   9 1821.52  128.35   4
   2   7   9 1911.44  124.20   6
   3  -7   9 -7.5284 21.3982   1
  -3  -7  -9  5.9451 22.0311   1
  -3  -7  -9 -4.3875 26.5325   6
  -3   7  -9 47.6572 31.4469   2
   3   7   9 -5.7152 28.0727   6
   3   7   9 15.2311 25.0410   4
  -4  -7  -9 348.367  56.091   1
   4  -7   9 352.533  54.905   6
   4  -7   9 272.113  52.144   1
   4   7   9 274.664  58.630   4
   4   7   9 340.455  63.720   6
  -4   7  -9 381.340  66.325   2
  -5  -7  -9 406.344  62.067   1
   5  -7   9 493.686  71.392   1
   5  -7   9 352.889  59.107   6
   5   7   9 338.261  63.960   6
   5   7   9 458.701  78.036   4
  -5   7  -9 470.274  74.906   2
   6  -7   9 313.436  61.001   6
  -7   8   9  3.0432 31.1701   3
   7   8  -9 -1.2917 31.0398   3
   6  -8  -9 2509.03  150.60   4
   6  -8  -9 1968.81  133.16   6
  -6  -8   9 2074.36  144.78   2
  -6   8   9 1915.72  136.22   3
   6   8  -9 2101.53  140.67   3
   5  -8  -9  3.2656 27.1005   4
  -5  -8   9 -2.1797 28.5037   2
   5  -8  -9 -7.1948 23.4339   6
   5   8  -9 -0.1572 22.4288   3
  -5   8   9 29.3757 25.7870   3
   4  -8  -9 311.369  50.468   6
  -4  -8   9 286.025  55.693   2
   4  -8  -9 260.462  53.833   4
  -4   8   9 214.146  45.630   3
   4   8  -9 344.828  55.995   3
   3  -8  -9 21.6173 23.2073   6
  -3  -8   9 18.9848 27.1920   2
   3  -8  -9 17.9123 19.4983   1
   3  -8  -9  9.6447 24.8322   4
   3   8  -9 -7.3832 17.7022   3
  -3   8   9 -20.001  15.401   3
   2  -8  -9 2314.69  119.74   1
   2  -8  -9 2242.46  128.15   6
   2  -8  -9 2378.38  154.35   4
  -2  -8   9 2462.51  147.24   2
  -2   8   9 2344.49  133.65   3
   2   8  -9 2229.17  130.73   3
  -1  -8   9 25.8250 19.0402   1
   1  -8  -9  2.9246 19.5417   6
   1  -8  -9 30.8935 28.3282   4
   1  -8  -9  9.9763 19.9821   1
   1   8  -9 33.7954 22.2522   3
  -1   8   9 28.3390 21.7025   3
   1   8  -9  3.2222 26.6321   2
   0  -8  -9 1128.58   83.11   6
   0  -8  -9 917.017  94.163   4
   0  -8  -9 1065.46   75.46   1
   0  -8   9 1277.40   80.39   1
   0   8  -9 1011.59  103.52   2
   0   8   9 1098.26   79.23   3
   0   8  -9 1120.84   79.28   3
  -1  -8  -9 22.0363 20.1763   1
  -1  -8  -9 65.3027 29.5170   6
   1  -8   9 67.0885 28.8211   1
   1   8   9 42.8806 29.4452   4
   1   8   9 54.5930 23.4102   3
   1   8   9 83.9044 33.8145   6
  -1   8  -9 52.4238 22.1444   3
  -1   8  -9 60.3152 37.8593   2
   2  -8   9 1812.39  107.61   1
  -2  -8  -9 1528.29  108.88   6
  -2  -8  -9 1566.04  101.32   1
   2   8   9 1724.72  122.74   4
   2   8   9 1546.02  115.33   6
   3  -8   9 67.8613 30.9493   1
  -3  -8  -9 28.0434 31.8799   6
  -3  -8  -9  4.4964 25.5196   1
   3   8   9 73.9128 39.3957   4
   3   8   9 109.063  39.888   6
  -3   8  -9 18.4557 32.1012   2
   4  -8   9 1367.12  102.05   1
  -4  -8  -9 1407.53  101.97   1
   4   8   9 1480.81  119.99   4
  -4   8  -9 1335.70  130.85   2
   4   8   9 1621.15  119.75   6
  -5  -8  -9 36.2108 30.1334   1
   5  -8   9 -8.0690 23.5500   1
  -5   8  -9 34.6941 37.4244   2
   5   8   9 -8.4112 32.1823   4
   5   8   9 34.2369 38.4671   6
  -7  -9   9 188.862  57.868   5
  -6  -9   9 -30.154  32.499   2
   6  -9  -9 -15.867  27.720   6
   6  -9  -9 11.8426 34.9544   4
   6   9  -9  3.3980 27.6774   3
  -6   9   9 33.6695 29.5971   3
   5  -9  -9 218.372  49.530   6
   5  -9  -9 232.397  54.344   4
  -5  -9   9 336.744  65.388   2
   5   9  -9 349.381  61.519   3
  -5   9   9 445.498  65.127   3
   4  -9  -9 1310.97  107.01   4
   4  -9  -9 1470.31  102.73   6
  -4  -9   9 1576.22  118.90   2
  -4   9   9 1463.13  105.74   3
   4   9  -9 1351.20  103.71   3
   3  -9  -9 1704.17  122.17   4
   3  -9  -9 1807.76   99.06   1
  -3  -9   9 1371.43  127.59   2
   3  -9  -9 1612.85  104.78   6
  -3   9   9 1511.66  107.30   3
   3   9  -9 1476.01  107.02   3
  -2  -9   9 192.202  49.927   2
   2  -9  -9 277.215  46.597   6
   2  -9  -9 324.277  46.152   1
   2  -9  -9 252.679  56.642   4
   2   9  -9 369.300  53.628   3
  -2   9   9 265.782  46.643   3
   1  -9  -9 -5.9103 23.8971   4
   1  -9  -9 47.5921 24.5478   1
  -1  -9   9 33.4551 23.1138   1
   1  -9  -9 -3.8505 19.4131   6
  -1   9   9 15.7808 21.2550   3
   1   9  -9  6.5761 27.5599   2
   1   9  -9 -24.982  15.183   3
   0  -9  -9 1209.05   83.03   1
   0  -9  -9 1226.11   96.56   4
   0  -9  -9 1238.25   89.09   6
   0  -9   9 1165.60   80.57   1
   0   9   9 1034.64  106.08   4
   0   9  -9 1114.94  108.58   2
   0   9   9 1141.14   83.98   3
   0   9  -9 1181.97   83.91   3
  -1  -9  -9 211.725  40.601   1
   1  -9   9 246.196  44.885   1
  -1  -9  -9 265.262  49.442   6
  -1   9  -9 199.084  39.013   3
   1   9   9 284.845  54.441   4
  -1   9  -9 211.352  53.525   2
   1   9   9 327.695  56.983   6
   1   9   9 191.224  38.028   3
  -2  -9  -9 403.206  63.160   6
   2  -9   9 473.108  60.970   1
  -2  -9  -9 469.560  61.384   1
   2   9   9 441.860  70.298   4
  -2   9  -9 572.058  83.843   2
   2   9   9 479.659  71.581   6
  -3  -9  -9 56.5998 30.1790   1
  -3  -9  -9  9.1620 31.7236   6
   3  -9   9 13.1230 25.8144   1
   3   9   9 -18.200  29.846   4
   3   9   9 78.3004 39.3536   6
  -3   9  -9 37.8934 38.3249   2
   4  -9   9 284.030  55.549   1
  -4  -9  -9 373.630  60.479   1
  -4   9  -9 311.936  69.422   2
   4   9   9 446.543  73.331   4
   4   9   9 333.409  66.299   6
  -5  -9  -9 970.683  97.561   1
   5   9   9 942.341 111.967   6
  -7 -10   9 204.034  62.834   5
   6 -10  -9 168.845  54.536   4
   6 -10  -9 191.636  51.901   6
  -6  10   9 292.970  59.429   3
   6  10  -9 199.231  53.685   3
   5 -10  -9 1216.69  110.40   6
  -5 -10   9 1159.97  122.13   2
   5 -10  -9 1216.83  120.53   4
  -5  10   9 1154.86  112.95   3
   5  10  -9 1189.46  111.83   3
   4 -10  -9  5.6715 27.2547   6
   4 -10  -9 -7.1798 29.8650   4
  -4 -10   9 11.8184 32.5806   2
   4  10  -9 15.3478 25.3149   3
  -4  10   9 22.1255 23.9608   3
  -3 -10   9  8.6395 32.4301   2
   3 -10  -9 17.9413 36.0415   4
   3 -10  -9 17.4028 22.7949   1
   3 -10  -9  9.8900 23.1140   6
   3  10  -9 -6.8624 20.1620   3
  -3  10   9 58.5407 27.0857   3
   2 -10  -9 212.479  41.422   1
  -2 -10   9 317.067  60.642   2
   2 -10  -9 241.715  56.593   4
   2 -10  -9 341.358  52.712   6
   2  10  -9 342.863  55.207   3
  -2  10   9 260.826  49.913   3
   1 -10  -9 1229.35   88.35   6
   1 -10  -9 1062.50  104.18   4
   1 -10  -9 1146.47   83.41   1
  -1 -10   9 1095.53  106.61   2
  -1 -10   9 1258.98   83.06   1
  -1  10   9 1164.94   90.22   3
   1  10  -9 1348.03  105.64   2
   1  10  -9 1276.88   92.06   3
   0 -10   9 36.8558 26.5761   1
   0 -10  -9 46.7424 27.1955   1
   0 -10  -9 29.7366 25.4965   6
   0  10   9 28.2199 24.0703   3
   0  10  -9 62.5247 33.9780   2
   0  10  -9 12.1281 22.0228   3
   0  10   9 -1.5438 27.8243   4
  -1 -10  -9 209.064  42.941   1
  -1 -10  -9 164.513  41.463   6
   1 -10   9 211.175  42.976   1
   1  10   9 254.571  53.860   4
   1  10   9 174.160  44.235   6
   1  10   9 242.344  44.060   3
  -1  10  -9 209.965  51.224   2
  -2 -10  -9 102.455  34.921   1
  -2 -10  -9 97.9256 39.0555   6
   2 -10   9 182.717  43.286   1
   2  10   9 113.364  42.758   4
  -2  10  -9 98.0464 44.1553   2
   2  10   9 258.992  57.216   6
  -3 -10  -9 1494.17  117.15   6
  -3 -10  -9 1777.89  114.73   1
   3 -10   9 1660.50  112.10   1
  -3  10  -9 1509.59  149.07   2
   3  10   9 1765.05  128.17   6
   3  10   9 1690.22  129.52   4
  -4 -10  -9 201.933  48.993   1
   4 -10   9 129.366  40.454   1
   4  10   9 366.990  69.972   4
  -4  10  -9 187.405  58.981   2
   4  10   9 244.882  61.731   6
  -8 -11   9 37.7439 53.9955   5
  -7 -11   9 787.511 103.162   5
   6 -11  -9 17.1028 42.8104   4
  -5 -11   9 57.7214 42.4088   2
   5 -11  -9 133.741  49.750   4
   5 -11  -9 209.628  50.462   6
  -5  11   9 188.133  49.702   3
   5  11  -9 158.496  49.294   3
   4 -11  -9 14.7181 37.5299   4
   4 -11  -9 53.9788 34.3215   6
  -4 -11   9 26.4168 38.7368   2
   4  11  -9 36.5387 29.8372   3
  -4  11   9 13.2466 25.3026   3
   3 -11  -9 1466.05   94.38   1
   3 -11  -9 1306.48   98.47   6
   3 -11  -9 1440.95  138.53   4
  -3 -11   9 1425.19  130.51   2
  -3  11   9 1255.15  103.12   3
   3  11  -9 1408.72  107.36   3
   2 -11  -9 33.6788 25.9167   6
   2 -11  -9 26.6253 26.0702   1
   2 -11  -9 26.2802 32.3267   4
  -2 -11   9 28.3015 31.9238   2
   2  11  -9  0.1762 20.1319   3
  -2  11   9 -1.0861 22.5959   3
   1 -11  -9 118.452  37.833   6
   1 -11  -9 131.087  41.396   4
  -1 -11   9 82.7400 37.1368   2
  -1 -11   9 130.684  34.350   1
   1 -11  -9 96.8282 33.6234   1
  -1  11   9 100.405  35.041   3
   1  11  -9 112.711  34.923   3
   0 -11  -9 59.4638 28.0100   1
   0 -11   9 27.3017 28.1454   1
   0 -11  -9 63.1162 32.4093   6
   0  11   9 95.3138 32.9773   3
   0  11  -9 102.221  34.180   3
   0  11  -9 104.505  41.466   2
   0  11   9 14.3299 33.6973   4
  -1 -11  -9 1578.80  106.64   1
   1 -11   9 1660.81  107.43   1
  -1 -11  -9 1541.50  108.71   6
   1  11   9 1475.86  114.65   4
   1  11   9 1645.71  106.87   3
  -1  11  -9 1366.34  128.50   2
   1  11   9 1543.08  115.42   6
  -2 -11  -9 106.240  42.429   6
  -2 -11  -9 44.0285 28.5676   1
   2 -11   9  6.9721 25.4501   1
   2  11   9 80.3354 43.6985   6
   2  11   9 35.4651 35.4953   4
  -2  11  -9 37.8467 37.1020   2
  -3 -11  -9 -23.972  25.167   1
   3 -11   9 25.9731 27.5452   1
  -3 -11  -9 11.5016 36.0856   6
  -3  11  -9 -26.090  38.953   2
   3  11   9  8.2546 31.7452   4
   3  11   9 -4.4790 34.7041   6
   4  11   9 35.8705 43.1363   6
   4  11   9 -10.097  37.161   4
  -8 -12   9 -5.1699 53.1027   5
  -7 -12   9 155.088  65.901   5
   5 -12  -9 486.615  73.253   6
   5 -12  -9 575.834  90.101   4
  -4 -12   9 176.781  56.311   2
   4 -12  -9 249.918  54.590   6
   4 -12  -9 216.844  61.416   4
  -4  12   9 187.848  50.607   3
   4  12  -9 77.8173 37.5979   3
   3 -12  -9 -2.0477 40.3694   4
  -3 -12   9 11.0406 33.9375   2
   3 -12  -9 14.7876 27.5702   6
   3 -12  -9  7.7576 26.6326   1
   3  12  -9 43.5538 30.8397   3
  -3  12   9 10.3348 26.5990   3
   2 -12  -9 988.195  91.209   1
   2 -12  -9 899.541  99.479   4
  -2 -12   9 1132.69  112.92   2
   2 -12  -9 897.014  89.375   6
  -2  12   9 886.925  93.927   3
   2  12  -9 967.609  99.471   3
   1 -12  -9 488.730  63.166   1
  -1 -12   9 355.704  62.687   2
   1 -12  -9 331.976  60.831   4
   1 -12  -9 343.889  55.814   6
   1  12  -9 342.367  58.103   3
  -1  12   9 376.975  60.668   3
   0 -12  -9 564.559  72.483   6
   0 -12  -9 416.379  62.028   1
   0 -12   9 564.656  71.507   1
   0  12  -9 518.192  70.017   3
   0  12   9 636.219  77.387   3
   0  12   9 530.352  78.546   4
   0  12  -9 829.736 101.307   2
   1 -12   9 91.5660 39.8829   1
  -1 -12  -9 10.6961 30.7825   6
  -1 -12  -9 60.7302 32.0062   1
   1  12   9 80.9990 40.9256   6
   1  12   9 118.441  38.011   3
  -1  12  -9 124.664  46.454   2
   1  12   9 45.8243 37.8200   4
   2 -12   9 657.685  80.506   1
  -2 -12  -9 825.263  93.908   6
  -2 -12  -9 738.063  82.920   1
  -2  12  -9 730.064  99.521   2
   2  12   9 746.599  91.958   4
   2  12   9 596.560  87.547   6
   3 -12   9 603.690  77.720   1
  -3 -12  -9 581.510  77.505   1
  -3 -12  -9 605.353  83.796   6
   3  12   9 681.216  91.963   6
   3  12   9 583.652  84.154   4
  -3  12  -9 648.132 100.704   2
  -8 -13   9 244.933  75.441   5
  -7 -13   9  0.1020 51.1718   5
   4 -13  -9 1598.27  116.50   6
   3 -13  -9 63.4976 33.9915   1
  -3 -13   9 22.1791 36.9342   2
   3 -13  -9 39.8558 34.5013   6
   3 -13  -9  4.4100 41.7819   4
  -3  13   9 79.4686 36.8823   3
   3  13  -9 36.6551 32.5752   3
  -2 -13   9 628.980  86.702   2
   2 -13  -9 410.325  70.006   4
   2 -13  -9 517.166  67.915   1
   2 -13  -9 613.354  74.939   6
  -2  13   9 617.035  82.630   3
   2  13  -9 534.817  76.646   3
   1 -13  -9 21.6429 28.5310   6
   1 -13  -9 -2.9267 25.8708   1
  -1 -13   9 29.5723 32.8449   2
   1 -13  -9 -6.2941 29.2004   4
   1  13  -9 46.5138 29.5319   3
  -1  13   9 -3.6044 32.3093   4
  -1  13   9  4.0400 25.6029   3
   0 -13  -9 924.796  96.525   6
   0 -13  -9 1239.16   95.61   1
   0 -13   9 1260.97   95.12   1
   0  13  -9 880.934  98.537   3
   0  13   9 1157.25  112.75   4
   0  13  -9 1269.79  126.59   2
   0  13   9 1053.06  103.20   3
  -1 -13  -9 -0.2314 25.3288   1
   1 -13   9 -33.765  24.080   1
  -1 -13  -9 17.0236 33.4488   6
   1  13   9 -18.359  31.004   6
   1  13   9 -22.952  30.926   4
  -1  13  -9 -7.7044 34.4970   2
   1  13   9  5.0209 27.8282   3
  -2 -13  -9 593.552  79.734   6
   2 -13   9 513.709  75.045   1
  -2 -13  -9 476.810  72.239   1
  -2  13  -9 619.813  90.297   2
   2  13   9 613.058  84.470   6
   2  13   9 644.864  85.708   4
  -8 -14   9 34.4027 59.3593   5
  -7 -14   9 55.7687 58.3275   5
   3 -14  -9 101.990  41.043   1
   3 -14  -9 91.8147 41.5322   6
   2 -14  -9 1482.59  106.58   1
   2 -14  -9 1454.83  106.35   6
  -2 -14   9 1459.17  134.09   2
   2  14  -9 1349.04  127.10   3
  -2  14   9 1299.96  127.39   3
   1 -14  -9 562.906  71.504   6
   1 -14  -9 514.544  70.768   1
  -1 -14   9 504.237  78.399   2
  -1  14   9 385.354  67.478   3
   1  14  -9 480.328  73.939   3
   0 -14  -9 653.611  82.583   1
   0 -14   9 801.996  87.035   1
   0 -14  -9 789.101  87.367   6
   0  14   9 708.327  86.759   3
   0  14  -9 875.499 105.286   2
   0  14  -9 679.785  87.280   3
   1 -14   9 49.2646 36.8390   1
  -1  14  -9 17.6500 42.4370   2
   1  14   9 32.7229 37.4432   4
   2  14   9 404.732  73.834   4
  -8 -15   9 206.975  81.664   5
  -7 -15   9 463.562 100.116   5
   2 -15  -9 19.8451 32.9624   6
   0 -15   9 302.491  61.692   1
   0  15   9 350.607  65.343   3
  -7 -16   9 240.574  82.308   5
  -8   0  10 760.846  96.492   3
  -7   0  10 -21.293  26.438   3
   7   0 -10 30.6406 30.2646   4
  -7   0  10 22.6637 30.3423   2
  -6   0  10 3543.01  180.62   2
   6   0 -10 3725.12  182.35   6
   6   0 -10 3703.67  193.80   4
  -6   0  10 3473.98  198.85   3
   5   0 -10  8.2406 19.5079   6
  -5   0  10  9.4169 20.6560   2
   5   0 -10 -0.8599 21.6243   4
  -5   0  10 -3.7826 20.6666   3
   4   0 -10 17.5879 17.0720   6
  -4   0  10 20.5361 18.1032   2
   4   0 -10 -2.3445 16.8890   3
   4   0 -10 19.7587 21.7487   4
  -4   0  10  5.0099 20.6561   3
   3   0 -10  8.5619 20.3126   4
  -3   0  10 20.5257 14.7228   2
   3   0 -10 12.2551 16.3231   6
   3   0 -10 -8.6210 14.3749   3
   2   0 -10 1988.31  103.45   6
  -2   0  10 1949.85  101.72   2
   2   0 -10 1873.09  118.47   4
   2   0 -10 2034.78  114.48   3
  -1   0  10  3.6993 13.6170   2
  -1   0  10 -9.7642 13.9459   3
   1   0 -10 -0.2382 12.2681   1
   1   0 -10  5.2084 13.3170   6
   1   0 -10  7.1938 14.7116   3
   1   0 -10  4.1380 22.9314   4
   0   0 -10 122.468  27.492   6
   0   0 -10 99.4152 31.0037   2
   0   0 -10 93.6361 24.6732   1
   0   0  10 126.122  29.641   6
   0   0  10 186.737  33.264   3
   0   0 -10 112.949  32.140   4
  -1   0 -10 10.4421 15.1593   6
   1   0  10 12.9217 17.4821   6
  -1   0 -10 -5.2132 22.8083   2
  -1   0 -10 -3.1359 13.0518   1
   1   0  10  4.5394 20.6933   4
  -2   0 -10 3363.16  158.30   6
   2   0  10 3152.37  167.70   4
  -2   0 -10 3126.04  156.15   1
  -2   0 -10 3309.47  167.48   2
   2   0  10 3228.70  162.45   6
  -3   0 -10 -2.5324 23.2749   2
   3   0  10 11.4522 21.2081   4
  -3   0 -10  0.1477 17.2349   1
   3   0  10 15.8873 22.1884   6
   4   0  10 468.357  64.862   4
  -4   0 -10 639.794  72.142   1
  -4   0 -10 646.656  78.320   2
   4   0  10 592.574  72.156   6
   5   0  10 -4.1105 27.1589   6
  -5   0 -10 43.0567 30.5027   1
   5   0  10 38.8741 31.7944   4
  -5   0 -10 -1.4185 34.1625   2
  -6   0 -10 378.464  63.866   1
   6   0  10 507.644  74.125   4
  -6   0 -10 613.406  85.237   2
  -8  -1  10 1314.86  132.32   3
  -8  -1  10 1182.04  118.99   2
   8  -1 -10 1264.17  119.04   6
  -8   1  10 1373.73  135.11   3
   7  -1 -10 22.0488 28.8770   6
  -7  -1  10 37.7240 32.0923   2
   7  -1 -10  0.1992 26.0784   4
  -7  -1  10 -9.9010 27.8583   3
  -7   1  10 29.2130 31.2005   3
   7   1 -10 38.4848 33.5813   4
   6  -1 -10 95.7227 36.3367   4
   6  -1 -10 76.8344 30.9421   6
  -6  -1  10 129.073  36.698   2
  -6  -1  10 107.313  38.083   3
   6   1 -10 83.6291 33.8811   4
  -6   1  10 79.0234 35.9284   3
   6   1 -10 147.537  42.644   3
   5  -1 -10 621.412  72.744   4
   5  -1 -10 589.964  66.133   6
  -5  -1  10 611.008  66.904   2
   5   1 -10 626.287  73.997   3
   5   1 -10 551.899  59.671   6
   5   1 -10 525.254  66.770   4
  -5   1  10 532.186  70.681   3
  -4  -1  10 1715.33  101.90   2
   4  -1 -10 1609.89  100.75   6
   4  -1 -10 1713.86  111.03   4
  -4   1  10 1665.95   96.73   2
   4   1 -10 1854.89  110.59   4
   4   1 -10 1874.73  101.27   6
   4   1 -10 1813.31  113.35   3
  -4   1  10 1890.11  118.63   3
   3  -1 -10 1368.02   83.57   6
  -3  -1  10 1247.82   80.29   2
   3  -1 -10 1415.05   94.89   4
   3   1 -10 1222.99   87.64   3
  -3   1  10 1268.23   92.23   3
   3   1 -10 1313.11   78.28   6
  -3   1  10 1245.13   74.90   2
   3   1 -10 1319.13   89.93   4
  -2  -1  10 -8.1421 14.1917   2
   2  -1 -10  0.3444 13.8467   6
   2  -1 -10 20.4823 21.4234   4
   2  -1 -10 20.9663 12.6387   1
   2   1 -10 -15.341  12.718   6
   2   1 -10 -11.385  18.452   4
  -2   1  10 -1.5176 12.1320   2
   2   1 -10 -3.5131 14.9369   3
  -2   1  10 -2.6413 16.5967   3
   1  -1 -10 113.546  23.876   1
   1  -1 -10 119.655  39.012   4
   1  -1 -10 71.7313 22.5397   6
   1   1 -10 129.085  37.327   4
   1   1 -10 130.448  28.095   3
  -1   1  10 31.1386 21.2608   3
   1   1 -10 62.7007 20.7314   6
   1   1 -10 96.5409 22.5500   1
  -1   1  10 85.8763 21.9437   2
   1   1 -10 94.3875 29.0398   2
   0  -1 -10 3081.06  163.20   4
   0  -1 -10 2909.41  138.47   1
   0  -1 -10 3046.87  144.17   6
   0  -1  10 3279.16  149.06   6
   0  -1 -10 3209.94  148.60   2
   0   1 -10 2926.32  155.36   4
   0   1 -10 3025.43  138.36   1
   0   1 -10 3054.04  144.06   3
   0   1 -10 2658.65  152.32   2
   0   1  10 2876.91  148.58   6
   0   1  10 2998.39  145.75   3
   0   1 -10 3031.30  140.44   6
  -1  -1 -10 82.9467 25.7968   6
  -1  -1 -10 88.4603 25.3029   1
   1  -1  10 40.9530 23.7230   4
  -1  -1 -10 119.609  35.591   2
   1  -1  10 84.6366 26.9763   6
  -1   1 -10 79.2725 24.0917   6
   1   1  10 89.1716 27.7052   6
  -1   1 -10 74.6083 23.5373   1
   1   1  10 75.7731 32.6201   4
  -1   1 -10 76.4468 34.7052   2
  -2  -1 -10 979.783  85.766   2
   2  -1  10 914.379  80.986   6
  -2  -1 -10 928.223  70.504   6
   2  -1  10 1095.41   77.40   4
  -2  -1 -10 882.083  69.133   1
   2   1  10 794.520  83.779   4
  -2   1 -10 1003.85   91.65   2
   2   1  10 868.860  83.052   6
  -2   1 -10 851.181  66.348   1
  -3  -1 -10 409.954  57.718   2
   3  -1  10 482.174  58.784   4
   3  -1  10 313.661  50.423   6
  -3  -1 -10 317.203  47.612   1
  -3   1 -10 399.037  52.297   1
   3   1  10 402.957  58.784   4
   3   1  10 377.728  54.701   6
  -3   1 -10 393.359  59.157   2
  -4  -1 -10 863.159  88.916   2
  -4  -1 -10 866.888  82.115   1
   4  -1  10 793.038  82.461   6
   4  -1  10 669.771  75.065   4
  -4   1 -10 857.403  91.288   2
   4   1  10 778.476  85.803   4
   4   1  10 671.507  77.567   6
  -4   1 -10 961.496  87.027   1
  -5  -1 -10 741.089  81.234   1
   5  -1  10 778.705  85.333   4
   5  -1  10 838.209  88.991   6
  -5  -1 -10 820.561  90.695   2
  -5   1 -10 840.486  95.395   2
   5   1  10 730.635  86.857   4
   5   1  10 906.715  93.838   6
  -6  -1 -10 64.0090 40.0310   1
   6  -1  10 81.3095 44.7141   6
   6  -1  10 125.848  46.262   4
  -6   1 -10 100.325  45.736   2
   6   1  10 42.9698 37.1200   4
   8  -2 -10 32.6154 34.7196   6
  -8  -2  10 27.3150 35.9566   2
   7  -2 -10 822.880  92.225   4
   7  -2 -10 736.670  81.821   6
  -7  -2  10 791.191  97.833   3
  -7  -2  10 727.720  85.780   2
  -7   2  10 595.369  84.251   3
   7   2 -10 787.996  97.175   3
   7   2 -10 866.309  92.567   4
   6  -2 -10 252.649  51.371   4
  -6  -2  10 176.927  43.856   2
   6  -2 -10 244.635  45.769   6
   6   2 -10 283.210  52.358   4
  -6   2  10 233.004  51.471   3
   6   2 -10 238.602  50.650   3
   5  -2 -10 668.575  74.862   4
   5  -2 -10 464.219  59.679   6
  -5  -2  10 451.973  58.411   2
  -5   2  10 480.290  67.839   3
   5   2 -10 434.466  59.885   4
   5   2 -10 355.518  56.484   3
   4  -2 -10 52.0348 25.5164   4
  -4  -2  10 56.7037 24.0395   2
   4  -2 -10 26.4610 20.5829   6
  -4   2  10 40.9155 24.7276   3
   4   2 -10 45.7802 24.6652   3
   4   2 -10 35.7415 23.6833   4
   3  -2 -10 1676.86  107.77   4
   3  -2 -10 1486.35   93.92   6
  -3  -2  10 1870.57  101.05   2
   3   2 -10 1691.39   88.78   6
  -3   2  10 1467.17  102.11   3
   3   2 -10 1602.25  100.98   4
   3   2 -10 1448.22  100.33   3
   2  -2 -10 620.162  46.767   1
  -2  -2  10 798.319  70.595   2
   2  -2 -10 698.657  65.154   6
   2  -2 -10 725.192  78.056   4
  -2   2  10 798.164  77.387   3
   2   2 -10 607.272  67.495   4
   2   2 -10 629.939  49.049   6
   2   2 -10 698.714  68.795   3
   1  -2 -10 1606.29   85.67   1
   1  -2 -10 1492.61  112.26   4
   1  -2 -10 1566.48   92.09   6
   1   2 -10 1753.31   98.23   3
   1   2 -10 1497.16   83.94   6
   1   2 -10 1704.76  105.49   2
   1   2 -10 1424.62  103.26   4
  -1   2  10 1659.52   98.59   3
   1   2 -10 1618.65   83.46   1
   0  -2 -10 47.1025 20.7800   6
   0  -2 -10 17.2006 16.3780   1
   0  -2 -10 -0.4738 20.3933   4
   0  -2  10 47.8963 20.4908   6
   0   2  10 14.6449 17.3259   3
   0   2  10 10.5911 19.1510   6
   0   2 -10  3.7050 15.0952   1
   0   2 -10 24.9066 18.1467   3
   0   2 -10 47.6687 18.1740   6
   0   2 -10 13.2510 19.4457   4
   0   2 -10 -7.9760 22.5016   2
  -1  -2 -10 568.246  56.755   1
   1  -2  10 504.911  55.446   6
  -1  -2 -10 545.080  59.188   6
   1  -2  10 550.744  59.822   4
   1   2  10 584.214  66.122   6
  -1   2 -10 627.043  58.219   6
   1   2  10 614.363  74.758   4
  -1   2 -10 655.156  78.299   2
  -1   2 -10 553.099  55.913   1
   2  -2  10 686.154  66.018   4
  -2  -2 -10 635.320  64.027   1
  -2  -2 -10 536.737  61.241   6
   2  -2  10 519.428  59.380   6
  -2   2 -10 693.449  79.449   2
   2   2  10 770.448  77.623   6
   2   2  10 614.829  74.750   4
  -2   2 -10 583.005  60.994   1
  -3  -2 -10 1073.51   79.59   1
   3  -2  10 1194.70   80.91   4
   3  -2  10 1038.56   78.77   6
  -3   2 -10 1002.14   97.93   2
  -3   2 -10 1057.62   77.72   1
   3   2  10 875.604  88.947   6
   3   2  10 1011.55   98.65   4
   4  -2  10 158.746  40.042   6
   4  -2  10 162.223  38.978   4
  -4  -2 -10 130.574  35.983   1
  -4   2 -10 127.062  35.575   1
  -4   2 -10 117.505  40.860   2
   4   2  10 82.2832 35.1174   6
   4   2  10 117.075  39.066   4
   5  -2  10 438.639  68.010   6
   5  -2  10 566.428  76.739   1
  -5  -2 -10 431.350  63.396   1
   5  -2  10 498.810  66.455   4
   5   2  10 449.156  68.194   6
  -5   2 -10 259.904  62.133   2
   5   2  10 396.018  67.292   4
  -5   2 -10 338.811  57.563   1
   6  -2  10 14.8865 35.2528   6
  -6   2 -10 -11.811  36.581   2
   6   2  10 -10.885  35.858   4
  -7  -3  10 460.165  69.570   2
   7  -3 -10 424.571  67.270   4
   7  -3 -10 362.647  63.371   6
  -7   3  10 437.009  71.738   3
   7   3 -10 454.940  69.355   4
   7   3 -10 514.680  78.013   3
  -6  -3  10 30.5434 29.0876   2
   6  -3 -10 29.6123 26.2254   6
   6  -3 -10 36.7006 28.8284   4
   6   3 -10 19.5250 28.3832   3
   6   3 -10 59.9286 32.9033   4
  -6   3  10 13.5618 23.7517   3
   5  -3 -10 753.925  77.717   6
  -5  -3  10 950.932  88.706   2
   5  -3 -10 972.671  91.961   4
   5   3 -10 801.801  79.293   4
  -5   3  10 738.743  84.632   3
   5   3 -10 774.093  85.292   3
   4  -3 -10 521.822  61.435   6
  -4  -3  10 380.786  54.060   2
   4  -3 -10 429.720  59.252   4
  -4   3  10 453.729  64.441   3
   4   3 -10 398.640  53.211   4
   4   3 -10 454.049  61.102   3
   3  -3 -10 587.200  62.016   6
   3  -3 -10 492.527  64.474   4
  -3  -3  10 569.827  62.196   2
   3   3 -10 542.719  61.118   4
   3   3 -10 500.960  61.156   3
  -3   3  10 499.017  64.070   3
   2  -3 -10 25.1911 18.8076   6
   2  -3 -10 27.7926 15.5668   1
   2  -3 -10 35.8644 26.5878   4
  -2  -3  10 68.9357 26.6779   2
   2   3 -10 39.7732 24.3177   4
  -2   3  10 18.3115 20.0099   3
   2   3 -10 42.0861 22.1114   3
   2   3 -10 20.0627 15.2249   6
  -1  -3  10 1869.02   98.96   6
   1  -3 -10 1945.31   98.76   1
   1  -3 -10 1852.04  128.37   4
  -1  -3  10 1961.29  100.55   1
   1  -3 -10 1938.98  107.09   6
   1   3 -10 1723.62  116.50   2
  -1   3  10 2016.45  111.83   3
   1   3 -10 2021.83  110.75   3
   1   3 -10 1801.48  113.55   4
   1   3 -10 1888.32   94.56   6
   0  -3 -10 223.272  35.493   1
   0  -3  10 160.562  34.109   4
   0  -3 -10 160.689  32.838   6
   0  -3 -10 146.716  38.101   4
   0  -3  10 217.036  34.364   6
   0   3 -10 228.772  32.824   1
   0   3  10 161.606  31.397   3
   0   3 -10 170.199  32.722   3
   0   3 -10 172.836  34.805   4
   0   3 -10 139.285  40.620   2
   0   3 -10 156.715  27.296   6
   1  -3  10 1802.66  100.56   4
   1  -3  10 1628.07   95.09   6
  -1  -3 -10 1579.84   99.35   6
  -1  -3 -10 1959.36  101.04   1
   1   3  10 1437.84  110.72   4
  -1   3 -10 1869.79  122.29   2
  -1   3 -10 1584.62   92.58   1
   1   3  10 1524.00  104.07   6
  -2  -3 -10 58.3681 22.8720   1
  -2  -3 -10 45.4841 24.7277   6
   2  -3  10 44.9787 23.8288   6
   2  -3  10 14.1511 18.2417   4
  -2   3 -10 44.0168 21.5192   1
   2   3  10 -8.9840 25.6930   4
  -2   3 -10 44.6823 32.1593   2
   2   3  10 51.8462 27.1946   6
   3  -3  10 417.929  57.055   6
  -3  -3 -10 439.885  57.216   1
   3  -3  10 579.317  60.668   4
   3  -3  10 332.346  54.038   1
  -3   3 -10 470.096  57.616   1
   3   3  10 454.908  64.101   6
  -3   3 -10 558.290  73.908   2
   3   3  10 508.941  70.805   4
   4  -3  10 -10.833  26.119   1
   4  -3  10 58.5073 30.3316   6
  -4  -3 -10 39.6278 27.7695   1
  -4   3 -10 12.7941 29.4121   2
   4   3  10 31.4108 27.9810   6
   4   3  10 30.0897 27.9085   4
  -5  -3 -10 1605.04  110.24   1
   5  -3  10 1632.78  119.77   1
   5  -3  10 1529.91  109.93   6
   5   3  10 1495.68  115.92   6
   5   3  10 1636.28  124.29   4
  -5   3 -10 1411.59  131.98   2
   7  -4 -10 471.980  73.860   4
  -7  -4  10 501.085  75.332   2
   7  -4 -10 433.981  66.965   6
   7   4 -10 519.137  73.158   4
  -7   4  10 558.240  81.016   3
   7   4 -10 440.493  71.171   3
   6  -4 -10 1145.11  102.89   6
   6  -4 -10 788.610  91.342   4
  -6  -4  10 931.285  95.015   2
   6   4 -10 1020.73   96.33   4
  -6   4  10 878.596  95.030   3
   6   4 -10 1011.41  101.84   3
   5  -4 -10 682.226  74.656   6
  -5  -4  10 772.653  80.026   2
   5  -4 -10 777.840  83.339   4
  -5   4  10 762.245  85.239   3
   5   4 -10 619.202  78.117   3
   5   4 -10 665.106  71.368   4
  -4  -4  10 161.271  39.148   2
   4  -4 -10 67.6389 27.9421   6
   4  -4 -10 162.402  40.429   4
  -4   4  10 125.142  34.775   3
   4   4 -10 174.680  37.889   4
   4   4 -10 178.764  41.450   3
   3  -4 -10 62.0754 27.7144   4
   3  -4 -10 86.8686 27.5909   6
  -3  -4  10 84.8592 30.5816   2
  -3   4  10 104.833  31.677   3
   3   4 -10 107.651  30.557   3
   3   4 -10 66.1829 25.5447   4
   2  -4 -10 2400.55  114.33   1
  -2  -4  10 2299.83  135.89   2
   2  -4 -10 2231.47  144.69   4
   2  -4 -10 2304.17  127.42   6
   2   4 -10 2554.22  132.92   4
   2   4 -10 2386.74  132.56   3
  -2   4  10 2658.67  136.58   3
   1  -4 -10 178.167  46.290   4
   1  -4 -10 158.055  30.808   1
  -1  -4  10 152.238  31.204   1
   1  -4 -10 164.701  34.015   6
  -1   4  10 206.217  37.285   3
   1   4 -10 118.071  29.244   3
   1   4 -10 111.817  36.928   2
   0  -4 -10 294.396  53.587   4
   0  -4  10 348.750  46.694   1
   0  -4  10 378.630  43.800   6
   0  -4 -10 392.536  51.955   6
   0  -4 -10 420.874  48.245   1
   0   4 -10 423.365  43.655   6
   0   4  10 446.564  51.940   3
   0   4 -10 525.146  68.979   2
   0   4 -10 387.568  48.290   3
  -1  -4 -10 1190.63   84.90   1
   1  -4  10 1592.92   88.66   6
  -1  -4 -10 1372.60   92.88   6
   1  -4  10 1548.07   96.14   1
   1   4  10 1510.41  101.73   6
  -1   4 -10 1559.27  116.65   2
   1   4  10 1635.14  113.51   4
  -2  -4 -10 939.618  73.850   1
   2  -4  10 1072.54   74.86   6
   2  -4  10 1010.73   91.57   1
  -2  -4 -10 1177.02   82.72   6
  -2   4 -10 1180.55  109.76   2
   2   4  10 961.872 101.769   4
   2   4  10 1039.76   96.97   6
   3  -4  10 1945.46  123.22   1
   3  -4  10 1771.12  111.78   6
  -3  -4 -10 1918.07  115.84   1
  -3  -4 -10 1876.52  119.72   6
   3   4  10 2177.82  139.05   4
   3   4  10 2036.50  128.49   6
  -3   4 -10 1983.89  130.48   2
   4  -4  10 108.043  36.016   6
  -4  -4 -10 46.1137 27.1995   1
   4  -4  10 86.9675 37.1347   1
  -4   4 -10 131.837  46.638   2
   4   4  10 69.5841 36.9626   4
   4   4  10 60.7548 35.7246   6
  -5  -4 -10 16.2306 28.9020   1
   5  -4  10 -45.430  25.789   1
   5  -4  10 -22.615  28.375   6
   5   4  10 17.2121 35.9186   4
  -5   4 -10  7.1994 30.7776   2
   5   4  10 11.9266 31.9400   6
  -7  -5  10 72.3098 41.3722   2
   7  -5 -10 25.6969 32.2212   6
   7  -5 -10 53.6281 37.5005   4
   7   5 -10  4.7057 29.8213   3
  -7   5  10 64.5189 36.8713   3
   6  -5 -10 34.0354 30.5437   6
  -6  -5  10 145.165  44.829   2
   6  -5 -10 30.6971 30.4467   4
   6   5 -10 68.0486 35.3250   3
  -6   5  10 23.8079 28.5764   3
   5  -5 -10  1.0082 21.6415   6
   5  -5 -10 36.5314 27.7769   4
  -5  -5  10 10.9004 26.4494   2
   5   5 -10 24.0914 25.6158   3
  -5   5  10 -3.2443 17.8568   3
  -4  -5  10 2938.64  164.89   2
   4  -5 -10 3233.90  172.77   4
   4  -5 -10 3014.06  158.12   6
   4   5 -10 2954.39  163.58   3
  -4   5  10 2802.55  161.86   3
  -3  -5  10 41.4224 26.9339   2
   3  -5 -10 92.4990 33.5608   4
   3  -5 -10 68.0663 26.5752   6
  -3   5  10 40.5587 23.8829   3
   3   5 -10 73.7687 27.4062   3
   2  -5 -10 60.2295 29.3457   4
   2  -5 -10 15.7129 20.0050   6
  -2  -5  10 29.9317 24.8060   2
   2  -5 -10 19.7511 18.8366   1
  -2   5  10 -9.6901 15.5484   3
   2   5 -10 -7.5843 15.5166   3
  -1  -5  10 166.332  31.556   1
   1  -5 -10 167.481  44.945   4
   1  -5 -10 143.105  34.328   6
   1  -5 -10 193.456  32.519   1
   1   5 -10 94.4705 28.3082   3
   1   5 -10 120.278  44.524   2
  -1   5  10 134.558  33.543   3
   0  -5  10 3159.45  150.85   1
   0  -5 -10 3101.07  159.20   6
   0  -5 -10 3046.20  147.86   1
   0  -5 -10 3324.52  177.88   4
   0   5  10 3029.99  151.90   3
   0   5 -10 2964.48  171.17   2
   0   5 -10 3189.52  153.81   3
  -1  -5 -10 110.081  28.869   1
   1  -5  10 109.067  27.106   6
   1  -5  10 83.8640 29.9520   1
  -1  -5 -10 80.3379 28.5512   6
   1   5  10 122.013  38.951   4
   1   5  10 117.637  36.404   6
  -1   5 -10 117.605  42.409   2
   2  -5  10 236.239  43.556   1
  -2  -5 -10 311.584  49.481   6
  -2  -5 -10 253.299  43.976   1
   2  -5  10 260.619  42.218   6
   2   5  10 259.228  53.826   4
   2   5  10 290.808  51.307   6
  -2   5 -10 274.551  59.299   2
  -3  -5 -10  8.8306 22.1826   1
   3  -5  10 13.7567 23.6021   6
   3  -5  10 49.7605 30.4058   1
  -3  -5 -10 45.8072 25.6473   6
  -3   5 -10  1.2819 28.6061   2
   3   5  10 20.3631 28.2656   6
   3   5  10 45.1206 35.1188   4
   4  -5  10 1358.34   95.54   6
   4  -5  10 1289.54   99.91   1
  -4  -5 -10 1398.99   97.86   1
   4   5  10 1147.36  118.12   4
  -4   5 -10 1111.78  113.98   2
   4   5  10 1514.80  112.81   6
  -5  -5 -10 -6.8450 27.0739   1
   5  -5  10  2.8701 28.3188   1
   5  -5  10 14.2352 30.4497   6
   5   5  10 19.5648 31.1963   6
   5   5  10 -13.048  29.773   4
  -5   5 -10 20.9815 35.2295   2
   7  -6 -10 110.042  41.160   6
  -7  -6  10 160.487  49.947   2
   7   6 -10 122.718  47.406   3
  -7   6  10 66.6633 39.2355   3
  -6  -6  10 1045.13  106.98   2
   6  -6 -10 892.780  92.139   6
   6  -6 -10 856.353  96.067   4
   6   6 -10 781.943  93.708   3
  -6   6  10 800.291  91.830   3
   5  -6 -10 228.937  50.653   4
  -5  -6  10 207.885  47.475   2
   5  -6 -10 145.335  39.983   6
  -5   6  10 130.995  39.121   3
   5   6 -10 243.628  50.945   3
   4  -6 -10 310.278  54.586   4
   4  -6 -10 362.792  53.106   6
  -4  -6  10 213.019  47.882   2
  -4   6  10 292.151  51.544   3
   4   6 -10 191.208  42.936   3
   3  -6 -10 77.6742 32.5631   4
  -3  -6  10 61.4928 31.1520   2
   3  -6 -10 46.7669 25.8408   6
   3   6 -10 51.3577 25.3427   3
  -3   6  10 47.2974 24.8944   3
  -2  -6  10 3489.72  194.27   2
   2  -6 -10 3712.34  184.18   6
   2  -6 -10 3981.21  214.76   4
   2  -6 -10 3789.27  169.47   1
  -2   6  10 3932.21  190.57   3
   2   6 -10 4051.74  190.54   3
   1  -6 -10 151.457  42.137   4
   1  -6 -10 86.3258 29.9686   6
  -1  -6  10 179.365  33.984   1
   1  -6 -10 130.054  30.244   1
  -1   6  10 188.913  36.891   3
   1   6 -10 173.014  45.575   2
   1   6 -10 215.434  39.294   3
   0  -6 -10 433.483  57.414   6
   0  -6  10 554.965  58.866   1
   0  -6 -10 490.811  55.295   1
   0  -6 -10 443.206  65.987   4
   0   6 -10 497.885  72.147   2
   0   6 -10 379.779  49.312   3
   0   6  10 460.744  55.170   3
   1  -6  10 357.087  50.210   1
  -1  -6 -10 421.672  52.262   1
  -1  -6 -10 371.415  55.141   6
   1   6  10 266.222  49.898   6
   1   6  10 355.403  61.904   4
  -1   6 -10 501.339  75.821   2
   2  -6  10 1035.33   83.15   1
  -2  -6 -10 1002.48   95.65   6
  -2  -6 -10 1261.06   86.75   1
   2   6  10 1299.27  114.56   6
   2   6  10 1114.63  113.18   4
  -2   6 -10 1347.72  122.88   2
   3  -6  10 518.918  69.106   1
  -3  -6 -10 496.471  67.951   6
  -3  -6 -10 600.599  68.617   1
   3  -6  10 511.008  62.366   6
   3   6  10 332.960  65.014   4
   3   6  10 483.501  72.438   6
  -3   6 -10 498.452  77.263   2
   4  -6  10 36.4431 28.0104   1
   4  -6  10 135.645  40.667   6
  -4  -6 -10 106.733  36.966   1
   4   6  10 49.9591 38.7689   4
   4   6  10 34.4366 34.7359   6
  -4   6 -10 109.628  44.011   2
   5  -6  10  3.9091 33.6717   6
   5  -6  10 21.9205 33.2080   1
  -5  -6 -10 -16.387  29.630   1
   5   6  10 15.8567 37.7532   6
   5   6  10 17.2478 38.2180   4
  -5   6 -10 24.0759 37.3445   2
   6  -7 -10 12.9048 28.0445   6
  -6  -7  10 89.4961 42.1573   2
   6  -7 -10 66.3288 34.9887   4
  -6   7  10 100.773  37.555   3
   6   7 -10 61.4947 35.7223   3
  -5  -7  10 179.785  48.664   2
   5  -7 -10 348.936  55.870   6
   5  -7 -10 282.352  56.198   4
  -5   7  10 269.823  52.354   3
   5   7 -10 246.233  51.792   3
   4  -7 -10 1118.45   86.79   6
   4  -7 -10 1371.43  104.21   4
  -4  -7  10 1398.88  106.24   2
   4   7 -10 1153.81   92.91   3
  -4   7  10 886.948  93.612   3
   3  -7 -10 407.666  55.226   6
   3  -7 -10 404.588  63.479   4
  -3  -7  10 402.984  63.885   2
  -3   7  10 276.488  48.985   3
   3   7 -10 384.546  57.368   3
   2  -7 -10 19.4807 21.6471   6
   2  -7 -10 64.1163 35.6498   4
   2  -7 -10 35.7508 21.2310   1
  -2  -7  10 69.0163 31.3571   2
   2   7 -10 36.5151 22.9214   3
  -2   7  10 31.4941 22.1544   3
   1  -7 -10 1457.88  100.81   6
   1  -7 -10 1565.50   93.75   1
  -1  -7  10 1674.08   94.82   1
   1  -7 -10 1527.80  115.09   4
  -1   7  10 1503.46  100.64   3
   1   7 -10 1729.95  122.78   2
   1   7 -10 1844.77  106.47   3
   0  -7 -10 948.303  90.156   6
   0  -7  10 1117.74   76.75   1
   0  -7 -10 816.919  76.501   1
   0  -7 -10 1136.73   92.77   4
   0   7  10 1022.16   75.16   3
   0   7 -10 1139.37  109.13   2
   0   7 -10 946.653  74.333   3
   1  -7  10 1520.88   97.36   1
  -1  -7 -10 1430.91   93.08   1
  -1  -7 -10 1485.59  101.44   6
   1   7  10 1433.01  107.28   6
   1   7  10 1332.44  108.95   4
  -1   7 -10 1818.21  127.35   2
   2  -7  10 13.3741 23.5658   1
  -2  -7 -10 43.1917 23.7733   1
  -2  -7 -10 14.9859 25.9294   6
  -2   7 -10 43.5792 36.1616   2
   2   7  10 33.3545 29.3191   6
   2   7  10 38.9141 33.0456   4
  -3  -7 -10 268.551  48.526   1
   3  -7  10 127.041  39.902   1
  -3  -7 -10 266.981  53.216   6
   3   7  10 267.492  58.733   6
  -3   7 -10 246.630  57.910   2
   3   7  10 164.311  46.365   4
   4  -7  10 237.989  50.964   1
  -4  -7 -10 196.132  45.358   1
   4   7  10 321.543  63.441   6
   4   7  10 184.445  54.689   4
  -4   7 -10 188.884  54.574   2
  -5  -7 -10 829.573  91.662   1
   5   7  10 904.077 105.663   6
   6  -8 -10 38.0552 31.1889   6
   6  -8 -10 18.4920 35.9041   4
  -6  -8  10  2.4791 34.6363   2
   6   8 -10 -3.8470 25.9324   3
  -6   8  10 -16.974  23.410   3
   5  -8 -10 607.505  83.247   4
   5  -8 -10 527.592  72.142   6
  -5  -8  10 654.256  88.667   2
   5   8 -10 638.577  81.723   3
  -5   8  10 521.491  75.040   3
   4  -8 -10 30.0360 27.0490   6
  -4  -8  10 -1.4039 30.1674   2
   4  -8 -10 31.1211 30.8683   4
  -4   8  10 69.0341 29.3842   3
   4   8 -10 35.4801 25.6619   3
   3  -8 -10 907.379  99.417   4
   3  -8 -10 823.594  81.546   6
  -3  -8  10 849.188  97.504   2
  -3   8  10 796.669  85.918   3
   3   8 -10 804.003  83.150   3
   2  -8 -10 -9.0387 28.7964   4
   2  -8 -10  6.0726 18.1833   1
   2  -8 -10 10.1585 22.7889   6
  -2  -8  10 46.3844 30.1741   2
  -2   8  10 -5.7107 20.8346   3
   2   8 -10 -12.415  18.559   3
  -1  -8  10 801.071  71.614   1
   1  -8 -10 723.433  71.175   1
   1  -8 -10 778.991  80.128   6
   1  -8 -10 1026.48   99.55   4
   1   8 -10 975.584 101.868   2
  -1   8  10 755.806  76.821   3
   1   8 -10 703.243  74.884   3
   0  -8 -10 62.4666 30.0350   6
   0  -8  10 111.455  32.041   1
   0  -8 -10 109.297  31.376   1
   0  -8 -10 25.1142 28.6022   4
   0   8  10 99.4086 37.9227   4
   0   8 -10 141.254  35.680   3
   0   8 -10 39.4390 29.9581   2
   0   8  10 59.2377 26.6450   3
   1  -8  10 806.526  80.978   1
  -1  -8 -10 1003.63   75.87   1
  -1  -8 -10 939.687  90.447   6
  -1   8 -10 901.884 101.728   2
   1   8  10 788.567  90.185   6
   1   8  10 1039.22  103.21   4
  -2  -8 -10 101.626  38.699   6
   2  -8  10 49.6304 25.5095   1
  -2  -8 -10 96.3282 33.0494   1
   2   8  10 105.633  44.718   4
  -2   8 -10 17.7532 35.0167   2
   2   8  10 135.685  46.089   6
  -3  -8 -10 1360.91   99.52   1
   3  -8  10 1494.90  104.31   1
  -3  -8 -10 1230.80  117.07   6
   3   8  10 1457.41  132.89   6
  -3   8 -10 1137.04  121.94   2
   3   8  10 1381.31  131.00   4
  -4  -8 -10 10.6259 30.6690   1
   4  -8  10 24.6020 31.0639   1
   4   8  10 -13.773  29.462   6
   4   8  10 36.0270 36.7950   4
  -4   8 -10 14.4966 37.9335   2
   6  -9 -10 233.310  54.588   6
   6  -9 -10 84.7113 44.5438   4
  -6   9  10 133.481  44.850   3
   6   9 -10 152.932  50.672   3
  -5  -9  10 396.199  70.913   2
   5  -9 -10 497.520  70.989   6
   5  -9 -10 629.209  86.367   4
   5   9 -10 436.781  68.916   3
  -5   9  10 425.288  67.360   3
  -4  -9  10 640.852  90.345   2
   4  -9 -10 851.346  97.668   4
   4  -9 -10 827.143  87.252   6
   4   9 -10 870.412  89.989   3
  -4   9  10 864.604  93.390   3
  -3  -9  10 863.546 100.793   2
   3  -9 -10 901.134  89.905   6
   3  -9 -10 1039.60  112.27   4
   3   9 -10 1097.58  102.18   3
  -3   9  10 1064.04  100.20   3
   2  -9 -10 -16.400  21.710   6
   2  -9 -10 34.2690 37.9466   4
  -2  -9  10  2.0014 29.8537   2
   2  -9 -10 -14.234  21.856   1
  -2   9  10 57.7066 29.1339   3
   2   9 -10 18.2257 23.6063   3
  -1  -9  10 579.192  60.687   1
   1  -9 -10 470.120  68.902   4
  -1  -9  10 480.886  69.040   2
   1  -9 -10 485.776  60.688   1
   1  -9 -10 528.002  67.412   6
  -1   9  10 429.499  60.401   3
   1   9 -10 522.652  74.278   2
   1   9 -10 565.745  67.672   3
   0  -9  10 534.173  62.674   1
   0  -9 -10 364.242  58.194   6
   0  -9 -10 718.113  71.708   1
   0   9 -10 599.518  67.777   3
   0   9 -10 620.661  82.413   2
   0   9  10 588.573  67.258   3
   0   9  10 506.804  76.059   4
  -1  -9 -10 493.967  67.056   6
   1  -9  10 608.282  70.019   1
  -1  -9 -10 665.013  73.068   1
  -1   9 -10 645.560  84.826   2
   1   9  10 630.810  83.631   6
   1   9  10 708.323  87.546   4
  -2  -9 -10 51.5043 28.8984   1
   2  -9  10 72.4063 35.3406   1
  -2  -9 -10 34.7112 33.7066   6
   2   9  10 66.4868 41.6947   6
   2   9  10 39.1035 31.8660   4
  -2   9 -10  7.9144 29.5072   2
   3  -9  10 310.978  56.470   1
  -3  -9 -10 155.172  41.257   1
  -3  -9 -10 190.117  52.621   6
   3   9  10 239.193  57.750   4
  -3   9 -10 202.526  57.847   2
   3   9  10 227.454  57.504   6
   4  -9  10 491.061  72.816   1
  -4  -9 -10 513.830  71.961   1
   4   9  10 579.366  85.462   6
  -4   9 -10 480.849  87.557   2
   4   9  10 440.709  79.311   4
  -7 -10  10 -32.910  42.305   5
   5 -10 -10 13.5969 37.9609   4
   5 -10 -10 60.4667 36.1505   6
  -5 -10  10 12.2387 35.4271   2
   5  10 -10 44.5419 33.8275   3
  -5  10  10 33.6263 30.5532   3
   4 -10 -10 12.9696 35.8688   4
  -4 -10  10 -5.6679 32.2795   2
   4 -10 -10 -16.785  26.446   6
   4  10 -10  1.6813 26.9621   3
  -4  10  10 -3.1676 20.7982   3
  -3 -10  10 62.3570 41.7514   2
   3 -10 -10 90.8386 49.8911   4
   3 -10 -10 102.058  35.726   6
  -3  10  10 51.9199 29.9119   3
   3  10 -10 170.409  42.469   3
   2 -10 -10 1764.80  115.02   6
   2 -10 -10 1621.59  127.42   4
   2 -10 -10 1740.88  106.54   1
  -2 -10  10 1856.68  131.82   2
  -2  10  10 1387.26  109.51   3
   2  10 -10 1788.89  118.43   3
   1 -10 -10 136.052  37.317   1
  -1 -10  10 129.442  41.260   2
   1 -10 -10 23.6809 28.7490   4
   1 -10 -10 71.4923 33.6645   6
   1  10 -10 111.094  42.299   2
  -1  10  10 65.2243 28.9716   3
   1  10 -10 -0.1127 23.6603   3
   0 -10 -10 256.084  46.343   1
   0 -10  10 233.686  44.617   1
   0 -10 -10 192.096  46.447   6
   0  10 -10 141.428  47.737   2
   0  10  10 240.882  45.969   3
   0  10 -10 232.844  45.591   3
   0  10  10 301.245  61.545   4
  -1 -10 -10 90.9386 37.7497   6
   1 -10  10 58.3761 31.9478   1
  -1 -10 -10 90.9416 34.6258   1
  -1  10 -10 25.3847 35.2815   2
   1  10  10 180.037  49.080   4
   1  10  10 113.421  45.188   6
  -2 -10 -10 1549.44  116.91   6
   2 -10  10 1655.99  110.55   1
  -2 -10 -10 1656.03  112.09   1
   2  10  10 1580.53  125.16   6
   2  10  10 1622.49  125.18   4
  -2  10 -10 1532.60  145.30   2
  -3 -10 -10 26.8648 38.1574   6
   3 -10  10 49.3968 31.0524   1
  -3 -10 -10 65.3034 35.3708   1
  -3  10 -10 92.7064 51.2716   2
   3  10  10 -8.1031 30.4158   6
   3  10  10 66.7457 39.7995   4
   4  10  10 264.166  65.829   6
  -7 -11  10 67.4178 54.9938   5
   5 -11 -10 59.3792 45.3555   4
   5 -11 -10 82.3766 41.6969   6
  -4 -11  10 1447.66  136.29   2
   4 -11 -10 1393.84  138.33   4
   4 -11 -10 1107.79  105.96   6
  -4  11  10 1206.20  115.93   3
   4  11 -10 1144.56  116.67   3
  -3 -11  10 243.065  60.164   2
   3 -11 -10 209.375  48.701   6
   3 -11 -10 149.643  59.841   4
   3  11 -10 261.062  54.325   3
  -3  11  10 172.923  45.172   3
   2 -11 -10 46.3147 29.7728   6
  -2 -11  10 55.1157 35.0929   2
   2 -11 -10 11.3339 25.4927   1
   2 -11 -10 25.3436 34.0859   4
   2  11 -10 18.7838 29.0122   3
  -2  11  10 30.2821 29.7459   3
   1 -11 -10 102.655  37.381   6
   1 -11 -10 54.8488 30.9684   1
  -1 -11  10 56.8705 34.4190   2
   1 -11 -10  9.4063 28.3354   4
   1  11 -10 29.5316 29.0574   3
  -1  11  10 48.7216 30.5553   3
   0 -11 -10 2478.33  147.44   6
   0 -11  10 2506.02  138.25   1
   0 -11 -10 2360.93  138.65   1
   0  11 -10 2128.42  136.83   3
   0  11  10 2324.37  139.39   3
   0  11 -10 2483.57  163.66   2
   0  11  10 2339.52  156.49   4
  -1 -11 -10 121.097  39.883   6
  -1 -11 -10 104.782  35.635   1
   1 -11  10 184.954  43.405   1
  -1  11 -10 106.462  44.775   2
   1  11  10 87.5874 40.2585   4
   1  11  10 187.905  50.784   6
  -2 -11 -10 473.659  73.497   6
   2 -11  10 420.790  64.953   1
  -2 -11 -10 438.265  65.503   1
   2  11  10 406.811  76.462   6
   2  11  10 543.501  81.614   4
  -2  11 -10 431.623  80.981   2
   3 -11  10 52.7150 34.0195   1
  -3 -11 -10 -13.934  30.612   1
  -3 -11 -10 15.0608 39.6478   6
   3  11  10 -3.1558 36.2051   4
   3  11  10 43.7842 40.9991   6
  -7 -12  10 263.814  74.461   5
   4 -12 -10 49.2336 51.4807   4
   4 -12 -10 16.3629 32.0894   6
  -3 -12  10 810.101 100.843   2
   3 -12 -10 582.711  96.099   4
   3 -12 -10 925.694  91.599   6
   3  12 -10 704.820  87.108   3
  -3  12  10 781.384  90.994   3
   2 -12 -10 483.141  66.534   6
  -2 -12  10 521.380  79.210   2
   2 -12 -10 500.167  64.658   1
   2 -12 -10 565.307  79.281   4
  -2  12  10 463.333  70.599   3
   2  12 -10 598.476  78.604   3
   1 -12 -10 716.686  89.431   4
   1 -12 -10 647.740  78.838   1
   1 -12 -10 742.857  82.768   6
  -1 -12  10 910.119 100.068   2
  -1  12  10 710.582  84.717   3
   1  12 -10 780.561  89.217   3
   0 -12 -10 32.1006 34.0486   6
   0 -12  10 39.4378 33.7055   1
   0 -12 -10 48.2008 31.7792   1
   0  12 -10 22.7370 35.4179   2
   0  12  10 78.1311 40.1362   4
   0  12 -10 48.6235 31.1282   3
   0  12  10 69.4594 32.1204   3
   1 -12  10 85.5712 36.9663   1
  -1 -12 -10 150.139  45.918   6
  -1 -12 -10 113.213  38.340   1
  -1  12 -10 90.3627 43.4300   2
   1  12  10 63.7118 39.8369   6
   1  12  10 119.011  47.857   4
   2 -12  10 1270.44  113.90   1
  -2 -12 -10 1384.73  107.53   1
  -2 -12 -10 1218.01  116.92   6
   2  12  10 1491.12  134.30   6
   2  12  10 1455.07  118.12   4
  -2  12 -10 1354.96  137.40   2
  -3 -12 -10 358.479  70.782   6
   3  12  10 272.475  67.852   6
  -8 -13  10 59.6438 67.6245   5
  -7 -13  10 233.558  73.516   5
   4 -13 -10 -11.017  49.229   4
   3 -13 -10 355.474  73.931   4
   3 -13 -10 395.895  64.084   6
   2 -13 -10 55.6233 34.2113   6
  -2 -13  10 38.4612 37.1550   2
   2 -13 -10 42.1970 32.4627   1
   2 -13 -10 -7.4164 34.9778   4
  -2  13  10 38.1022 34.0991   3
   2  13 -10 28.9289 32.7784   3
  -1 -13  10 549.142  82.927   2
   1 -13 -10 548.516  72.125   1
   1 -13 -10 530.341  72.007   6
  -1  13  10 651.585  88.863   4
  -1  13  10 607.380  80.497   3
   1  13 -10 399.826  67.803   3
   0 -13  10 62.7475 39.4426   1
   0 -13 -10 74.4096 38.6348   6
   0 -13 -10 72.8300 33.7299   1
   0  13 -10 98.2387 40.2994   3
   0  13  10 86.6430 40.7658   4
   0  13 -10 40.9926 42.4114   2
   0  13  10 60.5879 34.7031   3
  -1 -13 -10 803.676  92.090   6
   1 -13  10 795.925  90.084   1
   1  13  10 756.470  95.983   6
   1  13  10 800.770  99.219   4
  -2 -13 -10  2.4785 41.0770   6
   2  13  10 96.7181 47.2739   6
  -8 -14  10 -85.435  56.900   5
  -7 -14  10 290.673  83.994   5
   2 -14 -10 165.465  48.794   6
   1 -14 -10 362.390  61.830   6
  -1  14  10 543.160  78.055   3
  -1  14  10 397.035  73.878   4
   1  14 -10 309.011  64.227   3
   0 -14  10 -49.083  31.239   1
   0 -14 -10  4.9207 37.4179   6
   0  14  10 23.8374 33.7689   3
   0  14  10 17.9551 39.4759   4
   0  14 -10 -29.324  30.603   3
  -1 -14 -10 719.820  88.147   6
   1  14  10 542.308  84.269   4
   1  14  10 413.136  74.301   6
  -7 -15  10 57.7979 64.6240   5
  -7 -16  10 -19.289  61.550   5
   7   0 -11 1054.57  106.71   4
  -7   0  11 1083.06  116.49   3
   6   0 -11 11.8444 25.5485   6
  -6   0  11 -4.8551 22.9217   3
   6   0 -11 41.6811 31.1358   4
   5   0 -11 21.4352 24.6645   6
  -5   0  11 33.2257 28.1403   3
   5   0 -11 65.3906 29.6218   4
   4   0 -11 28.4229 25.1525   4
  -4   0  11  1.4497 22.8291   3
  -4   0  11 -1.4987 17.6815   2
   4   0 -11  1.8339 17.5201   6
   3   0 -11 3398.18  156.32   6
  -3   0  11 3066.67  151.68   2
   3   0 -11 3216.28  173.68   4
  -3   0  11 3181.45  172.68   3
   2   0 -11 -7.2835 13.6377   6
   2   0 -11 -16.019  22.177   4
  -2   0  11 15.1980 16.1581   2
  -2   0  11  1.2068 18.3041   3
   1   0 -11 218.345  37.828   6
  -1   0  11 143.798  30.957   2
   1   0 -11 214.668  47.641   4
   1   0 -11 228.603  33.772   1
  -1   0  11 181.197  39.322   3
   0   0 -11 11.0132 24.3972   2
   0   0 -11 -0.3535 14.8723   1
   0   0 -11  9.6732 21.1299   4
   0   0  11 10.0154 18.4817   3
   0   0 -11 14.8821 16.9582   6
   0   0  11 22.6173 22.1165   6
  -1   0 -11 2517.92  151.64   2
   1   0  11 2722.14  151.03   4
  -1   0 -11 2581.54  133.73   1
   1   0  11 2798.61  142.56   6
  -1   0 -11 2501.96  131.56   6
  -2   0 -11 21.1466 29.6704   2
   2   0  11  4.5711 22.2011   6
  -2   0 -11 28.2690 22.6765   6
   2   0  11 38.2771 26.7053   4
  -2   0 -11 -17.895  17.358   1
   3   0  11 1130.51   87.37   6
  -3   0 -11 957.760  87.388   1
   3   0  11 1010.05   84.47   4
  -3   0 -11 1115.90  104.13   2
  -4   0 -11  5.4232 32.0899   2
   4   0  11  3.6285 28.6801   6
   4   0  11 -24.690  24.480   4
  -4   0 -11 -11.037  22.287   1
  -5   0 -11 583.040  72.868   1
   5   0  11 576.544  78.352   6
   5   0  11 469.344  73.029   4
   7  -1 -11 77.2893 39.2102   4
  -7  -1  11 23.8335 32.4512   3
  -7  -1  11 17.3212 33.3677   2
   7  -1 -11 41.9285 33.8419   6
  -7   1  11  5.8785 30.8735   3
   7   1 -11 -7.0821 26.9027   4
  -6  -1  11 277.029  51.477   2
  -6  -1  11 282.611  56.247   3
   6  -1 -11 338.882  59.247   4
   6  -1 -11 342.349  54.606   6
   6   1 -11 267.414  53.323   4
  -6   1  11 126.584  43.115   3
  -5  -1  11 504.599  63.479   2
   5  -1 -11 445.028  64.608   4
   5  -1 -11 537.879  66.248   6
   5   1 -11 435.282  65.330   3
   5   1 -11 551.518  69.256   4
  -5   1  11 389.428  63.373   3
  -4  -1  11 426.146  53.539   2
   4  -1 -11 474.839  65.066   4
   4  -1 -11 650.573  66.314   6
   4   1 -11 652.831  74.010   3
  -4   1  11 403.699  61.896   3
   4   1 -11 523.542  56.539   6
   4   1 -11 572.118  68.713   4
   3  -1 -11 34.3576 26.7413   4
  -3  -1  11 60.9254 23.7121   2
   3  -1 -11 43.5309 21.5402   6
   3   1 -11 36.2006 20.0548   6
   3   1 -11 43.4815 29.6297   4
   3   1 -11 40.6446 24.4349   3
  -3   1  11 43.9764 25.7483   3
   2  -1 -11 323.347  43.969   6
  -2  -1  11 383.760  48.091   2
   2  -1 -11 244.924  52.313   4
   2   1 -11 347.836  42.637   6
  -2   1  11 378.384  54.833   3
   2   1 -11 283.975  45.792   3
   2   1 -11 295.134  52.637   4
  -1  -1  11 3461.15  165.62   2
   1  -1 -11 3507.60  162.79   6
   1  -1 -11 3144.69  186.20   4
   1  -1 -11 3369.91  153.75   1
  -1   1  11 3688.81  174.08   3
   1   1 -11 3523.16  153.53   1
   1   1 -11 3330.93  166.64   3
   1   1 -11 3187.62  181.12   4
   1   1 -11 3743.16  173.18   2
   1   1 -11 3454.41  158.72   6
   0  -1 -11 1441.42   87.30   6
   0  -1  11 1318.51   87.46   6
   0  -1 -11 1385.49   83.61   1
   0  -1  11 1537.19   93.03   3
   0  -1 -11 1177.01   95.40   4
   0   1 -11 1270.15   95.35   2
   0   1 -11 1538.94   90.27   3
   0   1  11 1422.58   90.05   3
   0   1 -11 1394.15   84.20   6
   0   1 -11 1315.07   94.96   4
   0   1 -11 1367.58   81.35   1
   0   1  11 1395.02   92.84   6
   1  -1  11 919.693  85.059   4
  -1  -1 -11 806.021  74.160   1
   1  -1  11 700.965  70.896   6
  -1  -1 -11 813.538  74.651   6
  -1   1 -11 914.991  95.209   2
  -1   1 -11 846.198  63.861   1
   1   1  11 946.456  85.522   6
   1   1  11 963.089  91.993   4
  -1   1 -11 764.561  70.744   6
  -2  -1 -11 -0.0446 18.3701   1
  -2  -1 -11 11.1734 20.9040   6
   2  -1  11 35.4402 25.5306   4
   2  -1  11  8.7928 21.8590   6
  -2   1 -11 61.7879 35.4220   2
  -2   1 -11 27.9825 21.3122   1
   2   1  11 15.6263 25.7335   6
   2   1  11  9.7556 25.2674   4
  -3  -1 -11 551.149  66.529   1
   3  -1  11 607.009  70.683   4
   3  -1  11 578.598  69.157   6
  -3   1 -11 597.966  74.398   2
   3   1  11 543.705  70.016   4
  -3   1 -11 622.253  67.725   1
   3   1  11 523.371  67.455   6
  -4  -1 -11 402.913  60.531   1
   4  -1  11 335.501  57.496   6
   4  -1  11 454.680  63.133   4
   4   1  11 241.729  53.575   4
   4   1  11 488.428  67.456   6
  -4   1 -11 242.458  52.674   2
  -4   1 -11 341.697  54.827   1
   5  -1  11 215.050  50.145   4
  -5  -1 -11 313.408  55.592   1
   5  -1  11 200.465  50.614   6
   5   1  11 235.503  55.872   4
  -5   1 -11 267.735  55.027   1
  -5   1 -11 291.270  62.174   2
   5   1  11 293.403  59.014   6
   6  -1  11  7.0975 31.9201   4
  -7  -2  11 130.311  46.181   2
  -7  -2  11 82.2085 39.3133   3
   7  -2 -11 160.147  50.219   4
   7  -2 -11 157.347  44.814   6
  -7   2  11 99.6094 43.2391   3
   7   2 -11 209.021  51.359   4
  -6  -2  11 677.961  80.081   2
   6  -2 -11 727.555  81.441   6
   6  -2 -11 613.130  80.183   4
  -6   2  11 743.609  92.385   3
   6   2 -11 779.046  87.054   4
   6   2 -11 902.160  99.554   3
   5  -2 -11 30.2747 27.3780   4
   5  -2 -11 20.5956 23.8069   6
  -5  -2  11  4.0334 21.8155   2
  -5   2  11 -9.3609 19.0136   3
   5   2 -11 -0.4027 19.8378   3
   5   2 -11 -9.6827 22.6350   4
   4  -2 -11 1278.52   89.36   6
   4  -2 -11 1283.99   98.90   4
  -4  -2  11 1307.80   89.53   2
   4   2 -11 1288.88   97.45   3
   4   2 -11 1337.21   95.03   4
  -4   2  11 1376.39  101.17   3
   3  -2 -11 539.738  61.077   6
   3  -2 -11 480.283  68.254   4
  -3  -2  11 619.529  64.413   2
   3   2 -11 577.285  55.572   6
  -3   2  11 416.181  60.088   3
   3   2 -11 510.152  63.704   3
   3   2 -11 545.132  66.540   4
  -2  -2  11 3268.93  165.37   2
   2  -2 -11 3291.96  189.70   4
   2  -2 -11 3298.76  162.51   6
   2   2 -11 3542.68  155.28   6
   2   2 -11 3373.69  182.05   4
   2   2 -11 3382.32  171.23   3
  -2   2  11 3516.26  175.28   3
   1  -2 -11 36.2526 19.0497   1
  -1  -2  11 41.4622 21.1498   6
   1  -2 -11 44.4521 31.2297   4
   1  -2 -11 57.8164 24.1005   6
   1   2 -11 55.8193 27.7437   2
   1   2 -11 16.3264 19.3704   3
   1   2 -11 46.2628 20.0959   6
  -1   2  11 89.2601 28.6851   3
   1   2 -11 15.3977 23.2606   4
   1   2 -11 31.7388 18.4577   1
   0  -2 -11 29.0246 20.8672   6
   0  -2  11  0.5302 21.1219   4
   0  -2  11  8.8286 20.3702   6
   0  -2 -11  9.6691 17.2932   1
   0  -2 -11 -4.6014 23.5205   4
   0   2  11 37.1833 20.8600   3
   0   2 -11 -0.1652 15.7041   6
   0   2 -11 15.7454 18.9045   3
   0   2 -11 16.9424 19.9165   4
   0   2  11 29.8303 22.6007   6
   0   2 -11 -3.7657 26.5337   2
   0   2 -11 19.3355 16.7042   1
  -1  -2 -11  5.5391 18.4832   1
  -1  -2 -11 21.7124 21.0005   6
   1  -2  11 24.3637 24.1926   4
   1  -2  11 27.5901 22.8785   6
   1   2  11 57.7315 32.4065   4
   1   2  11 27.2285 26.0203   6
  -1   2 -11 48.0284 36.1071   2
  -1   2 -11 16.3096 19.0767   6
  -1   2 -11 29.8496 19.5532   1
  -2  -2 -11 1339.59   94.01   6
   2  -2  11 1404.35   92.71   6
  -2  -2 -11 1298.94   89.99   1
   2  -2  11 1377.59   92.36   4
   2   2  11 1504.42  109.21   4
  -2   2 -11 1274.05  118.35   2
  -2   2 -11 1303.47   89.18   1
   2   2  11 1489.97  100.61   6
   3  -2  11 -16.882  19.936   6
   3  -2  11 26.0950 27.2868   4
  -3  -2 -11  7.1767 22.5885   1
   3   2  11 27.8938 28.5501   6
   3   2  11 16.1457 27.8925   4
  -3   2 -11 11.2771 22.7444   1
  -3   2 -11 -54.547  24.921   2
   4  -2  11 18.1403 29.0398   6
  -4  -2 -11  0.9215 25.5186   1
   4  -2  11 27.5502 26.7799   4
   4   2  11 28.1429 29.4334   6
  -4   2 -11  2.4784 24.0256   1
  -4   2 -11 -14.604  30.783   2
   4   2  11 16.1281 30.4669   4
   5  -2  11 179.744  47.578   1
  -5  -2 -11 139.946  44.810   1
   5  -2  11 248.420  57.072   6
   5   2  11 180.709  50.870   6
   5   2  11 217.969  55.390   4
  -5   2 -11 212.888  57.331   2
   7  -3 -11 69.5971 36.3677   6
   7  -3 -11 35.2919 34.3830   4
  -7  -3  11 30.5782 32.1344   2
  -7   3  11 27.9767 34.0331   3
   7   3 -11 39.2712 35.9277   3
   7   3 -11  8.0450 31.3295   4
   6  -3 -11 889.027  92.224   6
   6  -3 -11 1091.36  105.69   4
  -6  -3  11 985.871  97.460   2
   6   3 -11 963.245 100.910   3
  -6   3  11 692.816  90.458   3
   6   3 -11 938.451  94.537   4
   5  -3 -11 132.809  40.906   4
  -5  -3  11 97.4487 34.2149   2
   5  -3 -11 63.8860 29.8465   6
   5   3 -11 123.527  38.298   4
   5   3 -11 97.8052 33.0047   3
  -5   3  11 150.675  41.524   3
  -4  -3  11 2750.78  146.97   2
   4  -3 -11 2407.00  151.90   4
   4  -3 -11 2611.29  142.84   6
   4   3 -11 2819.99  149.57   4
  -4   3  11 2648.82  155.63   3
   4   3 -11 2593.29  153.28   3
   3  -3 -11 25.0443 21.6911   6
  -3  -3  11 56.6416 26.4209   2
   3  -3 -11 62.6368 31.1757   4
   3   3 -11 67.8451 27.6547   3
   3   3 -11 13.7740 22.2470   4
  -3   3  11 76.2283 29.6468   3
   2  -3 -11 113.075  31.443   6
   2  -3 -11 179.592  46.768   4
  -2  -3  11 85.4015 32.2145   2
   2   3 -11 148.280  35.701   3
   2   3 -11 144.067  39.530   4
  -2   3  11 59.5762 27.3711   3
   1  -3 -11 32.2440 21.9841   6
  -1  -3  11  1.4323 18.7122   1
   1  -3 -11  8.9622 17.4856   1
   1  -3 -11 -2.6006 24.2677   4
  -1  -3  11 -3.2475 18.9678   6
   1   3 -11 45.1330 25.2932   4
   1   3 -11  0.5575 22.3772   2
  -1   3  11 31.8987 20.1719   3
   1   3 -11 18.4835 16.1178   6
   1   3 -11 16.7147 18.1596   3
   0  -3 -11 2411.49  149.37   4
   0  -3 -11 2434.08  133.04   6
   0  -3 -11 2447.41  126.06   1
   0  -3  11 2445.74  130.68   1
   0  -3  11 2490.56  136.93   4
   0  -3  11 2622.85  129.57   6
   0   3 -11 2464.40  121.58   6
   0   3 -11 2377.56  145.48   2
   0   3 -11 2666.94  132.88   3
   0   3 -11 2515.58  124.30   1
   0   3  11 2482.46  139.85   6
   0   3  11 2545.50  131.77   3
   1  -3  11 20.3472 21.0858   4
  -1  -3 -11 35.3894 23.0481   6
  -1  -3 -11 58.4469 24.6552   1
   1  -3  11 35.5797 24.0862   6
   1   3  11 47.7020 33.0237   4
  -1   3 -11 51.1741 36.0914   2
  -1   3 -11 38.4834 22.2482   1
   1   3  11 54.9483 28.9801   6
   2  -3  11 -14.807  24.309   1
   2  -3  11 38.0342 24.5751   6
  -2  -3 -11 18.5804 24.0847   1
  -2  -3 -11  0.5800 22.8713   6
  -2   3 -11 -4.9472 18.9327   1
   2   3  11 30.2371 28.0384   6
   2   3  11 24.2958 30.5345   4
  -2   3 -11 37.2432 34.6553   2
   3  -3  11 55.9104 29.6525   6
   3  -3  11 46.4768 32.0091   1
  -3  -3 -11  6.9178 22.8786   1
   3   3  11 29.0061 27.8827   6
  -3   3 -11 41.5613 35.6899   2
   3   3  11 28.8477 28.3023   4
  -3   3 -11 62.2601 27.7613   1
  -4  -3 -11 1163.52  102.26   1
   4  -3  11 1192.17   91.35   6
   4  -3  11 1280.47  113.05   1
  -4   3 -11 946.679 105.911   2
   4   3  11 960.829 102.292   6
   4   3  11 937.826 104.250   4
   5  -3  11 47.7445 40.1103   1
  -5  -3 -11 81.5751 41.9759   1
   5  -3  11 46.4473 36.0640   6
   5   3  11 53.6271 41.7976   4
   5   3  11 42.9790 38.8125   6
  -5   3 -11 38.4308 40.1732   2
   7  -4 -11 633.435  82.500   6
  -7  -4  11 723.728  91.182   2
  -7   4  11 759.633  96.959   3
   7   4 -11 511.590  76.172   4
   7   4 -11 505.913  81.049   3
   6  -4 -11 1188.54  108.10   6
   6  -4 -11 1103.85  110.70   4
  -6  -4  11 1132.22  109.37   2
   6   4 -11 1290.79   98.16   4
  -6   4  11 1142.36  115.50   3
   6   4 -11 1216.31  116.04   3
   5  -4 -11 38.8463 27.5310   4
  -5  -4  11 27.7631 25.8944   2
   5  -4 -11 37.4446 25.7822   6
  -5   4  11  9.7014 22.8968   3
   5   4 -11 19.5150 25.4666   4
   5   4 -11 51.7839 31.5660   3
   4  -4 -11 197.947  41.867   6
   4  -4 -11 196.889  45.101   4
  -4  -4  11 144.670  40.488   2
   4   4 -11 102.986  33.271   3
  -4   4  11 193.822  45.384   3
   4   4 -11 124.191  36.011   4
  -3  -4  11 933.594  89.384   2
   3  -4 -11 870.363  93.518   4
   3  -4 -11 823.547  79.838   6
   3   4 -11 917.778  89.641   3
  -3   4  11 946.045  92.736   3
  -2  -4  11 684.104  76.971   2
   2  -4 -11 604.123  57.383   1
   2  -4 -11 672.355  87.873   4
   2  -4 -11 752.151  73.649   6
  -2   4  11 744.355  78.127   3
   2   4 -11 562.823  67.172   3
   1  -4 -11 220.608  41.352   6
   1  -4 -11 260.840  38.132   1
  -1  -4  11 116.494  29.704   1
   1  -4 -11 187.657  46.512   4
   1   4 -11 235.823  50.703   2
   1   4 -11 282.332  45.080   3
  -1   4  11 276.607  45.410   3
   0  -4  11 207.670  39.605   1
   0  -4 -11 155.643  33.389   1
   0  -4 -11 190.399  38.469   6
   0  -4 -11 184.391  43.939   4
   0   4  11 155.189  34.410   3
   0   4 -11 276.525  55.555   2
   0   4 -11 270.871  42.813   3
   1  -4  11 1311.75   90.85   1
   1  -4  11 1312.13   82.79   6
  -1  -4 -11 1225.06   83.39   1
  -1  -4 -11 1118.27   85.99   6
  -1   4 -11 1270.70  122.09   2
   1   4  11 1126.98  112.68   4
   1   4  11 1205.58   94.69   6
   2  -4  11 1514.42   95.47   6
  -2  -4 -11 1648.25  103.89   6
   2  -4  11 1602.37  105.81   1
  -2  -4 -11 1391.70   95.28   1
   2   4  11 1202.17  120.85   4
   2   4  11 1328.62  103.91   6
  -2   4 -11 1515.48  118.97   2
  -3  -4 -11 308.112  52.595   1
   3  -4  11 518.978  64.635   6
   3  -4  11 525.915  71.130   1
   3   4  11 378.871  64.167   6
  -3   4 -11 524.647  79.139   2
   3   4  11 461.795  71.745   4
   4  -4  11 -4.8471 29.2847   6
   4  -4  11 28.6975 31.5445   1
  -4  -4 -11 11.1263 25.5188   1
   4   4  11 10.7040 31.3776   6
  -4   4 -11 -1.3613 32.8071   2
   4   4  11 -10.519  32.204   4
  -5  -4 -11 377.247  62.043   1
   5  -4  11 626.423  81.232   6
   5   4  11 516.198  79.511   6
  -5   4 -11 517.634  85.193   2
   5   4  11 551.004  86.620   4
  -7  -5  11 20.0678 35.9346   2
   7  -5 -11 27.6095 32.6205   6
   6  -5 -11 10.0132 26.5901   6
   6  -5 -11  6.2753 30.2568   4
  -6  -5  11  2.2120 27.4028   2
  -6   5  11 27.2409 27.5873   3
   6   5 -11  2.2579 26.5149   3
  -5  -5  11 2332.72  139.71   2
   5  -5 -11 2218.55  141.31   4
   5  -5 -11 1906.86  125.81   6
  -5   5  11 1789.22  128.69   3
   5   5 -11 1980.26  134.17   3
   4  -5 -11 103.308  39.120   4
   4  -5 -11 16.1054 23.1079   6
  -4  -5  11 62.9569 31.1421   2
  -4   5  11 61.6240 31.0215   3
   4   5 -11 75.6883 31.7779   3
  -3  -5  11 490.813  65.497   2
   3  -5 -11 439.095  67.746   4
   3  -5 -11 462.181  61.300   6
  -3   5  11 367.473  55.731   3
   3   5 -11 438.716  61.596   3
  -2  -5  11 -4.6847 23.6297   2
   2  -5 -11 -24.145  25.501   4
   2  -5 -11  4.8965 16.9737   1
   2  -5 -11 35.7504 25.4857   6
   2   5 -11 -8.3726 16.3255   3
  -2   5  11 -28.095  15.719   3
   1  -5 -11 1816.07  127.57   4
  -1  -5  11 1936.76  103.12   1
   1  -5 -11 1666.82  107.46   6
   1  -5 -11 1785.13  100.49   1
   1   5 -11 1904.83  112.63   3
  -1   5  11 1826.79  110.93   3
   1   5 -11 1414.86  117.02   2
   0  -5 -11 48.1484 25.1581   6
   0  -5  11 66.5910 28.4948   1
   0  -5 -11 47.8331 31.4741   4
   0  -5 -11 102.830  28.804   1
   0   5  11 52.5402 24.1983   3
   0   5 -11 36.9798 23.4407   3
   0   5 -11 105.395  42.397   2
  -1  -5 -11 85.6186 32.7194   6
  -1  -5 -11 40.5848 23.8632   1
   1  -5  11 69.9725 29.4329   1
   1   5  11 54.6425 32.6081   4
  -1   5 -11 105.659  44.895   2
   1   5  11 98.1810 36.0948   6
  -2  -5 -11 15.0340 22.3151   1
   2  -5  11 25.7827 28.2807   1
  -2  -5 -11 12.0571 24.0975   6
   2   5  11 24.8055 29.3339   6
  -2   5 -11  3.2304 33.7445   2
   2   5  11 14.8314 33.0677   4
   3  -5  11 2056.68  133.14   1
   3  -5  11 2220.81  126.23   6
  -3  -5 -11 2110.30  127.40   1
  -3  -5 -11 2395.72  140.85   6
   3   5  11 2045.99  146.91   4
   3   5  11 2137.18  142.37   6
  -3   5 -11 2026.03  146.19   2
   4  -5  11 -15.552  28.102   1
  -4  -5 -11 22.6427 28.8512   1
   4  -5  11 85.6029 39.1521   6
  -4   5 -11 24.8817 36.5870   2
   4   5  11 32.0976 37.3089   4
   4   5  11  3.8192 32.1728   6
   5  -5  11 1457.22  111.42   6
  -6  -6  11 494.089  76.190   2
   6  -6 -11 584.638  75.624   6
   6  -6 -11 357.043  65.616   4
  -6   6  11 318.308  62.352   3
   6   6 -11 343.768  62.976   3
   5  -6 -11 -14.137  27.499   4
  -5  -6  11  3.2075 29.9377   2
   5  -6 -11 11.1490 25.7915   6
  -5   6  11  0.0437 21.2773   3
   5   6 -11 22.8989 27.4706   3
   4  -6 -11 47.2688 32.0860   4
  -4  -6  11 44.2947 34.3418   2
   4  -6 -11 21.8683 24.8802   6
   4   6 -11 85.4579 34.5880   3
  -4   6  11 27.6253 23.6602   3
   3  -6 -11 1418.75  111.66   4
   3  -6 -11 1252.57   93.30   6
  -3  -6  11 1368.28  106.43   2
   3   6 -11 1341.21   99.17   3
  -3   6  11 1352.98  100.72   3
   2  -6 -11 346.190  67.083   4
   2  -6 -11 250.913  45.994   6
   2  -6 -11 291.329  41.657   1
  -2  -6  11 127.530  38.957   2
  -2   6  11 311.370  50.970   3
   2   6 -11 216.412  44.048   3
  -1  -6  11 239.511  38.793   1
   1  -6 -11 240.225  44.654   6
   1  -6 -11 257.639  54.698   4
   1  -6 -11 236.871  40.190   1
   1   6 -11 212.345  42.134   3
  -1   6  11 246.949  44.888   3
   1   6 -11 251.465  56.770   2
   0  -6  11 -0.8832 20.1509   1
   0  -6 -11 15.1795 20.8322   1
   0  -6 -11 30.3061 24.0130   6
   0  -6 -11 22.4408 26.1176   4
   0   6 -11 -10.674  28.799   2
   0   6 -11 15.0197 21.9403   3
   0   6  11 14.2098 27.8606   4
   0   6  11 -13.479  17.804   3
  -1  -6 -11 1555.40  105.66   6
   1  -6  11 1494.75   99.12   1
  -1  -6 -11 1523.88   98.28   1
  -1   6 -11 1641.96  124.58   2
   1   6  11 1248.24  104.23   6
   1   6  11 1575.93  118.94   4
  -2  -6 -11 491.230  63.256   1
   2  -6  11 507.269  66.162   1
  -2  -6 -11 422.707  61.426   6
  -2   6 -11 493.751  83.391   2
   2   6  11 431.494  73.504   4
   2   6  11 483.057  70.604   6
  -3  -6 -11 332.510  54.076   1
   3  -6  11 525.043  70.337   1
  -3  -6 -11 431.989  67.186   6
   3   6  11 477.050  77.976   4
  -3   6 -11 264.351  65.296   2
   3   6  11 557.613  78.489   6
   4  -6  11  5.0933 29.2883   1
  -4  -6 -11 30.5942 29.6248   1
   4   6  11 54.2459 35.2990   6
   4   6  11 18.4899 37.9753   4
  -4   6 -11 12.1806 40.0870   2
   6  -7 -11 624.567  81.488   6
   6  -7 -11 537.701  78.726   4
  -6  -7  11 501.329  78.755   2
  -6   7  11 489.490  74.898   3
   6   7 -11 425.258  73.461   3
   5  -7 -11 184.086  45.281   6
  -5  -7  11 316.707  62.369   2
   5  -7 -11 252.041  56.235   4
   5   7 -11 225.215  50.627   3
  -5   7  11 242.849  51.605   3
   4  -7 -11 1146.19   90.08   6
   4  -7 -11 1144.24  113.31   4
  -4  -7  11 1239.00  115.93   2
   4   7 -11 1188.78  111.90   3
  -4   7  11 897.637  96.793   3
   3  -7 -11 26.9763 33.2721   4
  -3  -7  11  5.3388 30.1550   2
   3  -7 -11 -2.5060 19.4814   6
  -3   7  11  6.6654 20.3789   3
   3   7 -11 15.2467 24.1137   3
   2  -7 -11 105.663  29.068   1
   2  -7 -11 162.629  50.812   4
  -2  -7  11 106.600  40.232   2
   2  -7 -11 121.172  36.041   6
  -2   7  11 156.178  39.804   3
   2   7 -11 104.277  34.548   3
   1  -7 -11 442.300  59.724   6
   1  -7 -11 444.082  68.720   4
   1  -7 -11 385.360  52.099   1
   1   7 -11 457.382  73.828   2
  -1   7  11 460.138  59.627   3
   1   7 -11 558.315  65.251   3
   0  -7  11 1358.59   91.16   1
   0  -7 -11 1427.28   91.35   1
   0  -7 -11 1134.07  113.85   4
   0  -7 -11 1234.43   96.28   6
   0   7  11 1359.69  111.14   4
   0   7 -11 1320.18   92.69   3
   0   7 -11 1752.61  121.12   2
   0   7  11 1401.34   93.68   3
  -1  -7 -11 60.8796 27.2396   1
   1  -7  11 58.6759 28.2266   1
  -1  -7 -11 52.7833 29.6246   6
   1   7  11 81.0888 34.6765   6
  -1   7 -11 74.2144 40.1091   2
   1   7  11 53.7688 35.8652   4
  -2  -7 -11 68.5460 35.0765   6
   2  -7  11 123.026  38.350   1
  -2  -7 -11 71.2476 31.9339   1
   2   7  11 95.2776 42.0010   4
   2   7  11 100.390  40.193   6
  -2   7 -11 47.2699 41.2391   2
   3  -7  11 449.576  67.752   1
  -3  -7 -11 279.692  59.467   6
  -3  -7 -11 412.154  60.187   1
   3   7  11 389.861  71.902   6
  -3   7 -11 377.666  76.853   2
   3   7  11 425.655  73.892   4
   4  -7  11 1066.93  108.21   1
  -4  -7 -11 839.833  91.272   1
  -4   7 -11 1108.81  122.65   2
   4   7  11 1150.38  119.53   6
   4   7  11 939.556 114.899   4
  -5  -8  11 -6.3260 30.4234   2
   5  -8 -11  6.1309 25.6367   6
   5  -8 -11 -27.996  28.474   4
  -5   8  11 46.1252 30.5586   3
   5   8 -11 20.7769 28.2342   3
   4  -8 -11 401.144  69.683   4
  -4  -8  11 367.929  66.782   2
   4  -8 -11 343.392  56.387   6
  -4   8  11 171.514  45.562   3
  -3  -8  11 23.6946 31.5064   2
   3  -8 -11 40.5355 34.5284   4
   3  -8 -11  9.6567 24.5602   6
  -3   8  11  2.0959 22.2040   3
   3   8 -11 40.7278 28.3218   3
   2  -8 -11 1597.49  111.53   6
   2  -8 -11 1932.68  106.47   1
   2  -8 -11 1697.08  134.98   4
  -2  -8  11 1720.23  127.73   2
  -2   8  11 1882.80  120.03   3
   2   8 -11 1689.47  115.44   3
   1  -8 -11  4.4461 23.6748   6
   1  -8 -11 45.0704 31.5956   4
   1  -8 -11 -12.351  17.416   1
   1   8 -11  7.4355 28.3799   2
  -1   8  11 36.9130 23.6583   3
   1   8 -11 14.0635 20.4000   3
   0  -8  11 92.5015 32.2139   1
   0  -8 -11 58.9009 29.5239   1
   0  -8 -11 104.941  34.217   6
   0   8 -11 108.500  33.276   3
   0   8  11 112.606  43.700   4
   0   8 -11 50.5646 35.4529   2
   0   8  11 90.4082 33.2936   3
  -1  -8 -11 44.4384 31.5186   6
   1  -8  11 62.5918 29.7276   1
  -1  -8 -11 31.5307 26.4826   1
   1   8  11 24.6425 31.8043   4
   1   8  11 46.0805 33.5931   6
  -1   8 -11 26.1958 34.1128   2
  -2  -8 -11 2244.34  132.21   1
   2  -8  11 2131.42  133.02   1
  -2  -8 -11 2305.41  143.70   6
   2   8  11 1951.26  143.14   6
   2   8  11 2359.66  157.23   4
  -2   8 -11 2232.89  159.35   2
   3  -8  11  9.2399 30.5257   1
  -3  -8 -11 12.0447 34.6896   6
  -3  -8 -11 11.1503 26.1619   1
   3   8  11 36.6316 39.5281   6
  -3   8 -11 -6.8890 36.8861   2
   3   8  11 69.6767 40.3019   4
   4   8  11 -14.295  37.036   6
   5  -9 -11 170.813  48.537   6
  -5  -9  11 274.601  62.062   2
   5  -9 -11 298.562  63.868   4
   5   9 -11 166.363  48.680   3
  -5   9  11 199.638  47.999   3
  -4  -9  11 498.950  81.815   2
   4  -9 -11 739.075  97.340   4
   4  -9 -11 777.642  85.446   6
  -4   9  11 653.290  80.640   3
   4   9 -11 842.181  91.645   3
  -3  -9  11  0.7910 32.2321   2
   3  -9 -11 50.3234 30.5371   6
   3  -9 -11  5.2713 37.0790   4
  -3   9  11 10.2180 24.2871   3
   3   9 -11 36.4025 26.1822   3
   2  -9 -11 375.831  57.305   6
   2  -9 -11 351.769  68.649   4
   2  -9 -11 287.690  47.171   1
  -2  -9  11 459.909  74.130   2
  -2   9  11 503.166  68.959   3
   2   9 -11 443.596  65.492   3
   1  -9 -11 888.833  84.218   1
   1  -9 -11 869.980  89.356   6
  -1  -9  11 1070.60  106.93   2
   1  -9 -11 837.006  97.034   4
  -1   9  11 996.172  95.031   3
   1   9 -11 1005.70   94.55   3
   1   9 -11 1077.37  113.05   2
   0  -9 -11 1699.18  109.43   1
   0  -9 -11 1906.05  122.37   6
   0  -9  11 1816.20  109.93   1
   0   9 -11 1651.60  129.37   2
   0   9 -11 1572.00  109.91   3
   0   9  11 1849.93  115.03   3
   0   9  11 1589.80  127.13   4
   1  -9  11 385.965  59.363   1
  -1  -9 -11 316.798  57.532   6
  -1  -9 -11 402.001  58.598   1
   1   9  11 326.547  63.792   6
  -1   9 -11 285.629  62.302   2
   1   9  11 356.008  66.798   4
  -2  -9 -11 95.9386 38.6005   6
   2  -9  11 -6.0308 28.2025   1
  -2  -9 -11  9.6308 28.4081   1
   2   9  11 -0.7558 31.3629   4
   2   9  11 92.4808 42.8228   6
  -2   9 -11 38.6708 40.0637   2
  -3  -9 -11 177.746  48.141   1
   3  -9  11 168.281  45.387   1
  -3  -9 -11 129.222  50.835   6
   3   9  11 80.3068 46.8543   6
  -3   9 -11 70.8989 47.4344   2
   3   9  11 94.5998 47.5078   4
   5 -10 -11 -29.331  35.142   4
  -4 -10  11 29.7335 37.8943   2
   4 -10 -11 155.501  43.409   6
   4 -10 -11 94.6985 50.0803   4
   4  10 -11 105.396  38.221   3
  -4  10  11 64.5733 30.7315   3
   3 -10 -11 1789.34  151.11   4
   3 -10 -11 1957.96  128.40   6
  -3 -10  11 1966.03  145.56   2
  -3  10  11 2122.97  136.86   3
   3  10 -11 2070.44  136.53   3
   2 -10 -11 183.039  53.414   4
   2 -10 -11 370.302  60.556   6
  -2 -10  11 344.548  67.290   2
   2 -10 -11 386.489  54.785   1
  -2  10  11 228.925  49.048   3
   2  10 -11 378.161  62.822   3
  -1 -10  11 155.497  49.835   2
   1 -10 -11 184.711  49.424   4
   1 -10 -11 179.532  44.862   6
   1 -10 -11 168.199  40.242   1
  -1  10  11 211.913  47.638   3
   1  10 -11 185.764  44.115   3
   0 -10  11  0.3666 26.6804   1
   0 -10 -11 22.7196 26.4930   1
   0 -10 -11  5.6442 28.1716   6
   0  10 -11 -19.470  27.970   2
   0  10  11 -8.6042 31.3386   4
   0  10 -11 -2.4386 23.0870   3
   0  10  11 -35.488  22.311   3
  -1 -10 -11 1333.47  106.86   6
  -1 -10 -11 1500.68  105.50   1
   1 -10  11 1513.07  105.43   1
   1  10  11 1274.21  125.19   6
   1  10  11 1384.60  115.11   4
  -1  10 -11 1300.73  128.01   2
   2 -10  11 32.1360 31.6403   1
  -2 -10 -11 81.3372 40.7345   6
  -2 -10 -11 61.3503 32.5986   1
   2  10  11 43.8931 36.1535   4
  -2  10 -11 54.8682 45.1110   2
   2  10  11 47.6530 37.8600   6
  -3 -10 -11 348.747  68.304   6
   3  10  11 425.014  79.411   6
   4 -11 -11 42.6915 49.5410   4
   4 -11 -11 29.7353 35.0872   6
  -3 -11  11  0.7361 34.8779   2
   3 -11 -11 -20.821  43.880   4
   3 -11 -11 48.3949 32.5828   6
   3  11 -11 -13.124  23.862   3
  -3  11  11 30.9727 30.8802   3
   2 -11 -11 133.610  38.121   1
  -2 -11  11 13.5296 36.6359   2
   2 -11 -11 126.474  48.931   4
   2 -11 -11 64.9744 34.1679   6
  -2  11  11 125.579  43.532   3
   2  11 -11 85.7426 36.5984   3
   1 -11 -11 1816.39  125.77   6
  -1 -11  11 1911.01  139.98   2
   1 -11 -11 2042.73  123.83   1
   1 -11 -11 1796.04  135.18   4
   1  11 -11 2028.75  132.43   3
  -1  11  11 2033.27  132.58   3
   0 -11 -11 342.611  56.486   1
   0 -11 -11 360.962  60.901   6
   0 -11  11 392.669  59.664   1
   0  11 -11 341.368  69.990   2
   0  11  11 215.568  51.310   3
   0  11  11 400.646  74.340   4
  -1 -11 -11 692.040  83.704   6
  -1 -11 -11 597.526  77.964   1
   1 -11  11 507.146  70.529   1
   1  11  11 524.135  79.752   6
   1  11  11 561.267  83.925   4
  -1  11 -11 537.182  81.938   2
   2 -11  11 13.2849 31.8633   1
  -2 -11 -11 16.0173 34.9503   6
   2  11  11 -1.7704 35.8904   6
   2  11  11 17.7230 38.8694   4
  -7 -12  11 215.556  69.811   5
   3 -12 -11 215.000  53.525   6
   3 -12 -11 242.513  67.107   4
  -3  12  11 237.127  56.622   3
   2 -12 -11 912.947 106.189   4
   2 -12 -11 871.163  91.442   6
  -2 -12  11 714.889  98.009   2
   2 -12 -11 830.285  88.191   1
   2  12 -11 827.161  97.848   3
  -2  12  11 887.697 101.192   3
   1 -12 -11 16.5452 31.6786   1
  -1 -12  11 72.6637 40.6255   2
   1 -12 -11  6.2227 30.9898   6
   1 -12 -11 30.1435 37.0431   4
  -1  12  11 13.6937 30.2484   3
   1  12 -11 24.2615 29.9654   3
  -1  12  11 56.5124 40.5999   4
   0 -12  11 57.9937 37.5381   1
   0 -12 -11 58.3063 39.0023   6
   0 -12 -11 20.9722 28.3938   1
   0  12  11 29.9193 32.5661   3
   0  12 -11  6.1635 42.2393   2
   0  12  11 68.4698 44.7152   4
  -1 -12 -11 894.743  97.495   6
   1 -12  11 758.527  88.164   1
   1  12  11 616.727  90.640   6
   1  12  11 746.969  99.363   4
  -2 -12 -11 471.449  76.666   6
  -7 -13  11  0.8241 56.0241   5
   3 -13 -11 36.9886 48.3400   4
   2 -13 -11 68.6636 40.2547   6
   2 -13 -11 163.143  48.785   1
   2 -13 -11 177.469  55.334   4
   1 -13 -11 93.2075 40.1985   1
   1 -13 -11 29.1415 33.1700   6
  -1  13  11 38.7085 45.0663   4
   1  13 -11 93.1329 42.0268   3
  -1  13  11 60.0632 38.0886   3
   0 -13 -11 1446.40  123.17   6
   0  13  11 1019.32  107.81   3
   0  13  11 891.361 107.330   4
  -1 -13 -11 27.2303 39.4753   6
  -7 -14  11 225.962  75.663   5
  -7 -15  11 53.4423 67.1009   5
  -6   0  12 425.704  72.303   3
   6   0 -12 499.656  72.127   4
   5   0 -12 -3.6139 21.8357   6
   5   0 -12 -4.2769 25.3975   4
  -5   0  12  3.7050 22.0575   3
  -4   0  12 1149.47  109.55   3
   4   0 -12 1302.53   99.79   4
   4   0 -12 1122.56   81.99   6
   3   0 -12  3.6548 25.3376   4
   3   0 -12 -7.1670 17.2799   6
  -3   0  12 -9.6063 20.0577   3
  -2   0  12 769.470  83.145   3
   2   0 -12 746.177  69.913   6
   2   0 -12 796.958  95.265   4
   1   0 -12  2.1131 16.5115   1
   1   0 -12 40.8403 27.7149   4
   1   0 -12 31.4669 22.1378   6
  -1   0  12 35.2117 24.7005   3
   0   0  12 1010.21   80.10   6
   0   0  12 1147.99   92.55   4
   0   0 -12 1023.58   97.53   4
   0   0 -12 1020.92   73.11   1
   0   0 -12 977.487  73.759   6
  -1   0 -12 22.7355 21.2615   6
   1   0  12  3.6489 22.1071   6
   1   0  12 11.7909 26.1931   4
  -1   0 -12  7.5489 20.3076   1
  -2   0 -12 1367.96   93.93   1
   2   0  12 1368.22   99.19   6
   2   0  12 1513.29  106.95   4
  -3   0 -12 -1.2489 23.5544   1
   3   0  12 -11.875  27.558   4
   3   0  12 -18.413  25.563   6
   4   0  12 611.262  78.680   4
   4   0  12 611.213  78.062   6
  -4   0 -12 456.193  67.416   1
   5   0  12  8.0248 34.8009   4
   7   1 -12 32.2512 37.9353   4
   6  -1 -12 571.565  73.418   6
  -6  -1  12 658.037  89.194   3
   6  -1 -12 643.811  84.264   4
   6   1 -12 747.490  87.967   4
  -6   1  12 731.445  92.219   3
  -5  -1  12 178.621  47.727   3
   5  -1 -12 285.418  55.410   4
   5  -1 -12 362.495  56.227   6
   5   1 -12 431.802  65.121   4
  -5   1  12 250.681  51.978   3
   5   1 -12 223.565  51.482   3
   4  -1 -12 824.111  78.050   6
   4  -1 -12 731.316  85.499   4
   4   1 -12 650.542  82.173   3
  -4   1  12 706.789  84.585   3
   4   1 -12 723.736  83.441   4
   3  -1 -12 125.140  33.762   6
   3  -1 -12 148.376  43.561   4
  -3  -1  12 155.818  36.205   2
   3   1 -12 223.852  37.620   6
  -3   1  12 202.707  45.554   3
   3   1 -12 183.036  41.962   3
   3   1 -12 180.939  44.795   4
   2  -1 -12 812.289  74.516   6
   2  -1 -12 853.926  99.967   4
  -2  -1  12 796.269  73.949   2
   2   1 -12 778.634  62.773   6
   2   1 -12 843.877  97.538   4
  -2   1  12 783.773  82.344   3
   2   1 -12 914.275  87.603   3
  -1  -1  12 991.669  76.162   6
  -1  -1  12 1104.29   79.51   2
   1  -1 -12 1020.69  103.70   4
   1  -1 -12 883.986  68.182   1
  -1  -1  12 1121.43   85.11   3
   1  -1 -12 1058.84   77.24   6
   1   1 -12 1113.05   70.73   1
   1   1 -12 1218.12   84.96   3
   1   1 -12 907.999  93.721   4
   1   1 -12 1020.13   72.36   6
  -1   1  12 1078.81   82.68   3
   0  -1 -12 1516.67   90.61   1
   0  -1 -12 1409.79  106.05   4
   0  -1 -12 1316.04   89.25   6
   0  -1  12 1300.28   92.48   6
   0  -1  12 1419.57  103.88   4
   0   1 -12 1465.22   87.53   1
   0   1  12 1523.21  100.30   6
   0   1 -12 1418.88   89.21   6
   0   1  12 1262.49  103.72   4
   1  -1  12 79.3690 33.1265   4
  -1  -1 -12 35.8530 23.5728   6
   1  -1  12 64.5971 29.5915   6
  -1  -1 -12 43.1596 23.0326   1
   1   1  12 103.690  32.368   6
   1   1  12 90.6648 36.8356   4
  -1   1 -12 62.5097 25.4361   1
  -1   1 -12 27.4300 23.4533   6
  -2  -1 -12 325.418  51.495   6
   2  -1  12 331.235  54.294   4
  -2  -1 -12 360.223  53.420   1
   2  -1  12 308.309  52.190   6
   2   1  12 405.091  60.628   6
  -2   1 -12 290.215  47.133   1
   2   1  12 270.443  52.520   4
   3  -1  12 829.416  86.447   4
  -3  -1 -12 785.966  82.935   1
   3  -1  12 773.667  84.875   6
   3   1  12 921.815  93.216   6
  -3   1 -12 750.229  79.571   1
   3   1  12 792.406  89.895   4
   4  -1  12 412.432  63.883   4
  -4  -1 -12 342.647  58.605   1
   4  -1  12 327.996  61.241   6
   4   1  12 389.431  67.395   4
   4   1  12 433.081  66.609   6
  -4   1 -12 345.048  57.655   1
   5   1  12 202.477  56.256   4
   7  -2 -12 508.411  73.335   6
   7   2 -12 517.582  81.151   4
   6  -2 -12 31.6655 31.4299   6
   6  -2 -12 56.6639 35.1647   4
  -6  -2  12 -23.785  28.220   2
  -6  -2  12 -6.6018 26.1020   3
   6   2 -12  6.3803 29.9413   3
   6   2 -12 29.3855 32.7463   4
  -6   2  12 -11.300  25.181   3
   5  -2 -12 297.920  57.582   4
   5  -2 -12 227.684  46.835   6
  -5  -2  12 208.589  45.675   2
  -5   2  12 279.897  54.669   3
   5   2 -12 215.209  50.054   4
   5   2 -12 238.274  51.775   3
  -4  -2  12 982.964  87.413   2
   4  -2 -12 1016.98  103.07   4
   4  -2 -12 962.903  90.097   6
   4   2 -12 858.877  91.801   4
  -4   2  12 933.002  99.078   3
   4   2 -12 977.251  98.415   3
  -3  -2  12 2070.98  120.47   2
   3  -2 -12 2324.47  125.34   6
   3  -2 -12 1829.67  133.33   4
   3   2 -12 2154.61  130.63   3
  -3   2  12 1986.44  130.41   3
   3   2 -12 2224.45  134.94   4
   2  -2 -12 1123.14  118.87   4
  -2  -2  12 1127.62   82.71   2
   2  -2 -12 1259.85   84.14   6
   2   2 -12 986.698  93.170   3
  -2   2  12 967.713  93.914   3
   2   2 -12 1095.41   73.50   6
   2   2 -12 1066.97  109.39   4
   1  -2 -12 -2.4932 26.1780   4
   1  -2 -12  4.7613 18.6438   6
  -1  -2  12 22.6692 21.1808   6
  -1  -2  12 22.5004 23.1804   2
   1  -2 -12  1.3625 17.1382   1
   1   2 -12 13.1048 27.3620   2
   1   2 -12 16.3962 16.1022   1
   1   2 -12 -4.5719 15.6725   6
  -1   2  12 28.2369 22.7842   3
   1   2 -12  7.5359 25.5422   4
   1   2 -12  3.7977 20.7166   3
   0  -2  12 100.977  31.426   6
   0  -2 -12 107.830  37.074   4
   0  -2  12 96.2340 34.9466   4
   0  -2 -12 66.3467 26.1733   6
   0  -2 -12 162.546  32.881   1
   0   2 -12 127.083  43.326   2
   0   2 -12 118.082  30.677   1
   0   2  12 89.0044 36.7491   4
   0   2  12 221.767  46.796   6
   0   2 -12 131.913  29.894   6
   1  -2  12 2198.25  122.22   6
  -1  -2 -12 2012.95  121.18   6
  -1  -2 -12 2086.49  117.73   1
   1  -2  12 2044.73  124.26   4
  -1   2 -12 2000.61  114.99   1
  -1   2 -12 2216.17  117.72   6
   1   2  12 1952.71  134.46   4
   1   2  12 2043.47  128.18   6
  -1   2 -12 1961.08  139.45   2
   2  -2  12 27.1490 26.1811   6
  -2  -2 -12 32.6935 25.8568   1
  -2  -2 -12 -1.1119 24.9943   6
   2  -2  12 44.8145 27.2288   4
   2   2  12  9.2741 26.1786   6
  -2   2 -12 15.3095 35.6480   2
   2   2  12 43.7449 32.9568   4
  -2   2 -12 23.0032 22.8670   1
  -3  -2 -12 250.793  45.638   1
   3  -2  12 229.361  49.361   6
   3   2  12 149.601  43.800   6
  -3   2 -12 115.298  46.537   2
   3   2  12 71.3482 39.1452   4
  -3   2 -12 67.5263 30.9926   1
  -4  -2 -12 272.915  54.338   1
   4  -2  12 337.793  65.381   1
   4  -2  12 370.718  62.102   6
  -4   2 -12 390.053  59.647   1
   4   2  12 444.174  71.263   4
   4   2  12 317.937  60.419   6
  -4   2 -12 231.475  58.628   2
  -5   2 -12 1522.75  143.45   2
   7  -3 -12 399.408  67.575   6
  -7  -3  12 344.429  64.223   2
   7   3 -12 359.776  68.172   4
   6  -3 -12 81.2047 39.2497   4
   6  -3 -12 72.6821 36.2823   6
  -6  -3  12 69.7582 37.8175   2
   6   3 -12 15.0719 30.5236   3
   6   3 -12 92.2893 40.2873   4
  -6   3  12 79.6731 37.5482   3
   5  -3 -12 1305.98  107.51   4
  -5  -3  12 1306.19   98.07   2
   5  -3 -12 1427.39  102.15   6
   5   3 -12 1440.86  103.60   4
   5   3 -12 1319.29  120.24   3
  -5   3  12 1072.93  109.12   3
  -4  -3  12 -3.9714 22.4572   2
   4  -3 -12 -24.125  24.030   4
   4  -3 -12  7.5540 22.6077   6
   4   3 -12  4.2230 27.8828   4
  -4   3  12 32.0415 23.5983   3
   4   3 -12 -25.017  19.970   3
   3  -3 -12 137.270  37.351   6
   3  -3 -12 88.7685 38.2857   4
  -3  -3  12 109.076  32.944   2
   3   3 -12 117.886  35.138   3
  -3   3  12 75.6114 30.7106   3
   3   3 -12 81.9247 33.5629   4
   2  -3 -12 36.6863 35.8835   4
  -2  -3  12 37.2680 24.3967   2
   2  -3 -12 78.1053 28.3907   6
   2   3 -12 86.8137 32.3963   3
  -2   3  12 74.2541 30.9437   3
   2   3 -12 58.9736 34.0454   4
  -1  -3  12 3231.88  153.12   1
   1  -3 -12 3298.65  160.71   6
   1  -3 -12 3115.00  147.93   1
   1  -3 -12 2972.72  179.12   4
  -1   3  12 2972.20  160.53   3
   1   3 -12 2931.37  159.07   3
   1   3 -12 2990.96  168.40   2
   0  -3 -12 41.2483 29.2214   4
   0  -3  12 133.934  32.188   6
   0  -3 -12 77.5388 29.3875   6
   0  -3 -12 147.404  32.374   1
   0  -3  12 79.3040 28.2726   1
   0   3 -12 98.3908 27.9487   1
   0   3  12 75.9596 32.2297   6
   0   3 -12 69.5157 36.8676   2
   0   3  12 68.1524 35.2864   4
   0   3 -12 87.2679 26.2218   6
  -1  -3 -12 -11.521  19.346   1
   1  -3  12  0.3424 22.9560   6
   1  -3  12 50.1952 28.3438   1
  -1  -3 -12  8.0594 22.6777   6
   1   3  12 -5.2283 29.9223   4
  -1   3 -12 43.9379 23.4394   1
  -1   3 -12 -1.1582 33.9045   2
   1   3  12 31.5392 27.5323   6
   2  -3  12 109.699  39.029   1
  -2  -3 -12 33.6987 24.4020   1
   2  -3  12 136.265  37.698   6
  -2  -3 -12 51.6453 28.8899   6
   2   3  12 12.0311 32.2754   4
  -2   3 -12 35.6945 25.3409   1
   2   3  12 150.115  42.962   6
  -2   3 -12 51.9521 41.6425   2
   3  -3  12 1693.99  114.33   6
  -3  -3 -12 1638.83  113.70   1
   3  -3  12 1898.28  124.52   1
   3   3  12 1658.72  129.16   4
   3   3  12 1849.85  125.48   6
  -3   3 -12 1875.17  136.20   2
  -4  -3 -12 168.142  45.918   1
   4  -3  12 126.398  44.323   6
   4  -3  12 119.848  46.661   1
  -4   3 -12 99.0564 51.3066   2
   4   3  12 180.297  49.718   6
   4   3  12 111.214  46.097   4
  -7  -4  12 223.953  58.267   2
   6  -4 -12 403.790  67.868   6
   6  -4 -12 475.929  74.598   4
  -6  -4  12 530.797  75.505   2
  -6   4  12 459.015  74.334   3
   6   4 -12 499.410  76.565   3
  -5  -4  12 237.013  49.163   2
   5  -4 -12 33.4015 31.4755   6
   5  -4 -12 175.829  47.711   4
  -5   4  12 109.448  37.227   3
   5   4 -12 172.883  45.711   3
  -4  -4  12 722.915  81.343   2
   4  -4 -12 663.326  84.183   4
   4  -4 -12 503.643  67.293   6
   4   4 -12 666.817  79.493   3
  -4   4  12 564.392  77.316   3
   3  -4 -12 1159.73   86.84   6
  -3  -4  12 1174.85   90.18   2
   3  -4 -12 1005.09  107.15   4
  -3   4  12 986.227  96.791   3
   3   4 -12 1014.08   97.50   3
  -2  -4  12 384.530  59.811   2
   2  -4 -12 436.659  57.772   6
   2  -4 -12 376.401  72.735   4
   2   4 -12 448.228  59.795   3
  -2   4  12 393.429  57.662   3
   1  -4 -12 37.6570 24.9858   6
   1  -4 -12 -14.401  26.622   4
   1  -4 -12 64.9542 24.6329   1
   1   4 -12 74.6642 28.5759   3
  -1   4  12 41.0619 23.9853   3
   1   4 -12 28.9956 32.1185   2
   0  -4 -12 528.601  75.930   4
   0  -4 -12 503.980  64.199   6
   0  -4  12 683.996  72.063   1
   0  -4 -12 564.234  62.625   1
   0   4  12 763.793  82.347   6
   0   4  12 611.442  82.489   4
   0   4 -12 601.472  80.144   2
   1  -4  12 1303.50   96.38   1
  -1  -4 -12 1444.76   99.74   6
  -1  -4 -12 1354.41   91.29   1
   1   4  12 1384.01  105.61   6
  -1   4 -12 1177.41  123.64   2
   1   4  12 1205.67  118.46   4
   2  -4  12 822.370  89.042   1
  -2  -4 -12 981.808  90.308   1
   2  -4  12 860.858  82.920   6
  -2  -4 -12 1029.98   95.65   6
   2   4  12 898.584 101.234   4
  -2   4 -12 681.525  97.588   2
   2   4  12 942.665  98.911   6
   3  -4  12 -10.966  28.833   1
  -3  -4 -12 46.3155 26.6098   1
   3  -4  12 20.6003 29.4785   6
   3   4  12 64.1082 42.5779   4
  -3   4 -12 59.5028 43.7986   2
   3   4  12 35.2083 34.5982   6
   4  -4  12 73.0135 38.9428   6
   4  -4  12 75.4387 40.5955   1
  -4  -4 -12 85.3967 39.0082   1
   4   4  12 31.8065 39.4726   4
  -4   4 -12 33.5665 43.4074   2
   4   4  12 54.1889 38.1919   6
  -6  -5  12 1883.75  133.55   2
   6  -5 -12 2015.62  141.32   4
   6  -5 -12 1663.34  124.68   6
   6   5 -12 1937.78  138.11   3
  -6   5  12 1682.18  131.10   3
  -5  -5  12 41.5295 33.5934   2
   5  -5 -12 11.9681 30.9295   4
   5  -5 -12 20.3363 26.8764   6
  -5   5  12 59.3548 33.1124   3
   5   5 -12 45.9370 30.7056   3
   4  -5 -12 639.409  84.057   4
   4  -5 -12 390.637  60.546   6
  -4  -5  12 590.060  76.318   2
   4   5 -12 482.537  71.985   3
  -4   5  12 574.389  76.402   3
   3  -5 -12  4.4902 27.8829   4
   3  -5 -12 19.4275 23.1708   6
  -3  -5  12  4.1096 26.7507   2
  -3   5  12 -16.587  18.421   3
   3   5 -12 -3.0301 22.4480   3
  -2  -5  12 1106.26  105.46   2
   2  -5 -12 1127.56  122.96   4
   2  -5 -12 1153.32   86.04   6
   2   5 -12 1132.60   90.99   3
  -2   5  12 1100.80   88.57   3
   1  -5 -12 -16.072  19.127   1
   1  -5 -12 40.6386 34.1396   4
   1  -5 -12 18.0202 22.8213   6
   1   5 -12 26.9469 23.8836   3
  -1   5  12 -2.4799 21.0761   3
   1   5 -12 -0.3687 27.3565   2
   0  -5 -12 1209.60   91.84   6
   0  -5  12 1097.49   84.43   1
   0  -5 -12 1346.00  107.73   4
   0  -5 -12 1272.18   85.97   1
   0   5 -12 1230.80  121.33   2
   0   5  12 1033.67  111.56   4
   0   5  12 1382.21  102.47   6
   1  -5  12 14.6713 25.5353   1
  -1  -5 -12 32.4071 26.9728   6
  -1  -5 -12 10.3263 21.8272   1
   1   5  12 18.8852 33.2251   4
  -1   5 -12 69.2643 45.8347   2
   1   5  12 85.2376 35.7500   6
  -2  -5 -12 160.580  41.197   6
   2  -5  12 316.774  56.922   1
  -2  -5 -12 172.183  40.336   1
   2   5  12 155.109  49.454   6
  -2   5 -12 189.062  59.990   2
   2   5  12 235.999  56.892   4
   3  -5  12 118.245  43.380   1
  -3  -5 -12 149.772  42.408   1
  -3  -5 -12 110.925  39.969   6
   3   5  12 189.596  49.849   6
  -3   5 -12 131.026  51.565   2
   3   5  12 168.922  51.397   4
  -4  -5 -12 603.343  78.056   1
   4  -5  12 933.651 102.203   1
   4   5  12 831.115 106.002   4
   4   5  12 811.030  98.730   6
  -4   5 -12 519.810  87.267   2
   6  -6 -12 307.747  59.100   6
  -6  -6  12 415.177  74.055   2
   5  -6 -12 112.133  39.761   6
   5  -6 -12 53.8919 37.4911   4
  -5  -6  12 95.8322 40.9742   2
   5   6 -12 78.6988 36.4382   3
  -5   6  12 46.7030 31.4446   3
   4  -6 -12 1238.70   96.39   6
   4  -6 -12 1155.32  118.44   4
  -4  -6  12 1327.30  121.78   2
  -3  -6  12 668.710  84.941   2
   3  -6 -12 644.212  91.417   4
   3  -6 -12 605.312  73.595   6
  -3   6  12 610.544  75.923   3
   3   6 -12 876.566  90.158   3
  -2  -6  12 869.472  96.789   2
   2  -6 -12 1229.21  126.11   4
   2  -6 -12 876.335  85.850   6
   2   6 -12 889.339  91.469   3
  -2   6  12 1004.48   97.02   3
   1  -6 -12 25.6376 26.0798   6
   1  -6 -12 15.2579 31.3482   4
   1  -6 -12 -9.5083 20.1495   1
   1   6 -12 23.6775 24.8559   3
   1   6 -12 18.3862 34.7030   2
  -1   6  12 10.6906 21.1110   3
   0  -6  12 549.780  65.115   1
   0  -6 -12 499.440  61.983   1
   0  -6 -12 475.205  64.684   6
   0  -6 -12 498.859  73.973   4
   0   6  12 387.576  63.014   6
   0   6  12 345.385  65.658   4
   0   6 -12 423.557  72.317   2
   1  -6  12 286.588  50.163   1
  -1  -6 -12 228.932  45.486   1
  -1  -6 -12 371.480  60.969   6
   1   6  12 334.639  61.316   6
   1   6  12 191.151  50.514   4
  -1   6 -12 360.215  68.923   2
  -2  -6 -12 745.316  83.981   6
   2  -6  12 681.518  78.944   1
  -2  -6 -12 581.489  70.862   1
   2   6  12 476.053  81.345   4
  -2   6 -12 702.687  98.677   2
   2   6  12 605.884  83.426   6
   3  -6  12 10.8806 30.0234   1
  -3  -6 -12 52.3465 30.4666   1
  -3  -6 -12 39.3881 37.1243   6
   3   6  12 -18.770  29.822   6
  -3   6 -12 49.5345 43.9573   2
   3   6  12 -31.601  33.083   4
  -4   6 -12 208.423  65.330   2
   5  -7 -12 738.805  98.397   4
   5  -7 -12 933.910  95.350   6
  -5  -7  12 826.609 101.342   2
   5   7 -12 738.040  90.679   3
  -5   7  12 660.530  86.075   3
   4  -7 -12 158.594  50.487   4
  -4  -7  12 226.851  56.718   2
   4  -7 -12 231.542  50.060   6
  -4   7  12 111.105  41.320   3
   4   7 -12 112.978  39.194   3
  -3  -7  12  2.8156 32.7045   2
   3  -7 -12 17.2353 40.1351   4
   3  -7 -12 13.5901 25.2932   6
   3   7 -12  1.4258 24.3275   3
  -3   7  12 16.7859 26.1319   3
   2  -7 -12 168.153  40.597   6
   2  -7 -12 242.591  60.191   4
  -2  -7  12 18.5136 32.1077   2
  -2   7  12 216.485  46.235   3
   2   7 -12 201.515  45.850   3
   1  -7 -12 1474.88  120.34   4
  -1  -7  12 1474.26  115.77   2
   1  -7 -12 1564.20  109.70   6
   1  -7 -12 1640.29  101.28   1
  -1   7  12 1843.48  115.24   3
   1   7 -12 1622.11  111.20   3
   1   7 -12 1910.69  132.77   2
   0  -7 -12 230.084  45.198   1
   0  -7 -12 292.871  53.656   6
   0  -7  12 195.922  43.890   1
   0   7 -12 221.732  58.902   2
   0   7  12 231.427  58.088   4
  -1  -7 -12 15.8358 25.2362   1
  -1  -7 -12 54.9748 35.4728   6
   1  -7  12 53.8353 30.1946   1
   1   7  12  8.2079 28.2514   4
  -1   7 -12  0.3373 31.4162   2
   1   7  12 16.4795 30.6099   6
  -2  -7 -12 139.986  41.580   6
  -2  -7 -12 92.9616 34.7712   1
   2  -7  12 209.501  48.391   1
   2   7  12 57.8216 42.4460   4
  -2   7 -12 99.0495 53.3640   2
   2   7  12 37.0834 33.7854   6
  -3  -7 -12 1056.78  111.27   6
  -3  -7 -12 980.315  97.351   1
   3  -7  12 1069.24  106.03   1
  -3   7 -12 1164.14  131.84   2
   3   7  12 979.326 112.042   6
   3   7  12 1233.21  127.26   4
   5  -8 -12 47.4980 43.6613   4
   5  -8 -12 79.1365 39.4697   6
  -5  -8  12 60.0590 39.5347   2
   5   8 -12 99.6994 41.9018   3
  -5   8  12 38.1045 30.4689   3
   4  -8 -12 144.704  43.410   6
  -4  -8  12 182.194  53.323   2
   4  -8 -12 132.079  52.346   4
   4   8 -12 104.038  39.481   3
  -4   8  12 95.7268 40.8466   3
  -3  -8  12 1207.80  125.35   2
   3  -8 -12 1321.55  102.51   6
   3  -8 -12 1575.16  153.15   4
  -3   8  12 1445.43  109.14   3
   3   8 -12 1355.56  107.55   3
  -2  -8  12 142.333  45.007   2
   2  -8 -12 221.628  58.476   4
   2  -8 -12 128.408  39.749   6
   2   8 -12 92.8633 37.0482   3
  -2   8  12 149.114  41.143   3
   1  -8 -12 153.833  48.378   4
   1  -8 -12 121.258  34.547   1
   1  -8 -12 140.936  42.060   6
  -1  -8  12 109.288  41.352   2
  -1   8  12 156.065  40.118   3
   1   8 -12 190.922  44.393   3
   1   8 -12 254.547  59.122   2
   0  -8 -12 130.652  37.740   1
   0  -8 -12 178.704  44.873   6
   0  -8  12 118.041  39.030   1
   0   8 -12 148.039  51.443   2
   0   8  12 148.478  48.742   4
  -1  -8 -12 2747.62  148.01   1
   1  -8  12 2702.70  146.89   1
  -1  -8 -12 2343.67  150.84   6
  -1   8 -12 2253.54  160.97   2
   1   8  12 2487.11  161.98   6
   1   8  12 2414.28  163.21   4
  -2  -8 -12  6.3743 23.9501   1
   2  -8  12  8.0866 30.0208   1
  -2  -8 -12 -4.5743 29.1967   6
   2   8  12 -23.550  29.439   6
   2   8  12 49.7643 37.9740   4
  -2   8 -12  3.3963 34.1884   2
  -3  -8 -12 162.960  52.979   6
   3  -8  12 73.2547 42.8555   1
   3   8  12 258.904  64.265   6
  -3   8 -12 116.294  54.294   2
   4  -9 -12 116.242  54.204   4
   4  -9 -12 244.827  52.408   6
  -4  -9  12 176.181  55.222   2
   4   9 -12 220.543  51.933   3
  -4   9  12 153.398  43.769   3
   3  -9 -12 206.298  49.585   6
   3  -9 -12 226.508  65.785   4
  -3  -9  12 94.4486 44.7136   2
   3   9 -12 183.147  47.373   3
  -3   9  12 79.6053 35.4538   3
   2  -9 -12 422.774  56.667   1
   2  -9 -12 387.763  62.092   6
  -2  -9  12 391.510  72.017   2
   2  -9 -12 363.170  72.283   4
   2   9 -12 386.561  62.121   3
  -2   9  12 376.157  61.972   3
   1  -9 -12 1103.78  102.35   6
   1  -9 -12 771.633  97.304   4
  -1  -9  12 1024.38  110.56   2
   1  -9 -12 1012.64   91.37   1
  -1   9  12 1179.18  107.04   3
   1   9 -12 1095.81  102.53   3
   0  -9 -12 278.767  50.189   1
   0  -9 -12 357.954  63.609   6
   0  -9  12 423.340  60.555   1
   0   9  12 365.950  71.810   4
   0   9 -12 367.425  71.772   2
   1  -9  12  1.2500 27.9197   1
  -1  -9 -12 -19.707  21.204   1
  -1  -9 -12  2.4135 32.0271   6
   1   9  12 30.1881 34.2907   4
  -1   9 -12 -0.7540 33.3313   2
   1   9  12 12.4422 34.3749   6
   2  -9  12 213.555  50.182   1
  -2  -9 -12 227.892  53.259   6
  -2  -9 -12 311.535  56.644   1
  -2   9 -12 132.245  54.357   2
   2   9  12 332.529  69.847   4
   2   9  12 151.158  49.121   6
   4 -10 -12 1066.16  132.96   4
   3 -10 -12 268.749  56.107   6
   3 -10 -12 278.364  70.882   4
  -3 -10  12 115.608  49.684   2
  -3  10  12 223.724  53.465   3
   3  10 -12 325.157  62.068   3
   2 -10 -12 523.459  72.952   6
   2 -10 -12 713.004  76.549   1
   2 -10 -12 788.524  99.367   4
  -2 -10  12 723.437  97.111   2
   2  10 -12 711.941  86.468   3
  -2  10  12 613.474  80.243   3
   1 -10 -12  0.7779 25.2077   1
  -1 -10  12  3.8714 31.3417   2
   1 -10 -12 -7.4298 26.6382   6
   1 -10 -12 -14.818  31.424   4
  -1  10  12 19.4067 31.0892   3
   1  10 -12 23.2721 31.4635   3
   0 -10  12 379.538  59.990   1
   0 -10 -12 293.137  52.959   1
   0 -10 -12 249.685  55.342   6
   0  10 -12 367.142  73.112   2
   0  10  12 420.234  74.701   4
   1 -10  12 75.8336 36.8405   1
  -1 -10 -12 132.657  47.337   6
  -1 -10 -12 75.6991 36.4713   1
   1  10  12 101.860  48.101   4
  -1  10 -12 72.4804 44.4451   2
   1  10  12 46.3720 41.2673   6
   2 -10  12 610.486  78.976   1
  -2 -10 -12 517.204  79.983   6
   2  10  12 922.708 108.823   6
   3 -11 -12 -20.466  31.219   6
   3 -11 -12 25.7357 45.3392   4
  -3  11  12 -21.666  26.359   3
   2 -11 -12 601.688  87.739   4
   2 -11 -12 668.308  76.137   1
  -2 -11  12 648.337  91.186   2
   2 -11 -12 652.341  82.120   6
   2  11 -12 646.379  85.929   3
  -2  11  12 622.723  84.888   3
   1 -11 -12 105.664  41.453   1
   1 -11 -12 83.0177 39.3355   6
  -1 -11  12 76.9917 42.9978   2
   1 -11 -12 145.488  50.712   4
  -1  11  12 86.0747 45.2138   4
   1  11 -12 66.3372 35.3181   3
  -1  11  12 107.065  44.448   3
   0 -11 -12 868.937  96.183   6
   0 -11 -12 879.756  89.977   1
   0  11 -12 1051.00  120.18   2
   0  11  12 617.140  90.084   6
   0  11  12 653.039  94.541   4
  -1 -11 -12 -4.2260 32.3698   6
   1 -11  12 33.6479 33.7526   1
   1  11  12 33.2319 41.4473   6
   2 -12 -12 666.449  80.257   1
   1 -12 -12 23.5520 31.0067   1
   1 -12 -12 -14.148  32.240   6
  -1  12  12 25.5099 35.1567   3
   1  12 -12 13.1889 34.5464   3
  -7 -14  12 156.617  72.923   5
  -7 -15  12 -25.466  61.048   5
   6   0 -13 42.9537 38.0108   4
  -6   0  13 -27.376  25.382   3
  -5   0  13 615.772  84.830   3
   5   0 -13 667.448  87.586   4
   4   0 -13  5.4828 25.4247   4
   4   0 -13 -12.324  19.549   6
  -4   0  13 22.5808 26.5496   3
   3   0 -13 1291.15  123.86   4
   3   0 -13 1488.02   94.72   6
  -3   0  13 1248.69  116.43   3
   2   0 -13 24.4314 21.7151   6
   2   0 -13 34.6854 35.8392   4
  -2   0  13 21.6861 26.5588   3
   1   0 -13 449.509  56.108   6
   1   0 -13 589.754  77.371   4
  -1   0  13 680.780  74.941   6
  -1   0  13 683.816  76.610   3
   0   0  13  9.5873 28.9143   4
   0   0 -13  5.2992 22.4969   6
   0   0 -13 18.4976 21.7597   1
   0   0  13 24.5122 26.7506   6
   1   0  13 2077.92  131.87   4
  -1   0 -13 1691.54  108.74   1
  -1   0 -13 1800.57  113.12   6
   1   0  13 1930.76  121.74   6
   2   0  13 -35.392  25.254   4
  -2   0 -13 14.2271 22.7807   1
   2   0  13  3.6490 29.0691   6
   3   0  13 75.7861 37.0121   6
   3   0  13 63.8379 35.7656   4
  -3   0 -13 25.5887 26.0522   1
   4   0  13 -20.023  31.901   6
   4   0  13  2.8242 35.1897   4
   6  -1 -13 566.390  82.905   4
  -6  -1  13 471.007  78.657   3
  -6   1  13 437.035  75.484   3
   6   1 -13 532.085  79.344   4
   5  -1 -13 898.359  88.571   6
  -5  -1  13 870.345 103.763   3
   5  -1 -13 864.484  99.695   4
   5   1 -13 977.654 103.997   4
  -5   1  13 860.962 102.389   3
   4  -1 -13 55.4861 36.1757   4
  -4  -1  13  2.0008 23.1623   3
   4  -1 -13 37.7814 24.8110   6
   4   1 -13 69.9713 32.7450   4
  -4   1  13 31.6826 28.5933   3
   3  -1 -13 388.570  69.343   4
  -3  -1  13 546.021  77.250   3
   3  -1 -13 578.343  65.409   6
   3   1 -13 577.998  74.576   3
  -3   1  13 375.672  63.151   3
   3   1 -13 509.895  76.106   4
   2  -1 -13 360.317  52.416   6
   2  -1 -13 168.427  55.084   4
  -2  -1  13 355.739  59.741   3
   2   1 -13 304.770  65.054   4
  -2   1  13 334.409  57.787   3
   2   1 -13 418.334  54.275   6
  -1  -1  13 1142.09  102.07   3
   1  -1 -13 905.103  98.560   4
  -1  -1  13 908.391  86.059   6
   1  -1 -13 997.358  76.244   6
   1   1 -13 761.441  73.638   6
   1   1 -13 974.121  98.073   4
  -1   1  13 934.562  91.772   6
  -1   1  13 972.855  93.818   3
   0  -1 -13 48.1609 25.8289   1
   0  -1 -13 168.848  38.997   6
   0  -1  13 125.760  36.589   6
   0  -1  13 74.8055 35.0226   4
   0   1 -13 94.3321 28.5017   1
   0   1  13 105.456  39.075   6
   0   1  13 47.8641 36.8117   4
   0   1 -13 85.5787 29.9066   6
  -1  -1 -13 645.145  70.854   1
  -1  -1 -13 474.722  60.405   6
   1  -1  13 496.964  64.836   6
   1  -1  13 461.950  67.413   4
  -1   1 -13 594.457  68.440   6
   1   1  13 635.762  80.224   4
  -1   1 -13 684.363  71.565   1
   1   1  13 597.635  73.729   6
   2  -1  13 340.494  57.853   4
  -2  -1 -13 331.373  53.339   1
   2  -1  13 328.007  55.666   6
  -2  -1 -13 302.140  53.644   6
  -2   1 -13 350.108  54.622   1
   2   1  13 312.857  59.016   4
   2   1  13 356.774  62.613   6
   3  -1  13 1703.80  119.90   4
  -3  -1 -13 1604.92  112.26   1
   3  -1  13 1785.07  120.22   6
  -3   1 -13 1915.41  119.15   1
   3   1  13 1568.18  118.69   6
   3   1  13 1623.17  122.70   4
   4  -1  13 137.825  49.390   6
   4   1  13 45.8112 37.9922   6
   4   1  13 79.3056 42.8854   4
   6  -2 -13 -8.7067 28.1572   6
  -6  -2  13 -1.6400 28.1340   3
   6  -2 -13 -2.9570 32.8063   4
   6   2 -13  4.3088 29.6799   4
  -6   2  13 -4.7736 26.5802   3
   5  -2 -13 380.064  61.210   6
   5  -2 -13 317.956  62.843   4
   5   2 -13 271.315  59.414   4
   5   2 -13 166.407  45.913   3
  -5   2  13 299.157  61.632   3
   4  -2 -13 2114.02  144.13   4
   4  -2 -13 2068.22  126.21   6
   4   2 -13 2072.92  137.03   3
  -4   2  13 2063.90  140.31   3
   4   2 -13 2107.41  138.48   4
   3  -2 -13 291.929  50.163   6
   3  -2 -13 236.372  57.406   4
  -3   2  13 189.204  49.029   3
   3   2 -13 225.002  54.083   4
   3   2 -13 300.835  55.712   3
   2  -2 -13 192.436  55.422   4
   2  -2 -13 230.469  44.163   6
  -2   2  13 201.238  47.871   3
   2   2 -13 282.791  60.558   4
   2   2 -13 264.051  48.865   3
  -1  -2  13  9.0660 23.9742   6
   1  -2 -13 22.1644 24.4662   6
   1  -2 -13  3.0676 20.6851   1
   1  -2 -13 -29.891  25.135   4
  -1  -2  13 -10.793  22.551   2
  -1   2  13  8.0780 21.2457   3
   1   2 -13 -4.8095 20.6617   3
   1   2 -13 29.2224 28.5046   4
   0  -2 -13 858.774  82.076   6
   0  -2  13 743.625  76.927   6
   0  -2 -13 715.800  73.265   1
   0  -2  13 875.664  90.854   4
   0   2 -13 877.877  68.275   6
   0   2  13 848.710  88.874   6
   0   2 -13 766.518  72.480   1
   0   2  13 728.038  92.276   4
  -1  -2 -13 281.152  49.688   6
   1  -2  13 281.033  52.683   6
  -1  -2 -13 277.532  49.567   1
   1   2  13 387.628  61.151   6
  -1   2 -13 327.925  49.135   1
   1   2  13 229.607  52.758   4
  -1   2 -13 286.619  47.293   6
  -2  -2 -13 97.1519 35.5780   6
   2  -2  13 33.9914 30.1911   6
  -2  -2 -13 152.698  38.738   1
  -2   2 -13 113.754  35.667   1
   2   2  13 136.445  43.558   6
   2   2  13 65.6417 38.6821   4
   3  -2  13 30.2929 32.0858   6
  -3  -2 -13 -12.209  23.011   1
  -3   2 -13  9.5795 26.3179   1
   3   2  13 18.9477 32.6539   6
   3   2  13 -2.1703 32.3489   4
   4  -2  13 1515.13  114.14   6
   4   2  13 1274.37  127.52   4
   6  -3 -13 1478.36  113.14   6
   6  -3 -13 1503.17  122.35   4
  -5  -3  13 44.2922 33.3604   2
   5  -3 -13 64.4102 39.1191   4
   5  -3 -13 15.0674 26.1194   6
  -5   3  13 23.1583 29.6977   3
   5   3 -13 30.9513 30.6133   3
   4  -3 -13 78.1486 32.4734   6
  -4  -3  13 63.2154 32.9210   2
   4  -3 -13 89.6291 39.3815   4
   4   3 -13 106.822  39.658   3
  -4   3  13 48.1750 30.5859   3
  -3  -3  13 10.4556 25.8847   2
   3  -3 -13  0.4199 21.4453   6
   3  -3 -13 56.7067 41.6917   4
  -3   3  13 33.7404 28.0568   3
   3   3 -13  4.3326 25.1969   3
   2  -3 -13 1481.25  142.55   4
  -2  -3  13 1380.45  100.85   2
   2  -3 -13 1380.89   96.91   6
   2   3 -13 1364.79  100.72   3
  -2   3  13 1328.34  101.21   3
   1  -3 -13 103.257  29.591   1
   1  -3 -13 108.686  35.222   6
  -1  -3  13 55.4559 32.2528   2
   1  -3 -13 103.171  41.116   4
   1   3 -13 135.952  37.909   3
  -1   3  13 154.320  38.693   3
   0  -3  13 216.504  45.785   1
   0  -3 -13 141.436  39.509   6
   0  -3 -13 257.783  45.578   1
   0   3  13 146.413  49.589   4
   0   3 -13 143.228  48.222   2
   0   3  13 192.641  47.558   6
   1  -3  13 41.1200 31.0673   6
  -1  -3 -13 61.3285 28.3674   1
  -1  -3 -13 -2.1863 25.4358   6
   1  -3  13 13.3989 28.2713   1
   1   3  13 -14.158  28.474   6
   1   3  13  2.8602 28.8368   4
  -1   3 -13 18.5304 22.3041   1
  -1   3 -13 56.7843 42.4152   2
  -2  -3 -13 1054.82  100.58   6
   2  -3  13 1065.17   98.63   6
  -2  -3 -13 1031.68   96.40   1
   2  -3  13 1201.84  109.05   1
   2   3  13 1230.44  114.48   6
  -2   3 -13 1092.32  126.71   2
   2   3  13 1223.25  119.80   4
  -3  -3 -13 107.716  35.082   1
   3  -3  13 117.671  41.805   6
   3  -3  13 51.3514 36.0581   1
   3   3  13 84.7443 44.1639   4
  -3   3 -13 81.5016 51.8947   2
   3   3  13 90.0575 42.0842   6
   4  -3  13 362.256  65.150   6
  -4   3 -13 205.268  65.176   2
  -6  -4  13 21.3379 35.6724   2
   6  -4 -13 12.0225 32.0809   6
  -5  -4  13 376.465  64.215   2
   5  -4 -13 338.624  68.665   4
   5  -4 -13 376.807  61.317   6
  -5   4  13 316.471  60.969   3
   5   4 -13 393.310  66.408   3
   4  -4 -13 490.852  77.770   4
  -4  -4  13 457.376  69.472   2
   4  -4 -13 446.978  63.975   6
   4   4 -13 492.303  72.761   3
  -4   4  13 639.579  83.249   3
  -3  -4  13 863.699  88.363   2
   3  -4 -13 807.512  83.998   6
   3  -4 -13 669.450  97.821   4
   3   4 -13 632.930  82.762   3
  -3   4  13 669.410  81.363   3
  -2  -4  13 16.1944 28.1281   2
   2  -4 -13 -3.7446 31.4761   4
   2  -4 -13 -14.162  21.361   6
  -2   4  13  2.7320 23.5450   3
   2   4 -13  1.2710 24.5242   3
   1  -4 -13 643.434  75.331   6
   1  -4 -13 753.222  72.221   1
  -1  -4  13 708.446  81.737   2
   1  -4 -13 625.273  86.221   4
  -1   4  13 718.195  77.925   3
   1   4 -13 615.114  74.001   3
   0  -4 -13 1141.76   88.84   6
   0  -4 -13 1169.35   82.45   1
   0  -4  13 1015.61   95.52   1
   0   4 -13 938.619 107.114   2
   0   4  13 919.063 107.782   4
   0   4  13 1077.12  106.05   6
  -1  -4 -13 1258.85   92.01   1
   1  -4  13 1328.97  100.00   1
  -1  -4 -13 1303.97  100.13   6
  -1   4 -13 1260.84  128.17   2
   1   4  13 1275.88  125.84   4
   1   4  13 1340.71  122.46   6
  -2  -4 -13 188.885  48.822   6
  -2  -4 -13 292.231  51.702   1
   2  -4  13 234.639  53.518   1
   2   4  13 158.837  52.095   4
  -2   4 -13 372.235  78.645   2
   2   4  13 416.457  67.538   6
  -3  -4 -13 12.1993 28.1246   1
   3  -4  13 -28.932  32.367   1
   3   4  13 -9.5348 35.1625   4
   3   4  13 32.4595 38.5117   6
  -3   4 -13 18.0138 45.1821   2
   4  -4  13 173.676  51.785   6
  -4   4 -13 224.502  68.017   2
  -6  -5  13 139.660  51.058   2
   5  -5 -13 197.382  54.751   4
  -5  -5  13 238.104  56.200   2
   5  -5 -13 222.775  52.432   6
  -5   5  13 192.187  49.911   3
   5   5 -13 111.185  43.794   3
   4  -5 -13 69.6012 32.2786   6
   4  -5 -13 96.4985 42.5262   4
  -4  -5  13 26.5379 31.4570   2
   4   5 -13 51.6880 30.0970   3
  -4   5  13 35.9067 27.4256   3
   3  -5 -13 1738.41  140.67   4
  -3  -5  13 1711.46  123.01   2
   3  -5 -13 1857.68  119.81   6
   3   5 -13 1589.02  119.10   3
  -3   5  13 1858.48  125.81   3
  -2  -5  13 33.5851 31.6307   2
   2  -5 -13 45.9639 34.5937   4
   2  -5 -13 21.5987 25.3190   6
   2   5 -13  0.4590 23.6789   3
  -2   5  13 26.7870 26.0969   3
   1  -5 -13 2939.02  153.09   1
   1  -5 -13 3527.35  194.42   4
   1  -5 -13 3367.71  171.29   6
  -1  -5  13 2513.39  165.92   2
   1   5 -13 2773.27  177.80   2
   1   5 -13 3050.69  166.62   3
  -1   5  13 3400.24  171.47   3
   0  -5 -13  9.8006 21.1013   1
   0  -5 -13 25.6152 25.3007   6
   0  -5  13 69.1948 33.6402   1
   0   5  13 21.7738 31.0487   6
   0   5  13 48.4704 38.0382   4
   0   5 -13 -25.600  34.103   2
   1  -5  13 -11.899  27.931   1
  -1  -5 -13 33.3286 26.4607   1
  -1  -5 -13 20.1272 27.5187   6
  -1   5 -13  3.5188 35.9935   2
   1   5  13 37.1250 35.9843   6
   1   5  13 15.5689 31.6741   4
  -2  -5 -13 61.1935 35.5365   1
   2  -5  13 61.4576 36.2881   1
  -2  -5 -13 70.6095 36.2334   6
  -2   5 -13 91.3457 50.8457   2
   2   5  13 74.3026 39.7183   6
   2   5  13 30.6796 40.4616   4
   3  -5  13 985.358 105.854   1
  -3  -5 -13 870.731  93.755   1
  -3   5 -13 1035.73  124.62   2
   3   5  13 914.842 112.652   4
   3   5  13 904.647 105.562   6
  -5  -6  13 829.533  99.535   2
   5  -6 -13 844.646 105.613   4
   5  -6 -13 916.221  96.143   6
  -5   6  13 723.182  93.536   3
   5   6 -13 683.048  90.457   3
  -4  -6  13 48.1154 37.3471   2
   4  -6 -13 99.8174 37.2323   6
   4  -6 -13 91.2730 43.4006   4
  -4   6  13 115.845  43.790   3
   4   6 -13 94.4938 37.9955   3
   3  -6 -13 1281.35   99.32   6
   3  -6 -13 1331.26  142.45   4
  -3  -6  13 1330.66  125.64   2
  -3   6  13 1305.00  121.09   3
   3   6 -13 1256.30  117.65   3
   2  -6 -13 -28.529  29.828   4
  -2  -6  13 -8.8125 27.3040   2
   2  -6 -13 29.7607 25.0518   6
   2   6 -13 11.6547 24.5732   3
  -2   6  13 -4.3273 26.1807   3
   1  -6 -13 718.773  72.961   1
  -1  -6  13 698.838  84.853   2
   1  -6 -13 650.587  77.795   6
   1  -6 -13 711.854  93.020   4
   1   6 -13 609.155  77.269   3
  -1   6  13 479.928  67.791   3
   0  -6 -13 458.014  66.016   6
   0  -6  13 487.548  66.131   1
   0  -6 -13 459.735  62.290   1
   0   6  13 413.039  74.428   4
   0   6 -13 464.855  80.816   2
   0   6  13 461.602  71.835   6
   1  -6  13 1084.48  103.16   1
  -1  -6 -13 1320.14   94.56   1
  -1  -6 -13 1119.02  110.49   6
   1   6  13 1247.52  125.18   4
   1   6  13 1173.53  118.42   6
  -1   6 -13 1457.27  137.33   2
  -2  -6 -13 241.786  53.113   6
  -2  -6 -13 209.852  46.747   1
   2  -6  13 185.095  50.670   1
   2   6  13 168.419  56.167   4
   2   6  13 186.486  54.639   6
  -2   6 -13 166.504  63.726   2
   3  -6  13 -2.2438 33.9770   1
  -3   6 -13 31.3143 50.7173   2
  -5  -7  13 111.107  46.243   2
   4  -7 -13 64.1825 34.5377   6
  -4  -7  13 55.4049 43.1658   2
   4  -7 -13 54.9501 44.1056   4
  -4   7  13 58.2682 33.7532   3
   4   7 -13  2.0620 27.2768   3
   3  -7 -13 365.949  79.741   4
  -3  -7  13 298.895  63.689   2
   3  -7 -13 223.808  49.729   6
   3   7 -13 319.743  58.601   3
  -3   7  13 253.366  53.596   3
   2  -7 -13 1047.98   98.51   6
   2  -7 -13 1023.33  118.06   4
  -2  -7  13 848.482 102.695   2
  -2   7  13 1028.74  102.62   3
   2   7 -13 1179.04  108.11   3
  -1  -7  13 592.442  83.882   2
   1  -7 -13 792.597  97.062   4
   1  -7 -13 677.997  80.477   6
   1  -7 -13 890.963  83.007   1
   1   7 -13 931.942  92.097   3
  -1   7  13 691.088  79.773   3
   0  -7 -13  6.5887 27.8570   6
   0  -7 -13 40.2984 29.6066   1
   0  -7  13 107.487  37.530   1
   0   7  13 121.258  47.778   4
   0   7 -13 49.8563 41.4393   2
   0   7  13 59.1501 39.8621   6
   1  -7  13 15.4402 31.6197   1
  -1  -7 -13 28.0894 26.0732   1
  -1  -7 -13 17.9060 33.5826   6
   1   7  13 13.4152 34.2276   6
  -1   7 -13 -23.326  34.632   2
   1   7  13 21.3714 36.1023   4
  -2  -7 -13 1452.47  105.24   1
  -2  -7 -13 1296.58  121.86   6
   2  -7  13 1424.70  110.45   1
   2   7  13 1386.81  135.27   6
  -2   7 -13 1405.36  145.48   2
   2   7  13 1333.81  135.03   4
   4  -8 -13 1655.75  163.05   4
  -4  -8  13 1620.92  147.76   2
   4  -8 -13 1501.37  114.66   6
  -4   8  13 1483.89  120.67   3
   3  -8 -13 -16.300  23.964   6
  -3  -8  13 -24.013  32.058   2
   3  -8 -13 -14.032  37.373   4
  -3   8  13 21.2035 28.1608   3
   3   8 -13  2.2425 26.6419   3
   2  -8 -13 117.817  38.712   6
  -2  -8  13 240.744  60.993   2
   2  -8 -13 149.660  53.320   4
  -2   8  13 188.774  49.313   3
   2   8 -13 154.658  45.142   3
  -1  -8  13 40.4283 38.1921   2
   1  -8 -13 -24.417  23.093   1
   1  -8 -13 -5.0749 33.2290   4
   1  -8 -13 -12.148  27.533   6
  -1   8  13  4.2258 27.2981   3
   1   8 -13 -3.4264 28.5450   3
   0  -8 -13 940.441  90.008   1
   0  -8 -13 766.998  90.995   6
   0   8 -13 992.623 117.066   2
   0   8  13 901.771 104.946   6
   0   8  13 1074.77  118.40   4
  -1  -8 -13 47.2922 36.4333   6
   1  -8  13 49.8543 37.5913   1
  -1  -8 -13 29.2798 29.5175   1
   1   8  13 -8.8734 31.9488   6
   1   8  13 26.6050 36.4187   4
  -1   8 -13 29.2267 40.0886   2
  -2  -8 -13 77.2039 41.4608   6
   2  -8  13 129.525  44.161   1
   2   8  13 140.470  51.351   6
  -2   8 -13 125.695  59.801   2
   3  -9 -13 160.551  62.305   4
  -3  -9  13 59.4717 42.8815   2
   3  -9 -13 164.222  46.243   6
  -3   9  13 89.4386 38.1649   3
   3   9 -13 103.370  42.809   3
  -2  -9  13 591.130  89.288   2
   2  -9 -13 313.110  58.953   6
   2  -9 -13 440.510  78.403   4
   2   9 -13 452.096  70.062   3
  -2   9  13 504.076  74.127   3
   1  -9 -13 330.717  54.053   1
   1  -9 -13 203.691  49.926   6
  -1  -9  13 257.422  61.972   2
   1  -9 -13 432.216  75.216   4
   1   9 -13 425.446  66.331   3
  -1   9  13 413.223  64.103   3
   0  -9 -13 63.3825 36.8444   1
   0  -9 -13 110.006  43.667   6
   0   9  13 114.454  50.847   4
   0   9  13 82.4010 43.2677   6
   0   9 -13 48.2544 47.1376   2
   1  -9  13 54.7864 38.4941   1
  -1  -9 -13 113.210  44.380   6
  -1  -9 -13 111.618  41.188   1
  -1   9 -13 88.8299 47.4801   2
   1   9  13 81.1877 48.8089   6
   1   9  13 50.6499 37.5843   4
   2 -10 -13 81.9642 39.3716   6
   2 -10 -13 132.865  51.787   4
  -2 -10  13 94.7387 49.1709   2
   2  10 -13 81.2076 39.7372   3
  -2  10  13 47.3829 35.6061   3
  -1 -10  13 57.6084 41.4269   2
   1 -10 -13 94.3583 49.8434   4
   1 -10 -13 90.4718 39.1363   1
   1 -10 -13 160.755  50.868   6
  -1  10  13 185.883  50.859   3
  -1  10  13 77.4359 45.3928   4
   1  10 -13 130.882  44.588   3
   0 -10 -13 -38.056  29.368   6
   0 -10 -13 20.1741 31.0622   1
   0  10  13 -29.390  30.502   6
   1 -10  13 791.468  88.745   1
   1 -11 -13 539.698  74.460   1
  -1  11  13 676.792  85.527   3
  -5   0  14 -16.261  25.307   3
   5   0 -14 -2.4299 34.5494   4
   4   0 -14 1349.60  130.19   4
  -4   0  14 1150.53  117.41   3
  -3   0  14 10.1808 27.5169   3
   3   0 -14 16.9234 38.9149   4
   3   0 -14 19.0935 26.8503   6
   2   0 -14 175.387  39.539   6
   2   0 -14 166.804  53.767   4
  -2   0  14 234.408  51.410   3
   1   0 -14 -17.568  25.366   4
  -1   0  14 32.4103 29.3006   6
   1   0 -14 22.3723 22.3145   6
   0   0  14 2572.40  148.89   6
   0   0  14 2472.71  158.84   4
   0   0 -14 2381.28  133.20   1
   0   0 -14 2457.94  139.72   6
  -1   0 -14 41.6140 27.1325   1
   1   0  14 23.8698 33.0424   4
  -1   0 -14  6.0343 23.7268   6
   1   0  14 -9.3918 28.1875   6
  -2   0 -14 22.9771 25.1309   1
   2   0  14 -20.541  28.921   4
   2   0  14 -1.0901 31.5477   6
   3   0  14 19.0656 34.8797   6
   3   0  14 -9.3050 34.4806   4
  -5  -1  14 25.6938 30.5434   3
   5  -1 -14 -10.614  31.808   4
   5   1 -14 25.8003 35.1663   4
  -5   1  14 43.8919 31.1753   3
   4  -1 -14 34.4466 38.3461   4
  -4  -1  14 28.4314 32.3188   3
   4  -1 -14  2.5245 27.2505   6
   4   1 -14 83.4456 41.7845   4
  -4   1  14 12.8736 29.0773   3
   3  -1 -14 1228.49  129.76   4
  -3  -1  14 1111.90  112.23   3
   3  -1 -14 1020.60   93.01   6
   3   1 -14 1100.93  123.12   4
  -3   1  14 1044.48  106.96   3
   2  -1 -14 650.059  72.624   6
   2  -1 -14 460.875  77.596   4
  -2  -1  14 570.219  78.807   3
  -2   1  14 398.100  65.225   3
   2   1 -14 318.299  66.200   4
   1  -1 -14 520.954  78.854   4
   1  -1 -14 645.872  72.543   6
  -1  -1  14 617.711  75.408   6
  -1   1  14 760.951  85.349   6
   1   1 -14 700.415  84.822   4
   1   1 -14 655.409  69.713   6
   0  -1 -14 119.609  34.916   1
   0  -1  14 64.5160 33.7322   6
   0  -1  14 212.933  51.213   4
   0  -1 -14 67.2716 30.5526   6
   0   1 -14 115.467  36.105   6
   0   1 -14 125.403  33.209   1
   0   1  14 61.9908 36.9556   6
   0   1  14 31.0848 35.9700   4
   1  -1  14 119.838  42.662   6
  -1  -1 -14 176.092  41.335   1
  -1  -1 -14 78.0699 34.4037   6
   1  -1  14 88.9178 38.7043   4
   1   1  14 45.4519 35.2692   6
  -1   1 -14 62.0379 30.0829   6
   1   1  14 131.463  45.818   4
  -1   1 -14 67.7698 30.2632   1
   2  -1  14 1230.17  109.76   6
  -2  -1 -14 936.392  94.569   1
   2   1  14 1016.76  108.63   4
  -2   1 -14 1156.24  102.89   1
   2   1  14 1379.65  121.32   6
   3  -1  14 349.004  63.294   6
   3   1  14 263.703  59.969   6
   3   1  14 289.261  63.105   4
   6   2 -14 15.0654 38.5079   4
  -5  -2  14 1348.02  135.14   3
   5  -2 -14 1551.03  109.51   6
   5  -2 -14 1645.05  128.04   4
  -5   2  14 1146.30  124.50   3
   5   2 -14 1304.74  128.05   4
  -4  -2  14 157.165  49.198   3
   4  -2 -14 31.9079 37.1630   4
   4  -2 -14 96.9241 36.5746   6
  -4   2  14 107.764  42.591   3
   4   2 -14 38.4465 30.9075   3
   4   2 -14 132.416  47.376   4
   3  -2 -14 509.444  66.615   6
   3  -2 -14 550.126  90.569   4
  -3   2  14 410.210  68.826   3
   3   2 -14 522.544  74.303   3
  -2  -2  14 178.730  47.281   3
   2  -2 -14 98.3072 47.0113   4
   2  -2 -14 150.716  39.677   6
   2   2 -14 47.3326 31.8133   3
  -2   2  14 140.674  43.103   3
   1  -2 -14 1343.79   96.13   6
   1  -2 -14 1282.91  123.82   4
  -1   2  14 1162.73  109.83   6
   0  -2 -14 314.280  54.673   6
   0  -2 -14 319.466  51.142   1
   0   2 -14 302.771  47.011   1
   0   2  14 249.871  54.839   6
   0   2  14 370.337  69.291   4
  -1  -2 -14 876.094  85.830   1
   1  -2  14 744.567  83.617   6
  -1  -2 -14 857.053  87.850   6
  -1   2 -14 800.864  79.720   1
   1   2  14 655.647  84.625   6
   1   2  14 851.480  98.647   4
   2  -2  14 -21.232  29.781   6
  -2  -2 -14 -0.2061 25.6435   1
  -2  -2 -14 35.1428 31.7558   6
   2   2  14 27.0078 31.8532   6
   2   2  14 20.0325 33.5543   4
  -2   2 -14  1.8793 25.3591   1
   3  -2  14 270.334  59.827   6
   3   2  14 355.797  69.105   4
   3   2  14 268.528  61.151   6
   5  -3 -14 339.527  59.268   6
   5  -3 -14 163.654  53.447   4
  -5   3  14 250.011  58.989   3
   5   3 -14 199.519  52.255   3
   4  -3 -14 -15.177  33.555   4
   4  -3 -14 -28.013  24.162   6
  -4   3  14 -16.483  26.100   3
   4   3 -14 15.2122 29.8068   3
   3  -3 -14 1219.93   99.40   6
   3  -3 -14 1521.01  152.54   4
   3   3 -14 1661.49  116.17   3
  -3   3  14 1338.68  126.48   3
   2  -3 -14 69.4473 41.6294   4
   2  -3 -14 136.040  39.575   6
   2   3 -14 141.164  39.980   3
  -2   3  14 104.538  38.097   3
   1  -3 -14 667.695  78.428   6
   1  -3 -14 556.264  83.007   4
   0  -3 -14 -3.4597 22.0100   1
   0  -3  14 13.2635 30.5838   1
   0  -3 -14 -14.489  24.693   6
   0   3  14  8.2704 33.8959   4
   0   3  14 -9.7645 29.6057   6
  -1  -3 -14 1633.38  109.90   6
   1  -3  14 1338.73  106.36   1
  -1  -3 -14 1425.02  102.48   1
   1   3  14 1593.83  117.00   6
   1   3  14 1134.67  122.67   4
  -2  -3 -14 82.6530 36.0989   6
  -2  -3 -14 90.8578 35.9803   1
   2  -3  14 125.355  46.913   1
   2   3  14 69.4383 45.3670   4
   2   3  14 81.7424 43.3460   6
   3  -3  14 1357.20  119.49   6
   3   3  14 915.312 113.467   4
   5  -4 -14 729.416  88.980   6
   4  -4 -14 844.247 109.591   4
   4  -4 -14 793.340  88.881   6
  -4  -4  14 826.660  92.982   2
   4   4 -14 737.549  90.491   3
  -4   4  14 642.645  87.949   3
  -3  -4  14 298.651  56.602   2
   3  -4 -14 276.183  51.863   6
   3  -4 -14 278.132  70.613   4
   3   4 -14 362.734  62.790   3
  -3   4  14 389.043  64.223   3
   2  -4 -14 59.9526 37.6795   4
   2  -4 -14 19.5205 27.1924   6
  -2  -4  14 -7.2067 28.5520   2
  -2   4  14 61.1748 30.1583   3
   2   4 -14 35.9273 29.0410   3
  -1  -4  14 751.872  89.126   2
   1  -4 -14 921.812  90.986   6
   1  -4 -14 663.041  91.284   4
   0  -4  14 459.066  66.382   1
   0  -4 -14 438.476  63.653   6
   0  -4 -14 290.091  51.755   1
   0   4 -14 411.138  75.571   2
   0   4  14 385.637  72.025   4
   0   4  14 390.381  67.094   6
   1  -4  14 410.262  65.505   1
  -1  -4 -14 454.653  68.163   6
  -1  -4 -14 339.807  56.042   1
  -1   4 -14 346.373  68.568   2
   1   4  14 380.420  68.036   6
   1   4  14 253.528  62.525   4
  -2  -4 -14 22.1598 33.5138   6
   2  -4  14 35.1130 39.9074   1
  -2  -4 -14  5.0995 25.3058   1
  -2   4 -14 38.6685 48.1797   2
   2   4  14 32.4969 38.9386   4
   2   4  14 51.4531 38.2045   6
  -3   4 -14 313.798  78.707   2
  -5  -5  14 57.2100 41.5757   2
   5  -5 -14 -21.667  29.644   6
  -4  -5  14 90.2716 41.9505   2
   4  -5 -14 50.5781 43.3396   4
   4  -5 -14 153.104  45.332   6
  -4   5  14 58.5420 32.9550   3
   4   5 -14 99.9541 41.6068   3
   3  -5 -14 38.8375 43.6790   4
   3  -5 -14 29.1074 27.5345   6
  -3  -5  14 24.5443 32.5983   2
  -3   5  14 69.5657 35.8816   3
   3   5 -14 31.2274 31.3803   3
  -2  -5  14 1232.87  117.78   2
   2  -5 -14 1116.96  124.13   4
   2  -5 -14 1147.21  106.09   6
   2   5 -14 1271.48  114.68   3
  -2   5  14 1175.84  111.52   3
   1  -5 -14 62.3812 37.7715   4
   1  -5 -14 15.5255 27.5631   6
  -1  -5  14 -1.7719 29.7118   2
   0  -5 -14 -3.2105 22.9734   1
   0  -5 -14 22.9478 27.0585   6
   0   5  14 17.6113 34.2404   6
   0   5  14 -17.287  33.950   4
   0   5 -14  1.1082 39.9766   2
  -1  -5 -14 107.717  39.254   6
   1  -5  14 149.791  45.870   1
  -1  -5 -14 50.6488 32.7947   1
   1   5  14 142.182  51.326   4
  -1   5 -14 66.6116 48.2794   2
   1   5  14 108.300  45.625   6
  -2  -5 -14 1401.21  105.90   1
  -2  -5 -14 1540.40  119.49   6
   2  -5  14 1550.76  116.61   1
   2   5  14 1397.70  135.59   6
  -2   5 -14 1410.13  147.29   2
   2   5  14 1490.56  143.11   4
  -5  -6  14 94.1999 48.3504   2
  -4  -6  14 962.363 108.641   2
   4  -6 -14 1077.70  128.57   4
   4  -6 -14 990.201 103.006   6
   4   6 -14 881.713 104.538   3
  -4   6  14 899.436 102.904   3
  -3  -6  14 45.6561 38.9844   2
   3  -6 -14 103.797  37.372   6
   3  -6 -14 60.2299 47.4907   4
  -3   6  14 34.3880 32.1603   3
   3   6 -14 12.8222 29.7294   3
   2  -6 -14 63.0200 42.0946   4
   2  -6 -14 -40.314  23.046   6
  -2  -6  14 -15.869  30.091   2
   2   6 -14  0.7726 27.0795   3
  -2   6  14 45.9783 34.1937   3
  -1  -6  14 233.264  57.475   2
   1  -6 -14 289.695  62.665   4
   1  -6 -14 322.115  60.816   6
   0  -6 -14 694.075  83.862   6
   0  -6 -14 652.566  76.112   1
   0   6  14 865.110 101.573   6
   0   6 -14 616.332  97.566   2
   0   6  14 780.246 102.615   4
  -1  -6 -14 208.786  46.523   1
   1  -6  14 89.9976 41.2165   1
  -1  -6 -14 83.3390 42.0417   6
   1   6  14 127.690  48.500   4
   1   6  14 219.327  58.273   6
  -1   6 -14 109.710  55.257   2
   2  -6  14 55.0232 38.8772   1
  -2   6 -14 126.290  63.332   2
  -4  -7  14 173.463  56.375   2
   3  -7 -14 393.973  64.855   6
  -3  -7  14 321.290  70.107   2
   3  -7 -14 406.833  85.680   4
   3   7 -14 551.196  80.138   3
  -3   7  14 495.607  73.327   3
   2  -7 -14 618.592  91.572   4
   2  -7 -14 699.165  83.678   6
  -2  -7  14 591.568  87.821   2
  -2   7  14 651.808  83.785   3
   2   7 -14 684.272  86.438   3
   1  -7 -14 255.080  49.976   1
   1  -7 -14 186.079  51.944   6
  -1  -7  14 74.1917 44.1174   2
   1  -7 -14 162.851  52.249   4
   0  -7 -14 25.9558 29.7527   6
   0  -7 -14 -2.0078 27.0666   1
   0   7 -14 77.8319 52.6932   2
   0   7  14 46.4780 38.7057   4
   0   7  14 50.6071 41.2225   6
  -1  -7 -14 1065.33  114.65   6
   1  -7  14 1492.40  123.91   1
  -1  -7 -14 1050.37  100.93   1
   1   7  14 1040.02  118.24   6
  -1   7 -14 1085.75  125.21   2
  -3  -8  14 350.770  72.375   2
  -3   8  14 467.201  75.985   3
   3   8 -14 408.352  70.830   3
   2  -8 -14 75.2728 44.1201   4
   2  -8 -14 78.3661 38.8989   6
  -2  -8  14 60.8372 44.9206   2
  -2   8  14 -4.8352 30.1666   3
   2   8 -14 144.708  44.015   3
   1  -8 -14 1253.18  127.34   4
   1  -8 -14 1154.75  116.88   6
  -1  -8  14 933.135 111.573   2
   1  -8 -14 1363.53   97.27   1
   0  -8 -14 57.8603 36.9414   6
   0  -8 -14 70.4916 35.2630   1
   0   8  14  3.7737 37.2934   6
   0   8 -14 48.1315 48.1272   2
   1  -8  14 606.600  77.528   1
  -2   9  14 510.077  79.113   3
   2   9 -14 491.672  77.119   3
   1  -9 -14 782.812  85.801   1
   1  -9  14 236.522  57.284   1
   5   0 -15 1152.44  126.61   4
  -4   0  15 35.5844 33.7520   3
   4   0 -15  4.7168 41.6023   4
  -3   0  15  2.4002 30.5767   3
   3   0 -15 28.5031 42.4000   4
   2   0 -15  5.1347 37.4022   4
  -2   0  15 -3.9539 29.2803   3
  -2   0  15  4.4948 32.4409   6
   1   0 -15 2712.05  172.90   4
  -1   0  15 3112.97  169.09   6
   1   0 -15 2725.09  154.11   6
   0   0  15 18.7156 29.8528   6
   0   0 -15 26.4620 29.4420   6
   0   0  15 -2.4155 34.4367   4
   1   0  15 212.038  58.512   4
  -1   0 -15 223.833  49.992   6
  -1   0 -15 299.761  54.435   1
   1   0  15 323.168  61.299   6
  -2   0 -15 -13.979  28.000   1
   2   0  15  5.4548 34.3749   6
   5   1 -15 36.8229 38.9976   4
   4  -1 -15 388.391  80.452   4
  -4  -1  15 256.115  59.840   3
   4   1 -15 336.582  76.056   4
  -4   1  15 238.386  59.478   3
   3  -1 -15 1315.81  145.03   4
   3  -1 -15 1364.79  100.63   6
  -3  -1  15 1420.08  133.32   3
   3   1 -15 1252.78  138.37   4
  -3   1  15 1605.65  123.45   3
   2  -1 -15 208.309  46.522   6
  -2  -1  15 245.429  56.667   3
   2  -1 -15 216.443  59.205   4
   2   1 -15 230.520  56.248   4
  -2   1  15 245.303  56.651   3
   1  -1 -15 221.813  46.774   6
   1  -1 -15 164.604  52.906   4
  -1   1  15 234.802  55.598   6
   0  -1  15 258.040  55.377   6
   0  -1 -15 202.041  49.492   6
   0  -1 -15 185.682  42.070   1
   0   1 -15 117.806  34.721   6
   0   1  15 199.672  56.276   4
   0   1  15 279.223  56.194   6
   1  -1  15 983.463 103.672   6
  -1  -1 -15 1007.13  101.35   6
  -1  -1 -15 1184.20   91.23   1
   1   1  15 1113.58  111.54   6
   1   1  15 1165.16  120.92   4
  -1   1 -15 1153.35  103.31   6
  -1   1 -15 1102.19  100.50   1
   2  -1  15 544.777  78.851   6
   2   1  15 496.521  80.494   4
   2   1  15 606.695  84.357   6
  -2   1 -15 620.944  76.796   1
  -4  -2  15 401.936  73.396   3
   4  -2 -15 499.631  69.558   6
   4  -2 -15 355.679  80.309   4
  -4   2  15 281.769  63.336   3
   3  -2 -15 23.8786 45.2205   4
   3  -2 -15 25.6029 28.4479   6
  -3  -2  15 40.7942 38.6929   3
  -3   2  15 17.5018 32.7059   3
   2  -2 -15 765.580  84.650   6
   2  -2 -15 611.017  91.485   4
  -2  -2  15 841.542  99.233   3
  -2   2  15 749.279  90.583   3
   1  -2 -15 246.316  49.448   6
   1  -2 -15 218.347  57.921   4
  -1   2  15 252.095  55.207   6
   0  -2 -15 970.924  90.117   1
   0  -2 -15 980.961  95.840   6
   0   2  15 786.120 104.431   4
   0   2  15 801.495  96.709   6
  -1  -2 -15 60.1673 32.7143   6
  -1  -2 -15  5.4009 28.0271   1
   1  -2  15 34.0474 38.5389   1
  -1   2 -15 43.3220 31.0222   1
   1   2  15 63.8181 41.5544   6
   1   2  15 -35.094  33.979   4
   2  -2  15 235.139  61.143   1
   2  -2  15 169.062  51.933   6
   2   2  15 323.516  68.762   4
   2   2  15 378.029  70.724   6
   5  -3 -15 48.8781 35.7892   6
   4  -3 -15 472.622  69.438   6
   4  -3 -15 388.291  82.015   4
  -4   3  15 380.960  72.455   3
   4   3 -15 266.581  62.238   3
   3  -3 -15 47.5912 49.9077   4
   3  -3 -15 -6.5234 25.7173   6
   3   3 -15 39.2960 31.6775   3
  -3   3  15 21.6053 33.4015   3
   2  -3 -15 391.281  62.759   6
   2  -3 -15 335.711  71.842   4
   2   3 -15 478.568  74.383   3
  -2   3  15 448.567  71.130   3
   1  -3 -15 49.3177 40.1281   4
   1  -3 -15 74.1767 35.6886   6
  -1   3  15 90.5271 41.2158   6
   0  -3 -15 383.489  57.745   1
   0  -3 -15 456.314  67.843   6
   0   3  15 581.805  83.537   6
   0   3  15 489.061  84.335   4
   1  -3  15 334.301  67.179   1
  -1  -3 -15 259.046  52.578   1
  -1  -3 -15 186.783  49.221   6
   1   3  15 278.826  66.116   4
   1   3  15 215.988  56.772   6
   4  -4 -15 433.734  71.088   6
   3  -4 -15 220.036  65.871   4
   3  -4 -15 114.941  40.767   6
  -3   4  15 73.7589 38.9943   3
   3   4 -15 124.745  45.280   3
   2  -4 -15 152.194  44.851   6
   2  -4 -15 62.4698 43.1967   4
   2   4 -15 169.634  45.956   3
  -2   4  15 267.113  55.178   3
   1  -4 -15 429.115  66.635   6
   1  -4 -15 384.780  74.584   4
  -1   4  15 481.945  76.883   6
   0  -4 -15 429.585  60.550   1
   0  -4 -15 348.200  61.549   6
   0   4  15 121.245  55.383   4
   0   4  15 295.800  65.037   6
  -1  -4 -15 25.7382 30.4886   1
  -1  -4 -15 46.7142 34.4540   6
   1  -4  15 38.4193 40.9527   1
   1   4  15 -13.967  36.787   4
   1   4  15 27.7951 38.7769   6
   3  -5 -15 1837.32  127.70   6
  -3  -5  15 1682.48  129.93   2
  -3   5  15 2005.59  139.42   3
   3   5 -15 1908.81  136.23   3
   2  -5 -15 16.4676 27.9362   6
  -2  -5  15 -6.5281 33.1648   2
   2  -5 -15 44.1553 41.7792   4
   2   5 -15 16.4861 29.6304   3
  -2   5  15 -51.886  25.540   3
   1  -5 -15 65.3288 42.2455   4
  -1  -5  15 44.9223 38.3348   2
   1  -5 -15 40.7338 33.6501   6
  -1   5  15 13.0882 39.9038   6
   0  -5 -15 77.0135 33.9351   1
   0  -5 -15 125.078  45.426   6
   0   5  15 75.2420 46.2276   6
   0   5 -15 139.508  57.486   2
   0   5  15 146.516  58.082   4
   1  -5  15 1025.65  106.30   1
  -1  -5 -15 995.517 100.303   1
  -1   5 -15 1035.55  121.80   2
  -4  -6  15 235.201  62.616   2
  -3  -6  15 25.4582 39.7001   2
   3   6 -15  3.2934 31.6803   3
  -3   6  15 -1.8487 30.4810   3
  -2  -6  15 87.0721 45.2466   2
   2  -6 -15  7.1138 27.6212   6
  -2   6  15 43.7324 34.2173   3
   2   6 -15 15.1097 31.7736   3
   1  -6 -15 1143.52  112.18   6
  -1  -6  15 1049.17  113.93   2
  -1   6  15 948.483 110.935   6
   0  -6 -15 82.8065 36.2378   1
   0   6 -15 51.6025 51.4709   2
   1  -6  15 196.276  52.919   1
  -1   6 -15 47.8557 52.5017   2
  -2  -7  15 300.388  68.473   2
  -2   7  15 384.416  69.070   3
   2   7 -15 420.855  72.279   3
  -1  -7  15 15.1840 38.8671   2
   0  -7 -15 553.612  72.536   1
  -2   8  15 523.613  80.823   3
   3   0 -16 -7.4421 40.0730   4
  -3   0  16 10.3195 31.9823   3
   2   0 -16 893.871 107.158   4
  -1   0  16 -42.178  40.879   4
   0   0  16 91.4499 45.5669   6
   0   0 -16 104.465  38.475   6
   1   0  16 38.4508 41.0147   6
  -1   0 -16 22.1287 32.9455   6
  -3  -1  16 338.324  69.203   3
   3  -1 -16 340.590  78.613   4
  -3   1  16 262.451  62.982   3
   2  -1 -16 109.891  40.347   6
   2  -1 -16 89.3252 45.6951   4
  -2   1  16 66.8107 44.8963   6
   1  -1 -16 54.2705 33.9574   6
   1  -1 -16 34.0138 44.3448   4
  -1   1  16 77.1369 44.6944   6
  -1   1  16 26.0985 44.7901   4
   0  -1 -16 722.043  82.862   6
   0   1  16 655.101  85.843   6
   0   1  16 739.730  97.109   4
   1   1  16 277.349  62.419   6
   1   1  16 245.959  63.840   4
  -3  -2  16 59.5333 43.1983   3
   3  -2 -16 95.1676 39.2331   6
  -3   2  16 47.1936 37.9952   3
   2  -2 -16 232.571  54.778   6
   2  -2 -16 325.961  72.186   4
  -2   2  16 220.560  58.952   6
   1  -2 -16 1241.79  113.92   6
   1  -2 -16 1188.65  126.84   4
  -1   2  16 1396.15  127.75   6
  -1   2  16 1208.22  131.55   4
   0  -2 -16 100.678  43.255   6
   0   2  16 115.892  55.273   4
   0   2  16 227.819  57.705   6
   1  -2  16 20.3271 42.4867   1
  -3  -3  16 1858.58  141.74   3
   3  -3 -16 1735.39  123.65   6
  -3   3  16 1468.71  140.45   3
   2  -3 -16 12.2858 31.6660   6
   1  -3 -16 37.5054 32.7984   6
  -1   3  16 17.3737 38.9182   6
  -1   3  16 30.1924 45.5424   4
   0   3  16 108.453  48.496   6
   0   0   0    0.00    0.00   0
;
loop_
_symmetry_equiv_pos_as_xyz
'x, y, z'
'-x+1/2, y+1/2, -z+1/2'
'-x, -y, -z'
'x-1/2, -y-1/2, z-1/2'
loop_
_atom_site_label
_atom_site_type_symbol
_atom_site_fract_x
_atom_site_fract_y
_atom_site_fract_z
_atom_site_U_iso_or_equiv
_atom_site_adp_type
_atom_site_occupancy
_atom_site_symmetry_multiplicity
_atom_site_calc_flag
_atom_site_refinement_flags
_atom_site_disorder_assembly
_atom_site_disorder_group
U1 U 0.63499(3) 0.655042(16) 0.177423(18) 0.00782(8) Uani 1 1 d . . .
P1 P 0.1796(2) 0.66219(13) 0.29184(14) 0.0126(3) Uani 1 1 d . . .
P2 P 0.2780(2) 0.45034(12) 0.08896(13) 0.0122(3) Uani 1 1 d . . .
P3 P 0.7470(3) 0.42413(13) 0.33755(14) 0.0129(3) Uani 1 1 d . . .
P4 P 0.7500(2) 0.74991(13) 0.45734(13) 0.0121(3) Uani 1 1 d . . .
O1 O 0.0623(7) 0.4553(4) 0.1188(4) 0.0223(11) Uani 1 1 d . . .
O2 O 0.2408(8) 0.5629(4) 0.3548(4) 0.0313(13) Uani 1 1 d . . .
O3 O 0.3619(6) 0.7042(3) 0.2540(4) 0.0150(10) Uani 1 1 d . . .
O4 O 0.3713(6) 0.5526(3) 0.0972(4) 0.0133(9) Uani 1 1 d . . .
O5 O 0.4410(6) 0.7573(3) 0.0390(4) 0.0127(9) Uani 1 1 d . . .
O6 O 0.4936(6) 0.1445(3) 0.2990(4) 0.0140(10) Uani 1 1 d . . .
O7 O 0.5367(9) 0.9399(4) 0.1005(5) 0.0414(15) Uani 1 1 d . . .
O8 O 0.5628(7) 0.7383(4) 0.5140(4) 0.0244(12) Uani 1 1 d . . .
O9 O 0.7092(7) 0.4960(3) 0.2427(4) 0.0135(9) Uani 1 1 d . . .
O10 O 0.7328(7) 0.3157(3) 0.3067(4) 0.0160(10) Uani 1 1 d . . .
O11 O 0.7342(7) 0.6030(3) 0.0195(4) 0.0148(10) Uani 1 1 d . . .
O12 O 0.7398(6) 0.6724(3) 0.3683(4) 0.0121(9) Uani 1 1 d . . .
loop_
_atom_site_aniso_label
_atom_site_aniso_U_11
_atom_site_aniso_U_22
_atom_site_aniso_U_33
_atom_site_aniso_U_23
_atom_site_aniso_U_13
_atom_site_aniso_U_12
U1 0.00870(12) 0.00761(13) 0.00726(13) -0.00090(9) 0.00166(8) -0.00009(8)
P1 0.0094(8) 0.0192(9) 0.0098(8) -0.0007(7) 0.0030(6) -0.0023(6)
P2 0.0141(8) 0.0116(8) 0.0107(8) -0.0027(6) 0.0016(6) -0.0028(6)
P3 0.0188(8) 0.0092(8) 0.0102(8) 0.0015(6) 0.0004(6) 0.0005(6)
P4 0.0122(8) 0.0159(9) 0.0076(8) -0.0035(6) -0.0001(6) 0.0026(6)
O1 0.022(3) 0.018(3) 0.029(3) -0.007(2) 0.013(2) -0.006(2)
O2 0.032(3) 0.032(3) 0.029(3) 0.017(3) 0.001(2) -0.001(2)
O3 0.011(2) 0.019(3) 0.016(2) -0.002(2) 0.0053(18) -0.0003(19)
O4 0.013(2) 0.014(2) 0.013(2) 0.0001(18) 0.0026(18) -0.0014(18)
O5 0.014(2) 0.012(2) 0.012(2) 0.0025(18) 0.0003(18) -0.0024(18)
O6 0.007(2) 0.023(3) 0.012(2) 0.0058(19) -0.0003(17) -0.0024(18)
O7 0.042(4) 0.038(4) 0.039(4) -0.001(3) -0.008(3) 0.005(3)
O8 0.011(2) 0.035(3) 0.029(3) -0.012(2) 0.009(2) -0.005(2)
O9 0.020(2) 0.010(2) 0.010(2) 0.0038(18) 0.0019(19) -0.0016(18)
O10 0.021(2) 0.009(2) 0.018(3) 0.0010(19) 0.002(2) 0.0041(19)
O11 0.020(2) 0.015(2) 0.010(2) -0.0042(18) 0.0077(19) -0.0042(19)
O12 0.012(2) 0.015(2) 0.009(2) -0.0033(18) -0.0004(18) 0.0003(17)
loop_
_atom_type_symbol
_atom_type_description
_atom_type_scat_dispersion_real
_atom_type_scat_dispersion_imag
_atom_type_scat_source
O O 0.0106 0.0060 'International Tables Vol C Tables 4.2.6.8 and 6.1.1.4'
H H 0.0000 0.0000 'International Tables Vol C Tables 4.2.6.8 and 6.1.1.4'
P P 0.1023 0.0942 'International Tables Vol C Tables 4.2.6.8 and 6.1.1.4'
U U -9.6767 9.6646 'International Tables Vol C Tables 4.2.6.8 and 6.1.1.4'
loop_
_geom_angle_atom_site_label_1
_geom_angle_atom_site_label_2
_geom_angle_atom_site_label_3
_geom_angle
_geom_angle_site_symmetry_1
_geom_angle_site_symmetry_3
O11 U1 O9 86.33(16) . .
O11 U1 O3 143.82(16) . .
O9 U1 O3 105.48(16) . .
O11 U1 O10 101.03(17) . 2_655
O9 U1 O10 139.88(16) . 2_655
O3 U1 O10 91.62(17) . 2_655
O11 U1 O4 76.90(16) . .
O9 U1 O4 73.53(15) . .
O3 U1 O4 74.15(15) . .
O10 U1 O4 146.59(16) 2_655 .
O11 U1 O12 143.24(16) . .
O9 U1 O12 74.27(15) . .
O3 U1 O12 72.54(15) . .
O10 U1 O12 76.92(16) 2_655 .
O4 U1 O12 124.49(15) . .
O11 U1 O5 76.93(16) . .
O9 U1 O5 146.85(15) . .
O3 U1 O5 74.95(16) . .
O10 U1 O5 72.23(15) 2_655 .
O4 U1 O5 74.89(15) . .
O12 U1 O5 133.90(15) . .
O11 U1 O6 69.33(16) . 2_655
O9 U1 O6 75.33(15) . 2_655
O3 U1 O6 146.41(15) . 2_655
O10 U1 O6 70.86(15) 2_655 2_655
O4 U1 O6 134.93(15) . 2_655
O12 U1 O6 75.60(15) . 2_655
O5 U1 O6 122.90(15) . 2_655
O3 P1 O6 114.6(3) . 2
O3 P1 O2 107.7(3) . .
O6 P1 O2 110.4(3) 2 .
O11 P2 O4 117.0(3) 3_665 .
O11 P2 O1 107.9(3) 3_665 .
O4 P2 O1 110.3(3) . .
O10 P3 O9 115.3(3) . .
O10 P3 O7 105.8(3) . 2_645
O9 P3 O7 108.9(3) . 2_645
O12 P4 O5 112.0(3) . 4_676
O12 P4 O8 108.2(3) . .
O5 P4 O8 112.0(3) 4_676 .
P1 O3 U1 141.1(3) . .
P2 O4 U1 147.7(3) . .
P4 O5 U1 138.5(3) 4_575 .
P1 O6 U1 137.1(3) 2_545 2_645
P3 O9 U1 149.8(3) . .
P3 O10 U1 149.8(3) . 2_645
P2 O11 U1 157.6(3) 3_665 .
P4 O12 U1 140.1(3) . .
loop_
_geom_bond_atom_site_label_1
_geom_bond_atom_site_label_2
_geom_bond_distance
_geom_bond_site_symmetry_2
U1 O11 2.272(4) .
U1 O9 2.308(4) .
U1 O3 2.318(4) .
U1 O10 2.334(5) 2_655
U1 O4 2.354(4) .
U1 O12 2.359(4) .
U1 O5 2.413(4) .
U1 O6 2.510(4) 2_655
P1 O3 1.507(5) .
P1 O6 1.511(5) 2
P1 O2 1.565(5) .
P2 O11 1.508(5) 3_665
P2 O4 1.509(5) .
P2 O1 1.576(5) .
P3 O10 1.504(5) .
P3 O9 1.506(4) .
P3 O7 1.564(6) 2_645
P4 O12 1.506(5) .
P4 O5 1.518(4) 4_676
P4 O8 1.560(5) .
O5 P4 1.518(4) 4_575
O6 P1 1.511(5) 2_545
O6 U1 2.510(4) 2_645
O7 P3 1.564(6) 2_655
O10 U1 2.334(5) 2_645
O11 P2 1.508(5) 3_665
