#------------------------------------------------------------------------------
#$Date: 2021-06-04 04:03:33 +0300 (Fri, 04 Jun 2021) $
#$Revision: 265761 $
#$URL: file:///home/coder/svn-repositories/cod/cif/1/56/26/1562684.cif $
#------------------------------------------------------------------------------
#
# This file is available in the Crystallography Open Database (COD),
# http://www.crystallography.net/
#
# All data on this site have been placed in the public domain by the
# contributors.
#
data_1562684
loop_
_publ_author_name
'Koo, Jin Young'
'Kwon, Taeyeon'
'Ahn, Yoolim'
'Choi, Hee Cheul'
_publ_section_title
;
 Phase Change-Driven Radical Population and Electrical Conductivity
 Increases of Organic Radical Crystals by Mild Heating
;
_journal_issue                   20
_journal_name_full               'The Journal of Physical Chemistry C'
_journal_page_first              10991
_journal_page_last               10997
_journal_paper_doi               10.1021/acs.jpcc.0c10644
_journal_volume                  125
_journal_year                    2021
_chemical_formula_sum            'C24 H20 Cl3 N4 O0.6'
_chemical_formula_weight         480.39
_space_group_crystal_system      triclinic
_space_group_IT_number           2
_space_group_name_Hall           '-P 1'
_space_group_name_H-M_alt        'P -1'
_atom_sites_solution_hydrogens   geom
_audit_creation_method           SHELXL-2017/1
_cell_angle_alpha                76.52(3)
_cell_angle_beta                 71.24(3)
_cell_angle_gamma                86.47(3)
_cell_formula_units_Z            1
_cell_length_a                   7.0470(14)
_cell_length_b                   8.9611(18)
_cell_length_c                   9.4376(19)
_cell_measurement_reflns_used    11849
_cell_measurement_temperature    333(2)
_cell_measurement_theta_max      28.6486
_cell_measurement_theta_min      0.2205
_cell_volume                     548.7(2)
_computing_cell_refinement       'HKL3000sm (Otwinowski & Minor, 1997)'
_computing_data_collection       'PAL BL2D-SMDC Program (Shin et. al, 2016)'
_computing_data_reduction        'HKL3000sm (Otwinowski & Minor, 1997)'
_computing_molecular_graphics    Pymol'
_computing_publication_material  'enCifer 1.5.1'
_computing_structure_refinement  'SHELXL-2017/1 (Sheldrick, 2017)'
_computing_structure_solution    'SHELXT 2018/2 (Sheldrick, 2018)'
_diffrn_ambient_temperature      333(2)
_diffrn_measured_fraction_theta_full 0.795
_diffrn_measured_fraction_theta_max 0.581
_diffrn_measurement_device_type  'ADSC Q210 CCD area detector'
_diffrn_measurement_method       'omega scan'
_diffrn_radiation_type           synchrotron
_diffrn_radiation_wavelength     0.630
_diffrn_reflns_av_R_equivalents  0.0378
_diffrn_reflns_av_unetI/netI     0.0704
_diffrn_reflns_Laue_measured_fraction_full 0.795
_diffrn_reflns_Laue_measured_fraction_max 0.581
_diffrn_reflns_limit_h_max       10
_diffrn_reflns_limit_h_min       -10
_diffrn_reflns_limit_k_max       13
_diffrn_reflns_limit_k_min       -14
_diffrn_reflns_limit_l_max       14
_diffrn_reflns_limit_l_min       -14
_diffrn_reflns_number            4315
_diffrn_reflns_point_group_measured_fraction_full 0.795
_diffrn_reflns_point_group_measured_fraction_max 0.581
_diffrn_reflns_theta_full        24.900
_diffrn_reflns_theta_max         29.838
_diffrn_reflns_theta_min         2.072
_diffrn_source                   'PLSII 2D bending magnet'
_exptl_absorpt_coefficient_mu    0.313
_exptl_absorpt_correction_T_max  1.000
_exptl_absorpt_correction_T_min  0.938
_exptl_absorpt_correction_type   empirical
_exptl_absorpt_process_details
'HKL3000sm Scalepack (Otwinowski & Minor, 1997)'
_exptl_crystal_colour            black
_exptl_crystal_density_diffrn    1.454
_exptl_crystal_description       Needle
_exptl_crystal_F_000             248
_exptl_crystal_size_max          0.080
_exptl_crystal_size_mid          0.070
_exptl_crystal_size_min          0.020
_refine_diff_density_max         0.323
_refine_diff_density_min         -0.569
_refine_diff_density_rms         0.080
_refine_ls_extinction_method     none
_refine_ls_goodness_of_fit_ref   0.998
_refine_ls_hydrogen_treatment    constr
_refine_ls_matrix_type           full
_refine_ls_number_parameters     154
_refine_ls_number_reflns         2630
_refine_ls_number_restraints     0
_refine_ls_restrained_S_all      0.998
_refine_ls_R_factor_all          0.1322
_refine_ls_R_factor_gt           0.0750
_refine_ls_shift/su_max          0.003
_refine_ls_shift/su_mean         0.000
_refine_ls_structure_factor_coef Fsqd
_refine_ls_weighting_details
'w=1/[\s^2^(Fo^2^)+(0.1412P)^2^] where P=(Fo^2^+2Fc^2^)/3'
_refine_ls_weighting_scheme      calc
_refine_ls_wR_factor_gt          0.2128
_refine_ls_wR_factor_ref         0.2513
_reflns_Friedel_coverage         0.000
_reflns_number_gt                1305
_reflns_number_total             2630
_reflns_threshold_expression     'I > 2\s(I)'
_cod_data_source_file            jp0c10644_si_003.cif
_cod_data_source_block           H2PNZ_333K
_cod_depositor_comments
'Adding full bibliography for 1562684--1562685.cif.'
_cod_original_formula_sum        'C24 H20 Cl3 N4 O0.60'
_cod_database_code               1562684
_shelx_shelxl_version_number     2017/1
_shelx_space_group_comment
;
The symmetry employed for this shelxl refinement is uniquely defined
by the following loop, which should always be used as a source of
symmetry information in preference to the above space-group names.
They are only intended as comments.
;
_shelx_estimated_absorpt_t_min   0.975
_shelx_estimated_absorpt_t_max   0.994
_shelx_res_file
;
TITL 1_a_a.res in P-1
    H2PN2_333K.res
    created by SHELXL-2017/1 at 00:19:01 on 20-Mar-2020
CELL 0.63000 7.047 8.9611 9.4376 76.518 71.241 86.468
ZERR 1 0.0014 0.0018 0.0019 0.03 0.03 0.03
LATT 1
SFAC C H Cl N O
DISP $C  0.00236  0.00129  8.99872!source kissel
DISP $H -0.00002  0.00000  0.66424!source kissel
DISP $Cl  0.12421  0.12649 471.45487!source kissel
DISP $N  0.00479  0.00261 14.77496!source kissel
DISP $O  0.00848  0.00477 23.75245!source kissel
UNIT 24 20 3 4 0.6
L.S. 10
PLAN  2
SIZE 0.08 0.07 0.02
TEMP 60
LIST 6
fmap 2
acta 49.8
WGHT    0.141200
FVAR       1.29888
CL01  3    0.314379    0.134580    0.861119    11.00000    0.11029    0.04905 =
         0.06390   -0.00330   -0.04380    0.01787
PART 1
CL2A  3    0.151063    0.849190    0.139687    10.50000    0.14589    0.06081 =
         0.07627   -0.00041   -0.05280    0.01967
PART 2
O2    5    0.143808    0.889745    0.146386    10.20000    0.24397    0.02758 =
         0.20994   -0.01704   -0.14283   -0.00218
REM #####
PART 0
N003  4    0.264358    0.392352    0.603628    11.00000    0.05957    0.03759 =
         0.04590   -0.00966   -0.02250    0.00666
AFIX  43
H     2    0.274684    0.318586    0.677451    11.00000   -1.20000
AFIX   0

N004  4    0.224693    0.625661    0.371033    11.00000    0.06019    0.03607 =
         0.04667   -0.00827   -0.02264    0.00589
AFIX  43
HA    2    0.210857    0.699016    0.298108    11.00000   -1.20000
AFIX   0
C005  1    0.214515    0.534251    0.632966    11.00000    0.04607    0.03990 =
         0.04786   -0.01329   -0.02023    0.00531
C006  1    0.193709    0.655136    0.512678    11.00000    0.04855    0.03946 =
         0.05010   -0.01398   -0.02304    0.00631
C007  1    0.276999    0.483458    0.341067    11.00000    0.04709    0.04544 =
         0.04476   -0.01416   -0.01902    0.00371
C008  1    0.298560    0.362432    0.462022    11.00000    0.05230    0.03803 =
         0.05139   -0.01395   -0.02125    0.00471
C009  1    0.355823    0.216866    0.434516    11.00000    0.05446    0.04229 =
         0.06320   -0.01681   -0.02116    0.00790
AFIX  43
HB    2    0.371968    0.137408    0.512829    11.00000   -1.20000
AFIX   0
C00A  1    0.143273    0.801409    0.540995    11.00000    0.06045    0.03718 =
         0.06527   -0.01563   -0.02719    0.00997
AFIX  43
HC    2    0.130565    0.882236    0.462589    11.00000   -1.20000
AFIX   0
C00B  1    0.183808    0.561511    0.779260    11.00000    0.05995    0.05535 =
         0.05070   -0.01782   -0.02709    0.00639
AFIX  43
HD    2    0.197493    0.482605    0.858926    11.00000   -1.20000
AFIX   0
C00C  1    0.308920    0.454754    0.195690    11.00000    0.06109    0.05333 =
         0.04795   -0.01332   -0.02172    0.00251
AFIX  43
HE    2    0.293238    0.532609    0.115913    11.00000   -1.20000
AFIX   0
C00D  1    0.113054    0.824317    0.683883    11.00000    0.06933    0.04858 =
         0.07461   -0.03256   -0.03086    0.01117
AFIX  43
HF    2    0.077951    0.921359    0.702473    11.00000   -1.20000
AFIX   0
C00E  1    0.387673    0.193259    0.290722    11.00000    0.05907    0.05114 =
         0.07409   -0.03178   -0.01366    0.00521
AFIX  43
HG    2    0.426243    0.096739    0.271946    11.00000   -1.20000
AFIX   0
C00F  1    0.363815    0.310060    0.171762    11.00000    0.06023    0.07159 =
         0.05605   -0.03460   -0.01709    0.00667
AFIX  43
HH    2    0.385061    0.290367    0.075384    11.00000   -1.20000
AFIX   0
C00G  1    0.133314    0.706143    0.803239    11.00000    0.07022    0.06149 =
         0.06331   -0.03213   -0.03127    0.00984
AFIX  43
HI    2    0.112522    0.725290    0.899776    11.00000   -1.20000
REM #####
AFIX   0
HKLF 4




REM  1_a_a.res in P-1
REM R1 =  0.0750 for    1305 Fo > 4sig(Fo)  and  0.1322 for all    2630 data
REM    154 parameters refined using      0 restraints

END

WGHT      0.1445      0.0000

REM Highest difference peak  0.323,  deepest hole -0.569,  1-sigma level  0.080
Q1    1   0.2037  0.5992  0.5659  11.00000  0.05    0.32
Q2    1   0.0332  0.8622  0.1055  11.00000  0.05    0.30
;
_shelx_res_checksum              17553
_shelx_hkl_file
;
   0   1   1  859.07   23.86
   0  -2  -2 5963.29  151.23
   0   2   2 5852.85  151.95
   0  -3  -3 1228.27   37.38
   0  -4  -4  996.39   44.20
   0  -5  -5  459.58   21.11
   0   5   5  459.30   17.70
   0  -6  -6 2209.22   62.56
   0   6   6 2277.49   91.26
   0   7   7    0.49    3.90
   0  -8  -8   70.70    7.81
   0   8   8   68.11    7.37
   0  -9  -9   -4.84    6.21
   0  -9 -10    6.38    6.21
   0   8   9   34.80    6.54
   0  -8  -9   32.49    5.99
   0   7   8    3.57    4.89
   0  -7  -8    1.32    3.57
   0   6   7   -3.96    4.45
   0  -6  -7    3.74    2.58
   0   5   6  429.84   17.32
   0  -5  -6  425.88   15.34
   0   4   5  338.86   17.54
   0  -4  -5  347.43   11.60
   0   2   3 1044.93   44.58
   0  -2  -3 1067.47   41.23
   0  -1  -2 1707.97   61.08
   0   0   1 1669.32   53.49
   0  -1   0 1921.65   71.69
   0   1   0 1782.29   68.44
   0  -2  -1 1760.08   62.45
   0   2   1 1717.09   63.44
   0  -3  -2 1104.03   44.64
   0   3   2 1132.23   48.32
   0  -4  -3  201.42    9.13
   0   4   3  204.61    8.41
   0   5   4  386.19   19.74
   0  -6  -5  441.77   16.55
   0   6   5  437.92   23.36
   0  -7  -6    3.24    5.00
   0   7   6    2.03    3.08
   0  -8  -7    4.67    3.30
   0   8   7    2.31    3.41
   0  -9  -8   24.68    5.66
   0   9   8   24.46    4.95
   0 -10  -9    2.31    7.48
   0  -8 -10   22.76    4.89
   0   7   9   -0.99    5.11
   0  -7  -9    2.91    5.11
   0   6   8   17.70    4.40
   0  -5  -7  147.27    8.80
   0  -4  -6   17.04    2.25
   0   3   5   27.71    2.97
   0  -3  -5   22.43    1.81
   0   1  -1 3517.20  121.22
   0  -2   0  705.97   21.11
   0   2   0  713.72   21.60
   0  -3  -1   52.77    4.73
   0   3   1   52.17    3.24
   0  -4  -2 2207.24   66.02
   0   4   2 2229.34   91.81
   0  -5  -3   32.60    2.80
   0   5   3   31.28    2.91
   0  -6  -4   24.52    2.86
   0  -7  -5  170.09    7.26
   0   7   5  173.99   10.77
   0  -8  -6   22.21    3.90
   0   8   6   27.98    6.98
   0  -9  -7    1.15    4.29
   0   9   7    1.87    5.22
   0 -10  -8   36.56    5.66
   0 -11  -9    2.03    5.83
   0  11   9    1.76    3.57
   0   8  11   -0.82    5.22
   0  -8 -11    2.03    5.72
   0   7  10   34.25    5.28
   0  -7 -10   18.20    5.44
   0   6   9   41.78    7.59
   0  -6  -9   24.08    7.37
   0   5   8   12.86    4.29
   0  -5  -8    9.90    3.96
   0   4   7   65.14    3.57
   0   3   6  276.63   14.02
   0  -3  -6  241.44   11.71
   0   2   5   14.62    2.31
   0  -1   2  718.45   27.21
   0   1  -2  733.95   26.99
   0  -2   1  791.45   22.54
   0   2  -1  775.51   21.66
   0  -3   0 2669.67  102.53
   0   3   0 2709.09   74.05
   0  -4  -1  120.56    7.09
   0   4   1  135.18    8.96
   0  -5  -2   13.58    3.46
   0   5   2   17.81    3.79
   0   6   3  303.56   12.26
   0  -7  -4   68.22    4.18
   0   7   4   70.92    5.88
   0  -8  -5    7.53    5.50
   0   8   5   10.61    7.20
   0  -9  -6   50.96    5.44
   0   9   6   58.11    6.05
   0 -10  -7   36.06    4.29
   0  10   7   48.87    6.93
   0 -11  -8   -0.77    3.96
   0  11   8   -0.99    3.57
   0  -6 -10   39.86    6.98
   0   5   9   15.72    4.56
   0  -5  -9   11.16    5.11
   0   4   8  303.62   15.61
   0  -4  -8  303.89   15.61
   0   3   7  301.03   15.01
   0  -3  -7  294.11   14.02
   0   2   6  234.13   11.21
   0  -2  -6  215.72   10.39
   0   0   4 1564.38   57.67
   0   1  -3 1721.05   60.09
   0  -2   2 9026.63  308.90
   0   2  -2 8814.27  307.91
   0  -3   1 1838.42   49.70
   0   3  -1 1894.11   71.41
   0  -4   0 1702.80   47.77
   0   4   0 1771.35   50.03
   0  -5  -1 3869.47  149.31
   0  -6  -2  286.96   16.66
   0   6   2  297.35   12.37
   0  -7  -3  380.69   14.24
   0   7   3  404.22   22.26
   0  -8  -4  444.18   16.22
   0   8   4  447.21   22.04
   0  -9  -5   21.71    4.45
   0   9   5   15.50    7.31
   0 -10  -6   64.54    5.83
   0  10   6   55.30    7.09
   0 -11  -7   53.93    5.72
   0  11   7   29.74    9.18
   0 -12  -8   -3.96    6.16
   0   6  11    0.16    3.90
   0  -6 -11    0.93    4.18
   0   5  10    2.69    3.68
   0  -5 -10    2.25    4.01
   0   4   9    2.14    2.25
   0   3   8   51.07    3.57
   0   1  -4  133.97    4.18
   0  -2   3  256.95   11.05
   0   2  -3  265.63   12.64
   0  -3   2  264.42    8.85
   0   3  -2  253.43    9.02
   0  -4   1  149.58    8.52
   0   4  -1  148.92    5.72
   0  -5   0    8.96    2.09
   0   5   0   13.14    4.51
   0  -6  -1    4.01    2.25
   0   6   1    5.61    2.53
   0  -7  -2   46.18    4.07
   0   7   2   39.42    3.90
   0  -8  -3   68.11    5.22
   0   8   3   69.49    5.66
   0  -9  -4    3.13    4.12
   0   9   4    6.27    5.55
   0 -10  -5    5.61    6.65
   0  10   5    5.39    6.43
   0 -11  -6    9.29    8.74
   0  11   6   -1.04    5.06
   0 -12  -7    3.41    4.56
   0   6  12    6.43    4.51
   0   2   8   16.93    2.36
   0   0   6  393.88   17.26
   0  -1   5   53.98    2.80
   0   1  -5   50.03    3.63
   0   2  -4  372.22   17.98
   0  -3   3  451.55   19.30
   0  -4   2  392.02   18.03
   0   4  -2  405.98   14.02
   0  -5   1   63.55    3.96
   0   5  -1   65.86    6.82
   0  -6   0  466.94   15.89
   0   6   0  486.95   18.25
   0  -7  -1   28.97    3.90
   0   7   1   31.06    3.90
   0  -8  -2   16.05    4.84
   0   8   2   21.11    5.55
   0  -9  -3   57.83    8.36
   0   9   3   45.52    9.62
   0 -10  -4   21.77    4.84
   0  10   4   19.19    6.05
   0 -11  -5    1.92    4.62
   0  11   5    1.54    4.07
   0 -12  -6   21.82    5.28
   0 -13  -7    2.64    9.79
   0  -2   5  619.88   27.82
   0  -3   4  903.82   27.60
   0   3  -4  930.04   41.29
   0  -4   3  919.65   37.27
   0   4  -3  968.96   39.75
   0  -5   2  687.61   29.91
   0   5  -2  705.03   23.69
   0  -6   1    3.41    3.85
   0   6  -1    2.47    4.89
   0  -7   0   20.18    4.62
   0   7   0   28.26    6.21
   0  -8  -1  166.29    8.14
   0   8   1  176.74    9.35
   0  -9  -2  146.17   14.46
   0   9   2  161.95   10.55
   0 -10  -3   26.77    5.72
   0  10   3   29.47   10.01
   0 -11  -4   36.94    5.72
   0 -12  -5   24.13    6.21
   0 -13  -6    0.11    4.67
   0  -1   7 1408.58   51.67
   0   2  -6  194.77    8.80
   0  -3   5  378.38   16.33
   0   3  -5  386.74   12.20
   0  -4   4  126.05    7.64
   0   5  -3  408.67   15.34
   0  -6   2  229.73   10.61
   0   6  -2  244.63   17.59
   0  -7   1 1787.46   50.85
   0   7  -1 1848.97   55.52
   0  -8   0   40.74    4.40
   0   8   0   41.89    5.61
   0  -9  -1  113.03    7.75
   0   9   1  102.97   11.93
   0 -10  -2   11.54    4.23
   0  10   2   16.38    8.19
   0 -11  -3    8.25    6.43
   0  11   3    4.73    5.66
   0 -12  -4   14.90    5.44
   0 -13  -5   83.72    9.13
   0  -3   6    2.86    2.25
   0  -4   5    6.27    2.14
   0   4  -5    4.84    1.92
   0  -5   4    6.43    2.58
   0   5  -4    2.97    3.68
   0  -6   3    3.79    4.62
   0   6  -3    2.53    4.56
   0  -7   2  299.50   11.16
   0   7  -2  334.79   21.27
   0  -8   1   80.32    6.21
   0   8  -1   80.21    7.70
   0  -9   0    3.52    4.62
   0   9   0    4.45    9.07
   0 -10  -1    2.80    3.13
   0  10   1    4.34    8.03
   0 -11  -2   -2.58    4.84
   0 -12  -3    0.82    6.21
   0  12   3   -4.34   12.04
   0 -13  -4   50.25    8.52
   0 -14  -5    0.99    8.69
   0  -3   7   58.05    4.40
   0   3  -7   57.06    2.97
   0  -4   6   70.31    6.82
   0   4  -6   66.85    5.55
   0  -5   5  203.40   13.96
   0   5  -5  193.73   11.98
   0  -6   4   75.15    7.26
   0   6  -4   76.58    6.87
   0  -7   3   57.23    4.56
   0   7  -3   60.14    8.69
   0  -8   2   19.68    4.51
   0   8  -2   16.16    5.72
   0  -9   1   64.48    9.18
   0   9  -1   61.24    7.92
   0 -10   0    7.20    5.11
   0  10   0    9.18    6.93
   0 -11  -1   36.56    6.43
   0  11   1   34.96    6.38
   0 -12  -2    1.81    6.93
   0 -13  -3    6.76    8.58
   0 -14  -4   -0.66    8.85
   0  -4   7  127.81    7.97
   0  -5   6   54.42    5.61
   0   5  -6   54.31    5.17
   0  -6   5   38.81    6.10
   0   6  -5   53.98    5.33
   0  -7   4  125.72   10.06
   0   7  -4  136.44   13.69
   0  -8   3  126.27    7.92
   0   8  -3  131.28    9.57
   0  -9   2   75.81   10.55
   0 -10   1   66.63   11.10
   0  10  -1    4.51    6.65
   0 -11   0   -0.44    3.85
   0 -12  -1    4.07    6.71
   0 -13  -2    3.24    7.37
   0  -3   9   33.92    3.74
   0  -5   7   21.33    4.62
   0   5  -7   20.29    4.73
   0  -6   6   84.88    5.72
   0   6  -6   81.47    5.55
   0   7  -5   14.40    4.73
   0  -8   4   26.88    5.11
   0   8  -4   30.90    5.83
   0  -9   3   57.28    9.95
   0   9  -3   48.76    6.05
   0 -10   2   10.17    5.22
   0  10  -2   17.98   10.23
   0 -11   1   16.16    6.60
   0  11  -1   20.94    8.36
   0 -12   0   33.26    5.77
   0  12   0   25.01    7.70
   0  -4   9   17.26    4.01
   0  -5   8    8.30    5.00
   0  -6   7   17.65    5.11
   0   6  -7   15.28    4.51
   0  -7   6   19.68    6.05
   0   7  -6   19.35    4.67
   0   8  -5    5.44    4.89
   0  -9   4   36.17    6.71
   0   9  -4   25.51    6.32
   0 -10   3    9.35    5.50
   0  10  -3   12.09    7.53
   0 -11   2    3.19    4.51
   0  11  -2    0.44    4.18
   0 -12   1    1.10    6.49
   0  12  -1    2.14    8.85
   0   5  -9    9.90    3.13
   0  -6   8   14.02    5.33
   0   6  -8   19.02    5.39
   0  -7   7   23.20    5.94
   0   7  -7   20.45    3.90
   0  -8   6   24.41    7.86
   0   8  -6   20.40    4.89
   0  -9   5   17.43    5.44
   0   9  -5    6.32    4.73
   0 -10   4    0.55    4.29
   0  10  -4   -0.88    6.38
   0 -11   3    2.58    3.08
   0 -12   2   -1.32    4.56
   0   6  -9   10.83    6.93
   0  -8   7    2.97    3.08
   0  -9   6   14.90    3.90
   0   9  -6   12.64    3.63
   0 -10   5   12.81    3.85
   0  10  -5   16.71    4.56
   0  11  -4    1.70    5.55
   0 -12   3    1.04    5.00
   0 -10   6   -0.11    4.12
   0 -11   5    0.05    4.84
   1   9  -7   -0.16    1.65
  -1 -12   2    1.70    5.11
   1  10  -4   34.30    7.15
  -1 -10   4    1.98    7.26
   1   9  -5    1.59    4.51
  -1  -9   5    4.07    3.85
  -1  -7   7    0.22    2.64
  -1 -13   0    1.70    7.20
  -1 -12   1   -0.66    6.98
  -1 -11   2    6.93    5.11
   1  10  -3    0.66    6.76
  -1 -10   3   -0.77    5.88
   1   9  -4   -1.15    4.45
   1   8  -5   18.42    6.54
  -1  -8   5   13.19    6.76
  -1  -6   7    1.10    1.92
   1   5  -8   -0.22    3.19
  -1 -13  -1    0.49    3.85
   1  12   0    5.00    9.29
  -1 -12   0   29.19    9.07
   1  11  -1   -7.31   10.33
  -1 -11   1    1.87    6.93
   1  10  -2    5.11    7.92
  -1 -10   2   21.27    4.84
  -1  -9   3   11.38    6.05
   1   8  -4    5.00    6.49
  -1  -8   4    3.90    4.84
   1   7  -5   23.80    4.01
  -1  -7   5   24.41    4.23
  -1  -6   6   61.63    5.88
  -1  -5   7    3.79    2.14
  -1 -12  -1    1.15    2.91
  -1 -11   0    2.86    3.63
  -1 -10   1   -1.37    4.45
   1   9  -2   -2.91    5.88
  -1  -9   2    0.49    4.67
   1   8  -3   -2.64    7.70
  -1  -8   3    2.75    3.57
   1   7  -4    0.99    3.46
  -1  -7   4   -2.31    5.33
   1   6  -5   15.01    5.11
  -1  -6   5   12.15    5.17
   1   5  -6    0.33    3.13
  -1 -13  -3    0.55    4.84
  -1 -12  -2    1.10    3.08
  -1 -11  -1    1.54    4.73
   1  10   0   -0.11    4.56
  -1 -10   0   21.77    4.40
   1   9  -1   10.33    5.83
  -1  -9   1   12.70    4.89
   1   8  -2  172.73   13.63
  -1  -8   2  163.71   13.69
   1   7  -3   14.90    6.54
  -1  -7   3   14.51    4.12
  -1  -6   4   22.98    5.99
   1   5  -5    4.45    4.62
  -1  -5   5    2.14    2.69
  -1  -4   6   12.53    2.36
  -1 -13  -4    2.14    5.39
  -1 -12  -3    0.22    7.97
   1  11   2   -0.05    6.87
  -1 -11  -2    6.82    3.68
   1  10   1    0.66    6.71
  -1 -10  -1   11.87    4.67
   1   9   0    3.41    6.10
  -1  -9   0   37.38    8.14
   1   8  -1   -1.10    6.60
  -1  -8   1   15.17    4.23
   1   7  -2    2.25    3.90
  -1  -7   2    2.75    4.84
  -1  -6   3   42.71    4.89
   1   5  -4   51.95    6.98
  -1  -5   4   33.97    3.79
   1   4  -5   12.70    3.57
  -1  -3   6   48.87    4.34
   1  12   4    0.05    5.17
  -1 -12  -4    2.03   10.28
  -1 -11  -3    4.01    3.68
   1  10   2    2.47    4.51
  -1 -10  -2    0.27    7.59
   1   9   1   14.35    5.06
  -1  -9  -1   10.61    4.84
   1   8   0   27.05    4.01
  -1  -8   0   19.02    4.56
   1   7  -1  239.63   12.92
  -1  -6   2    6.16    2.75
   1   5  -3   35.07    7.26
  -1  -5   3   35.57    5.28
   1   4  -4    6.87    3.68
   1  12   5   -0.55    5.11
   1  11   4   -2.20    4.45
  -1 -11  -4    0.66    5.44
   1  10   3   -0.71    5.94
  -1 -10  -3   -3.46    6.65
   1   9   2    1.10    6.21
  -1  -9  -2    1.48    4.01
   1   8   1   -0.71    4.12
  -1  -8  -1    2.69    3.74
   1   7   0   82.73    7.15
  -1  -7   0   99.34    9.46
   1   6  -1   24.19    4.07
   1   5  -2   14.35    2.97
  -1  -5   2   16.44    2.75
  -1  -4   3   11.82    2.64
   1   3  -4    4.62    1.98
  -1  -2   5    1.54    1.10
   1  12   6   -0.44    9.79
   1  11   5    5.99    5.77
  -1 -11  -5    5.11    5.72
   1  10   4    5.94    5.44
  -1 -10  -4    8.19    5.61
   1   9   3   51.24    7.48
  -1  -9  -3   56.13    5.61
   1   8   2   38.04    5.77
  -1  -8  -2   40.85    7.48
   1   7   1   51.67    4.84
  -1  -7  -1   53.76    7.48
   1   6   0   44.47    4.84
  -1  -6   0   43.26    6.32
   1   5  -1  128.53    9.13
  -1  -5   1  123.09    7.15
   1   4  -2  108.52   10.39
  -1  -4   2   97.69    7.81
  -1  -3   3  361.51   19.35
   1   2  -4   28.86    3.35
   1  11   6    2.75    5.50
  -1 -11  -6    0.27    4.67
   1  10   5   19.30    8.36
  -1 -10  -5   10.17    6.10
   1   9   4    9.62    4.67
  -1  -9  -4    8.96    3.13
   1   8   3   14.35    6.49
  -1  -8  -3   16.44    3.41
   1   7   2   44.20    6.43
  -1  -7  -2   47.88    6.21
   1   6   1   36.28    6.60
  -1  -6  -1   38.32    5.72
   1   5   0   37.71    4.29
  -1  -5   0   32.87    3.96
   1   4  -1  119.73    7.26
  -1  -4   1  130.95    7.04
   1   3  -2    3.79    1.43
  -1  -3   2    2.86    1.98
  -1  -2   3   35.62    2.80
  -1   3   8   -1.10    1.76
  -1   4   9    1.48    2.53
  -1 -12  -8   -4.45    7.48
   1  11   7   -1.43    3.68
  -1 -11  -7    1.65    4.45
   1  10   6   -0.93    6.10
   1   9   5    6.38    4.95
  -1  -9  -5    1.65    3.19
   1   8   4    5.66    6.87
  -1  -8  -4    4.40    3.46
   1   7   3    5.22    4.51
  -1  -7  -3    2.69    2.97
   1   6   2    1.81    4.23
  -1  -6  -2    7.81    3.08
   1   5   1   67.12    5.72
  -1  -5  -1   69.10    5.61
   1   4   0    2.03    2.47
  -1  -4   0    3.68    1.32
   1   3  -1   36.56    2.97
  -1  -3   1   37.66    5.39
   1   2  -2  161.57   10.12
  -1  -2   2  150.02    8.36
   1  -3  -7   40.02    3.74
  -1   3   7   41.56    3.41
   1  -4  -8   34.36    3.57
  -1   6  10    9.90    6.93
  -1 -11  -8    2.47    7.04
   1  10   7   -0.82    4.95
  -1 -10  -7    1.10    4.07
   1   9   6    5.11    5.44
  -1  -9  -6    1.98    5.50
   1   8   5    7.97    4.89
   1   7   4   12.86    4.23
  -1  -7  -4    9.79    4.67
   1   6   3   24.85    5.99
  -1  -6  -3   24.24    2.80
   1   5   2   97.41    7.26
  -1  -5  -2   94.44    7.97
   1   4   1   81.91    6.27
  -1  -4  -1   85.65    5.17
   1   3   0   62.12    5.00
   1   2  -1   83.61    5.61
  -1  -2   1   75.81    5.72
  -1   2   5    1.26    1.15
   1  -4  -7   -0.11    2.53
  -1   4   7    0.27    2.25
   1  -5  -8    0.88    2.36
   1  -6  -9   -2.36    2.86
  -1   6   9    0.55    3.85
  -1   8  11    0.38    2.36
   1  10   8    7.59    6.87
  -1 -10  -8   11.60    3.46
   1   9   7    7.70    6.93
  -1  -9  -7    9.24    6.65
   1   8   6   19.57    4.12
  -1  -8  -6   27.27    5.50
   1   7   5   23.58    5.11
   1   6   4   76.63    8.08
  -1  -6  -4   76.74    5.83
   1   5   3   93.62    9.73
  -1  -5  -3   97.91    8.19
   1   4   2  128.91   10.66
  -1  -4  -2  119.57    6.49
   1   3   1  230.72    9.90
  -1  -3  -1  233.09   10.50
   1   2   0  159.92    7.37
  -1  -2   0  162.39   12.26
   1   1  -1  447.43   18.09
   1  -2  -4    9.79    1.15
   1  -3  -5   40.85    4.07
  -1   3   5   33.37    5.17
   1  -4  -6   23.09    2.47
  -1   4   6   16.27    3.74
  -1   5   7   20.07    4.73
   1  -6  -8    1.15    3.19
  -1   6   8    0.99    2.25
  -1   7   9    1.70    4.29
  -1 -10  -9    0.11    3.19
   1   9   8    5.72    5.06
   1   8   7    9.73    4.78
  -1  -8  -7    3.68    6.32
   1   7   6   31.00    5.39
  -1  -7  -6   29.36    4.95
   1   6   5   54.04    5.39
  -1  -6  -5   53.38    4.34
   1   5   4   47.77    5.72
  -1  -5  -4   54.15    6.16
   1   4   3   68.06    4.89
  -1  -4  -3   71.14    5.00
   1   3   2   84.60    6.60
  -1  -3  -2   79.55    6.27
   1   2   1  136.06    5.94
  -1  -2  -1  136.17    9.24
   1   1   0   49.81    2.80
  -1  -1   0   48.76    2.53
   1  -2  -3  122.15    6.87
  -1   2   3  118.19    7.48
   1  -3  -4   46.34    3.24
  -1   3   4   41.78    4.51
   1  -4  -5   77.13    6.16
  -1   4   5   61.24    4.56
   1  -5  -6    0.99    1.98
  -1   5   6   -0.99    2.80
   1  -6  -7   15.06    5.28
  -1   6   7   16.00    3.24
   1  -7  -8    4.89    4.18
  -1   7   8    0.88    2.53
   1   9   9    0.99    5.17
  -1  -9  -9   -7.20    6.87
   1   8   8    1.70    6.10
  -1  -8  -8    1.48    5.33
   1   7   7   -0.66    2.69
  -1  -7  -7   -0.05    2.86
   1   6   6   24.02    4.73
  -1  -6  -6   45.90    4.67
   1   5   5    0.16    3.90
   1   4   4    4.95    2.25
  -1  -4  -4    4.51    1.92
   1   3   3    1.76    1.54
  -1  -3  -3    0.66    2.03
   1   2   2    6.05    1.43
  -1  -2  -2    8.69    1.81
   1   1   1    4.18    0.88
  -1  -1  -1    4.01    0.99
   1   0   0    2.09    0.66
  -1   0   0    3.24    0.71
   1  -1  -1    1.87    0.38
  -1   1   1    1.87    0.60
   1  -2  -2   24.13    1.76
  -1   2   2   23.47    1.48
  -1   3   3   21.16    2.14
   1  -4  -4   24.57    3.63
  -1   4   4   18.31    2.20
   1  -5  -5   34.08    3.30
  -1   5   5   26.72    3.96
   1  -6  -6   31.77    4.07
  -1   6   6   30.35    3.96
   1  -7  -7    0.55    5.17
  -1   7   7    3.68    6.05
   1  -8  -8    1.65    4.51
   1  -9  -9   -0.77    4.07
  -1  -8  -9    2.80    4.07
  -1  -7  -8    8.80    5.28
  -1  -6  -7   -1.76    3.57
   1   5   6    2.03    2.86
   1   4   5   56.95    6.16
  -1  -4  -5   52.66    4.01
   1   3   4  110.99    5.77
  -1  -3  -4  106.76    7.64
   1   2   3   80.37    4.84
  -1  -2  -3   88.40    3.68
   1   1   2  181.03    8.41
  -1  -1  -2  173.44    8.96
   1   0   1    0.16    0.44
  -1   0  -1    0.27    0.60
   1  -1   0   49.26    2.09
  -1   1   0   50.03    2.91
   1  -2  -1   35.73    2.97
  -1   2   1   34.96    3.08
   1  -3  -2   19.46    1.70
  -1   3   2   17.98    2.42
   1  -4  -3    8.25    1.70
  -1   4   3    6.76    1.76
   1  -5  -4    1.04    2.14
  -1   5   4    3.02    3.02
   1  -6  -5    8.69    2.69
  -1   6   5    5.33    3.85
   1  -7  -6   -0.44    4.18
  -1   7   6    1.04    2.86
   1 -10  -9    0.44    3.35
  -1  -9 -11   -2.31    6.27
   1   8  10   -0.27    3.24
  -1  -8 -10    0.38    3.68
   1   7   9   19.24    6.87
  -1  -7  -9   11.54    7.37
  -1  -6  -8    4.18    4.45
   1   5   7   92.47   10.12
  -1  -5  -7   93.12    8.63
   1   4   6   46.84    3.74
  -1  -4  -6   53.87    3.13
   1   2   4    2.91    1.37
  -1  -2  -4    2.47    0.99
   1   1   3  248.81    8.19
  -1  -1  -3  261.73   14.18
   1   0   2  160.91    5.22
  -1   0  -2  154.04    4.89
   1  -1   1  381.52   15.50
  -1   1  -1  387.34   14.62
   1  -2   0  146.01    5.88
  -1   2   0  148.48    5.94
   1  -3  -1   92.63    4.40
   1  -4  -2   43.76    3.30
  -1   4   2   41.72    3.35
   1  -5  -3   52.88    3.74
  -1   5   3   60.14    6.43
   1  -6  -4   31.61    5.28
  -1   6   4   31.88    3.79
   1  -7  -5   11.16    3.35
   1  -8  -6   13.52    3.96
  -1   8   6    5.99    5.39
   1  -9  -7    3.79    5.61
  -1   9   7    1.98    3.13
   1 -10  -8    3.19    5.83
  -1  10   8    1.32    7.70
  -1  -8 -11    0.88    9.46
   1   7  10    8.96    5.66
  -1  -7 -10   16.82    4.56
   1   6   9   -1.32    3.79
  -1  -6  -9    2.75    3.35
   1   5   8   17.26    4.67
   1   4   7   21.99    3.13
  -1  -4  -7   27.27    3.57
   1   3   6    6.60    1.81
  -1  -3  -6    8.63    2.64
   1   2   5  225.67   12.37
   1  -2   1  153.32    5.66
  -1   2  -1  148.15    5.77
   1  -3   0   65.36    4.62
  -1   3   0   57.56    3.02
   1  -4  -1  265.58    9.79
  -1   4   1  250.07   10.77
   1  -5  -2   81.80    4.95
  -1   5   2   82.52    5.06
   1  -6  -3   50.03    6.05
  -1   6   3   45.13    6.10
   1  -7  -4   36.17    3.57
  -1   7   4   27.82    3.35
   1  -8  -5   18.97    3.90
  -1   8   5   18.91    7.31
   1  -9  -6   15.94    5.66
  -1   9   6    5.94    4.89
   1 -10  -7    1.10    5.77
  -1  10   7    0.99    3.46
   1 -11  -8   -0.82    6.65
  -1  11   8   -1.32    8.47
   1   8  12   -0.93    4.01
   1   7  11   15.78    5.06
   1   6  10    3.24    4.29
   1   5   9    2.42    3.41
  -1  -5  -9    2.91    3.08
   1   4   8   34.91    4.45
  -1  -4  -8   35.13    4.23
   1   2   6   18.36    2.42
  -1  -2  -6   16.71    1.81
  -1  -1  -5  201.31    6.76
   1   0   4   10.55    1.26
   1  -2   2  215.55    7.64
  -1   2  -2  206.48    8.47
   1  -3   1    2.64    1.76
  -1   3  -1    2.03    2.03
   1  -4   0    5.88    2.20
  -1   4   0    6.71    2.36
   1  -5  -1    9.73    1.76
  -1   5   1    7.09    2.03
   1  -6  -2    9.73    2.09
  -1   6   2    9.46    2.42
   1  -7  -3   -0.71    1.70
  -1   7   3    0.99    2.20
   1  -8  -4   -1.04    3.41
  -1   8   4    0.71    3.85
   1  -9  -5    5.61    5.22
  -1   9   5    1.59    4.95
   1 -10  -6    0.66    4.34
  -1  10   6    0.99    5.00
   1 -11  -7    0.22    7.42
  -1  11   7    2.20    7.81
   1   6  11    0.44    2.86
  -1  -6 -11   -0.22    3.57
   1   5  10   12.31    3.68
  -1  -5 -10   16.22    3.08
   1   4   9   -0.93    2.36
  -1  -4  -9    0.60    3.19
   1   1   6   16.55    2.14
  -1   1  -4   91.20    3.63
   1  -2   3   64.26    2.80
  -1   2  -3   64.76    4.23
   1  -3   2   14.90    1.48
  -1   3  -2   17.70    1.87
   1  -4   1   22.21    2.14
  -1   4  -1   14.95    3.68
   1  -5   0    6.38    1.59
  -1   5   0    4.84    3.41
   1  -6  -1   13.36    4.12
  -1   6   1   10.44    3.02
   1  -7  -2    8.47    3.02
  -1   7   2    6.60    3.74
   1  -8  -3    1.04    2.86
  -1   8   3   -0.60    5.11
   1  -9  -4    3.24    4.01
  -1   9   4    2.53    4.84
   1 -10  -5    1.10    4.23
  -1  10   5   -1.54    4.62
   1 -11  -6    2.20    7.42
  -1  11   6    0.11    3.68
   1   4  10    4.56    3.24
  -1  -4 -10    4.95    3.57
   1   3   9   77.73    5.50
   1   0   6    1.10    1.87
   1  -1   5  126.88    7.70
   1  -2   4   92.47    4.51
  -1   2  -4   91.81    3.96
   1  -3   3  462.38   14.07
  -1   3  -3  446.49   22.98
   1  -4   2   57.50    3.30
  -1   4  -2   59.32    4.07
   1  -5   1   79.22    5.83
  -1   5  -1   75.70    4.51
   1  -6   0   14.13    2.20
  -1   6   0   13.63    2.69
   1  -7  -1   58.33    4.67
  -1   7   1   65.31    5.55
   1  -8  -2   56.02    4.56
  -1   8   2   49.09    5.55
   1  -9  -3   39.42    7.81
  -1   9   3   32.93    7.48
   1 -10  -4    4.23    2.25
  -1  10   4    3.08    3.24
   1 -11  -5    1.70    3.19
  -1  11   5   -0.11    3.68
  -1  -4 -11   -0.27    3.63
   1   3  10    0.88    1.98
  -1  -3 -10   -1.87    2.58
   1   2   9    0.99    1.92
   1   0   7  184.44   10.61
  -1   0  -7  208.62   11.05
   1  -1   6   70.97    5.22
   1  -2   5   29.63    2.42
   1  -3   4   -0.11    1.76
  -1   3  -4    2.69    1.54
   1  -4   3   55.58    3.08
  -1   4  -3   51.02    3.85
   1  -5   2   19.52    2.25
  -1   5  -2   17.43    3.79
   1  -6   1  342.65   13.58
  -1   6  -1  365.79   20.89
   1  -7   0   58.27    6.93
  -1   7   0   49.92    5.83
   1  -8  -1   41.45    8.25
  -1   8   1   34.41    7.92
   1  -9  -2    8.47    3.35
  -1   9   2    5.22    4.73
   1 -10  -3   20.12    4.67
  -1  10   3   15.50    9.79
   1 -11  -4    0.00    2.53
   1 -12  -5   23.25    8.08
  -1  12   5    6.16   11.60
   1   2  10    0.60    2.09
  -1  -1  -9   10.23    1.76
   1  -1   7  413.62   21.05
  -1   2  -6    1.21    1.32
   1  -3   5   22.70    2.31
  -1   3  -5   16.16    2.97
   1  -4   4    0.44    1.59
  -1   4  -4    0.05    1.70
   1  -5   3    1.43    2.80
  -1   5  -3   -0.27    2.42
   1  -6   2   35.90    3.13
  -1   6  -2   37.99    3.46
   1  -7   1  164.87    8.80
  -1   7  -1  151.62    9.51
   1  -8   0    7.59    3.68
  -1   8   0    6.54    4.40
  -1   9   1    1.65    7.31
   1 -10  -2   -2.91    4.29
  -1  10   2   -0.77    4.73
   1 -11  -3   -0.11    6.54
   1 -12  -4    2.64    5.00
  -1  12   4    4.29    7.15
   1   2  11    7.48    1.65
   1   0   9   27.60    4.12
   1  -1   8   56.68    4.12
  -1   2  -7    3.24    2.31
  -1   3  -6   27.65    4.12
   1  -4   5   29.47    2.53
  -1   4  -5   30.90    2.91
   1  -5   4    5.94    2.14
  -1   5  -4   12.70    2.75
   1  -6   3   44.14    4.23
  -1   6  -3   36.94    4.45
   1  -7   2  102.53    6.54
  -1   7  -2   98.40    9.02
   1  -8   1    3.96    5.55
  -1   8  -1    6.54    4.78
   1  -9   0    1.76    4.12
  -1   9   0    1.81    6.82
   1 -10  -1    6.16    3.57
  -1  10   1    6.16    3.41
   1 -11  -2    3.13    5.99
  -1  11   2    5.00    8.69
   1 -12  -3    1.21    5.33
  -1  12   3    0.77    6.05
   1 -13  -4    3.96    5.55
  -1  13   4    1.59    7.37
   1   1  11   -0.33    1.32
  -1   1  -9   16.00    3.35
   1  -3   7   27.49    4.34
  -1   3  -7   26.22    3.35
   1  -4   6   43.37    4.67
   1  -5   5   12.09    2.69
  -1   5  -5   12.20    3.13
   1  -6   4   58.49    5.88
  -1   6  -4   54.37    5.11
   1  -7   3  101.43    6.82
  -1   7  -3  112.64   10.88
   1  -8   2  139.30    8.85
  -1   8  -2  144.47    9.62
   1  -9   1   20.67    5.28
  -1   9  -1   27.32    6.65
   1 -10   0   13.91    8.63
  -1  10   0   20.07    7.04
   1 -11  -1    5.72    4.56
  -1  11   1    4.29    6.27
   1 -12  -2    6.43   11.21
  -1  12   2    7.70    6.76
   1   0  11    3.46    1.48
   1  -2   9    3.74    2.91
   1  -3   8    2.20    3.90
  -1   3  -8    0.93    3.02
   1  -4   7    4.18    3.85
   1  -5   6   60.03    5.00
   1  -6   5   18.69    5.11
  -1   6  -5   20.01    3.63
   1  -7   4    6.32    3.79
  -1   7  -4    3.19    6.21
   1  -8   3    9.62    4.34
  -1   8  -3   10.83    5.22
   1  -9   2   11.49    5.11
  -1   9  -2    6.82    7.64
   1 -10   1    2.80    6.05
  -1  10  -1    1.37    4.40
   1 -11   0   44.91    6.27
  -1  11   0   45.57    7.59
   1 -12  -1    2.64    3.35
  -1  12   1    2.36    6.43
  -1  13   2    0.05    5.61
   1  -2  10    9.46    3.13
   1  -4   8    2.53    3.63
  -1   4  -8    1.59    4.12
   1  -5   7   10.33    4.40
  -1   5  -7   11.05    4.73
   1  -6   6   46.89    8.41
  -1   6  -6   50.52    9.40
   1  -7   5   -0.38    3.74
  -1   7  -5    4.56    4.51
   1  -8   4   16.82    4.62
  -1   8  -4   10.66    4.56
   1  -9   3   32.98    5.94
  -1   9  -3   34.85    9.35
   1 -10   2    2.25    4.34
  -1  10  -2   -5.99   10.44
   1 -11   1    4.12    4.29
  -1  11  -1   10.72   11.10
   1 -12   0    0.77    4.40
   1 -13  -1    0.66    4.62
   1  -3  10    1.65    1.65
   1  -5   8   11.10    4.62
  -1   5  -8   15.78    4.84
   1  -6   7    1.32    2.42
   1  -7   6    3.08    3.85
  -1   7  -6    1.48    4.73
   1  -8   5    5.55    3.79
  -1   8  -5    3.52    5.33
   1  -9   4    2.69    8.58
  -1   9  -4   12.97    7.31
   1 -10   3    2.14    6.38
  -1  10  -3    3.13    7.20
   1 -11   2    2.75    4.01
  -1  11  -2    2.42    5.44
  -1  12  -1   -2.09    5.50
  -1  13   0    0.88    4.23
   1  -4  10   36.72    7.15
  -1   5  -9    0.66    4.18
   1  -6   8   10.66    7.42
   1  -7   7    3.96    4.89
  -1   7  -7   -1.37    6.54
   1  -8   6   16.88    4.62
  -1   8  -6   11.71    5.50
   1  -9   5   39.69    6.76
  -1   9  -5   44.36    6.98
   1 -10   4   55.80    9.79
  -1  10  -4   51.89   13.52
   1 -11   3    5.88    9.51
  -1  11  -3    4.89   11.93
  -1  12  -2   -0.44    5.39
  -1  13  -1    0.77    6.54
   1  -6   9   -0.82    4.62
  -1   6  -9   -2.42    6.43
   1  -7   8   21.88    6.10
  -1   7  -8   28.31    5.99
   1  -8   7    8.03    4.40
  -1   8  -7    5.22    7.70
   1  -9   6   -1.70    3.79
  -1   9  -6   -0.99    4.07
   1 -10   5    0.77    3.85
  -1  10  -5   -1.10    4.89
   1 -11   4    0.82    8.30
  -1  11  -4   -3.85    7.97
  -1  13  -2    8.74    5.50
   1  -8   8   51.95    7.64
   1  -9   7    0.11    4.29
   1 -10   6    0.27    5.11
  -1  10  -6    0.82    2.20
  -1  11  -5    0.05    3.68
  -1  11  -6    1.37    2.53
   2  11  -4    6.10    5.88
  -2 -13   0   -0.60    5.72
  -2 -12   1   -0.05    5.28
  -2 -11   2    2.47    5.66
  -2 -10   3   12.42    2.91
  -2  -9   4    2.31    4.95
   2   8  -5    3.30    3.96
   2   7  -6   12.31    3.52
  -2  -7   6   23.64    3.79
  -2  -6   7    1.15    2.14
  -2 -13  -1    1.04    4.01
  -2 -12   0   22.65    7.70
  -2 -10   2    2.42    4.34
   2   9  -3   -3.63    7.81
  -2  -9   3    3.13    3.79
   2   8  -4   -0.55    4.67
  -2  -8   4    0.44    4.56
  -2  -7   5   -0.60    3.96
   2   6  -6    1.21    3.08
  -2 -10   1    3.57    4.01
   2   9  -2   23.58    8.91
  -2  -9   2   18.75    5.33
   2   8  -3   12.09    7.26
  -2  -8   3    6.32    5.83
   2   7  -4    3.68    7.26
  -2  -7   4   12.15    5.17
   2   5  -6    1.26    4.23
   2  11   1    3.08    5.83
  -2 -11  -1   16.82    4.95
   2  10   0    5.39    5.33
  -2 -10   0    9.24    3.79
   2   9  -1    1.81    6.54
   2   8  -2    4.84    4.45
  -2  -8   2    6.71    6.05
   2   7  -3   29.30    6.49
  -2  -7   3   37.27    6.76
   2   6  -4   23.75    4.67
  -2  -6   4   29.25    3.41
   2   4  -6   30.73    3.57
   2  12   3    3.30   10.99
  -2 -12  -3    0.00    8.03
   2  11   2   -1.54    3.68
  -2 -11  -2   -0.27    2.69
   2  10   1   10.55    5.22
  -2 -10  -1   14.18    4.34
   2   9   0    8.74    9.18
  -2  -9   0    1.65    4.51
  -2  -8   1  551.33   28.15
   2   7  -2   43.70    4.51
  -2  -7   2   46.84    4.56
   2   6  -3   62.12    8.19
  -2  -6   3   54.04    5.99
  -2 -13  -5   51.51   13.36
  -2 -12  -4    0.55    5.88
   2  11   3    2.25    4.29
  -2 -11  -3    3.08    3.85
   2  10   2   -1.04    5.39
  -2 -10  -2   -3.30    6.38
   2   9   1    0.16    4.40
  -2  -9  -1   -1.15    4.89
   2   8   0   82.02    7.09
  -2  -8   0   77.07    7.81
   2   7  -1  250.95   16.22
  -2  -7   1  280.69   15.78
   2   6  -2   11.05    5.00
  -2  -6   2    3.02    3.30
   2   5  -3   -0.38    3.57
  -2  -5   3    3.08    3.08
  -2  -3   5    9.62    1.98
   2  13   6   16.11   11.98
   2  11   4    3.46    4.89
  -2 -11  -4    2.91    5.06
   2  10   3   58.99    7.53
   2   9   2   16.49    8.91
  -2  -9  -2   21.44    4.45
   2   8   1   53.16    5.83
  -2  -8  -1   75.53    7.86
   2   7   0   73.33    5.66
  -2  -7   0   79.22    5.50
   2   6  -1   91.75    9.57
  -2  -6   1   97.69    9.51
   2   5  -2   40.85    4.07
  -2  -5   2   43.43    3.68
  -2  -4   3  591.46   30.02
   2  11   5   -1.21    5.77
   2  10   4    6.93    5.77
  -2 -10  -4    2.53    6.98
   2   9   3    3.08    5.99
  -2  -9  -3    7.64    7.04
   2   8   2   68.44    7.70
  -2  -8  -2   86.25    9.79
   2   7   1  130.73   12.92
  -2  -7  -1  130.40    8.14
   2   6   0  211.59    9.79
  -2  -6   0  203.35   14.79
   2   5  -1  248.75   18.47
  -2  -5   1  263.49   16.49
   2   4  -2   10.88    3.68
   2   3  -3    5.39    2.20
  -2 -11  -6    2.31    6.27
   2  10   5   -0.66    5.33
  -2 -10  -5   -0.27    6.82
   2   9   4  156.45   11.98
  -2  -9  -4  178.99   16.77
   2   8   3   56.24    5.94
  -2  -8  -3   71.80    6.65
   2   7   2   13.30    4.89
  -2  -7  -2   24.24    6.76
   2   6   1  575.35   31.06
  -2  -6  -1  557.71   30.51
   2   5   0  257.11   11.38
   2   4  -1  160.69   10.17
  -2  -4   1  153.16   10.55
   2   3  -2 2332.96   91.64
   2  11   7   60.09   14.40
   2  10   6    6.21    8.19
  -2 -10  -6    0.11    4.51
   2   9   5   42.27   11.10
  -2  -9  -5   23.31    9.07
   2   8   4  108.57    8.52
  -2  -8  -4  115.61    8.41
   2   7   3   11.43    5.50
  -2  -7  -3    8.14    3.79
   2   6   2  316.15   13.52
  -2  -6  -2  335.17   14.79
   2   5   1 1018.82   33.04
  -2  -5  -1  991.01   32.10
   2   4   0    1.04    2.20
  -2  -4   0    0.77    1.87
  -2  -3   1  753.47   26.22
  -2  -2   2  636.54   28.42
  -2   3   7   83.12    6.16
   2  11   8    4.40    6.32
   2  10   7    2.86    8.19
  -2 -10  -7    3.46    5.50
   2   9   6    1.26    9.40
  -2  -9  -6   19.52    6.10
  -2  -8  -5   93.62   13.14
   2   7   4   40.24    5.66
   2   6   3  369.31   21.44
   2   5   2  392.51   14.73
  -2  -5  -2  382.28   16.22
   2   4   1  667.71   35.35
  -2  -4  -1  680.74   34.91
   2   3   0  373.38   21.00
  -2  -3   0  366.34   18.58
   2   2  -1 1030.31   40.74
  -2  -2   1 1077.04   48.49
   2   0  -3  365.85   14.07
  -2   4   7   73.33    5.50
  -2   5   8    5.17    4.78
   2  11   9    2.14    9.51
  -2 -10  -8   32.82    3.96
  -2  -9  -7   -0.33    6.82
   2   8   6    4.12    3.02
  -2  -8  -6    7.31    3.79
   2   7   5   77.07    7.92
   2   6   4  223.74   17.43
  -2  -6  -4  231.49   11.32
   2   5   3  445.45   24.85
  -2  -5  -3  464.69   18.36
   2   4   2 1595.44   75.09
  -2  -4  -2 1560.53   66.41
   2   3   1  710.92   37.82
   2   2   0    6.21    1.92
  -2  -2   0    3.57    1.26
   2   1  -1    3.13    1.92
  -2  -1   1    2.47    1.59
   2   0  -2  611.19   23.69
  -2   0   2  550.17   22.32
  -2   1   3 1395.39   56.40
  -2   2   4  429.78   20.78
  -2   3   5  192.24   12.31
   2  -4  -6   52.88    6.21
   2  -5  -7    4.95    2.75
  -2   5   7    0.99    3.52
   2  -6  -8   -1.04    2.80
  -2   6   8   -1.04    1.92
   2  10   9   -0.60    4.07
  -2 -10  -9    4.67    4.07
   2   9   8    5.99    6.16
  -2  -9  -8   17.32    9.68
   2   8   7   18.91    5.33
  -2  -8  -7   27.16    5.77
  -2  -7  -6  985.73   52.77
   2   6   5   19.41    6.65
  -2  -6  -5   27.65    6.49
   2   5   4  106.87    9.29
  -2  -5  -4  101.32    7.09
   2   4   3    6.65    3.02
  -2  -4  -3    3.74    2.80
   2   3   2  724.93   26.28
  -2  -3  -2  768.58   39.03
   2   2   1   97.91    6.71
  -2  -2  -1  111.71    7.42
  -2   2   3    4.01    1.48
   2  -3  -4   84.88    8.63
  -2   3   4   94.17    7.04
   2  -4  -5   28.59    3.13
  -2   4   5   25.62    3.85
   2  -5  -6  836.20   27.32
  -2   5   6  806.35   39.25
   2  -6  -7   10.72    3.68
   2  -7  -8   12.59    6.76
  -2   7   8    5.94    3.68
   2  -8  -9    0.71    3.52
   2   9   9    0.33    4.95
  -2  -9  -9    1.32    6.05
   2   8   8    9.51    5.11
  -2  -8  -8   18.20    6.98
   2   7   7  149.25    9.02
  -2  -7  -7  134.41   10.94
   2   6   6 1374.99   60.86
  -2  -6  -6 1484.78   64.70
   2   5   5    8.91    4.40
  -2  -5  -5    6.98    4.51
   2   4   4  494.32   20.12
  -2  -4  -4  515.32   18.36
   2   3   3  459.41   17.92
  -2  -3  -3  472.28   29.36
   2   1   1 9999.00  248.15
   2   0   0 8166.24  282.73
   2  -2  -2  464.96   21.44
  -2   2   2  457.10   23.09
   2  -3  -3  454.36   23.64
  -2   3   3  488.44   17.10
   2  -4  -4    2.42    2.75
  -2   4   4    5.11    2.09
  -2   5   5 1305.40   39.91
   2  -6  -6  124.46    9.29
  -2   6   6  105.93    6.93
   2  -7  -7    6.21    5.33
  -2   7   7   11.87    7.37
   2  -8  -8    2.03    3.68
   2  -9  -9    5.55    5.39
   2   9  10   24.35    5.44
  -2  -9 -10   20.34    4.78
   2   8   9    3.30    7.92
  -2  -8  -9    2.64    8.08
   2   7   8  100.22    8.47
  -2  -7  -8   97.30    7.26
   2   6   7  200.82   16.49
  -2  -6  -7  196.42    9.79
   2   5   6  132.60    8.08
  -2  -5  -6  135.95    7.75
   2   4   5  142.60   11.54
  -2  -4  -5  154.15    9.51
   2   3   4 2109.71   94.72
  -2  -3  -4 2086.46   63.60
   2   1   2 3614.23   96.26
  -2  -1  -2 3369.92  126.16
   2   0   1 4378.30  157.11
  -2   0  -1 4298.59  147.05
   2  -1   0 3260.14  119.29
  -2   1   0 3365.69  122.04
   2  -3  -2 2225.93   64.15
  -2   3   2 2205.37   63.66
   2  -4  -3  135.84    9.13
  -2   4   3  136.77    7.42
   2  -5  -4  150.79    9.95
  -2   5   4  137.38   10.72
   2  -6  -5  200.21   13.91
  -2   6   5  197.24    9.07
   2  -7  -6   80.37    6.43
  -2   7   6   74.10    6.49
   2  -8  -7    1.92    4.73
  -2   8   7   -0.27    7.15
   2  -9  -8   29.96    7.20
  -2   9   8   32.49    7.59
   2   9  11    0.93    4.95
   2   8  10   15.23    4.84
  -2  -8 -10   20.29    4.34
   2   7   9   24.35    6.76
  -2  -7  -9   22.65    4.78
   2   6   8   16.16    4.67
  -2  -6  -8   19.02    3.79
   2   5   7  183.23   10.44
  -2  -5  -7  198.51   14.79
   2   4   6  127.54   10.33
  -2  -4  -6  130.12    7.20
  -2  -3  -5    9.84    3.30
   2   2   4   76.58    4.78
  -2  -2  -4   83.34    4.29
   2   1   3 1456.36   61.24
   2   0   2 1590.00   45.02
  -2   1  -1 1614.68   42.49
  -2   2   0 1467.68   39.36
   2  -3  -1   76.58    4.29
  -2   3   1   78.45    4.89
   2  -4  -2    7.37    2.25
  -2   4   2   13.74    2.91
   2  -5  -3  149.58    7.70
  -2   5   3  135.18    7.15
   2  -6  -4  211.37    9.68
  -2   6   4  195.87    7.81
   2  -7  -5   18.31    5.94
  -2   7   5   24.68    4.01
   2  -8  -6   34.58    8.47
  -2   8   6   38.10    7.59
   2  -9  -7   16.99    5.22
  -2   9   7   18.69    4.84
   2 -10  -8    2.75    6.43
  -2  -8 -11   28.26    8.19
   2   7  10    4.40    6.27
  -2  -7 -10    3.79    4.56
   2   6   9    6.10    4.51
  -2  -6  -9    6.98    3.96
   2   5   8   22.59    5.06
  -2  -5  -8   22.98    3.57
   2   4   7   16.33    4.95
  -2  -4  -7   15.83    4.67
   2   3   6   47.94    5.88
  -2  -3  -6   48.54    5.17
  -2  -2  -5 1777.01   74.10
  -2  -1  -4    0.05    1.98
   2  -1   2  775.40   33.59
   2  -2   1    8.19    1.15
  -2   2  -1    8.69    1.32
   2  -3   0    1.04    1.37
  -2   3   0   -0.49    1.37
   2  -4  -1 1917.91   52.06
   2  -5  -2   45.79    4.01
  -2   5   2   52.50    4.34
   2  -6  -3   21.99    4.56
  -2   6   3   19.63    3.46
   2  -7  -4   27.76    6.10
  -2   7   4   28.86    4.12
   2  -8  -5    3.08    5.55
  -2   8   5    8.52    5.06
   2  -9  -6    0.99    8.41
  -2   9   6    2.97    4.56
   2 -10  -7   44.69    9.07
  -2  10   7   43.87    7.92
   2 -11  -8   -0.49    7.09
  -2  11   8   -0.44    6.76
   2   8  12   -0.16    5.11
   2   7  11   46.23    6.93
  -2  -7 -11   53.38    5.28
   2   5   9   71.03    7.15
  -2  -5  -9   76.58    6.60
   2   4   8  337.70   21.22
   2   3   7  118.63    8.52
  -2  -3  -7  122.32    5.50
   2   2   6  849.39   38.76
  -2  -2  -6  852.14   25.89
   2   1   5 2045.67   79.71
   2   0   4  540.33   17.76
  -2   0  -4  538.74   22.37
  -2   1  -3 3592.35  125.34
   2  -2   2 3827.03  139.85
  -2   2  -2 3834.72  137.71
   2  -3   1  559.52   26.22
   2  -4   0 2206.08   63.27
  -2   4   0 2213.94   60.03
  -2   5   1  959.56   40.85
  -2   6   2  123.14    9.84
   2  -7  -3  411.20   14.73
  -2   7   3  430.33   16.05
   2  -8  -4  118.14   10.23
  -2   8   4  128.20    7.15
   2  -9  -5    5.88    5.83
  -2   9   5    3.19    4.84
   2 -10  -6   68.99    9.18
  -2  10   6   78.28   10.01
   2 -11  -7    2.42    5.39
  -2  11   7    3.68   10.94
  -2  -7 -12    1.59    6.27
   2   6  11   -2.03    4.89
  -2  -6 -11    0.77    4.67
   2   4   9    9.95    2.42
   2   3   8   64.10    7.97
  -2  -2  -7  198.51   10.44
   2   1   6  297.13   12.26
  -2   0  -5  355.51   17.65
   2  -1   4 1161.15   45.52
  -2   1  -4 1098.48   32.71
   2  -2   3  252.60   13.30
  -2   2  -3  225.45    8.03
   2  -3   2 1237.95   35.18
  -2   3  -2 1283.19   54.20
   2  -4   1  402.35   13.74
  -2   4  -1  392.02   13.47
   2  -5   0  341.93   11.49
  -2   5   0  345.78   13.63
   2  -6  -1  221.54    8.74
  -2   6   1  221.60   12.75
   2  -7  -2   81.09    6.98
  -2   7   2   78.50    5.28
   2  -8  -3   22.81    5.22
  -2   8   3   19.63    6.38
   2  -9  -4   63.33    6.43
  -2   9   4   62.06    6.49
   2 -10  -5   -0.16    4.73
  -2  10   5    2.42    4.73
   2 -11  -6    4.78    9.73
  -2  11   6    6.82    8.69
   2 -12  -7    7.59    9.90
   2   6  12    4.89    6.87
  -2  -6 -12    5.77    6.27
   2   5  11    1.26    3.46
   2   4  10   12.37    3.96
  -2  -4 -10    5.50    2.42
  -2  -1  -7    0.93    2.75
  -2   0  -6    4.40    2.53
   2  -1   5  180.37    6.49
  -2   1  -5  191.69   10.55
   2  -2   4  645.50   29.63
   2  -3   3  686.51   20.18
  -2   3  -3  673.09   28.86
   2  -4   2  194.88    9.62
  -2   4  -2  202.30   10.01
   2  -5   1    6.98    2.20
  -2   5  -1    4.84    2.14
   2  -6   0    1.92    1.87
  -2   6   0    4.18    2.31
   2  -7  -1   55.52    6.21
  -2   7   1   44.80    4.73
   2  -8  -2  139.91    9.13
  -2   8   2  140.07   11.27
   2  -9  -3   20.78    5.88
  -2   9   3   21.55    4.51
   2 -10  -4   21.22    5.28
  -2  10   4   11.60    7.81
   2 -11  -5    9.84    5.33
  -2  11   5    4.01   11.05
   2 -12  -6   -1.15    5.11
  -2  12   6   -1.21   12.48
  -2  -6 -13   26.11    8.30
   2   5  12   -0.71    3.30
  -2  -5 -12   -0.49    4.40
   2   4  11    1.76    4.18
  -2  -4 -11    0.93    4.67
   2   2   9    7.97    2.31
  -2  -2  -9    4.12    3.35
   2   0   7  436.05   20.07
   2  -1   6  118.41    5.50
   2  -2   5   30.18    2.42
  -2   2  -5   26.33    2.03
   2  -3   4  598.50   25.51
  -2   3  -4  601.24   27.38
   2  -4   3   30.68    2.42
  -2   4  -3   30.40    2.36
   2  -5   2  123.64    6.60
  -2   5  -2  124.51    5.44
   2  -6   1  528.35   16.60
  -2   6  -1  529.61   25.73
   2  -7   0  112.20    8.03
  -2   7   0  106.04    9.07
   2  -8  -1   12.15    3.41
  -2   8   1   10.72    3.74
   2  -9  -2   53.27    9.84
  -2   9   2   58.05    7.59
   2 -10  -3    3.52    4.62
  -2  10   3    0.22    4.07
   2 -11  -4    3.30    6.21
  -2  11   4    0.22    4.62
   2 -12  -5   58.00    7.42
  -2  12   5   49.64   15.45
   2   5  13   68.28   10.39
  -2  -5 -13   66.46   10.94
   2   3  11   32.76    3.85
  -2  -3 -11   33.09    3.90
  -2  -2 -10   46.07    5.94
   2   1   9   80.81    6.60
  -2  -1  -9   72.34    5.94
   2   0   8  568.42   27.10
  -2   0  -8  570.02   26.66
  -2   1  -7 1259.72   51.46
   2  -2   6  255.35   13.14
  -2   2  -6  261.12   12.75
   2  -3   5  582.55   25.12
   2  -4   4  600.80   26.77
  -2   4  -4  605.15   18.80
   2  -5   3  286.91   10.12
  -2   5  -3  303.67   14.51
  -2   6  -2 1641.40   47.66
   2  -7   1  771.72   25.07
  -2   7  -1  759.84   27.21
   2  -8   0  127.81    8.85
  -2   8   0  118.63   10.28
   2  -9  -1   62.61    5.22
  -2   9   1   62.78    6.60
   2 -10  -2   53.98    8.03
  -2  10   2   61.46    6.76
   2 -11  -3    0.44    5.88
  -2  11   3    0.22    6.87
   2 -12  -4  155.46   20.01
  -2  12   4  161.46   15.12
   2 -13  -5    0.11    7.15
  -2  13   5    2.36   10.28
  -2  -1 -10   14.07    3.79
  -2   0  -9  101.26    6.65
   2  -1   8   77.73    4.73
  -2   1  -8   78.61    3.90
   2  -2   7  139.91    9.40
  -2   2  -7  126.60    8.47
  -2   3  -6  142.66    8.69
   2  -4   5  288.39   12.92
  -2   4  -5  272.39   12.64
   2  -5   4  156.67    6.82
  -2   5  -4  152.72    6.43
   2  -6   3  148.10   10.01
  -2   6  -3  156.18    7.75
   2  -7   2  116.10    9.29
  -2   7  -2  107.03    6.82
   2  -8   1  161.07    7.92
  -2   8  -1  141.83    9.24
   2  -9   0   18.80    3.79
  -2   9   0   27.49    6.38
   2 -10  -1   67.01    6.32
  -2  10   1   70.20    9.35
   2 -11  -2   11.21    5.55
  -2  11   2    9.24    7.37
   2 -12  -3   -0.22    4.23
  -2  12   3   -0.88    4.07
   2 -13  -4    0.49    7.97
  -2  13   4    9.73   12.04
   2   2  12   -0.93    3.41
  -2  -2 -12    0.33    2.14
   2   1  11    3.08    2.42
  -2  -1 -11    5.22    4.12
   2   0  10    6.60    4.29
   2  -1   9   11.93    3.90
   2  -3   7    1.26    2.86
  -2   3  -7    1.04    2.97
   2  -4   6    0.99    2.64
  -2   4  -6    3.08    3.46
   2  -5   5    1.98    4.07
  -2   5  -5   -0.66    3.74
   2  -6   4    2.80    3.96
  -2   6  -4    3.68    3.63
   2  -7   3   77.07    6.93
  -2   7  -3   82.41    9.46
   2  -8   2   17.15    3.63
  -2   8  -2   17.92    4.34
  -2   9  -1    7.75    5.44
   2 -10   0    3.02    4.34
  -2  10   0    1.87    5.44
  -2  11   1   -0.44   10.61
   2 -12  -2   -3.74    3.35
   2 -13  -3    2.31   12.15
  -2  13   3   10.28   14.40
   2   2  13    0.82    1.76
   2  -1  10   32.54    4.23
  -2   2  -9   35.18    4.40
   2  -3   8   67.40    5.66
  -2   3  -8   74.10    6.21
   2  -4   7  107.64    8.41
  -2   4  -7   96.48    6.60
   2  -5   6    5.72    2.75
  -2   5  -6   10.88    2.47
   2  -6   5  112.81    8.47
  -2   6  -5  125.39    7.31
   2  -7   4   94.94    8.08
  -2   7  -4   95.21   10.72
   2  -8   3   61.74    7.81
  -2   8  -3   58.05    6.54
   2  -9   2   39.25    4.89
  -2   9  -2   49.26    6.21
   2 -10   1   27.49    6.10
  -2  10  -1   18.86    6.38
   2 -11   0    5.44    9.18
  -2  11   0    4.40   10.28
  -2  12   1    6.60   10.01
   2   1  13    5.55    2.69
   2  -1  11   17.21    4.51
   2  -2  10  100.88    6.71
  -2   2 -10   94.50    5.83
   2  -3   9  154.15    7.59
  -2   3  -9  152.39    9.18
   2  -4   8   83.67    6.32
   2  -5   7  229.18   13.85
  -2   5  -7  186.25   13.91
   2  -6   6  283.55   19.41
  -2   6  -6  238.03   10.94
   2  -7   5  109.07    7.59
   2  -8   4  222.81   11.16
  -2   8  -4  216.98   10.23
   2  -9   3  150.24    7.81
  -2   9  -3  160.85   11.32
   2 -10   2   38.43    7.31
  -2  10  -2   38.81    7.31
   2 -11   1   85.15    7.86
  -2  11  -1   75.86    9.24
   2 -12   0   25.45    5.44
  -2  12   0   26.44   10.66
  -2   1 -12    0.71    2.14
   2  -2  11    8.14    4.34
   2  -4   9   10.72    4.12
  -2   4  -9    9.35    3.90
   2  -5   8   20.56    5.11
   2  -6   7    6.10    5.33
  -2   6  -7    9.62    4.73
   2  -7   6   28.97    5.28
  -2   7  -6   13.80    6.82
   2  -8   5   16.93    4.62
  -2   8  -5   13.41    8.58
   2  -9   4   -0.66    3.63
  -2   9  -4    0.71    4.12
   2 -10   3   15.94    6.16
  -2  10  -3    8.25    6.21
   2 -11   2    1.15    8.52
  -2  11  -2   -0.60    7.70
   2 -12   1    0.66    6.10
  -2  12  -1   -0.33    5.77
   2 -13   0    4.01    7.42
   2  -4  10    2.53    5.22
   2  -5   9    4.62    5.72
  -2   5  -9    0.93    3.24
   2  -6   8    6.54    6.60
  -2   7  -7    8.30    5.00
   2  -8   6    4.34    8.58
  -2   8  -6    2.09    5.33
  -2   9  -5   -4.56    9.24
   2 -10   4    1.87    6.49
  -2  10  -4    3.46    5.55
   2 -11   3   -2.09    4.51
  -2  11  -3   -0.16    6.98
   2 -12   2    2.91    8.63
  -2  12  -2    2.75    8.47
   2  -4  11   20.40    5.39
  -2   4 -11   20.72    6.32
   2  -5  10   25.89    5.50
   2  -6   9   34.08    6.82
  -2   6  -9   27.82    9.24
   2  -7   8   15.78    4.73
   2  -8   7   34.85    7.59
   2  -9   6   40.13    5.94
  -2   9  -6   31.55    6.21
  -2  10  -5   36.23    9.73
   2 -11   4    5.61   10.61
  -2  11  -4   16.16    6.71
   2  -6  10   13.14    3.41
   2  -7   9   29.63    5.28
  -2   7  -9   29.96    9.29
  -2   8  -8   31.28    7.75
   2  -9   7   29.96    9.73
  -2   9  -7   12.09    7.64
   2 -10   6   18.86    4.18
  -2  10  -6   25.29    6.93
   2 -11   5   26.00    8.36
  -2  11  -5    5.83    7.92
  -2  12  -4    2.80    8.69
   2  -7  10    2.36    5.88
   2  -8   9    0.99    7.09
  -2   9  -8   -0.66    3.68
   2 -10   7   -1.15    5.06
   2 -11   6   -2.86    6.38
  -2  11  -6    1.43    5.11
   3   8  -6    0.82    4.12
   3  11  -1    1.54    5.77
  -3  -9   3    0.49    4.56
  -3  -8   4    2.25    4.78
   3   6  -6   14.79    4.89
  -3 -12  -1    0.49    3.08
   3  11   0    5.22    6.05
  -3 -11   0    4.18    4.34
  -3 -10   1    4.34    6.27
   3   9  -2   17.70    4.01
  -3  -9   2   26.22    5.33
   3   8  -3   -1.26    2.25
  -3  -8   3    2.25    2.14
   3   6  -5   -0.38    2.97
  -3  -5   6    6.54    2.64
   3  11   1   -2.03    4.23
  -3 -11  -1   -1.54    5.39
   3  10   0   -1.98    7.92
  -3 -10   0    4.07    5.22
   3   9  -1   24.68    8.63
  -3  -9   1   28.26    5.00
   3   8  -2   16.99    7.09
  -3  -8   2   15.67    4.45
   3   7  -3   -0.16    4.51
  -3  -7   3   -1.26    3.57
   3   6  -4   -0.55    1.65
  -3  -5   5   -0.05    3.19
   3   4  -6    0.33    2.03
  -3  -4   6    1.43    2.42
   3  11   2    7.75    6.43
  -3 -11  -2    3.46    5.44
   3  10   1    0.38    5.66
  -3 -10  -1    0.60    3.79
   3   9   0   -1.92    5.22
  -3  -9   0    7.92    6.65
  -3  -8   1    3.46    4.29
   3   7  -2   17.98    3.96
  -3  -7   2   17.81    6.21
   3   6  -3    6.43    4.73
  -3  -6   3    3.24    2.42
   3   5  -4   15.61    2.86
  -3  -5   4   12.81    2.14
  -3  -4   5    4.95    2.58
  -3 -11  -3    1.70    5.66
   3  10   2    1.65    5.88
  -3 -10  -2    4.73    7.31
   3   9   1    1.87    3.96
  -3  -9  -1   -0.77    3.02
   3   8   0  120.01   12.04
   3   7  -1   64.48    8.58
  -3  -7   1   -1.54    4.56
   3   6  -2   31.77    5.61
  -3  -6   2    0.88    3.19
   3   5  -3    2.53    4.12
   3   4  -4   28.37    4.01
   3  11   4    1.15    4.62
  -3 -11  -4    1.32    5.50
   3  10   3    2.75    4.45
   3   9   2   -0.55    5.72
  -3  -9  -2    1.59    4.51
   3   8   1   -0.44    6.10
  -3  -8  -1    6.05    5.72
   3   7   0    0.55    2.97
  -3  -7   0    0.27    3.02
   3   6  -1   18.91    4.78
  -3  -6   1   11.38    3.57
   3   5  -2    7.20    2.80
  -3  -5   2    7.31    2.97
  -3  -4   3   49.20    5.00
  -3  -3   4    1.70    2.69
  -3 -11  -5    1.48    5.61
   3  10   4    0.11    8.52
  -3 -10  -4    4.84    4.23
   3   9   3    6.10    8.47
  -3  -9  -3    0.71    2.91
   3   8   2    1.59    4.73
  -3  -8  -2    0.88    6.71
   3   7   1    1.32    4.73
  -3  -7  -1    0.22    4.95
   3   6   0   13.47    3.85
  -3  -6   0    9.40    3.35
   3   5  -1    1.92    4.45
  -3  -5   1    6.16    3.57
   3   4  -2   67.95    6.43
   3   3  -3   14.79    3.52
  -3  -2   4    2.25    1.21
   3  11   6    0.33    8.36
  -3 -11  -6   -0.60    4.01
   3  10   5   -0.11    6.27
  -3 -10  -5    1.15    4.95
   3   9   4   -0.71    5.99
  -3  -9  -4    0.44    3.74
   3   8   3   17.10    7.15
   3   7   2   51.07    8.14
  -3  -7  -2   33.15    8.63
   3   6   1   20.23    4.84
  -3  -6  -1   16.44    6.10
   3   5   0   62.56    5.61
  -3  -5   0   57.61   10.33
  -3  -4   1   54.31    8.41
   3   3  -2    5.00    2.42
   3   2  -3   66.68    5.28
  -3  -2   3   55.80    5.66
   3  11   7   -1.21    3.74
   3  10   6    1.26    4.40
  -3 -10  -6    2.31    5.66
   3   9   5    6.05    8.47
  -3  -9  -5   12.53    5.00
   3   7   3   19.30    5.72
  -3  -7  -3   26.44    5.55
   3   6   2   70.15    7.04
  -3  -6  -2   74.65    6.21
   3   5   1   80.54    6.32
  -3  -5  -1   74.98    5.99
  -3  -4   0   35.57    7.81
  -3  -2   2   91.42    6.43
   3   1  -3   34.03    2.58
  -3  -1   3   37.99    3.57
   3  11   8    2.42    8.80
  -3 -11  -8    2.53    5.11
   3  10   7   -1.26    3.46
  -3 -10  -7    0.77    5.22
   3   9   6    2.03    6.05
  -3  -9  -6    3.24    6.49
   3   8   5    2.53    5.66
  -3  -8  -5    4.34    6.54
   3   7   4    3.35    5.83
   3   6   3    1.81    3.02
  -3  -6  -3    1.32    2.64
   3   5   2   -1.76    3.74
  -3  -5  -2    1.04    2.42
  -3  -4  -1   12.37    4.29
   3   3   0    0.82    2.53
  -3  -3   0    1.15    2.64
   3   2  -1   14.51    3.74
  -3  -2   1   14.24    2.86
   3  -2  -5   15.39    2.36
   3  -3  -6    5.11    2.64
  -3   5   8    1.98    2.03
   3  10   8    0.93    3.85
  -3 -10  -8    0.49    3.30
   3   8   6    2.03    7.75
  -3  -8  -6    4.45    7.15
   3   7   5    8.63    3.85
  -3  -7  -5    5.33    3.68
   3   6   4   21.38    3.68
  -3  -6  -4   17.26    6.93
   3   5   3   34.85    3.52
  -3  -5  -3   35.18    3.19
   3   4   2   68.11    4.95
  -3  -4  -2   72.78    5.39
   3   3   1   48.60    6.87
   3   2   0   71.58    7.09
  -3  -2   0   84.05    5.06
   3   1  -1   64.04    3.79
  -3  -1   1   55.74    3.08
   3   0  -2   26.99    4.01
   3  -1  -3    0.55    1.98
   3  -3  -5    0.27    2.20
  -3   3   5   -0.11    2.09
   3  -4  -6   11.54    3.02
  -3   4   6    9.07    4.40
  -3 -10  -9   -1.10    4.56
   3   9   8   -0.60    4.95
   3   8   7   10.61    7.92
  -3  -8  -7    0.49    7.37
   3   7   6  106.54    8.14
  -3  -7  -6   91.04    7.75
   3   6   5   45.30    4.95
  -3  -6  -5   37.27    4.73
   3   5   4   90.76    9.57
   3   4   3  100.99    8.52
   3   3   2  101.04   11.49
   3   2   1  226.00   14.18
  -3  -2  -1  220.50   15.06
   3   1   0  123.80    5.83
  -3  -1   0  129.19    7.31
   3   0  -1  152.72    9.18
  -3   0   1  145.29    8.30
   3  -1  -2   69.87    3.41
  -3   1   2   62.01    5.50
   3  -2  -3   53.43    5.22
  -3   2   3   40.57    6.16
   3  -3  -4   25.23    3.30
   3  -4  -5   11.05    3.46
  -3   4   5   12.04    3.96
   3  -5  -6    0.71    2.53
  -3   5   6   -0.44    3.24
  -3 -10 -10    1.59    3.41
   3   9   9    0.27    1.81
  -3  -9  -9    2.31    5.22
   3   8   8    1.59    5.17
  -3  -8  -8   -1.48    4.51
   3   7   7   -2.09    5.00
  -3  -7  -7   -0.05    3.74
   3   6   6    0.11    3.57
   3   5   5   27.32    6.93
  -3  -5  -5   29.63    4.23
   3   4   4   29.80    7.70
  -3  -4  -4   45.90    5.39
   3   2   2   73.33    6.93
  -3  -2  -2   68.88    7.31
   3   1   1    2.80    2.42
   3   0   0   32.27    2.69
  -3   0   0   29.52    2.09
   3  -1  -1   61.63    5.66
  -3   1   1   60.53    4.51
   3  -2  -2   53.05    3.85
  -3   2   2   45.90    5.72
  -3   3   3   40.74    3.41
   3  -4  -4   14.62    3.13
  -3   4   4   13.52    3.13
   3  -5  -5   35.68    4.01
   3  -6  -6    8.47    4.84
  -3   6   6    5.50    3.13
   3  -7  -7    1.70    3.13
  -3   7   7    2.03    3.30
   3   9  10   -1.43    8.47
  -3  -9 -10    0.38    3.85
   3   8   9   -2.86    3.46
  -3  -8  -9    1.98    3.46
   3   7   8    2.69    5.33
  -3  -7  -8    0.16    4.23
   3   6   7   22.65    4.62
  -3  -6  -7   26.22    6.32
   3   4   5    0.44    3.19
  -3  -4  -5    1.76    2.03
   3   2   3    0.22    3.35
  -3  -2  -3   -0.93    2.42
   3   1   2    2.97    1.98
  -3  -1  -2    7.31    1.70
   3   0   1   40.30    2.97
  -3   0  -1   36.61    2.58
  -3   1   0    0.99    1.81
   3  -2  -1   -0.11    1.37
  -3   2   1    0.16    1.87
   3  -3  -2    0.66    1.76
  -3   3   2   -1.04    2.47
   3  -4  -3    8.47    3.19
   3  -5  -4    9.46    4.34
  -3   5   4    5.17    2.97
   3  -6  -5    3.08    5.66
  -3   6   5    1.21    4.78
   3  -7  -6    5.61    4.78
  -3   7   6    2.36    3.08
   3  -8  -7   -2.86    6.54
  -3   8   7    0.22    5.33
   3   9  11    1.59    6.43
  -3  -9 -11   -1.43    6.49
  -3  -8 -10    0.93    3.57
   3   7   9   14.18    5.77
  -3  -7  -9    6.21    5.00
   3   6   8   16.71    5.94
  -3  -6  -8   16.66    7.04
   3   5   7   21.22    6.87
  -3  -5  -7   31.17    6.43
   3   4   6    4.29    6.32
  -3  -4  -6   52.44    5.22
   3   3   5    3.46    3.74
  -3  -3  -5    3.19    2.20
   3   2   4   45.46    3.63
  -3  -2  -4   50.96    4.01
   3   1   3  139.03    7.70
  -3  -1  -3  127.21    6.49
   3   0   2  154.81    6.49
  -3   0  -2  144.96    9.13
  -3   1  -1  112.92    5.44
   3  -2   0   73.00    5.39
  -3   2   0   72.78    6.32
   3  -3  -1    2.47    1.32
  -3   3   1    2.09    2.69
   3  -4  -2   13.85    2.42
   3  -5  -3    5.61    2.75
  -3   5   3    4.18    2.97
  -3   6   4    0.49    4.01
   3  -7  -5   -2.25    5.33
  -3   7   5   -0.11    5.06
   3  -8  -6    0.93    4.62
  -3   8   6    3.68    7.64
   3  -9  -7   -2.42    7.04
  -3  -9 -12   -2.31    6.49
  -3  -8 -11   30.62    8.85
   3   7  10    0.33    7.09
  -3  -7 -10    3.02    5.77
   3   6   9   20.40    4.84
  -3  -6  -9    9.35    4.73
   3   5   8   45.24    6.76
  -3  -5  -8   51.67    6.54
   3   4   7   53.76   10.28
  -3  -4  -7   53.65    5.28
   3   3   6   89.22    6.27
  -3  -3  -6   88.89    8.30
  -3  -2  -5  421.10   23.09
   3   1   4  115.22    6.54
  -3  -1  -4  120.34    6.71
   3   0   3  237.27   14.79
   3  -1   2  314.78   19.63
  -3   1  -2  325.99   15.50
   3  -2   1  124.07    6.82
  -3   2  -1  125.17    5.44
   3  -3   0  160.96    6.93
  -3   3   0  159.26    8.30
   3  -4  -1  168.77    8.52
  -3   4   1  167.50    7.42
   3  -5  -2   35.24    4.12
  -3   5   2   41.18    4.29
   3  -6  -3   34.74    5.99
  -3   6   3   29.36    5.17
   3  -7  -4   20.01    4.89
  -3   7   4   11.76    4.67
   3  -8  -5   -0.49    6.10
  -3   8   5    3.24    4.62
   3  -9  -6    2.09    5.17
  -3   9   6   -0.38    2.58
   3 -10  -7    0.49    7.53
  -3  10   7    1.21    7.48
   3   7  11    1.48    2.53
  -3  -7 -11    2.42    3.74
   3   6  10    5.17    5.17
  -3  -6 -10   -0.44    4.07
   3   5   9    7.48    6.98
  -3  -5  -9    2.53    3.85
   3   4   8    0.27    3.24
  -3  -4  -8    1.26    3.90
   3   3   7   14.13    2.86
   3   2   6    7.92    2.75
  -3  -2  -6    8.41    3.90
   3   1   5    1.54    2.75
  -3  -1  -5    3.79    1.98
   3   0   4   34.14    2.80
  -3   0  -4   32.05    2.36
   3  -1   3   63.77    3.96
  -3   1  -3   55.03    3.19
   3  -2   2   -0.49    1.98
  -3   2  -2    0.66    1.92
   3  -3   1   25.07    2.69
  -3   3  -1   22.04    2.47
   3  -4   0    0.93    1.87
  -3   4   0    0.49    1.98
   3  -5  -1   14.24    4.40
  -3   5   1   15.23    2.80
   3  -6  -2   20.45    4.29
  -3   6   2   18.53    3.79
   3  -7  -3    5.22    5.17
  -3   7   3    1.26    4.40
   3  -8  -4   10.44    6.76
  -3   8   4    0.55    6.93
   3  -9  -5    6.05    4.45
  -3   9   5    1.43    5.39
  -3  10   6    1.26    4.07
   3   7  12    1.21    3.68
   3   6  11   -0.71    6.05
  -3  -6 -11    1.92    5.66
   3   5  10    1.65    2.20
  -3  -5 -10    1.92    3.85
   3   4   9   11.76    5.77
  -3  -4  -9   10.55    5.61
   3   3   8    0.16    5.00
  -3  -2  -7    8.25    4.18
   3   1   6   13.58    4.01
  -3  -1  -6    9.62    3.52
   3   0   5    0.88    3.90
   3  -1   4    2.97    1.87
  -3   1  -4    4.40    2.91
   3  -2   3  102.64    7.81
  -3   2  -3   97.19    5.88
   3  -3   2    8.30    2.64
  -3   3  -2   11.60    2.58
   3  -4   1    0.22    2.47
  -3   4  -1    1.48    2.25
   3  -5   0    0.11    2.47
  -3   5   0    1.10    1.87
   3  -6  -1    1.48    4.12
  -3   6   1    1.04    3.24
   3  -7  -2    8.52    3.68
  -3   7   2    9.18    5.99
   3  -8  -3    7.04    3.68
  -3   8   3   11.54    4.23
  -3   9   4   -0.05    6.98
   3 -10  -5    3.08    6.32
  -3  10   5    1.37    5.94
  -3  11   6   -1.32   10.94
   3   6  12    1.21    4.23
  -3  -6 -12    3.24    5.00
   3   5  11    3.68    4.56
  -3  -5 -11    2.42    5.39
  -3  -4 -10   27.82    5.72
   3   3   9   39.14    6.49
  -3  -3  -9   34.19    6.71
   3   2   8   50.36    8.14
  -3  -2  -8   48.43    4.18
   3   1   7    1.10    3.41
   3  -1   5   69.05    5.11
  -3   1  -5   77.62    6.76
   3  -2   4  329.79   16.60
  -3   2  -4  332.92   11.71
   3  -3   3  101.21    6.87
  -3   3  -3   96.48    4.78
   3  -4   2   91.75    4.78
  -3   4  -2   91.04    5.50
   3  -5   1    0.22    3.79
  -3   5  -1   -0.33    2.53
   3  -6   0   10.55    3.08
  -3   6   0    9.40    5.06
   3  -7  -1   12.97    3.13
  -3   7   1    4.23    5.50
   3  -8  -2   24.74    5.00
  -3   8   2   14.68    5.50
   3  -9  -3   -0.44    4.29
  -3   9   3    2.09    4.34
  -3  10   4   -0.88    9.18
   3 -11  -5    3.41    8.74
  -3  11   5   -0.93    5.33
   3 -12  -6   -5.11    6.60
  -3  12   6    0.93    9.02
   3   6  13   36.50    8.14
  -3  -5 -12    2.91    4.73
  -3  -3 -10    1.37    4.84
   3   2   9   28.86    4.95
  -3  -2  -9   21.55    4.07
   3   1   8   49.97    5.22
   3   0   7  577.11   21.71
   3  -1   6   21.16    4.40
  -3   1  -6   29.41    3.96
   3  -2   5  110.28    5.50
  -3   2  -5  111.87    5.11
   3  -3   4   14.18    2.03
  -3   3  -4   15.89    2.14
   3  -4   3   88.23    4.56
  -3   4  -3   85.81    5.00
   3  -5   2  161.57   11.98
  -3   5  -2  147.49    8.08
   3  -6   1  347.10   23.09
  -3   6  -1  357.16   21.44
   3  -7   0   21.88    3.41
  -3   7   0   17.59    4.67
   3  -8  -1   26.39    6.98
  -3   8   1   28.15    8.36
   3  -9  -2    9.13    4.34
  -3   9   2    5.11    5.39
   3 -10  -3    5.88    4.34
  -3  10   3    2.14    8.74
   3 -11  -4    3.68    4.78
  -3  11   4    0.88    3.85
   3 -12  -5    3.35    4.62
  -3  12   5    2.64    8.14
  -3  -6 -14    1.59    6.82
  -3  -5 -13   24.68    8.03
  -3  -4 -12   -0.22    4.01
   3   3  11    0.38    4.07
  -3  -3 -11    0.05    2.75
   3   2  10    0.66    4.67
  -3  -1  -9    5.17    5.06
   3  -1   7   49.37    5.22
  -3   1  -7   53.05    3.24
   3  -2   6    4.67    1.87
  -3   2  -6    4.34    2.47
   3  -3   5    5.83    2.97
   3  -4   4    1.98    2.25
  -3   4  -4    1.04    2.47
   3  -5   3   27.98    3.13
  -3   5  -3   27.54    3.35
   3  -6   2  156.67   11.87
  -3   6  -2  161.07    9.02
   3  -7   1   -0.38    3.52
  -3   7  -1    2.86    3.90
   3  -8   0    5.72    3.46
  -3   8   0    8.30    7.26
   3  -9  -1   22.21    4.67
  -3   9   1   11.71    5.11
   3 -10  -2    6.98    7.81
  -3  10   2    3.57    5.61
   3 -11  -3    4.01   10.72
  -3  11   3   -2.14    6.93
   3 -12  -4    9.29    3.52
  -3  12   4    2.20    5.17
   3   5  14    5.83    4.29
   3   4  13    0.55    4.18
   3   3  12    0.27    3.79
   3   1  10   -0.93    4.01
  -3  -1 -10    1.43    2.80
   3   0   9    5.61    2.97
  -3   0  -9    6.27    4.01
   3  -1   8  121.33    6.49
  -3   1  -8  130.07    5.72
   3  -2   7   13.74    3.35
  -3   2  -7   12.15    3.02
   3  -3   6    2.14    3.19
  -3   3  -6    3.52    2.20
   3  -4   5   18.47    2.75
  -3   4  -5   16.27    4.07
   3  -5   4   -0.33    2.80
  -3   5  -4    1.98    3.19
   3  -6   3   13.36    4.95
  -3   6  -3   13.41    3.85
   3  -7   2  114.78    9.84
  -3   7  -2  101.21   10.12
   3  -8   1   -0.44    3.68
  -3   8  -1    5.28    6.54
   3  -9   0    0.00    3.96
  -3   9   0    1.21    4.23
   3 -10  -1    5.00    7.26
  -3  10   1   -0.55    6.05
   3 -11  -2    0.55    5.28
  -3  11   2    2.53    6.05
  -3  12   3    0.55    8.30
  -3  -3 -13    1.26    7.20
   3   2  12    0.22    2.03
  -3  -1 -11    3.63    4.84
   3   0  10   23.20    4.23
   3  -1   9   63.71    5.17
  -3   1  -9   62.06    5.88
   3  -2   8   78.89    5.00
  -3   2  -8   80.48    5.83
   3  -3   7   44.86    5.28
  -3   3  -7   50.36    5.83
   3  -4   6    2.58    3.79
  -3   4  -6    5.50    4.34
   3  -5   5   22.87    3.74
  -3   5  -5   39.20    4.01
   3  -6   4   41.01    3.96
  -3   6  -4   44.25    4.67
   3  -7   3  126.60   10.77
  -3   7  -3  127.65   11.76
   3  -8   2   23.25    4.07
  -3   8  -2   19.96    5.22
   3  -9   1   24.90    3.90
  -3   9  -1   27.60    8.36
   3 -10   0    0.71    4.40
  -3  10   0   -0.66    6.71
   3 -11  -1   -5.33    8.14
  -3  11   1   -0.22   10.77
  -3  12   2    1.15   10.28
   3 -13  -3   -0.22    6.71
   3   3  14   -2.20    4.34
   3   2  13   -1.48    3.90
   3   0  11   -0.49    4.45
   3  -1  10   16.11    4.73
   3  -2   9   20.29    5.11
  -3   3  -8    4.89    4.07
   3  -4   7   34.30    5.50
  -3   4  -7   37.33    4.18
   3  -5   6  128.97   10.23
  -3   5  -6  145.18    7.20
   3  -6   5   10.12    3.41
  -3   6  -5   16.22    3.52
   3  -7   4   33.31    4.84
  -3   7  -4   39.31    4.78
   3  -8   3   59.04    4.62
  -3   8  -3   62.39    9.40
   3  -9   2   18.20    4.12
  -3   9  -2    7.70    4.95
   3 -10   1   35.46    7.48
  -3  10  -1   36.45    7.97
   3 -11   0   35.24   10.50
  -3  11   0   32.32    6.82
  -3  12   1    4.40    9.51
  -3  -2 -14   -0.27    2.31
   3   0  12    4.78    3.74
   3  -1  11    1.04    4.89
  -3   1 -11    3.90    5.00
   3  -2  10   25.67    5.88
  -3   2 -10   29.85    4.34
   3  -3   9    8.47    3.24
   3  -4   8    1.92    4.23
  -3   4  -8   -0.82    3.30
   3  -5   7   26.94    4.01
  -3   5  -7   19.52    4.01
   3  -6   6   -1.43    4.01
  -3   6  -6    0.33    5.66
   3  -7   5    4.07    3.79
  -3   7  -5    2.09    6.49
   3  -8   4   24.41    3.96
  -3   8  -4   23.80    7.92
   3  -9   3    1.65    3.46
  -3   9  -3    1.92    8.52
   3 -10   2    0.71    4.45
  -3  10  -2   -0.93    4.84
   3 -11   1    0.88    4.07
  -3  11  -1    1.48    4.51
   3 -12   0    3.90    6.65
  -3   1 -12   -2.36    4.18
  -3   2 -11   -2.69    4.84
  -3   3 -10   16.16    4.34
   3  -4   9    2.47    4.89
  -3   4  -9   -0.38    5.50
   3  -5   8    0.16    4.67
  -3   5  -8    1.43    4.12
   3  -6   7    1.43    3.79
  -3   6  -7   -3.52    5.99
   3  -7   6    5.11    6.43
  -3   7  -6    4.29    7.04
   3  -8   5    2.58    4.56
  -3   8  -5    6.54    5.28
   3  -9   4   27.93    4.62
  -3   9  -4   18.69    9.35
   3 -10   3    1.70    5.50
  -3  10  -3    2.86    9.73
   3 -11   2    2.20    7.70
  -3  11  -2   -1.15    5.77
   3 -12   1    1.32    3.24
  -3  12  -1   -0.99    2.75
  -3   2 -12    5.94    6.93
   3  -3  11   32.16    6.27
  -3   3 -11   25.56    5.50
   3  -4  10   35.84    8.25
   3  -5   9   13.74    3.35
  -3   5  -9    9.90    5.06
   3  -6   8   -0.16    6.43
  -3   7  -7   12.70    8.14
   3  -8   6   26.06    7.81
  -3   8  -6   19.57    6.16
   3  -9   5   70.53    8.19
  -3   9  -5   68.17   13.19
   3 -10   4   18.31    3.96
   3 -11   3    9.79    8.08
  -3  11  -3    2.64    4.78
  -3  12  -2    0.44    3.35
  -3   3 -12    0.38    2.86
   3  -4  11   -0.55    2.47
   3  -5  10    2.03    4.45
  -3   6  -9   15.83    5.44
  -3   7  -8   78.39    9.57
   3  -8   7    5.94    5.72
  -3   8  -7    4.23    5.39
   3  -9   6    2.58    5.22
  -3   9  -6    0.88    5.11
   3 -10   5    0.49    4.51
  -3  10  -5   -5.88   10.94
   3 -11   4   -1.65    4.29
  -3  11  -4    0.77    3.52
  -3  12  -3   21.27    8.69
   3  -5  11    1.48    5.11
   3  -6  10    5.88    6.54
   3  -7   9   45.90    9.40
  -3   7  -9   50.69   10.94
   3  -8   8    5.66    7.59
  -3   8  -8    7.20    5.55
   3  -9   7    5.50    7.31
   3 -10   6   -3.96    3.74
  -3  10  -6    0.82    7.92
   3 -11   5    0.99    7.20
  -3  11  -5    1.54    5.28
  -3  12  -4   -0.38    5.28
   3  -7  10    4.51    5.55
   3  -8   9   21.66    6.71
  -3   8  -9    4.29   10.28
   3  -9   8    4.73    9.68
   4  10  -2   -0.66    7.48
   4  10  -1   -0.33    5.17
  -4 -10   1    4.01    5.77
   4   9  -2    0.33    5.94
  -4  -9   2    7.86    5.22
  -4  -8   3   -0.16    4.62
  -4 -11  -1    0.16    6.98
   4   9  -1    7.15    5.77
  -4  -9   1   39.36    5.88
   4   8  -2   -0.99    2.58
  -4  -8   2   -1.37    2.20
   4   7  -3    1.43    3.63
   4   6  -4    0.93    3.96
   4  10   1   -5.50    6.76
  -4 -10  -1    1.43    5.44
   4   9   0   34.52    5.33
  -4  -9   0   45.08    4.73
  -4  -7   2    3.08    4.45
   4   6  -3   12.48    4.89
  -4  -6   3    6.49    4.12
   4  11   3    7.81    9.73
   4   9   1    3.02    7.31
  -4  -9  -1    4.84    5.66
   4   8   0   88.01    8.96
  -4  -8   0   70.04    5.50
   4   7  -1    0.55    4.23
   4   6  -2    1.37    3.85
  -4  -6   2   -0.66    4.45
  -4  -5   3   28.15    3.96
   4   4  -4    4.12    2.20
  -4  -4   4    1.32    1.81
   4  11   4    0.05    9.02
   4  10   3   25.78    9.57
  -4 -10  -3   28.31    6.16
   4   9   2    2.20    8.03
  -4  -9  -2   -3.02    5.66
   4   8   1    4.23    3.08
  -4  -8  -1    3.19    3.79
   4   7   0   11.05    4.29
  -4  -7   0   14.29    3.57
   4   6  -1   -2.69    3.85
   4   5  -2    6.82    3.46
  -4  -5   2   12.42    3.96
   4   4  -3   12.48    2.91
  -4  -4   3   16.00    4.07
   4   3  -4    0.44    1.81
  -4  -3   4    0.38    1.43
   4  11   5    2.36    9.02
  -4 -11  -5    4.12    6.71
   4  10   4   28.86    7.97
  -4 -10  -4   26.88    5.66
   4   9   3    0.22    2.25
  -4  -9  -3   -1.87    4.18
   4   8   2    3.46    5.06
  -4  -8  -2    5.33    6.10
   4   7   1    2.86    3.52
  -4  -7  -1    4.12    2.53
   4   6   0    0.49    3.19
  -4  -6   0    1.70    3.68
   4   5  -1   11.21    3.85
  -4  -5   1   10.99    3.19
  -4  -4   2  102.64    9.40
   4   3  -3    7.15    2.86
  -4  -3   3   13.41    4.40
   4   2  -4    2.20    1.21
   4   9   4   66.52    5.44
  -4  -9  -4   76.96    6.87
   4   8   3    5.88    4.07
  -4  -8  -3    6.87    4.56
  -4  -6  -1  297.63   21.82
   4   5   0   12.04    2.69
  -4  -5   0   14.40    2.97
  -4  -4   1  219.01   20.94
  -4 -10  -6   -0.55    3.13
   4   9   5    8.74    7.81
  -4  -9  -5    4.23    4.84
   4   8   4   -0.16    4.40
  -4  -8  -4   -0.11    4.84
   4   7   3   15.61    5.22
  -4  -7  -3   17.59    5.94
  -4  -6  -2  258.43   19.63
   4   5   1    1.48    2.53
  -4  -5  -1    3.30    3.41
  -4  -4   0    7.92    3.90
   4   3  -1   12.81    3.79
  -4  -3   1    5.88    2.42
   4   2  -2    3.13    3.13
  -4  -2   2    5.28    2.69
   4   1  -3   15.61    2.53
   4   0  -4  145.62    8.58
   4   9   6    0.66    4.67
  -4  -9  -6    1.43    5.72
   4   7   4    5.33    3.74
  -4  -7  -4    0.66    3.24
   4   6   3    2.64    4.73
  -4  -6  -3    9.62    3.52
   4   5   2   74.27    7.20
  -4  -5  -2  106.43    7.48
  -4  -4  -1   26.22    3.90
   4   3   0   38.04    4.29
  -4  -3   0   34.69    5.99
   4   2  -1   56.35    4.45
  -4  -2   1   38.59    4.67
   4   1  -2    6.65    1.81
  -4  -1   2   11.60    2.64
   4   0  -3  114.18    7.92
   4  -1  -4    9.73    2.86
  -4   1   4   13.08    2.97
   4  -2  -5    0.55    1.87
   4  10   8  104.17    8.47
   4   9   7    4.56    2.75
  -4  -9  -7   16.99    3.90
  -4  -8  -6  154.70   20.40
   4   7   5    6.10    4.40
  -4  -7  -5    9.68    4.23
   4   6   4    9.73    4.84
  -4  -6  -4   17.59    6.49
   4   5   3  408.51   20.94
   4   4   2   15.94    3.52
  -4  -3  -1  315.82   20.01
  -4  -2   0 1200.29   41.07
  -4  -1   1  334.68   12.86
  -4   0   2   13.80    2.97
   4  -1  -3  347.60   19.46
   4  -2  -4    8.30    2.58
  -4   4   6  107.86    8.80
   4  -5  -7    1.98    1.59
  -4   5   7   11.32    2.75
   4   9   8    0.16    2.64
   4   6   5    3.19    3.24
  -4  -6  -5    0.93    4.62
   4   5   4  101.59    8.47
  -4  -5  -4  116.27   11.93
   4   4   3  118.30    8.36
  -4  -4  -3  134.63   13.14
   4   3   2   69.38    7.53
  -4  -3  -2   76.63    8.47
  -4  -2  -1 2517.84  109.51
   4   1   0 2869.17  119.73
   4  -1  -2  137.32    6.98
   4  -2  -3   96.37    5.28
  -4   2   3  140.18   10.01
  -4   3   4    4.89    2.97
   4  -4  -5  549.73   29.30
  -4   5   6   54.20    6.38
  -4   6   7    0.55    1.92
   4   9   9    3.96    3.35
   4   8   8    4.78    5.61
  -4  -7  -7  459.14   37.88
   4   6   6   10.44    6.27
  -4  -6  -6    5.11    5.99
   4   5   5    4.45    3.63
  -4  -5  -5    2.31    3.24
   4   4   4   76.58    9.68
  -4  -4  -4   91.97    8.52
   4   3   3   41.29    4.73
  -4  -3  -3   42.16    3.74
   4   2   2  172.95   11.38
  -4  -2  -2  192.57   12.81
   4  -1  -1   39.53    3.19
  -4   1   1   28.59    4.67
   4  -2  -2   86.58    7.59
  -4   2   2   78.56    7.09
  -4   4   4    0.99    3.90
  -4   5   5  370.52   21.71
   4  -6  -6    9.62    3.24
  -4   6   6    4.89    5.06
  -4  -8  -9    0.44    2.91
   4   7   8    3.63    7.04
  -4  -7  -8    2.97    4.51
  -4  -6  -7   66.35   12.37
   4   5   6   51.78    8.41
  -4  -5  -6   37.66    5.83
   4   4   5   82.02    9.68
  -4  -4  -5   74.82    8.91
   4   3   4  348.70   16.66
  -4  -2  -3   65.80    7.86
  -4  -1  -2   96.20   11.71
  -4   1   0   52.11    5.11
   4  -2  -1  242.60   15.89
  -4   2   1  309.94   13.74
   4  -3  -2   85.26    7.75
   4  -4  -3   48.21    7.37
  -4   4   3   43.81    4.51
   4  -5  -4   45.13    3.74
  -4   5   4   52.17    5.99
   4  -6  -5    0.05    2.58
  -4   6   5   -0.60    3.41
  -4   7   6    0.22    4.29
   4   7   9    6.76    7.04
  -4  -7  -9    7.59    4.67
   4   6   8   49.59   10.39
  -4  -6  -8   58.22   11.10
   4   5   7   17.54    6.49
  -4  -5  -7   28.09    4.95
   4   4   6  195.05   15.56
  -4  -4  -6  216.21   15.45
   4   2   4  346.22   23.36
  -4  -2  -4  360.02   17.10
  -4  -1  -3  228.36   15.45
  -4   0  -2  567.22   26.83
   4  -1   1  217.64   15.94
   4  -2   0  349.25   14.02
  -4   2   0  332.53   19.13
   4  -3  -1  211.92   11.93
   4  -4  -2  197.74   14.51
  -4   4   2  180.09    8.85
   4  -5  -3   19.13    4.45
  -4   5   3   20.12    3.79
   4  -6  -4   36.12    9.40
  -4   6   4   48.49    8.36
   4  -7  -5    1.04    4.95
  -4   7   5    3.35    3.90
   4  -8  -6    1.76    4.34
  -4  -9 -12    2.53    4.56
   4   8  11   16.22    5.66
  -4  -8 -11   27.87    7.15
   4   7  10    2.75    6.82
  -4  -7 -10   -3.52    8.52
   4   6   9   32.71   10.39
  -4  -6  -9   53.10    9.90
   4   5   8  110.99   14.79
  -4  -5  -8  120.23    8.80
   4   4   7   14.29    6.93
  -4  -4  -7   15.72    6.60
   4   3   6  383.11   28.26
  -4  -3  -6  390.59   28.15
   4   2   5 1000.63   44.03
  -4  -2  -5  982.43   31.72
   4   1   4   57.01    5.11
  -4  -1  -4   59.10    4.78
   4   0   3  934.93   44.20
  -4   0  -3  903.87   40.85
   4  -1   2  957.97   33.53
  -4   1  -2  966.87   46.07
   4  -2   1   66.35    4.89
  -4   2  -1   63.71    7.04
   4  -3   0 1026.79   35.35
  -4   4   1  373.87   17.81
   4  -5  -2   16.82    3.90
  -4   5   2   15.89    3.57
   4  -6  -3  120.72   10.99
   4  -7  -4   38.43    6.71
   4  -8  -5    0.16    3.19
  -4   8   5   -0.22    2.03
   4  -9  -6   31.88    5.72
  -4   9   6   27.82    5.83
   4   8  12   -1.65    3.24
  -4  -8 -12    2.09    4.18
   4   5   9   55.80    5.50
  -4  -5  -9  109.34    8.41
   4   4   8   11.10    4.84
  -4  -4  -8   13.47    4.34
   4   3   7    1.21    3.02
  -4  -3  -7    1.21    3.02
   4   2   6  168.88    9.29
  -4  -2  -6  208.73   10.50
   4   1   5   36.61    5.33
  -4  -1  -5   35.18    2.91
  -4   1  -3 1173.13   50.85
   4  -3   1   32.38    3.68
  -4   3  -1   35.35    3.90
   4  -4   0  207.03   12.20
  -4   4   0  201.15   10.77
   4  -5  -1    0.33    3.19
  -4   5   1    0.11    3.13
   4  -6  -2   13.58    4.07
  -4   6   2   19.52    6.82
   4  -7  -3  104.45    7.53
  -4   7   3  103.08    9.40
   4  -8  -4    0.93    3.02
  -4   8   4    5.33    4.84
  -4   9   5    2.31    8.52
   4 -10  -6    0.16    4.56
  -4  10   6    2.69    5.44
   4   8  13   -1.15    5.99
  -4  -8 -13    1.10    6.71
   4   6  11    1.98    4.95
   4   5  10    1.81    3.35
  -4  -5 -10    2.69    4.29
  -4  -4  -9    0.88    3.90
  -4  -3  -8   56.24    7.26
  -4  -2  -7   71.74   11.16
   4   1   6  151.01   12.53
  -4  -1  -6  152.99    7.70
   4   0   5  181.58   10.83
  -4   0  -5  167.28    9.40
   4  -1   4    4.95    2.31
  -4   1  -4    3.63    3.02
   4  -2   3    4.01    2.86
   4  -3   2  195.60    8.80
  -4   3  -2  202.30   13.03
   4  -4   1  157.61    9.73
  -4   4  -1  148.59   11.32
   4  -5   0  102.42    9.02
  -4   5   0   95.93    9.90
   4  -6  -1   45.79    8.41
  -4   6   1   55.74    5.44
   4  -7  -2    9.51    4.12
  -4   7   2    3.96    6.76
   4  -8  -3    4.34    5.83
  -4   8   3    6.71    3.96
   4  -9  -4   -1.48    4.12
  -4   9   4    0.27    3.13
   4 -10  -5   -1.21    4.56
  -4  10   5   -1.37    3.96
   4   5  11    4.51    5.06
  -4  -5 -11    4.29    5.11
  -4  -4 -10   91.04   11.49
  -4  -3  -9   21.71    5.83
   4   2   8  129.46   13.30
  -4  -2  -8  131.22   10.94
   4   1   7   35.90    4.51
  -4  -1  -7   44.14    6.71
   4   0   6  321.81   18.91
  -4   0  -6  315.66   13.63
   4  -1   5  161.46    7.92
  -4   1  -5  182.84    9.24
   4  -2   4 1293.85   55.19
  -4   2  -4 1324.86   61.85
   4  -3   3  183.45    8.96
  -4   3  -3  173.39   11.49
   4  -4   2  355.84   19.35
  -4   4  -2  344.85   13.74
   4  -5   1   33.42    3.96
  -4   5  -1   34.14    4.01
   4  -6   0  173.99   11.71
  -4   6   0  159.92   13.08
   4  -8  -2  135.95    8.36
  -4   8   2  121.55    9.90
   4  -9  -3    2.20    3.08
  -4   9   3    3.90    7.92
  -4  11   5    4.56    7.37
   4   6  13   55.25    6.71
   4   5  12   -0.05    2.97
   4   4  11   -3.79    6.21
  -4  -4 -11    5.44    6.54
   4   3  10    0.82    4.07
  -4  -3 -10    1.32    5.99
   4   2   9    4.73    4.23
  -4  -2  -9    0.27    4.18
   4   1   8  217.53   11.32
  -4  -1  -8  233.80   14.18
   4   0   7  514.44   28.42
   4  -1   6   10.99    3.19
  -4   1  -6   10.12    4.12
   4  -2   5   46.40    3.68
   4  -3   4   51.78    5.77
  -4   3  -4   50.03    4.73
   4  -4   3   12.09    3.24
  -4   4  -3    8.19    2.80
   4  -5   2  618.45   36.67
  -4   5  -2  603.00   34.03
   4  -6   1  282.12   15.39
  -4   6  -1  285.20   17.10
   4  -7   0    5.00    4.78
  -4   7   0    7.86    5.44
   4  -8  -1    5.77    4.01
  -4   8   1    1.59    8.30
   4  -9  -2   10.83    5.83
  -4   9   2    8.96    9.95
   4 -10  -3    1.92    3.52
  -4  10   3    0.44    4.62
   4 -11  -4   65.53   16.49
  -4  11   4   29.30    6.60
   4 -12  -5   -3.63    4.84
   4   6  14    2.58    3.57
  -4  -6 -14    5.66    6.32
   4   3  11    1.87    5.39
   4   2  10   19.19    4.07
  -4  -2 -10   25.40    4.01
  -4  -1  -9   -1.59    5.06
   4   0   8  674.74   21.99
   4  -1   7   37.22    3.85
  -4   1  -7   33.59    3.24
   4  -2   6   69.21    8.03
  -4   2  -6   75.53    6.87
  -4   3  -5   23.03    4.40
   4  -4   4   84.77    8.03
  -4   4  -4   87.08    6.71
   4  -5   3   30.51    8.80
  -4   5  -3   45.41    4.51
   4  -6   2  914.15   41.34
  -4   6  -2  844.72   39.03
   4  -7   1    0.44    3.68
  -4   7  -1    3.41    6.60
   4  -8   0   28.75    5.00
  -4   8   0   36.17    5.17
   4  -9  -1    3.35    4.51
  -4   9   1   -2.80    6.60
   4 -10  -2   -0.49    4.18
  -4  10   2    1.37    4.84
  -4  11   3    1.59    3.41
  -4  12   4   22.04    7.37
   4   5  14    9.13    5.55
  -4  -5 -14    5.44    5.44
   4   1  10   25.84    7.09
  -4  -1 -10   26.39    6.60
   4   0   9   16.93    5.72
  -4   0  -9    3.79    4.07
   4  -1   8    0.49    4.12
  -4   1  -8   -2.69    3.90
   4  -2   7  160.36    8.74
  -4   2  -7  180.20   10.72
   4  -4   5  178.61   12.09
  -4   4  -5  179.49   11.98
   4  -5   4  190.87   16.16
  -4   5  -4  204.72   10.28
   4  -6   3    0.60    3.02
  -4   6  -3    0.16    3.24
   4  -7   2   13.47    4.18
  -4   7  -2   14.46    6.65
   4  -8   1   46.67    8.14
   4  -9   0   45.90    5.83
   4 -10  -1   14.46    6.49
  -4  10   1   21.60    6.93
   4 -11  -2    7.42    8.47
   4 -12  -3    7.37    5.77
  -4  12   3    4.78   10.94
   4   2  12    0.99    5.33
  -4  -2 -12   -1.48    5.55
   4   1  11   19.46    3.68
  -4  -1 -11    4.01    2.42
   4   0  10   24.19    4.07
  -4   0 -10   23.97    6.38
   4  -1   9   96.64   10.94
  -4   1  -9  118.08    5.77
   4  -2   8   84.38    5.99
  -4   2  -8   90.60    7.75
   4  -3   7  126.88    6.82
  -4   3  -7  126.88    6.27
   4  -4   6   27.27    3.79
  -4   4  -6   25.12    5.11
  -4   5  -5  154.81   12.86
   4  -6   4  131.33   11.16
  -4   6  -4  124.02    9.90
   4  -7   3  174.16   10.28
  -4   7  -3  186.08    9.18
   4  -8   2   36.39    7.48
   4  -9   1   35.02    5.17
  -4   9  -1   39.09   10.06
   4 -10   0   -2.91    6.21
   4 -11  -1   13.14    5.94
  -4  11   1   10.77    5.99
   4   1  12   14.13    5.00
  -4  -1 -12   16.22    3.68
   4   0  11    0.99    6.32
   4  -2   9   11.93    4.12
  -4   2  -9    7.26    3.63
   4  -3   8    1.32    3.68
  -4   3  -8    2.09    4.95
  -4   4  -7   25.18    5.00
   4  -5   6   26.83    4.29
  -4   5  -6   29.30    4.07
   4  -6   5    0.22    3.79
  -4   6  -5    1.65    4.18
   4  -7   4    6.76    5.50
  -4   7  -4    9.79    3.96
   4  -8   3   16.22    4.73
  -4   8  -3   16.16    5.39
   4  -9   2    2.42    4.12
  -4   9  -2    2.58    9.29
   4 -10   1   31.61    5.66
  -4  10  -1   34.03    5.61
   4 -11   0    2.91    6.87
  -4  11   0    2.53    6.16
   4 -12  -1    2.20    4.84
   4   0  12    4.40    3.96
  -4   0 -12   17.70    4.67
   4  -1  11   14.35    5.11
   4  -2  10   96.70    7.26
   4  -3   9   34.63    5.39
  -4   3  -9   42.38    5.99
   4  -4   8   49.97    4.51
  -4   4  -8   40.57    7.31
   4  -5   7  132.71   10.77
  -4   5  -7  138.15    7.20
   4  -6   6   65.47    5.77
  -4   6  -6   69.38    5.44
   4  -7   5   70.86    8.25
  -4   7  -5   63.93    6.49
   4  -8   4  138.48    9.13
  -4   8  -4  132.98    9.13
   4  -9   3   17.92    6.27
  -4   9  -3   26.44   10.06
   4 -10   2   21.05    7.97
  -4  10  -2   14.95    7.97
   4 -11   1   21.27    5.17
  -4  11  -1    9.79   10.28
   4 -12   0   -2.14    4.67
   4  -1  12   12.20    6.54
  -4   1 -12   17.59    5.39
   4  -2  11    8.91    3.96
  -4   2 -11    9.18    4.56
   4  -3  10   26.33    6.54
   4  -4   9   76.08    6.05
  -4   4  -9   70.64    5.39
   4  -5   8   62.39    7.31
  -4   5  -8   68.83    6.21
  -4   6  -7   74.98    7.86
  -4   7  -6   79.99    9.07
  -4   8  -5   21.71    6.05
   4  -9   4   24.57    5.28
  -4   9  -4   28.15    9.84
   4 -10   3   32.98    8.03
  -4  10  -3   32.54    7.92
   4 -11   2    7.53    4.51
  -4  11  -2    4.62    7.15
   4  -2  12    4.29    5.06
   4  -3  11   27.05    4.62
   4  -4  10    8.41    5.83
  -4   4 -10   17.65    6.21
   4  -5   9   20.51    6.76
  -4   5  -9   18.47    4.23
   4  -6   8    5.61    5.44
  -4   6  -8    9.02    5.83
   4  -7   7   19.46    5.94
  -4   7  -7   18.58    6.43
   4  -8   6    2.03    3.96
  -4   8  -6   26.72    9.07
   4  -9   5   34.85    7.53
  -4   9  -5   41.29    7.53
   4 -10   4   14.29    7.42
  -4  10  -4   10.94    7.37
   4 -11   3    3.13    5.06
  -4  11  -3    4.34   10.17
   4  -3  12    1.04    5.66
  -4   3 -12    0.44    2.80
  -4   4 -11    1.10    5.55
   4  -5  10    4.23    6.82
  -4   5 -10    1.37    6.98
  -4   6  -9   -0.27    4.62
   4  -7   8    0.05    5.00
  -4   7  -8    2.25    4.95
   4  -8   7    3.85    5.33
  -4   8  -7   -0.27   10.23
   4  -9   6    4.78    7.53
  -4   9  -6    2.25    9.84
   4 -10   5   -0.38    7.09
  -4  10  -5    4.07    5.66
   4 -11   4   -0.44    3.46
  -4  11  -4    0.00    7.48
  -4   4 -12   16.71    6.60
  -4   5 -11   14.18    5.06
   4  -6  10   19.68    5.66
  -4   6 -10   18.53    5.66
   4  -7   9   38.98    6.27
  -4   7  -9   57.61   10.77
   4  -8   8   26.11    6.49
  -4   8  -8   20.29    8.47
   4  -9   7   19.79    6.60
  -4   9  -7   20.83    8.30
   4 -10   6   19.30    5.28
  -4  10  -6   -0.66    7.97
   4  -6  11   18.97    8.96
  -4   7 -10   18.09    6.65
   4  -8   9    9.02    8.08
  -4   8  -9    3.35    9.18
   4  -9   8   20.72    4.51
  -4   9  -8    5.77    6.54
   4 -10   7    2.03    4.01
  -5  -9   2    2.53    6.05
  -5  -8   2    1.26    4.18
  -5  -7   3   -0.27    3.13
   5   6  -4    1.81    2.25
  -5  -8   1   -0.11    3.63
   5   7  -2    0.93    3.63
  -5  -7   2    0.27    3.41
   5   6  -3   -1.21    3.46
   5   4  -5   -0.05    2.42
  -5  -9  -1    0.05    3.35
  -5  -8   0   34.14    7.97
   5   7  -1    0.71    1.43
   5   6  -2    0.22    1.81
  -5  -4   4    2.47    2.09
   5   9   2    0.38    1.15
  -5  -9  -2    1.92    5.28
   5   8   1    0.33    3.63
  -5  -7   0    2.31    3.41
   5   6  -1   19.96    6.27
   5   5  -2   26.66    3.52
  -5  -5   2    0.99    2.53
   5   4  -3   19.30    4.84
  -5  -4   3   13.30    1.98
   5   9   3    3.02    4.29
  -5  -9  -3    0.05    2.80
   5   8   2    1.98    7.59
   5   7   1   -0.05    2.69
  -5  -7  -1    2.03    3.19
   5   6   0    0.66    5.28
  -5  -6   0    0.82    3.30
   5   5  -1    3.74    4.51
  -5  -5   1   -1.26    4.34
  -5  -4   2    0.55    2.69
   5  10   5   -2.97    6.32
   5   8   3    0.27    3.35
  -5  -8  -3    4.23    3.96
   5   7   2    0.77    4.01
  -5  -7  -2    0.16    4.23
   5   6   1    2.75    4.45
  -5  -6  -1    0.27    4.95
   5   5   0    4.23    4.40
  -5  -5   0   -0.38    4.07
   5   4  -1   -3.46    5.72
  -5  -4   1    0.27    2.64
   5   3  -2   -0.71    3.63
  -5  -3   2    2.42    3.41
   5   2  -3    0.55    2.20
   5  10   6   -0.16    1.65
  -5 -10  -6    1.54    3.90
   5   9   5    0.27    4.51
   5   8   4    2.42    3.13
  -5  -8  -4   -1.81    6.05
   5   7   3   15.67    4.34
  -5  -7  -3    7.15    4.12
  -5  -6  -2   -4.34    5.11
  -5  -5  -1   11.21    5.94
   5   4   0   17.26    5.99
  -5  -4   0   26.88    5.83
   5   3  -1    8.08    2.75
   5   2  -2    3.74    2.80
  -5  -2   2   14.13    4.56
   5   0  -4   29.69    3.68
   5   9   6    4.56    6.65
   5   8   5    2.64    3.46
  -5  -8  -5    2.20    3.96
   5   7   4   10.39    4.40
  -5  -7  -4    3.90    3.79
   5   6   3    3.08    3.08
  -5  -6  -3   14.46    4.18
   5   5   2   23.14    5.00
  -5  -5  -2   30.02    5.11
   5   3   0   10.50    4.29
  -5  -3   0   12.92    5.66
  -5  -2   1   32.49    4.29
   5   9   7    2.09    4.67
  -5  -9  -7    0.00    3.79
   5   8   6   12.92    6.38
  -5  -8  -6    1.81    5.99
   5   7   5    1.43    2.47
  -5  -7  -5    2.20    3.90
   5   6   4   -0.44    3.85
  -5  -6  -4    0.16    3.52
  -5  -5  -3    0.00    4.51
   5   4   2    1.76    4.95
  -5  -4  -2    0.88    4.34
   5   3   1    6.98    3.68
  -5  -3  -1   12.04    3.79
  -5  -2   0   -0.38    4.18
   5   1  -1    5.66    4.40
  -5  -1   1    5.83    2.58
   5  -1  -3    5.50    4.12
  -5   1   3    4.29    3.52
  -5   2   4   -0.33    2.53
   5  -3  -5    0.22    2.09
   5   9   8   -0.33    7.20
   5   8   7   22.04    7.75
   5   7   6   30.90    7.64
  -5  -7  -6    7.26    5.17
  -5  -6  -5    1.54    6.16
  -5  -5  -4   11.87    4.29
   5   4   3   17.98    4.34
  -5  -4  -3   19.08    4.01
   5   3   2   26.39    5.00
  -5  -3  -2   16.93    4.01
   5   2   1   43.10    6.16
  -5  -2  -1   50.14    5.11
   5   1   0   21.05    2.86
  -5  -1   0   16.82    3.41
   5   0  -1   10.06    4.29
  -5   0   1    7.09    3.46
   5  -1  -2    6.49    3.63
   5  -2  -3    1.54    2.64
  -5   3   4    2.47    3.35
   5  -4  -5    0.93    3.46
  -5   4   5    0.27    3.96
  -5   5   6    1.59    2.80
   5   8   8    0.55    7.37
  -5  -8  -8   -0.16    3.30
   5   7   7    1.15    2.86
  -5  -7  -7    1.54    3.13
   5   6   6   18.09    7.70
  -5  -6  -6    9.57    6.93
   5   5   5   28.09    7.48
  -5  -5  -5   11.87    7.48
   5   4   4   54.48    4.56
  -5  -4  -4   52.00    4.84
   5   3   3   38.37    6.65
  -5  -3  -3   38.37    3.79
   5   2   2   43.92    5.11
  -5  -2  -2   34.63    4.89
   5   1   1   11.10    3.19
  -5  -1  -1    3.85    3.52
  -5   0   0   17.59    5.55
   5  -1  -1   28.86    5.61
   5  -2  -2    4.67    2.64
   5  -3  -3   10.50    4.67
  -5   3   3    4.01    4.01
   5  -4  -4   -1.48    4.23
  -5   4   4    4.07    3.24
   5  -5  -5    2.31    3.57
  -5   5   5    4.01    4.67
   5   8   9    5.44    7.31
   5   7   8    6.05    4.62
  -5  -7  -8   -3.90    5.94
   5   6   7   39.86    6.27
  -5  -6  -7    0.88    6.71
   5   5   6    9.95    7.64
  -5  -5  -6    6.10    6.71
   5   4   5    3.74    3.63
   5   3   4   -0.16    4.40
  -5  -3  -4    9.95    2.75
  -5  -2  -3   20.12    4.12
  -5  -1  -2   69.38    8.14
   5   0   1   58.27    6.16
  -5   0  -1   52.55    3.52
   5  -1   0   21.93    5.44
  -5   1   0   25.29    4.45
   5  -2  -1    8.74    3.52
  -5   2   1    6.93    3.41
   5  -3  -2    8.36    4.40
  -5   3   2    7.20    2.86
  -5   4   3    7.15    3.90
   5  -5  -4    4.78    6.76
   5  -6  -5    5.77    3.74
  -5   6   5    0.88    4.29
   5  -7  -6    0.05    5.33
  -5   7   6    2.31    4.56
  -5  -9 -11    1.98    5.00
   5   7   9   -0.99    5.22
  -5  -7  -9    1.32    7.20
   5   6   8    1.92    4.95
  -5  -6  -8    4.12    4.56
   5   5   7   -1.10    7.81
  -5  -5  -7   -3.57    5.55
   5   4   6   -1.15    3.24
  -5  -4  -6    2.25    5.61
   5   3   5   29.96    4.07
  -5  -3  -5   28.15    3.90
   5   2   4    5.39    4.56
  -5  -2  -4    3.35    3.02
  -5  -1  -3    1.21    2.58
  -5   0  -2    0.44    2.80
   5  -1   1    1.59    4.12
  -5   1  -1   -2.42    3.63
   5  -2   0    1.81    2.14
  -5   2   0    2.80    2.42
  -5   3   1    5.99    2.86
   5  -4  -2    2.64    4.40
  -5   4   2   -0.99    4.18
   5  -5  -3   -0.60    6.49
   5  -6  -4    6.49    5.11
  -5   6   4    4.67    3.96
  -5   7   5    1.43    3.63
   5   9  12   -0.16    3.90
  -5  -9 -12   -0.27    4.89
  -5  -7 -10    1.92    4.12
   5   6   9    0.44    3.63
  -5  -6  -9   17.98    6.43
   5   5   8   -1.54    4.34
  -5  -5  -8   12.15    6.71
   5   4   7   10.99    4.73
  -5  -4  -7   14.57    4.45
   5   3   6  107.25    8.63
  -5  -3  -6   99.72    7.26
   5   2   5  119.40   17.32
  -5  -2  -5  110.22    8.74
   5   1   4   35.51    5.39
  -5  -1  -4   35.13    3.68
   5   0   3  157.28    9.24
   5  -1   2   72.24   10.55
  -5   1  -2   76.47    7.75
  -5   2  -1   28.92    3.85
   5  -3   0   76.25    8.14
   5  -4  -1   11.82    4.23
  -5   5   2    2.58    3.46
   5  -6  -3    2.80    4.45
  -5   6   3    0.88    4.23
   5  -7  -4    0.49    4.23
  -5   7   4   -3.19    5.11
   5  -8  -5    1.48    4.12
  -5   8   5    0.16    3.63
   5   6  10   -1.10    5.94
   5   5   9    3.41    3.96
  -5  -5  -9    4.89    4.51
   5   4   8   11.43    5.33
  -5  -4  -8    4.18    6.10
   5   3   7   23.53    3.63
  -5  -3  -7   28.04    4.23
   5   1   5   42.05    5.77
  -5  -1  -5   34.36    3.68
   5  -1   3    2.75    2.64
  -5   1  -3    1.98    3.85
   5  -2   2   59.37    4.29
   5  -3   1   20.72    5.11
  -5   3  -1   24.68    5.22
  -5   4   0    0.55    5.39
   5  -5  -1   19.30    4.40
  -5   5   1   12.86    4.18
   5  -6  -2   -1.70    6.32
  -5   6   2    2.09    4.01
   5  -7  -3    0.27    4.29
  -5   7   3   -1.21    4.78
  -5  -6 -11   -0.93    3.19
   5   5  10    4.73    7.42
  -5  -5 -10    4.84    7.81
   5   4   9   34.25    9.57
  -5  -4  -9   26.83    7.42
   5   3   8    0.71    6.38
  -5  -3  -8    1.48    3.74
   5   2   7    1.54    5.06
  -5  -2  -7   -0.33    5.22
   5   1   6    9.40    5.50
   5  -1   4  115.50    8.08
   5  -2   3   38.10    4.23
  -5   2  -3   37.93    3.74
   5  -3   2   24.35    5.39
  -5   3  -2   20.89    3.74
   5  -4   1    0.99    5.44
  -5   4  -1   -0.55    2.86
   5  -5   0   17.65    4.62
  -5   5   0    8.96    6.05
   5  -6  -1    0.44    4.34
  -5   6   1    6.93    6.27
   5  -7  -2   27.32    4.56
   5 -10  -5   -1.10    6.82
  -5  10   5    6.38    8.14
   5   5  11    1.37    7.15
  -5  -5 -11    2.31    4.73
   5   4  10   18.20    7.70
  -5  -4 -10   18.25    4.34
  -5  -3  -9    5.44    3.57
   5   2   8    5.28    3.96
  -5  -2  -8    4.18    4.56
   5   1   7   56.40    6.05
  -5  -1  -7   62.78    9.24
   5   0   6   27.21    4.40
  -5   0  -6   28.37    4.12
   5  -1   5    6.71    3.35
  -5   1  -5    6.54    3.02
   5  -2   4   70.75   10.01
  -5   2  -4   77.90    8.30
   5  -3   3    5.28    4.23
  -5   3  -3    3.96    2.97
   5  -4   2   -0.49    5.00
  -5   4  -2    0.82    2.25
   5  -6   0   -1.59    5.55
  -5   6   0    3.68    4.29
   5  -7  -1    2.97    3.79
   5  -8  -2    1.37    3.57
  -5   9   3   -0.22    3.79
  -5  11   5    1.26    7.64
   5   6  13   16.11    5.22
   5   3  10   15.67    7.20
  -5  -3 -10   10.88    7.59
   5   2   9    9.51    4.89
  -5  -2  -9    7.15    4.40
   5   1   8  243.42   23.14
  -5  -1  -8  251.39   23.03
   5   0   7  171.96   13.41
  -5   0  -7  177.07   10.88
   5  -1   6   36.39    5.11
  -5   1  -6   45.30    6.71
   5  -2   5   28.64    6.76
  -5   2  -5   35.29    5.33
   5  -3   4   58.99    6.05
  -5   3  -4   43.76    4.45
   5  -4   3   18.64    5.06
  -5   4  -3   14.51    3.41
  -5   5  -2  252.16   17.48
   5  -6   1   -3.19    5.94
  -5   6  -1   31.33    5.83
   5  -7   0    9.29    5.06
  -5   7   0    5.77    4.95
   5  -9  -2    0.44    8.85
  -5   9   2   -3.30   10.28
   5   4  12   -3.30    6.05
  -5  -4 -12    0.49    8.03
   5   2  10    4.84    8.03
   5   0   8  141.67   16.16
  -5   0  -8  146.34    9.51
   5  -1   7   24.90    5.28
  -5   1  -7   33.59    4.67
   5  -2   6   17.98    5.39
   5  -3   5   49.86    5.17
  -5   3  -5   45.63    6.38
   5  -4   4   29.52    4.67
  -5   4  -4   26.55    4.34
  -5   5  -3    0.55    6.43
   5  -6   2   56.13    6.38
  -5   6  -2   49.42    9.07
  -5   7  -1   25.23    5.55
   5  -8   0   11.10    3.63
  -5   8   0    5.33    4.12
   5  -9  -1    6.65    6.60
  -5   9   1    7.20    6.65
   5   3  12    0.33    3.08
  -5  -2 -11    4.84    6.38
   5   1  10    1.92    4.18
   5   0   9   42.99    6.38
  -5   0  -9   56.73    5.28
   5  -1   8   49.81    5.88
  -5   1  -8   51.84    5.39
   5  -2   7    2.09    3.74
  -5   2  -7    2.58    3.52
   5  -3   6    0.71    3.46
  -5   3  -6   -0.05    3.19
   5  -4   5    6.54    5.99
  -5   4  -5    3.46    3.57
   5  -5   4    4.56    4.01
   5  -6   3  137.60   10.83
  -5   6  -3  132.10   12.37
   5  -7   2    0.77    3.24
  -5   7  -2    6.32    4.34
   5  -8   1   12.86    5.11
  -5   8  -1    4.62    4.73
   5  -9   0    2.58    5.22
  -5   9   0   -0.49    5.00
   5 -10  -1    3.35    4.01
  -5  10   1   -0.77    7.26
   5 -11  -2    0.71    3.30
   5   2  12    2.64    5.77
  -5  -2 -12    3.24    6.60
   5   0  10    4.67    6.05
  -5   0 -10    3.85    5.88
   5  -1   9   42.66    7.37
  -5   1  -9   45.19    4.95
   5  -2   8   16.77    6.38
  -5   2  -8   15.28    4.29
   5  -3   7    7.59    4.29
  -5   3  -7   12.70    3.96
   5  -4   6    4.12    4.07
  -5   4  -6    2.53    3.57
   5  -5   5   23.97    6.82
   5  -6   4    9.07    4.67
  -5   6  -4    6.54    4.73
   5  -7   3    3.90    7.81
  -5   7  -3    3.74    5.33
   5  -8   2    0.33    3.63
  -5   8  -2    2.80    4.67
   5  -9   1    0.71    4.56
  -5   9  -1    3.19    8.58
   5 -10   0    4.62    4.62
  -5  10   0    1.54    6.82
   5 -11  -1    1.26    3.52
  -5  11   1    2.75    5.50
   5   2  13   -1.92    4.29
   5   1  12   39.42    6.98
  -5  -1 -12   37.00    7.09
   5   0  11    4.07    3.79
  -5   0 -11    3.08    5.83
   5  -2   9   37.16    8.03
  -5   2  -9   32.32    4.95
   5  -3   8   16.05    4.62
  -5   3  -8    7.31    3.90
   5  -4   7  122.26    9.29
  -5   4  -7  120.39   10.44
   5  -5   6   64.98    6.87
  -5   5  -6   62.45    6.71
   5  -6   5   16.93    7.04
  -5   6  -5    5.94    6.87
   5  -7   4   46.18    8.69
  -5   7  -4   51.18    6.87
   5  -8   3    5.50    5.94
  -5   8  -3   21.00    5.17
   5  -9   2    2.47    9.07
   5 -10   1   26.33    9.40
   5 -11   0    3.02    8.19
  -5  11   0    5.44    8.03
   5   1  13    1.54    3.68
  -5   0 -12   -1.04    3.57
   5  -1  11   -2.86    4.78
  -5   1 -11   -0.11    5.83
   5  -2  10   16.60    6.87
  -5   2 -10   17.04    4.34
   5  -3   9    5.28    4.78
  -5   3  -9    7.64    6.93
   5  -4   8    0.49    4.45
   5  -5   7    1.21    4.29
  -5   5  -7    3.13    3.41
   5  -6   6   18.53    7.04
  -5   6  -6   10.28    5.66
   5  -7   5    3.08    5.22
  -5   7  -5   -0.49    5.61
   5  -8   4   -0.77    4.45
  -5   8  -4    6.43    4.51
   5  -9   3    8.03    5.88
  -5   9  -3    7.26    4.84
   5 -10   2    0.82    4.95
   5 -11   1   -3.79    4.23
  -5  11  -1   -2.91    6.43
   5  -2  11   12.04    9.18
  -5   2 -11   19.41    6.87
   5  -3  10    4.51    4.12
  -5   3 -10    9.24    5.72
   5  -4   9   -0.99    7.04
   5  -5   8    2.97    6.16
  -5   5  -8   -2.42    6.27
  -5   6  -7    1.81    3.90
   5  -7   6    6.27    5.55
  -5   7  -6    5.39    7.09
   5  -8   5   -3.90    8.47
  -5   8  -5   43.98    8.58
   5  -9   4    0.55    3.46
  -5   9  -4    3.24    3.46
   5 -10   3    6.82    8.14
  -5  10  -3    2.75   10.12
   5  -1  13    0.93    4.56
  -5   1 -13   -0.38    3.30
  -5   2 -12    2.80    3.46
   5  -3  11   41.01    5.72
  -5   3 -11   29.25    6.82
   5  -5   9    3.35    5.83
  -5   5  -9    6.16    5.88
   5  -6   8    5.06    5.72
  -5   6  -8   -1.98    5.99
   5  -7   7    7.70    8.19
  -5   7  -7    4.62    5.55
   5  -8   6   -0.38    6.54
   5  -9   5    7.42    4.12
  -5   9  -5   25.56    6.21
   5 -10   4   -3.52    7.59
  -5  10  -4    2.20    5.83
   5  -4  11   -1.32    3.30
  -5   4 -11    0.16    2.69
   5  -5  10    1.59    5.44
  -5   5 -10    4.89    8.63
   5  -6   9   82.41    7.97
  -5   6  -9   83.56   10.01
   5  -7   8   49.70    7.64
  -5   7  -8   47.66    7.81
   5  -8   7    0.60    7.59
  -5   8  -7   -3.46    8.41
   5  -9   6   -1.48    5.22
  -5   9  -6    0.88    5.61
  -5  10  -5    2.58    5.28
   5  -5  11    2.47    7.42
  -5   5 -11    0.00    6.38
   5  -6  10   -2.14    7.53
  -5   6 -10    1.81    8.69
  -5   7  -9   36.12    4.95
   5  -8   8   -0.66    4.95
  -5   8  -8    3.41    4.56
   5  -9   7    3.08    8.63
  -5   9  -7   -0.77    9.02
   5 -10   6   -0.71    6.98
  -5  10  -6    3.46   10.28
   5  -8   9   -3.63    4.56
  -5   8  -9   -0.05    5.61
   5  -9   8   -0.99    5.77
  -5   9  -8    4.51    6.21
  -6 -10   0    1.70    4.73
  -6  -8   2   -2.20    3.63
  -6  -7   3    0.71    3.08
  -6  -8   0   -1.48    5.72
   6   6  -2    2.69    2.69
  -6  -5   3    1.15    1.92
   6   9   2   -0.60    3.96
   6   8   1    3.79    7.37
   6   7   0    3.46    6.27
   6   6  -1    2.53    2.97
  -6  -6   1   -1.37    2.80
   6   8   2    2.69    4.23
  -6  -7  -1   -1.48    5.77
   6   6   0   -0.77    3.02
  -6  -6   0   -0.49    2.31
   6   5  -1   14.95    4.07
  -6  -4   2   12.92    2.75
  -6  -8  -3   -0.22    4.12
  -6  -7  -2  106.15    7.48
   6   6   1    3.63    3.08
  -6  -6  -1    0.88    2.14
   6   5   0    4.89    5.28
   6   3  -2    4.45    4.84
  -6  -3   2    1.04    2.58
   6   8   4   -2.31    5.22
  -6  -8  -4    4.78    4.01
   6   7   3    2.58    4.29
  -6  -7  -3    3.90    4.89
   6   6   2   27.49    5.33
  -6  -6  -2   -2.03    2.47
   6   5   1   14.79    4.62
   6   3  -1    0.60    5.11
   6   2  -2    0.38    2.64
   6   0  -4    1.76    3.41
   6   8   5   -1.76    3.85
  -6  -8  -5   -0.22    5.44
   6   6   3   42.77    7.42
   6   5   2   -0.16    3.24
  -6  -5  -2    2.42    3.08
  -6  -4  -1    9.62    4.40
  -6  -3   0   76.36    8.96
  -6  -2   1    6.49    2.64
  -6  -1   2    2.09    3.46
  -6   0   3   62.56    5.50
   6  -3  -6   13.85    2.58
  -6  -8  -6   68.00   10.06
   6   7   5    9.46    6.65
   6   6   4   -0.49    2.80
  -6  -6  -4   -0.38    3.74
   6   5   3   11.65    3.41
  -6  -5  -3   12.75    2.80
  -6  -4  -2    1.15    4.45
  -6  -3  -1  138.97   13.08
  -6  -2   0  145.40   13.47
  -6  -1   1    1.92    4.01
   6   0  -2    2.31    3.46
  -6   0   2    9.46    3.90
   6  -1  -3    0.60    3.46
   6  -3  -5   42.55    4.95
   6   9   8   -0.60    9.79
  -6  -9  -8    5.50    6.71
   6   8   7  196.80   11.93
   6   7   6    8.41    6.38
  -6  -7  -6    2.20    3.79
   6   6   5    3.13    3.41
  -6  -6  -5   12.53    4.51
   6   5   4   -1.10    6.21
  -6  -5  -4    0.00    3.85
  -6  -4  -3   42.49    4.12
   6   3   2   -1.43    4.18
  -6  -3  -2    0.27    3.79
  -6  -2  -1 1559.10   68.50
   6   1   0    1.32    4.84
   6  -1  -2    0.22    3.74
  -6   1   2   -4.07    3.79
  -6   2   3    0.38    2.53
  -6   3   4    1.21    3.13
   6   8   8    0.16    3.63
  -6  -8  -8    1.92    6.38
   6   7   7   41.01    5.88
  -6  -7  -7    6.43    5.11
   6   6   6    8.63    6.76
  -6  -6  -6   18.25    4.78
   6   3   3   15.45    5.22
  -6  -3  -3   23.75    4.07
  -6  -2  -2   78.39   14.07
   6   1   1  125.01   14.73
  -6  -1  -1  100.11   10.77
   6   0   0   39.14    6.98
  -6   0   0   21.49    5.61
   6  -1  -1   17.87    4.51
  -6   1   1   18.09    5.17
   6  -3  -3   10.39    4.73
  -6   4   4   32.93    4.95
  -6 -10 -11   -1.87    4.12
   6   8   9    0.71    8.63
  -6  -7  -8   25.40    5.00
  -6  -6  -7    0.99    5.77
   6   5   6    6.49    4.95
  -6  -5  -6   -1.04    6.10
   6   3   4    4.18    3.19
  -6  -3  -4    7.53    3.30
   6   2   3   -0.93    4.40
  -6  -2  -3    0.11    3.52
   6   1   2  287.29   15.34
  -6  -1  -2  298.67   24.02
   6   0   1    1.70    2.36
  -6   0  -1    0.88    3.85
   6  -1   0   12.81    5.33
  -6   1   0   16.60    4.45
   6  -2  -1   55.69    7.70
  -6   2   1   46.23    8.69
   6  -3  -2    0.99    3.96
  -6   3   2    2.42    3.63
   6  -4  -3    0.55    4.56
  -6   4   3    1.10    4.62
   6  -5  -4   39.47    6.05
  -6   5   4   31.39    4.40
  -6  -7  -9    0.55    5.06
  -6  -6  -8    1.98    6.60
   6   5   7    7.59    6.10
  -6  -5  -7    8.03    5.06
   6   4   6    2.14    4.67
  -6  -4  -6    4.95    4.23
   6   3   5   57.12    5.99
  -6  -3  -5   54.75    5.17
   6   2   4   42.82    7.15
   6   1   3   -1.54    4.18
  -6  -1  -3    1.48    4.95
  -6   0  -2    0.49    2.80
   6  -1   1   28.75    6.32
  -6   1  -1   37.60    5.88
  -6   2   0   29.08    5.83
   6  -3  -1   11.87    4.01
  -6   3   1   22.54    5.66
  -6   4   2    4.01    2.80
   6  -6  -4    0.38    3.35
  -6   6   4    3.13    5.11
   6   7  10    1.81    3.13
   6   6   9   52.11    9.51
  -6  -6  -9   53.60   10.77
   6   5   8   16.11    4.89
  -6  -5  -8   10.55    4.18
   6   4   7    9.07    5.72
  -6  -4  -7    3.63    4.56
  -6  -3  -6  214.18   11.93
   6   2   5   68.61    6.87
  -6  -2  -5   69.43    6.87
   6   0   3  460.29   22.59
  -6   0  -3  505.54   29.03
   6  -1   2   52.88    6.82
  -6   1  -2   39.86    4.56
   6  -2   1   41.61    7.42
   6  -3   0  218.13   15.50
  -6   3   0  243.53   16.66
   6  -4  -1   11.54    4.23
  -6   4   1    5.50    6.27
   6  -5  -2    0.77    4.84
  -6   5   2   12.97    5.11
   6  -6  -3   44.31    7.92
  -6   6   3   26.50    4.18
   6   7  11   -0.05    5.61
   6   6  10   -1.59    7.81
   6   5   9   19.08    4.40
  -6  -5  -9    2.36    7.20
  -6  -4  -8   11.05    8.19
   6   3   7   -2.36    4.34
  -6  -3  -7   -1.54    3.96
   6   2   6   -0.55    5.83
  -6  -2  -6   -0.77    5.66
   6   1   5   43.04    9.18
   6   0   4   23.75    5.11
  -6   0  -4   20.67    4.29
  -6   1  -3   24.08    5.28
   6  -2   2   52.61    5.72
  -6   2  -2   42.88    7.81
   6  -3   1   -0.93    4.29
  -6   3  -1   -0.38    5.66
   6  -4   0    0.33    4.07
  -6   4   0    1.32    5.44
   6  -5  -1   19.41    7.20
  -6   5   1   10.55    6.82
  -6   6   2    4.34    5.50
   6  -7  -3    0.44    4.84
  -6   7   3   -0.16    4.40
  -6  -6 -11   -1.87    6.21
   6   5  10   23.64    4.56
  -6  -5 -10   38.26    8.80
  -6  -4  -9   -0.99    4.95
   6   3   8   -0.60    3.41
  -6  -3  -8   -0.49    3.30
   6   2   7   41.07    6.98
  -6  -2  -7   37.93    6.54
   6   1   6    4.73    4.12
  -6  -1  -6    5.39    5.55
   6  -1   4  183.78   16.71
  -6   1  -4  169.70    9.57
   6  -2   3    2.69    3.79
   6  -3   2    8.96    3.24
  -6   3  -2    6.10    6.05
   6  -4   1   41.56   10.61
  -6   4  -1   31.44    6.27
   6  -5   0    2.31    3.63
  -6   5   0   -0.55    6.32
   6  -6  -1   -1.21    4.18
  -6   6   1   -0.22    2.53
   6   7  13    2.36    3.74
   6   4  10    7.42    5.50
   6   3   9   21.88    6.05
   6   2   8   -0.55    4.51
  -6  -2  -8   10.77    7.20
   6   1   7   27.82    5.44
  -6  -1  -7   20.01    4.73
   6   0   6   76.52   11.76
   6  -1   5   78.67   10.01
  -6   1  -5   69.76    6.21
   6  -2   4   82.73    8.14
  -6   2  -4   66.85    8.58
   6  -3   3   71.91    8.47
  -6   3  -3   64.92    5.61
   6  -4   2   18.14    7.09
  -6   4  -2   16.49    7.64
   6  -5   1    7.81    4.40
  -6   5  -1    3.46    7.42
  -6   6   0   13.52    5.22
   6  -7  -1    3.96    4.95
  -6   7   1   19.74    5.94
   6  -8  -2    0.44    2.97
  -6   8   2   -0.66    3.74
   6   4  11    2.91    7.53
  -6  -4 -11    1.65    2.86
  -6  -3 -10    7.70    4.40
   6   2   9    6.54    8.19
  -6  -2  -9    2.97    8.52
   6   1   8  576.56   35.40
  -6  -1  -8  575.35   35.90
   6   0   7   38.98    6.43
  -6   0  -7   30.62    5.44
   6  -1   6   87.90   10.33
  -6   1  -6   61.24    5.72
   6  -2   5   16.55    4.56
  -6   2  -5   13.63    4.12
   6  -3   4  101.15   10.39
  -6   3  -4   98.62    6.98
   6  -4   3   38.10    5.66
  -6   4  -3   33.42    8.14
   6  -5   2  580.24   25.78
  -6   5  -2  608.61   29.14
   6  -6   1    8.96    4.56
  -6   6  -1    6.65    4.84
   6  -7   0   14.95    8.08
  -6   7   0   22.98    6.10
  -6   8   1   -2.69    5.39
   6   4  12   -0.44    3.41
   6   1   9   16.88    7.97
  -6  -1  -9   11.60    7.75
   6   0   8   66.46    7.48
  -6   0  -8   57.94    8.91
   6  -1   7   38.48    5.61
  -6   1  -7   15.45    4.18
   6  -2   6   12.09    4.29
   6  -3   5    9.68    4.23
  -6   3  -5    9.62    4.01
   6  -4   4   28.04    6.87
  -6   4  -4   19.41    6.71
   6  -5   3   70.70   10.33
  -6   5  -3   75.04    7.70
   6  -6   2   10.88    7.81
  -6   6  -2    6.98    4.78
  -6   7  -1    8.58    8.91
   6  -8   0    1.48    3.79
  -6   8   0    1.70    3.79
   6  -9  -1    3.96    5.61
  -6  -3 -12   -3.41    6.82
   6   2  11    1.48    5.66
  -6  -2 -11    1.32    7.31
   6   1  10    3.85    6.16
  -6  -1 -10    8.52    4.89
   6   0   9   20.01    5.77
  -6   0  -9   21.77    5.50
   6  -1   8    1.37    4.18
  -6   1  -8    3.24    3.68
   6  -2   7    1.15    4.56
  -6   2  -7    3.30    5.61
   6  -3   6   41.83    4.84
   6  -4   5    0.93    4.78
  -6   4  -5    4.01    6.32
   6  -5   4    2.80    6.82
   6  -6   3   34.74    8.91
  -6   6  -3   22.54    5.83
   6  -7   2    3.19    5.50
  -6   7  -2    4.01    5.72
  -6   8  -1    1.21    4.29
   6   1  11   16.11    4.23
  -6  -1 -11   14.57    5.33
   6   0  10   12.31    6.32
   6  -1   9   33.59    7.09
  -6   1  -9   35.57    5.55
   6  -2   8   56.24    9.29
  -6   2  -8   61.08    8.30
   6  -3   7   15.39    4.29
  -6   3  -7   16.33    6.76
   6  -4   6   16.38    5.55
  -6   4  -6   12.53    6.65
   6  -5   5   45.46    9.02
  -6   5  -5   56.40   10.06
   6  -6   4   41.18    7.59
   6  -7   3   16.05    6.82
  -6   7  -3   12.48    9.35
  -6   8  -2   17.87    3.24
   6   2  13   13.96    5.39
  -6  -1 -12    5.83    6.49
   6   0  11   12.92    8.52
  -6   0 -11    1.04    5.72
   6  -1  10   14.73    8.19
   6  -2   9   31.28    7.81
  -6   2  -9   23.31    6.98
   6  -3   8   15.45    7.70
  -6   3  -8   12.20    6.60
   6  -4   7   81.58    8.36
  -6   4  -7  111.98    9.13
  -6   5  -6   24.57    5.44
   6  -6   5   25.07    6.10
  -6   6  -5   21.60   10.01
   6  -7   4   47.50    7.31
  -6   7  -4   66.52   11.49
   6  -8   3    2.31    4.40
  -6   8  -3    8.25    5.06
   6  -9   2   20.89    8.08
  -6   9  -2    0.88    6.21
   6 -10   1   17.81    5.33
  -6  10  -1   -0.27    4.01
   6   0  12    2.36    3.90
  -6   0 -12   -0.99    3.74
   6  -1  11    1.76    5.83
  -6   1 -11    2.03    5.99
   6  -2  10    1.48    5.88
  -6   2 -10    4.73    7.64
   6  -3   9    0.93    4.07
  -6   3  -9    0.93    7.04
   6  -4   8    3.74    5.22
  -6   4  -8    2.25    6.16
   6  -5   7   -0.66    4.34
  -6   5  -7    2.97    6.05
   6  -6   6   -1.21    5.99
  -6   6  -6    1.37    6.43
   6  -7   5    4.34    6.21
  -6   7  -5    6.65    9.57
   6  -8   4    3.46    6.54
  -6   8  -4    3.35    5.11
   6 -10   2    0.27    5.66
   6  -2  11    1.65    9.51
  -6   2 -11    0.99    5.99
   6  -3  10    5.17    5.50
  -6   3 -10    5.50    7.42
   6  -4   9    5.11    5.17
  -6   4  -9    6.27    4.95
  -6   5  -8    6.38    7.42
   6  -6   7    3.41    4.73
  -6   6  -7    3.41    3.74
   6  -7   6    6.93    5.94
  -6   7  -6    8.41    6.05
   6  -8   5    4.12    6.71
  -6   8  -5    5.83    7.97
   6  -9   4    6.82    9.73
  -6   9  -4    1.15    5.11
   6  -2  12    8.03    6.76
  -6   3 -11   17.32    6.21
  -6   4 -10   21.38    5.06
  -6   5  -9   -0.77    7.64
   6  -6   8    3.90    5.22
  -6   6  -8   11.10    5.39
   6  -7   7   31.06    9.95
  -6   7  -7   25.07    5.83
   6  -8   6   25.40    4.56
  -6   8  -6   20.51    5.61
   6  -9   5    4.45    7.48
  -6   9  -5    1.70    5.28
   6 -10   4    1.54    4.07
  -6  10  -4    1.54    5.17
   6  -3  12    3.35    7.09
   6  -5  10    1.32    3.24
  -6   5 -10    3.41    9.29
  -6   6  -9   23.69    5.11
   6  -7   8    2.97    6.49
  -6   7  -8   -0.60    6.32
  -6   8  -7    1.92    6.54
   6  -9   6    0.71    6.76
  -6   5 -11    2.31    3.68
   6  -6  10    1.32    6.32
  -6   6 -10   -1.65    4.95
   6  -7   9   -1.21    6.54
  -6   7  -9    2.80    6.10
  -6   8  -8    1.15    3.68
   7   8   0    0.82    3.46
   7   7   0    2.58    5.00
   7   6  -1    3.19    6.98
   7   6   0   -0.82    4.45
  -7  -6   0   -1.92    3.68
   7   5  -1    1.81    5.06
   7   8   3   -0.44    3.02
   7   6   1    0.44    3.68
   7   5   0   -0.44    3.19
  -7  -5   0    0.16    4.56
  -7  -1   4    1.65    2.42
  -7  -8  -4    4.01    7.53
   7   7   3   -0.93    5.17
   7   5   1   -1.43    5.11
  -7  -4   0    0.99    3.19
   7   3  -1    3.79    5.22
  -7  -3   1    1.04    2.91
   7   1  -3   -0.77    2.42
   7   8   5    1.76    8.69
   7   7   4    3.85    5.61
   7   6   3    4.12    4.34
  -7  -6  -3    1.65    5.17
  -7  -5  -2   -1.48    3.41
   7   4   1   -2.75    5.11
  -7  -4  -1    3.02    6.21
   7   3   0    4.89    4.67
  -7  -3   0    2.31    3.63
  -7  -2   1    2.58    3.90
  -7  -1   2    1.48    3.74
   7   0  -3    0.93    2.97
   7   9   7   -0.44   10.33
   7   8   6    3.46    8.96
  -7  -8  -6    0.66    6.49
   7   7   5    0.93    1.87
  -7  -7  -5   -0.66    3.24
   7   6   4    3.46    5.77
  -7  -6  -4    0.11    5.06
   7   5   3   -0.16    3.30
   7   4   2    2.36    3.35
  -7  -4  -2    2.80    2.86
   7   3   1    8.63    3.68
  -7  -3  -1   11.49    3.46
   7   1  -1    5.33    3.96
  -7  -1   1    6.21    4.62
   7  -1  -3   -0.22    4.73
  -7   1   3   -0.11    2.25
  -7  -9  -8    4.01    5.44
   7   6   5   -0.71    3.24
  -7  -6  -5   -1.26    2.91
   7   4   3    1.43    5.00
  -7  -4  -3   -3.96    5.77
   7   2   1    5.83    7.97
   7   1   0   -0.93    5.11
  -7  -1   0   -2.86    6.05
   7   0  -1    0.82    3.85
  -7   0   1   -0.44    3.30
   7  -1  -2    1.76    4.56
  -7   1   2   -1.21    2.91
   7  -5  -6   -1.21    2.58
   7   8   8   -0.93    3.08
   7   7   7    0.66    3.96
   7   6   6    1.32    3.41
  -7  -6  -6    1.98    3.02
   7   4   4   -0.82    5.17
  -7  -4  -4   -0.71    6.60
  -7  -3  -3   -0.22    4.95
   7   2   2    2.53    5.00
  -7  -2  -2    0.44    3.41
   7   1   1    0.11    6.05
   7   0   0    0.71    3.79
  -7   0   0   -2.36    5.11
   7  -1  -1    2.25    6.49
  -7   1   1    1.70    2.97
   7  -2  -2    2.09    5.61
   7  -3  -3   -4.40    3.68
  -7   5   5    2.03    3.35
   7   8   9    0.00    2.86
   7   6   7    0.11    4.62
  -7  -4  -5    2.42    3.96
   7   3   4   17.54    4.95
  -7  -3  -4    9.62    3.46
   7   2   3   10.39    3.46
  -7  -2  -3    6.32    5.77
  -7  -1  -2   12.75    6.60
  -7   0  -1    9.79    3.90
   7  -1   0    1.26    4.84
  -7   1   0    2.42    4.62
   7  -2  -1    1.65    5.61
  -7   2   1    0.82    3.90
   7  -3  -2    1.37    5.33
  -7   4   3    1.04    4.01
   7  -5  -4    1.81    5.83
   7   7   9   -0.44    5.11
  -7  -6  -8    3.46    4.34
   7   5   7   -0.05    3.79
  -7  -5  -7    0.77    2.80
   7   4   6   17.70    5.00
  -7  -4  -6   24.24    4.78
   7   3   5   15.06    5.55
  -7  -3  -5   17.37    4.78
   7   2   4    5.99    3.57
  -7  -2  -4    0.11    4.23
   7   1   3   11.10    6.65
  -7  -1  -3    6.54    5.00
   7   0   2    5.44    4.29
  -7   0  -2    5.22    4.73
   7  -1   1    2.09    6.71
  -7   1  -1    4.23    3.46
   7  -2   0   17.98    4.12
  -7   2   0   21.22    4.12
  -7   3   1   -1.26    4.01
   7  -4  -2   -2.36    3.57
  -7   4   2   -1.98    3.74
   7   4   7   -1.04    4.84
  -7  -4  -7    5.22    5.83
  -7  -3  -6   19.79    4.89
   7   1   4    4.51    4.12
   7   0   3    4.40    4.40
  -7   0  -3    0.88    6.21
   7  -1   2   -0.99    5.50
  -7   1  -2   -0.60    3.41
   7  -3   0   -0.49    4.07
  -7   4   1    3.30    3.68
  -7   6   3   -1.76    4.73
  -7  -6 -10   -2.03    5.83
   7   5   9   -2.86    8.25
  -7  -5  -9    0.44    2.80
  -7  -4  -8   -0.22    5.28
   7   3   7    6.27    3.35
  -7  -3  -7    1.48    3.68
   7   2   6    3.52    5.99
   7   1   5   17.48    5.83
  -7  -1  -5   13.52    7.09
   7   0   4    1.43    5.88
  -7   0  -4    1.87    6.05
  -7   1  -3    3.08    5.61
   7  -2   2    6.32    5.44
  -7   2  -2    4.18    3.46
   7  -3   1    2.36    4.29
  -7   3  -1    1.65    5.50
   7  -4   0    0.99    6.10
  -7   4   0   -5.66    7.09
   7  -5  -1   -0.77    3.46
  -7   5   1   -1.04    3.85
   7   5  10   26.22    8.25
  -7  -5 -10   -0.33    6.49
   7   4   9    4.89    4.73
  -7  -4  -9    3.08    5.06
  -7  -3  -8    4.95    6.16
   7   2   7   -4.07    4.23
  -7  -2  -7   -0.33    7.70
   7   1   6   20.40    8.47
  -7  -1  -6   31.17    7.37
   7   0   5   10.44    5.28
  -7   0  -5   14.24    5.28
   7  -1   4   35.79    8.47
   7  -2   3    8.74    5.72
  -7   2  -3   13.80    2.75
   7  -3   2    4.95    6.60
  -7   3  -2    8.03    7.09
   7  -4   1    3.02    4.73
  -7   4  -1   -1.43    4.23
   7  -5   0    4.62    3.74
  -7   5   0   -2.36    5.28
  -7   6   1    1.70    2.64
   7  -7  -2   17.54    7.59
   7   3   9   -4.84    5.55
   7   2   8   62.89    5.50
  -7  -2  -8   43.32    6.82
   7   1   7   38.92    6.32
  -7  -1  -7    8.36    7.75
   7   0   6   -0.66    4.45
  -7   0  -6    3.63    6.43
   7  -1   5   -1.98    4.01
  -7   1  -5    2.80    5.55
   7  -2   4    0.71    3.79
  -7   2  -4   -2.20    5.55
   7  -3   3    1.54    5.99
  -7   3  -3   -3.96    5.83
   7  -4   2   78.94    6.93
  -7   4  -2   80.32   13.08
   7  -5   1    3.96    3.63
  -7   5  -1    3.46    4.95
   7  -6   0    1.37    3.41
   7  -7  -1    0.99    4.62
   7   3  10   -0.93    3.68
  -7  -3 -10    1.98    4.84
   7   2   9    1.87    4.07
  -7  -2  -9    2.64    4.56
   7   1   8  176.96   11.32
  -7  -1  -8  206.21   18.97
   7  -1   6    1.37    4.29
  -7   1  -6    4.51    3.68
   7  -2   5    6.49    5.88
   7  -3   4    2.31    3.85
   7  -4   3   17.26    5.17
  -7   4  -3   12.04    4.67
   7  -5   2   74.27    6.93
  -7   5  -2   72.24    9.95
   7  -6   1   -2.58    4.62
  -7   6  -1    0.00    4.01
  -7   7   0   -0.66    4.18
   7  -8  -1    3.52    4.89
  -7   8   1   -3.08    8.08
   7   4  12   -1.15    5.61
   7   3  11   -2.03    4.73
   7   2  10    5.39    3.46
  -7  -2 -10    2.75    3.46
   7   1   9    0.00    5.33
  -7  -1  -9    5.66    4.45
   7   0   8    6.27    5.39
  -7   0  -8   15.67    5.39
   7  -1   7    9.95    5.22
  -7   1  -7   12.37    4.45
   7  -2   6   20.29    5.00
  -7   2  -6   21.82    6.82
   7  -3   5   11.38    5.94
  -7   3  -5   10.77    5.55
   7  -4   4   23.58    4.56
  -7   4  -4   20.62    8.14
   7  -5   3   43.54    9.18
   7  -6   2    0.60    6.93
  -7   6  -2   -0.27    5.22
   7   1  10    2.53    6.27
  -7  -1 -10   10.44    7.92
   7  -1   8   16.49    4.84
  -7   1  -8   16.38    5.17
   7  -2   7   16.38    8.36
  -7   2  -7   12.53    7.42
   7  -3   6    0.71    4.23
   7  -4   5   10.50    4.12
   7  -5   4   19.02    7.48
  -7   6  -3   27.05    7.37
   7  -7   2    3.19    6.71
  -7   7  -2    1.76    5.61
  -7   8  -1    0.27    2.91
   7   1  11   -1.54    5.55
  -7  -1 -11    3.24    4.12
   7   0  10   -1.87    3.79
  -7   0 -10   -0.11    7.37
   7  -1   9   -0.16    5.06
  -7   1  -9    1.37    5.11
   7  -2   8    0.77    6.98
   7  -3   7   28.04    5.17
  -7   3  -7   21.99    6.54
   7  -4   6    4.62    4.07
   7  -5   5   -0.93    3.85
   7  -6   4    0.27    3.19
  -7   6  -4   -1.21    4.89
   7  -7   3   -0.93    4.78
  -7   7  -3    4.18    5.77
   7  -9   1    5.72    5.72
   7 -10   0    0.60    6.32
   7  -1  10   21.22    9.57
  -7   1 -10   30.35    8.96
   7  -2   9    7.86    6.49
  -7   2  -9    1.65    5.39
   7  -3   8    3.79    5.44
  -7   3  -8    8.30    3.85
   7  -4   7   58.33   12.64
  -7   4  -7   48.43    9.40
   7  -5   6    0.77    5.55
   7  -6   5    2.86    7.97
  -7   6  -5   17.87    8.63
   7  -7   4   28.15    8.03
  -7   7  -4   21.77    6.43
  -7   8  -3   -0.60    6.82
  -7   0 -12    5.22    5.66
   7  -1  11    1.59    2.64
  -7   1 -11    0.33    5.88
   7  -2  10    1.15    4.29
  -7   2 -10    0.60    7.59
   7  -3   9    0.16    4.67
  -7   3  -9   -0.05    7.20
   7  -4   8    0.60    5.22
  -7   4  -8   -1.48    5.00
   7  -5   7    2.80    6.82
   7  -6   6    5.44    6.71
  -7   6  -6    3.85    8.03
   7  -7   5    1.70    4.62
  -7   7  -5    4.18    5.22
   7  -8   4   -2.20    3.74
  -7   8  -4   -0.99    5.44
   7  -2  11   25.40    6.87
  -7   2 -11   29.30    5.11
  -7   4  -9    2.31    3.30
   7  -5   8    0.93    3.35
   7  -7   6    3.02    9.02
  -7   7  -6   -0.11    8.85
   7  -8   5   -1.15    4.07
  -7   8  -5   23.25    4.01
  -7   1 -13    0.44    3.96
   7  -3  11   -0.16    5.00
   7  -6   8    4.07    7.53
  -7   6  -8    5.99   10.06
   7  -8   6   -3.74    3.41
  -7   8  -6    0.77    7.15
  -7   3 -12    1.76    2.36
  -7   4 -11    1.54    4.56
  -7   6  -9   74.98   10.55
   7  -7   8   -2.91    9.18
  -7   7  -8    0.33    6.32
   7  -8   7   -3.74    5.88
  -7   8  -7   -2.31    8.41
   7  -6  10    2.31    4.01
  -7   6 -10    2.03    5.61
   8   5  -1   16.60    7.70
   8   7   3   21.82    9.62
   8   4   0    2.75    4.40
  -8  -9  -6    2.47    5.39
  -8  -8  -5    2.91    4.67
   8   7   4    4.01    6.60
  -8  -5  -2   -0.88    3.13
  -8  -9  -7   28.75    6.54
   8   7   5   -2.69    7.92
  -8  -7  -5    0.33    6.16
   8   3   1  113.96    9.62
  -8  -3  -1  124.90   11.82
  -8  -1   1    1.48    4.34
   8   0  -2   -2.64    6.32
  -8   0   2    1.10    3.30
   8  -3  -5   21.55    6.65
  -8   3   5   17.70    5.88
   8   3   2   44.58   10.33
   8   2   1   66.90    6.54
  -8  -2  -1   77.07    7.31
   8   1   0    4.01    4.01
  -8  -1   0    1.04    3.24
   8   8   8    6.43    7.04
  -8  -6  -6   -1.76    4.51
   8   4   4    1.43    5.50
  -8  -4  -4   -1.59    3.19
   8   3   3    6.05    5.44
  -8  -3  -3    4.62    3.57
   8   2   2   26.11    7.97
   8   1   1    1.04    4.95
   8   0   0   -1.04    2.36
  -8   0   0    0.22    4.73
   8  -1  -1   17.48    6.49
  -8   4   4   10.99    5.72
   8   8   9   -2.25    4.23
   8   5   6    0.27    4.73
  -8  -4  -5   15.67    5.77
   8   3   4    3.08    4.89
  -8  -3  -4    0.55    4.07
   8   2   3    1.43    6.93
  -8  -2  -3    4.51    4.62
   8   1   2   -0.55    2.31
  -8  -1  -2    6.10    2.91
   8  -1   0    0.93    2.91
  -8   1   0    2.75    4.18
  -8   4   3    0.38    3.90
   8   5   7   -1.43    4.84
   8   4   6   38.26    6.16
  -8  -4  -6   13.80    6.32
   8   3   5    0.77    3.63
  -8  -3  -5   -0.60    3.35
  -8  -2  -4    0.77    5.55
   8   1   3   -0.33    6.65
  -8  -1  -3    5.22    6.05
   8  -1   1    0.66    4.23
  -8   1  -1    2.42    3.35
   8  -2   0   32.32    7.20
  -8   2   0   45.63    7.81
   8   5   8   -0.22    8.25
   8   4   7    8.58    6.32
  -8  -4  -7    3.19    5.39
   8   3   6   14.95    4.95
  -8  -3  -6   27.49    7.37
   8   2   5    3.08    4.51
  -8  -2  -5    2.14    4.78
   8   1   4   26.06    5.94
  -8  -1  -4   10.12    5.11
   8   0   3   25.34    4.73
  -8   0  -3   41.94    8.36
  -8   1  -2    0.33    2.86
   8  -2   1   10.61    3.79
   8  -3   0    6.05    6.16
  -8   3   0    6.38    4.95
   8   5   9    4.40    8.19
   8   4   8    1.10    6.38
  -8  -4  -8    0.33    5.50
   8   3   7    0.60    5.11
  -8  -3  -7   -2.80    5.06
   8   2   6    0.99    5.61
  -8  -2  -6   -0.55    5.66
   8   1   5    7.75    4.45
  -8  -1  -5    5.11    5.88
  -8   0  -4   32.98    5.44
   8  -1   3    5.44    5.72
  -8   1  -3    5.83    6.93
  -8   2  -2   -1.59    5.17
   8  -3   1    0.99    5.44
   8  -4   0   -2.97    4.67
   8   5  10    0.66    5.77
   8   3   8    1.76    4.23
  -8  -3  -8   -3.63    4.40
   8   2   7    3.52    3.74
   8   1   6    3.90    5.44
  -8  -1  -6    0.60    3.08
  -8   0  -5   20.56    3.24
   8  -1   4   22.87    7.70
  -8   1  -4   19.02    4.78
   8  -2   3    1.54    3.30
  -8   2  -3    1.81    4.40
   8  -4   1    1.92    4.51
  -8   4  -1   -0.77    4.29
   8   3   9   -2.75    6.32
   8   2   8   40.08    7.86
  -8  -2  -8   29.74    8.91
   8   1   7    0.82    5.61
  -8  -1  -7    0.60    5.33
   8   0   6   -0.11    6.21
  -8   0  -6    1.92    4.29
   8  -1   5    8.14    4.01
  -8   1  -5    5.22    6.54
   8  -2   4    0.60    4.51
  -8   2  -4   -1.65    3.52
   8  -3   3    0.82    3.19
  -8   3  -3    5.28    5.66
   8  -4   2   51.78    4.78
  -8   4  -2   41.61    7.37
   8  -5   1   -1.32    3.19
   8   3  10    1.87    4.84
   8   1   8   46.45   10.83
  -8  -1  -8   60.58    7.31
  -8   0  -7   -0.33    4.78
  -8   1  -6    0.99    3.63
   8  -2   5    0.33    4.40
   8  -3   4    0.82    6.38
  -8   3  -4   -3.46    5.83
   8  -4   3   53.98    5.33
  -8   4  -3   39.97    5.77
   8  -5   2   32.38    7.31
   8   2  10   -0.27    6.38
   8   1   9    6.87    4.07
  -8  -1  -9   12.81    9.18
   8  -1   7   -0.55    5.88
  -8   1  -7    4.01    3.68
   8  -2   6    4.56    5.00
   8  -3   5    2.53    3.57
  -8   3  -5    4.01    5.99
   8  -4   4   -1.81    4.18
  -8   4  -4    4.62    6.93
   8  -5   3    6.60    4.07
   8  -6   2    2.69    6.38
  -8   6  -2    0.66    4.07
   8   1  10    2.47    5.77
   8   0   9    5.39    3.79
  -8   0  -9   10.01    6.27
   8  -1   8   -1.04    4.67
  -8   1  -8    2.31    5.83
   8  -2   7    3.41    4.56
  -8   2  -7    1.04    5.17
   8  -3   6    0.66    3.24
  -8   3  -6    1.26    7.31
   8  -5   4   13.63    6.71
  -8   6  -3   -1.10    5.28
   8   0  10    0.05    3.68
   8  -1   9    1.37    4.89
  -8   1  -9   -0.82    7.48
   8  -3   7    8.80    5.99
  -8   5  -5   -1.70    4.18
  -8   6  -4   -0.05    3.90
   8  -7   3   -1.43    5.33
  -8   7  -3    4.23    5.77
  -8   0 -11    1.65    6.21
  -8   2  -9    0.99    3.96
  -8   3  -8    5.22    4.18
   8  -4   7    3.30    4.40
  -8   4  -7    6.32    4.40
   8  -7   4    0.22    5.44
  -8   7  -4    1.98    4.29
   8  -1  11   -0.33    3.63
  -8   3  -9   -0.60    3.90
   8  -4   8    1.76    4.73
  -8   4  -8    0.99    7.42
   8  -5   7    2.97    4.62
  -8   5  -7   -0.49    6.43
   8  -7   5   -1.10    5.55
  -8   7  -5    0.22    6.16
   8  -2  11    5.83    6.65
  -8   2 -11   -1.70    3.74
   8  -5   8   -2.20    4.34
   8  -8   5   -2.25    6.21
  -8   8  -5    1.54    2.75
   8  -6   9    3.13    4.40
  -8   6  -9    3.30   11.76
   9   3  -1    1.21    3.90
   9   9   6    3.79   12.04
   9   4   1   -2.09    7.09
   9   8   6    2.20    4.40
  -9  -3  -1   -0.82    3.19
   9   8   7    0.38    4.73
  -9  -6  -5   -0.93    3.96
   9   3   2   -2.31    3.96
  -9  -3  -2    0.33    3.30
  -9  -2  -1   -1.04    3.35
   9   1   0    2.03    4.29
  -9  -1   0   -0.38    5.22
   9   8   8    0.05    3.68
  -9  -6  -6   -0.11    4.01
   9   4   4    1.04    6.87
  -9  -4  -4    1.59    3.24
   9   3   3    0.33    6.27
  -9  -3  -3    0.77    5.72
  -9  -2  -2    2.36    3.30
   9   1   1   -1.92    4.23
  -9  -1  -1   -0.44    3.68
   9   3   4   -1.32    5.99
  -9  -3  -4   -1.87    5.61
  -9  -2  -3   -1.65    4.73
   9   1   2   -0.66    5.39
   9  -1   0    1.04    3.79
   9   4   6    1.59    3.46
  -9  -4  -6   17.65    4.78
  -9  -2  -4    1.48    3.30
   9   0   2   -1.04    5.61
  -9   4   2    0.66    3.90
   9   4   7    0.16    3.41
  -9  -4  -7   -1.21    4.89
  -9  -2  -5    1.81    3.96
  -9   1  -2   -2.58    4.84
   9  -2   1    1.87    4.40
  -9   2  -1   -0.44    5.77
  -9   3   0   -4.56    5.44
   9   4   8   -2.03    3.68
  -9  -4  -8    1.15    5.00
  -9  -3  -7    0.66    4.07
   9   2   6   -0.66    4.89
   9  -1   3   -2.91    5.33
  -9   1  -3   -0.71    4.51
  -9   2  -2   -1.81    5.33
   9  -3   1   -3.35    6.49
  -9   3  -1    1.59    6.38
   9   2   7    1.15    4.29
  -9  -2  -7    2.53    4.78
   9   1   6   -0.33    3.96
   9  -1   4    1.10    5.55
  -9   1  -4   -0.33    5.00
   9   2   8   67.56   13.63
  -9  -2  -8   66.08   10.88
  -9  -1  -7    7.64    7.86
   9  -1   5   -2.53    5.55
   9  -2   4    4.18    4.84
  -9   2  -4    0.27    2.97
   9  -3   3    0.99    3.96
  -9   4  -2   -3.79    6.43
  -9  -2  -9   31.83    6.98
   9   1   8    1.10    6.82
  -9  -1  -8    8.58   10.61
   9  -1   6    2.09    4.01
  -9   1  -6   -0.60    5.11
   9  -2   5    1.87    4.89
  -9   2  -5    3.02    3.46
   9   1   9    8.85    7.04
  -9  -1  -9   18.91    5.88
   9  -3   5    1.65    6.16
  -9   3  -5    0.71    2.75
   9  -4   4    1.21    7.04
  -9   4  -4    0.27    6.71
  -9   5  -3   -2.03    5.39
   9  -3   6   -0.22    5.61
  -9   3  -6   -1.65    2.75
   9  -4   5    3.19    7.97
  -9   5  -4   -1.76    3.96
  -9   3  -7   21.05    6.71
  -9   4  -6    1.37    5.33
  -9   0 -11    1.04    6.65
  -9   4  -8    1.04    3.19
 -10  -4   0    2.03    5.72
  10   4   1   19.24    7.81
  10   5   3    0.99    5.50
  10   3   8    2.75    8.30
 -10  -3  -8    1.54    5.77
  10   2   7    4.12    6.98
  10  -3   2   -3.79    7.04
  10   3   9    1.81    8.85
 -10  -3  -9    1.32    6.05
  10   2   8   16.33    7.53
 -10  -2  -8    6.54    5.06
 -10  -2  -9   27.82    8.69
 -10   4  -3   -0.93    7.15
 -10  -1  -9    0.44    4.12
 -10   0  -9    0.22    6.93
   0   0   0    0.00    0.00


_computing_structure_solution     'SHELXT 2018/2 (Sheldrick, 2018)'
_computing_structure_solution     'SHELXT 2014/5 (Sheldrick, 2014)'
;
_shelx_hkl_checksum              17319
loop_
_space_group_symop_operation_xyz
'x, y, z'
'-x, -y, -z'
loop_
_atom_site_label
_atom_site_type_symbol
_atom_site_fract_x
_atom_site_fract_y
_atom_site_fract_z
_atom_site_U_iso_or_equiv
_atom_site_adp_type
_atom_site_occupancy
_atom_site_site_symmetry_order
_atom_site_calc_flag
_atom_site_refinement_flags_posn
_atom_site_refinement_flags_adp
_atom_site_refinement_flags_occupancy
_atom_site_disorder_assembly
_atom_site_disorder_group
Cl01 Cl 0.31438(19) 0.13458(10) 0.86112(12) 0.0728(5) Uani 1 1 d . . . . .
Cl2A Cl 0.1511(10) 0.8492(5) 0.1397(5) 0.0934(12) Uani 0.5 1 d . . P A 1
O2 O 0.144(7) 0.890(3) 0.146(5) 0.145(17) Uani 0.2 1 d . . P B 2
N003 N 0.2644(4) 0.3924(3) 0.6036(3) 0.0465(7) Uani 1 1 d . . . . .
H H 0.274684 0.318586 0.677451 0.056 Uiso 1 1 calc R U . . .
N004 N 0.2247(4) 0.6257(3) 0.3710(3) 0.0467(7) Uani 1 1 d . . . . .
HA H 0.210857 0.699016 0.298108 0.056 Uiso 1 1 calc R U . . .
C005 C 0.2145(5) 0.5343(3) 0.6330(4) 0.0429(7) Uani 1 1 d . . . . .
C006 C 0.1937(5) 0.6551(3) 0.5127(4) 0.0438(7) Uani 1 1 d . . . . .
C007 C 0.2770(5) 0.4835(3) 0.3411(4) 0.0441(8) Uani 1 1 d . . . . .
C008 C 0.2986(5) 0.3624(3) 0.4620(4) 0.0456(8) Uani 1 1 d . . . . .
C009 C 0.3558(5) 0.2169(4) 0.4345(5) 0.0522(9) Uani 1 1 d . . . . .
HB H 0.371968 0.137408 0.512829 0.063 Uiso 1 1 calc R U . . .
C00A C 0.1433(6) 0.8014(3) 0.5410(5) 0.0522(9) Uani 1 1 d . . . . .
HC H 0.130565 0.882236 0.462589 0.063 Uiso 1 1 calc R U . . .
C00B C 0.1838(6) 0.5615(4) 0.7793(4) 0.0522(9) Uani 1 1 d . . . . .
HD H 0.197493 0.482605 0.858926 0.063 Uiso 1 1 calc R U . . .
C00C C 0.3089(6) 0.4548(4) 0.1957(4) 0.0528(9) Uani 1 1 d . . . . .
HE H 0.293238 0.532609 0.115913 0.063 Uiso 1 1 calc R U . . .
C00D C 0.1131(6) 0.8243(4) 0.6839(5) 0.0594(10) Uani 1 1 d . . . . .
HF H 0.077951 0.921359 0.702473 0.071 Uiso 1 1 calc R U . . .
C00E C 0.3877(6) 0.1933(4) 0.2907(5) 0.0604(10) Uani 1 1 d . . . . .
HG H 0.426243 0.096739 0.271946 0.072 Uiso 1 1 calc R U . . .
C00F C 0.3638(6) 0.3101(4) 0.1718(5) 0.0597(10) Uani 1 1 d . . . . .
HH H 0.385061 0.290367 0.075384 0.072 Uiso 1 1 calc R U . . .
C00G C 0.1333(6) 0.7061(4) 0.8032(5) 0.0598(10) Uani 1 1 d . . . . .
HI H 0.112522 0.725290 0.899776 0.072 Uiso 1 1 calc R U . . .
loop_
_atom_site_aniso_label
_atom_site_aniso_U_11
_atom_site_aniso_U_22
_atom_site_aniso_U_33
_atom_site_aniso_U_23
_atom_site_aniso_U_13
_atom_site_aniso_U_12
Cl01 0.1103(10) 0.0491(5) 0.0639(7) -0.0033(4) -0.0438(7) 0.0179(5)
Cl2A 0.146(3) 0.061(3) 0.076(2) -0.0004(14) -0.053(2) 0.0197(19)
O2 0.24(4) 0.028(12) 0.21(3) -0.017(13) -0.14(3) -0.002(14)
N003 0.0596(19) 0.0376(12) 0.0459(17) -0.0097(10) -0.0225(15) 0.0067(12)
N004 0.0602(19) 0.0361(12) 0.0467(17) -0.0083(10) -0.0226(15) 0.0059(12)
C005 0.0461(19) 0.0399(14) 0.048(2) -0.0133(12) -0.0202(16) 0.0053(13)
C006 0.0485(19) 0.0395(14) 0.050(2) -0.0140(12) -0.0230(17) 0.0063(13)
C007 0.0471(19) 0.0454(16) 0.045(2) -0.0142(13) -0.0190(16) 0.0037(13)
C008 0.052(2) 0.0380(14) 0.051(2) -0.0140(13) -0.0213(17) 0.0047(13)
C009 0.054(2) 0.0423(16) 0.063(2) -0.0168(15) -0.0212(19) 0.0079(14)
C00A 0.060(2) 0.0372(15) 0.065(2) -0.0156(14) -0.0272(19) 0.0100(14)
C00B 0.060(2) 0.0553(18) 0.051(2) -0.0178(15) -0.027(2) 0.0064(16)
C00C 0.061(2) 0.0533(18) 0.048(2) -0.0133(14) -0.0217(19) 0.0025(16)
C00D 0.069(3) 0.0486(18) 0.075(3) -0.0326(18) -0.031(2) 0.0112(17)
C00E 0.059(2) 0.0511(18) 0.074(3) -0.0318(18) -0.014(2) 0.0052(16)
C00F 0.060(2) 0.072(2) 0.056(3) -0.0346(19) -0.017(2) 0.0067(18)
C00G 0.070(3) 0.061(2) 0.063(3) -0.0321(18) -0.031(2) 0.0098(18)
loop_
_atom_type_symbol
_atom_type_description
_atom_type_scat_dispersion_real
_atom_type_scat_dispersion_imag
_atom_type_scat_source
C C 0.0024 0.0013 'International Tables Vol C Tables 4.2.6.8 and 6.1.1.4'
H H 0.0000 0.0000 'International Tables Vol C Tables 4.2.6.8 and 6.1.1.4'
Cl Cl 0.1242 0.1265 'International Tables Vol C Tables 4.2.6.8 and 6.1.1.4'
N N 0.0048 0.0026 'International Tables Vol C Tables 4.2.6.8 and 6.1.1.4'
O O 0.0085 0.0048 'International Tables Vol C Tables 4.2.6.8 and 6.1.1.4'
loop_
_geom_angle_atom_site_label_1
_geom_angle_atom_site_label_2
_geom_angle_atom_site_label_3
_geom_angle
_geom_angle_site_symmetry_1
_geom_angle_site_symmetry_3
_geom_angle_publ_flag
C005 N003 C008 122.8(3) . . ?
C006 N004 C007 122.5(3) . . ?
N003 C005 C00B 121.3(3) . . ?
N003 C005 C006 118.8(3) . . ?
C00B C005 C006 119.9(3) . . ?
N004 C006 C00A 121.8(3) . . ?
N004 C006 C005 118.8(2) . . ?
C00A C006 C005 119.4(3) . . ?
N004 C007 C00C 122.0(3) . . ?
N004 C007 C008 118.6(3) . . ?
C00C C007 C008 119.4(3) . . ?
N003 C008 C009 121.4(3) . . ?
N003 C008 C007 118.5(3) . . ?
C009 C008 C007 120.0(3) . . ?
C00E C009 C008 119.0(3) . . ?
C00D C00A C006 119.5(3) . . ?
C00G C00B C005 119.2(3) . . ?
C00F C00C C007 119.4(3) . . ?
C00A C00D C00G 121.7(3) . . ?
C009 C00E C00F 121.6(3) . . ?
C00C C00F C00E 120.5(3) . . ?
C00B C00G C00D 120.4(3) . . ?
loop_
_geom_bond_atom_site_label_1
_geom_bond_atom_site_label_2
_geom_bond_distance
_geom_bond_site_symmetry_2
_geom_bond_publ_flag
N003 C005 1.365(3) . ?
N003 C008 1.367(4) . ?
N004 C006 1.369(4) . ?
N004 C007 1.372(4) . ?
C005 C00B 1.404(4) . ?
C005 C006 1.413(4) . ?
C006 C00A 1.400(4) . ?
C007 C00C 1.399(5) . ?
C007 C008 1.420(4) . ?
C008 C009 1.399(4) . ?
C009 C00E 1.367(6) . ?
C00A C00D 1.358(5) . ?
C00B C00G 1.373(5) . ?
C00C C00F 1.379(5) . ?
C00D C00G 1.393(6) . ?
C00E C00F 1.391(6) . ?
