#------------------------------------------------------------------------------
#$Date: 2022-05-09 02:43:21 +0300 (Mon, 09 May 2022) $
#$Revision: 275234 $
#$URL: file:///home/coder/svn-repositories/cod/cif/1/56/20/1562012.cif $
#------------------------------------------------------------------------------
#
# This file is available in the Crystallography Open Database (COD),
# http://www.crystallography.net/
#
# All data on this site have been placed in the public domain by the
# contributors.
#
data_1562012
loop_
_publ_author_name
'Egorysheva, A. V.'
'Ellert, O. G.'
'Zubavichus, Y. V.'
'Gajtko, O. M.'
'Efimov, N. N.'
'Svetogorov, R. D.'
'Murzin, V. Yu.'
_publ_section_title
;
 New complex bismuth oxides in the Bi2O3--NiO--Sb2O5 system and their
 properties
;
_journal_coden_ASTM              JSSCBI
_journal_name_full               'Journal of Solid State Chemistry'
_journal_page_first              97
_journal_page_last               104
_journal_paper_doi               10.1016/j.jssc.2014.12.001
_journal_volume                  225
_journal_year                    2015
_chemical_absolute_configuration .
_chemical_formula_sum            'Bi12 Ni2.666 O44 Sb9.334'
_chemical_formula_weight         4504.6
_space_group_IT_number           201
_space_group_name_Hall           '-P 2ab 2bc 3'
_space_group_name_H-M_alt        'P n -3 :2'
_symmetry_cell_setting           cubic
_symmetry_Int_Tables_number      201
_symmetry_space_group_name_Hall  '-P 2ab 2bc 3'
_symmetry_space_group_name_H-M   'P n -3 :2'
_cell_angle_alpha                90
_cell_angle_beta                 90
_cell_angle_gamma                90
_cell_formula_units_Z            1
_cell_length_a                   9.54721(2)
_cell_length_b                   9.54721(2)
_cell_length_c                   9.54721(2)
_cell_measurement_temperature    293
_cell_volume                     870.221(3)
_diffrn_ambient_temperature      293
_diffrn_radiation_probe          x-ray
_diffrn_radiation_wavelength     0.68886
_exptl_absorpt_coefficient_mu    63.654
_exptl_crystal_density_diffrn    8.5928
_exptl_crystal_F_000             1899
_pd_instr_location               ' ?'
_pd_meas_2theta_range_inc        0.01
_pd_meas_2theta_range_max        52.315
_pd_meas_2theta_range_min        0.001
_pd_meas_number_of_points        4998
_pd_proc_2theta_range_inc        0.01
_pd_proc_2theta_range_max        49.991
_pd_proc_2theta_range_min        3.504
_pd_proc_ls_background_function  '15 Chebyshev polynoms'
_pd_proc_ls_pref_orient_corr     none
_pd_proc_ls_profile_function     Pseudo-Voigt
_pd_proc_ls_prof_R_factor        0.0137
_pd_proc_ls_prof_wR_expected     0.3515
_pd_proc_ls_prof_wR_factor       0.0186
_refine_diff_density_max         0.50
_refine_diff_density_min         -0.95
_refine_ls_goodness_of_fit_all   0.05
_refine_ls_number_constraints    3
_refine_ls_number_parameters     38
_refine_ls_number_restraints     0
_refine_ls_R_factor_all          0.0315
_refine_ls_R_factor_gt           0.0249
_refine_ls_shift/su_max          0.0273
_refine_ls_shift/su_mean         0.0011
_refine_ls_weighting_scheme      sigma
_refine_ls_wR_factor_all         0.0266
_refine_ls_wR_factor_gt          0.0236
_cod_data_source_file            JSSC-2015-225-97.cif
_cod_data_source_block           II
_cod_depositor_comments
;
The following automatic conversions were performed:

data item '_diffrn_radiation_probe' value 'X-ray' was changed to
'x-ray' in accordance with the built-in table derived from the CIF
Core dictionary named 'cif_core.dic' version 2.4.5 last updated on
2014-11-21.

Automatic conversion script
Id: cif_fix_values 8369 2020-08-20 11:38:08Z andrius 
;
_cod_original_cell_volume        870.222(4)
_cod_original_sg_symbol_Hall     '-P 2ab;2bc;3'
_cod_original_sg_symbol_H-M      'P n -3'
_cod_database_code               1562012
loop_
_symmetry_equiv_pos_site_id
_symmetry_equiv_pos_as_xyz
1 x,y,z
2 -x+1/2,-y+1/2,z
3 -x+1/2,y,-z+1/2
4 x,-y+1/2,-z+1/2
5 z,x,y
6 z,-x+1/2,-y+1/2
7 -z+1/2,-x+1/2,y
8 -z+1/2,x,-y+1/2
9 y,z,x
10 -y+1/2,z,-x+1/2
11 y,-z+1/2,-x+1/2
12 -y+1/2,-z+1/2,x
13 -x,-y,-z
14 x+1/2,y+1/2,-z
15 x+1/2,-y,z+1/2
16 -x,y+1/2,z+1/2
17 -z,-x,-y
18 -z,x+1/2,y+1/2
19 z+1/2,x+1/2,-y
20 z+1/2,-x,y+1/2
21 -y,-z,-x
22 y+1/2,-z,x+1/2
23 -y,z+1/2,x+1/2
24 y+1/2,z+1/2,-x
loop_
_atom_site_label
_atom_site_type_symbol
_atom_site_fract_x
_atom_site_fract_y
_atom_site_fract_z
_atom_site_adp_type
_atom_site_U_iso_or_equiv
_atom_site_symmetry_multiplicity
_atom_site_occupancy
_atom_site_calc_flag
_atom_site_refinement_flags
_atom_site_disorder_assembly
_atom_site_disorder_group
Bi1 Bi 0.4067(3) 0.36759(17) 0.36759(17) Uani 0.0279(13) 24 0.3333 d . . .
Bi2 Bi 0 0 0 Uiso 0.0399(3) 4 1 d . . .
Ni1 Ni 0.59267(10) 0.75 0.25 Uiso 0.0145(2) 12 0.2222 d . . .
Sb1 Sb 0.59267(10) 0.75 0.25 Uiso 0.0145(2) 12 0.7778 d . . .
O1 O 0.1433(5) 0.1433(5) 0.1433(5) Uiso 0.011(3) 8 1 d . . .
O2 O 0.6052(7) 0.25 0.25 Uiso 0.019(2) 12 1 d . . .
O3 O 0.5859(5) 0.5407(7) 0.2451(4) Uiso 0.0099(17) 24 1 d . . .
loop_
_atom_site_aniso_label
_atom_site_aniso_type_symbol
_atom_site_aniso_U_11
_atom_site_aniso_U_22
_atom_site_aniso_U_33
_atom_site_aniso_U_12
_atom_site_aniso_U_13
_atom_site_aniso_U_23
Bi1 Bi 0.049(2) 0.012(2) 0.022(2) 0.0045(15) -0.0052(15) -0.0022(9)
loop_
_atom_type_symbol
_atom_type_scat_dispersion_real
_atom_type_scat_dispersion_imag
_atom_type_scat_source
Bi -3.4531 10.1639 'International Tables Vol C tables 4.2.6.8 and 6.1.1.1'
Ni 0.3453 1.0603 'International Tables Vol C tables 4.2.6.8 and 6.1.1.1'
O 0.0106 0.0058 'International Tables Vol C tables 4.2.6.8 and 6.1.1.1'
Sb -0.6168 1.4865 'International Tables Vol C tables 4.2.6.8 and 6.1.1.1'
loop_
_geom_angle_atom_site_label_1
_geom_angle_atom_site_label_2
_geom_angle_atom_site_label_3
_geom_angle_site_symmetry_1
_geom_angle_site_symmetry_2
_geom_angle_site_symmetry_3
_geom_angle
Bi1 Bi1 Bi1 2_555 . 3_555 50.23(5)
Bi1 Bi1 Bi1 2_555 . 4_555 64.88(7)
Bi1 Bi1 Bi1 2_555 . 5_555 81.9(4)
Bi1 Bi1 Bi1 2_555 . 6_555 57.38(5)
Bi1 Bi1 Bi1 2_555 . 7_555 8.11(5)
Bi1 Bi1 Bi1 2_555 . 8_555 57.38(6)
Bi1 Bi1 Bi1 2_555 . 9_555 55.6(3)
Bi1 Bi1 Bi1 2_555 . 10_555 55.56(6)
Bi1 Bi1 Bi1 2_555 . 11_555 61.67(5)
Bi1 Bi1 Bi1 2_555 . 12_555 7.21(5)
Bi1 Bi1 O1 2_555 . 2_555 78.32(14)
Bi1 Bi1 O1 2_555 . 3_555 40.61(14)
Bi1 Bi1 Bi1 3_555 . 4_555 64.88(7)
Bi1 Bi1 Bi1 3_555 . 5_555 55.6(3)
Bi1 Bi1 Bi1 3_555 . 6_555 61.67(5)
Bi1 Bi1 Bi1 3_555 . 7_555 55.56(6)
Bi1 Bi1 Bi1 3_555 . 8_555 7.21(5)
Bi1 Bi1 Bi1 3_555 . 9_555 81.9(4)
Bi1 Bi1 Bi1 3_555 . 10_555 8.11(5)
Bi1 Bi1 Bi1 3_555 . 11_555 57.38(5)
Bi1 Bi1 Bi1 3_555 . 12_555 57.38(6)
Bi1 Bi1 O1 3_555 . 2_555 40.61(14)
Bi1 Bi1 O1 3_555 . 3_555 78.32(14)
Bi1 Bi1 Bi1 4_555 . 5_555 120.0(3)
Bi1 Bi1 Bi1 4_555 . 6_555 7.57(5)
Bi1 Bi1 Bi1 4_555 . 7_555 60.00(6)
Bi1 Bi1 Bi1 4_555 . 8_555 67.57(7)
Bi1 Bi1 Bi1 4_555 . 9_555 120.0(3)
Bi1 Bi1 Bi1 4_555 . 10_555 60.00(6)
Bi1 Bi1 Bi1 4_555 . 11_555 7.57(5)
Bi1 Bi1 Bi1 4_555 . 12_555 67.57(7)
Bi1 Bi1 O1 4_555 . 2_555 43.70(13)
Bi1 Bi1 O1 4_555 . 3_555 43.70(13)
Bi1 Bi1 Bi1 5_555 . 6_555 117.2(3)
Bi1 Bi1 Bi1 5_555 . 7_555 90.0(4)
Bi1 Bi1 Bi1 5_555 . 8_555 52.4(3)
Bi1 Bi1 Bi1 5_555 . 9_555 60.0(4)
Bi1 Bi1 Bi1 5_555 . 10_555 60.0(3)
Bi1 Bi1 Bi1 5_555 . 11_555 112.4(3)
Bi1 Bi1 Bi1 5_555 . 12_555 85.6(4)
Bi1 Bi1 O1 5_555 . 2_555 83.1(3)
Bi1 Bi1 O1 5_555 . 3_555 122.4(4)
Bi1 Bi1 Bi1 6_555 . 7_555 52.43(5)
Bi1 Bi1 Bi1 6_555 . 8_555 65.24(7)
Bi1 Bi1 Bi1 6_555 . 9_555 112.4(3)
Bi1 Bi1 Bi1 6_555 . 10_555 57.75(5)
Bi1 Bi1 Bi1 6_555 . 11_555 8.73(5)
Bi1 Bi1 Bi1 6_555 . 12_555 60.00(6)
Bi1 Bi1 O1 6_555 . 2_555 46.36(13)
Bi1 Bi1 O1 6_555 . 3_555 37.82(13)
Bi1 Bi1 Bi1 7_555 . 8_555 62.77(7)
Bi1 Bi1 Bi1 7_555 . 9_555 60.0(3)
Bi1 Bi1 Bi1 7_555 . 10_555 60.00(6)
Bi1 Bi1 Bi1 7_555 . 11_555 57.75(5)
Bi1 Bi1 Bi1 7_555 . 12_555 7.57(5)
Bi1 Bi1 O1 7_555 . 2_555 79.20(14)
Bi1 Bi1 O1 7_555 . 3_555 32.53(13)
Bi1 Bi1 Bi1 8_555 . 9_555 85.6(4)
Bi1 Bi1 Bi1 8_555 . 10_555 7.57(5)
Bi1 Bi1 Bi1 8_555 . 11_555 60.00(6)
Bi1 Bi1 Bi1 8_555 . 12_555 64.51(7)
Bi1 Bi1 O1 8_555 . 2_555 37.82(13)
Bi1 Bi1 O1 8_555 . 3_555 84.83(15)
Bi1 Bi1 Bi1 9_555 . 10_555 90.0(4)
Bi1 Bi1 Bi1 9_555 . 11_555 117.2(3)
Bi1 Bi1 Bi1 9_555 . 12_555 52.4(3)
Bi1 Bi1 O1 9_555 . 2_555 122.4(4)
Bi1 Bi1 O1 9_555 . 3_555 83.1(3)
Bi1 Bi1 Bi1 10_555 . 11_555 52.43(5)
Bi1 Bi1 Bi1 10_555 . 12_555 62.77(7)
Bi1 Bi1 O1 10_555 . 2_555 32.53(13)
Bi1 Bi1 O1 10_555 . 3_555 79.20(14)
Bi1 Bi1 Bi1 11_555 . 12_555 65.24(7)
Bi1 Bi1 O1 11_555 . 2_555 37.82(13)
Bi1 Bi1 O1 11_555 . 3_555 46.36(13)
Bi1 Bi1 O1 12_555 . 2_555 84.83(15)
Bi1 Bi1 O1 12_555 . 3_555 37.82(13)
O1 Bi1 O1 2_555 . 3_555 81.95(18)
O1 Bi2 O1 . . 13_555 180.0(5)
Sb1 Ni1 O2 . . 21_666 0
Sb1 Ni1 O2 . . 22_564 0
Sb1 Ni1 O3 . . . 0
Sb1 Ni1 O3 . . 4_565 0
Sb1 Ni1 O3 . . 21_666 0
Sb1 Ni1 O3 . . 23_654 0
O2 Ni1 O2 21_666 . 22_564 85.2(2)
O2 Ni1 O3 21_666 . . 92.27(13)
O2 Ni1 O3 21_666 . 4_565 90.45(13)
O2 Ni1 O3 21_666 . 21_666 86.5(2)
O2 Ni1 O3 21_666 . 23_654 171.6(2)
O2 Ni1 O3 22_564 . . 90.45(13)
O2 Ni1 O3 22_564 . 4_565 92.27(13)
O2 Ni1 O3 22_564 . 21_666 171.6(2)
O2 Ni1 O3 22_564 . 23_654 86.5(2)
O3 Ni1 O3 . . 4_565 176.3(2)
O3 Ni1 O3 . . 21_666 91.21(17)
O3 Ni1 O3 . . 23_654 86.46(17)
O3 Ni1 O3 4_565 . 21_666 86.46(17)
O3 Ni1 O3 4_565 . 23_654 91.21(17)
O3 Ni1 O3 21_666 . 23_654 101.8(2)
Ni1 Sb1 O2 . . 21_666 0
Ni1 Sb1 O2 . . 22_564 0
Ni1 Sb1 O3 . . . 0
Ni1 Sb1 O3 . . 4_565 0
Ni1 Sb1 O3 . . 21_666 0
Ni1 Sb1 O3 . . 23_654 0
O2 Sb1 O2 21_666 . 22_564 85.2(2)
O2 Sb1 O3 21_666 . . 92.27(13)
O2 Sb1 O3 21_666 . 4_565 90.45(13)
O2 Sb1 O3 21_666 . 21_666 86.5(2)
O2 Sb1 O3 21_666 . 23_654 171.6(2)
O2 Sb1 O3 22_564 . . 90.45(13)
O2 Sb1 O3 22_564 . 4_565 92.27(13)
O2 Sb1 O3 22_564 . 21_666 171.6(2)
O2 Sb1 O3 22_564 . 23_654 86.5(2)
O3 Sb1 O3 . . 4_565 176.3(2)
O3 Sb1 O3 . . 21_666 91.21(17)
O3 Sb1 O3 . . 23_654 86.46(17)
O3 Sb1 O3 4_565 . 21_666 86.46(17)
O3 Sb1 O3 4_565 . 23_654 91.21(17)
O3 Sb1 O3 21_666 . 23_654 101.8(2)
Bi1 O1 Bi1 2_555 . 3_555 92.60(19)
Bi1 O1 Bi1 2_555 . 6_555 104.4(2)
Bi1 O1 Bi1 2_555 . 7_555 13.81(9)
Bi1 O1 Bi1 2_555 . 10_555 104.4(2)
Bi1 O1 Bi1 2_555 . 11_555 114.9(2)
Bi1 O1 Bi2 2_555 . . 114.2(2)
Bi1 O1 Bi1 3_555 . 6_555 114.9(2)
Bi1 O1 Bi1 3_555 . 7_555 104.4(2)
Bi1 O1 Bi1 3_555 . 10_555 13.81(9)
Bi1 O1 Bi1 3_555 . 11_555 104.4(2)
Bi1 O1 Bi2 3_555 . . 114.2(2)
Bi1 O1 Bi1 6_555 . 7_555 92.60(19)
Bi1 O1 Bi1 6_555 . 10_555 104.4(2)
Bi1 O1 Bi1 6_555 . 11_555 13.81(9)
Bi1 O1 Bi2 6_555 . . 114.2(2)
Bi1 O1 Bi1 7_555 . 10_555 114.9(2)
Bi1 O1 Bi1 7_555 . 11_555 104.4(2)
Bi1 O1 Bi2 7_555 . . 114.2(2)
Bi1 O1 Bi1 10_555 . 11_555 92.60(19)
Bi1 O1 Bi2 10_555 . . 114.2(2)
Bi1 O1 Bi2 11_555 . . 114.2(2)
Ni1 O2 Ni1 17_666 . 18_644 94.8(3)
Ni1 O2 Sb1 17_666 . 17_666 0.0(5)
Ni1 O2 Sb1 17_666 . 18_644 94.8(3)
Ni1 O2 Sb1 18_644 . 17_666 94.8(3)
Ni1 O2 Sb1 18_644 . 18_644 0.0(5)
Sb1 O2 Sb1 17_666 . 18_644 94.8(3)
Ni1 O3 Ni1 . . 17_666 127.2(3)
Ni1 O3 Sb1 . . . 0.0(5)
Ni1 O3 Sb1 . . 17_666 127.2(3)
Ni1 O3 Sb1 17_666 . . 127.2(3)
Ni1 O3 Sb1 17_666 . 17_666 0.0(5)
Sb1 O3 Sb1 . . 17_666 127.2(3)
loop_
_geom_bond_atom_site_label_1
_geom_bond_atom_site_label_2
_geom_bond_site_symmetry_1
_geom_bond_site_symmetry_2
_geom_bond_distance
Bi1 Bi1 . 2_555 3.741(4)
Bi1 Bi1 . 3_555 3.741(4)
Bi1 Bi1 . 4_555 3.175(2)
Bi1 Bi1 . 5_555 0.528(3)
Bi1 Bi1 . 6_555 3.470(3)
Bi1 Bi1 . 7_555 3.703(3)
Bi1 Bi1 . 8_555 3.470(3)
Bi1 Bi1 . 9_555 0.528(3)
Bi1 Bi1 . 10_555 3.703(3)
Bi1 Bi1 . 11_555 3.470(3)
Bi1 Bi1 . 12_555 3.470(3)
Bi1 O1 . 2_555 2.196(5)
Bi1 O1 . 3_555 2.196(5)
Bi2 O1 . . 2.370(5)
Bi2 O1 . 13_555 2.370(5)
Ni1 Sb1 . . 0
Ni1 O2 . 21_666 2.041(5)
Ni1 O2 . 22_564 2.041(5)
Ni1 O3 . . 2.000(7)
Ni1 O3 . 4_565 2.000(7)
Ni1 O3 . 21_666 2.019(6)
Ni1 O3 . 23_654 2.019(6)
Sb1 O2 . 21_666 2.041(5)
Sb1 O2 . 22_564 2.041(5)
Sb1 O3 . . 2.000(7)
Sb1 O3 . 4_565 2.000(7)
Sb1 O3 . 21_666 2.019(6)
Sb1 O3 . 23_654 2.019(6)
loop_
_pd_proc_point_id
_pd_proc_2theta_corrected
_pd_proc_intensity_net
_pd_calc_intensity_net
_pd_proc_ls_weight
1 3.5044 8.72 9.13 2.95
2 3.5149 8.82 9.12 2.97
3 3.5254 8.94 9.10 2.99
4 3.5359 9.06 9.08 3.01
5 3.5464 9.16 9.07 3.03
6 3.5569 8.99 9.05 3.00
7 3.5674 9.03 9.04 3.00
8 3.5779 8.86 9.02 2.98
9 3.5884 9.00 9.01 3.00
10 3.5989 8.83 8.99 2.97
11 3.6094 8.97 8.98 2.99
12 3.6199 8.86 8.96 2.98
13 3.6304 8.81 8.95 2.97
14 3.6409 8.68 8.93 2.95
15 3.6514 8.70 8.92 2.95
16 3.6620 8.72 8.91 2.95
17 3.6725 8.84 8.89 2.97
18 3.6830 8.83 8.88 2.97
19 3.6934 8.90 8.87 2.98
20 3.7039 8.87 8.85 2.98
21 3.7145 8.94 8.84 2.99
22 3.7250 8.94 8.83 2.99
23 3.7355 8.98 8.82 3.00
24 3.7460 8.91 8.80 2.98
25 3.7565 8.77 8.79 2.96
26 3.7670 8.62 8.78 2.94
27 3.7775 8.66 8.77 2.94
28 3.7880 8.67 8.76 2.94
29 3.7985 8.62 8.75 2.94
30 3.8090 8.55 8.74 2.92
31 3.8195 8.67 8.72 2.94
32 3.8300 8.86 8.71 2.98
33 3.8405 9.00 8.70 3.00
34 3.8510 9.26 8.69 3.04
35 3.8615 9.35 8.68 3.06
36 3.8720 9.32 8.67 3.05
37 3.8825 9.03 8.66 3.01
38 3.8930 8.84 8.65 2.97
39 3.9035 8.77 8.64 2.96
40 3.9140 8.76 8.63 2.96
41 3.9245 8.69 8.62 2.95
42 3.9350 8.63 8.61 2.94
43 3.9455 8.46 8.61 2.91
44 3.9560 8.47 8.60 2.91
45 3.9665 8.49 8.59 2.91
46 3.9770 8.63 8.58 2.94
47 3.9875 8.68 8.57 2.95
48 3.9980 8.75 8.56 2.96
49 4.0085 8.85 8.55 2.97
50 4.0190 8.81 8.54 2.97
51 4.0295 8.73 8.54 2.96
52 4.0400 8.64 8.53 2.94
53 4.0505 8.56 8.52 2.93
54 4.0610 8.53 8.51 2.92
55 4.0715 8.51 8.51 2.92
56 4.0820 8.51 8.50 2.92
57 4.0925 8.63 8.49 2.94
58 4.1030 8.52 8.48 2.92
59 4.1135 8.47 8.48 2.91
60 4.1240 8.44 8.47 2.91
61 4.1344 8.41 8.46 2.90
62 4.1449 8.74 8.45 2.96
63 4.1554 8.78 8.45 2.96
64 4.1659 8.72 8.44 2.95
65 4.1764 8.48 8.43 2.91
66 4.1869 8.25 8.43 2.87
67 4.1974 8.24 8.42 2.87
68 4.2079 8.26 8.41 2.87
69 4.2184 8.22 8.41 2.87
70 4.2289 8.29 8.40 2.88
71 4.2394 8.29 8.40 2.88
72 4.2499 8.54 8.39 2.92
73 4.2604 8.55 8.38 2.92
74 4.2709 8.55 8.38 2.92
75 4.2814 8.34 8.37 2.89
76 4.2919 8.29 8.37 2.88
77 4.3024 8.35 8.36 2.89
78 4.3129 8.42 8.36 2.90
79 4.3234 8.34 8.35 2.89
80 4.3339 8.24 8.35 2.87
81 4.3444 8.14 8.34 2.85
82 4.3549 8.09 8.33 2.84
83 4.3654 8.12 8.33 2.85
84 4.3759 8.03 8.32 2.83
85 4.3864 8.14 8.32 2.85
86 4.3969 8.06 8.31 2.84
87 4.4074 8.12 8.31 2.85
88 4.4179 8.17 8.30 2.86
89 4.4284 8.33 8.30 2.89
90 4.4389 8.41 8.29 2.90
91 4.4494 8.35 8.29 2.89
92 4.4598 8.33 8.29 2.89
93 4.4703 8.27 8.28 2.88
94 4.4808 8.27 8.28 2.88
95 4.4913 8.23 8.27 2.87
96 4.5018 8.19 8.27 2.86
97 4.5123 8.18 8.26 2.86
98 4.5228 8.24 8.26 2.87
99 4.5333 8.30 8.26 2.88
100 4.5438 8.41 8.25 2.90
101 4.5543 8.40 8.25 2.90
102 4.5648 8.35 8.24 2.89
103 4.5753 8.28 8.24 2.88
104 4.5858 8.15 8.23 2.86
105 4.5963 8.07 8.23 2.84
106 4.6068 8.05 8.23 2.84
107 4.6173 8.16 8.22 2.86
108 4.6278 8.23 8.22 2.87
109 4.6383 8.29 8.22 2.88
110 4.6488 8.29 8.21 2.88
111 4.6592 8.35 8.21 2.89
112 4.6698 8.27 8.20 2.88
113 4.6802 8.19 8.20 2.86
114 4.6907 7.99 8.20 2.83
115 4.7012 7.86 8.19 2.80
116 4.7117 7.86 8.19 2.80
117 4.7222 7.95 8.19 2.82
118 4.7327 8.03 8.18 2.83
119 4.7432 7.98 8.18 2.83
120 4.7537 8.02 8.18 2.83
121 4.7642 8.05 8.17 2.84
122 4.7747 8.13 8.17 2.85
123 4.7852 8.28 8.17 2.88
124 4.7957 8.28 8.16 2.88
125 4.8062 8.33 8.16 2.89
126 4.8166 8.18 8.16 2.86
127 4.8271 8.16 8.15 2.86
128 4.8376 8.15 8.15 2.86
129 4.8481 8.22 8.15 2.87
130 4.8586 8.35 8.15 2.89
131 4.8691 8.35 8.14 2.89
132 4.8796 8.26 8.14 2.87
133 4.8901 8.18 8.14 2.86
134 4.9006 8.24 8.13 2.87
135 4.9111 8.31 8.13 2.88
136 4.9216 8.38 8.13 2.89
137 4.9321 8.30 8.13 2.88
138 4.9426 8.29 8.12 2.88
139 4.9531 8.19 8.12 2.86
140 4.9636 8.23 8.12 2.87
141 4.9740 8.12 8.11 2.85
142 4.9845 8.20 8.11 2.86
143 4.9950 8.06 8.11 2.84
144 5.0055 8.22 8.11 2.87
145 5.0160 8.09 8.10 2.84
146 5.0265 8.13 8.10 2.85
147 5.0370 8.00 8.10 2.83
148 5.0475 7.97 8.10 2.82
149 5.0580 7.84 8.09 2.80
150 5.0685 7.84 8.09 2.80
151 5.0789 7.82 8.09 2.80
152 5.0894 7.95 8.09 2.82
153 5.0999 7.94 8.08 2.82
154 5.1104 8.01 8.08 2.83
155 5.1209 7.99 8.08 2.83
156 5.1314 8.07 8.08 2.84
157 5.1419 8.10 8.08 2.85
158 5.1524 8.12 8.07 2.85
159 5.1629 8.06 8.07 2.84
160 5.1734 8.02 8.07 2.83
161 5.1839 8.09 8.07 2.84
162 5.1943 8.10 8.06 2.85
163 5.2048 8.25 8.06 2.87
164 5.2153 8.21 8.06 2.87
165 5.2258 8.25 8.06 2.87
166 5.2363 8.09 8.05 2.84
167 5.2468 8.03 8.05 2.83
168 5.2573 8.07 8.05 2.84
169 5.2678 8.02 8.05 2.83
170 5.2783 8.09 8.05 2.85
171 5.2888 8.12 8.04 2.85
172 5.2992 8.26 8.04 2.87
173 5.3097 8.37 8.04 2.89
174 5.3202 8.37 8.04 2.89
175 5.3307 8.32 8.04 2.89
176 5.3412 8.24 8.03 2.87
177 5.3517 8.21 8.03 2.86
178 5.3622 8.22 8.03 2.87
179 5.3727 8.25 8.03 2.87
180 5.3832 8.26 8.03 2.87
181 5.3937 8.19 8.02 2.86
182 5.4041 8.10 8.02 2.85
183 5.4146 8.07 8.02 2.84
184 5.4251 8.09 8.02 2.84
185 5.4356 8.06 8.02 2.84
186 5.4461 8.03 8.01 2.83
187 5.4566 7.99 8.01 2.83
188 5.4671 8.01 8.01 2.83
189 5.4776 8.03 8.01 2.83
190 5.4880 8.05 8.01 2.84
191 5.4985 8.15 8.00 2.85
192 5.5090 8.22 8.00 2.87
193 5.5195 8.27 8.00 2.88
194 5.5300 8.17 8.00 2.86
195 5.5405 8.16 8.00 2.86
196 5.5510 8.04 8.00 2.84
197 5.5615 7.98 8.00 2.82
198 5.5719 7.93 7.99 2.82
199 5.5824 7.99 7.99 2.83
200 5.5929 8.18 7.99 2.86
201 5.6034 8.15 7.99 2.86
202 5.6139 7.97 7.99 2.82
203 5.6244 7.87 7.99 2.81
204 5.6349 7.86 7.99 2.80
205 5.6453 7.92 7.99 2.81
206 5.6558 7.89 7.99 2.81
207 5.6663 7.87 7.99 2.81
208 5.6768 7.89 7.99 2.81
209 5.6873 7.84 8.00 2.80
210 5.6978 7.85 8.01 2.80
211 5.7083 7.85 8.03 2.80
212 5.7188 8.02 8.08 2.83
213 5.7292 8.14 8.16 2.85
214 5.7397 8.32 8.32 2.88
215 5.7502 8.46 8.59 2.91
216 5.7607 8.84 9.02 2.97
217 5.7712 9.59 9.66 3.10
218 5.7817 10.71 10.54 3.27
219 5.7922 11.97 11.67 3.46
220 5.8026 13.09 12.98 3.62
221 5.8131 14.22 14.37 3.77
222 5.8236 15.09 15.65 3.89
223 5.8341 16.00 16.63 4.00
224 5.8446 16.43 17.15 4.05
225 5.8551 16.51 17.10 4.06
226 5.8656 15.95 16.49 3.99
227 5.8760 15.21 15.44 3.90
228 5.8865 14.12 14.13 3.76
229 5.8970 12.74 12.75 3.57
230 5.9075 11.37 11.45 3.37
231 5.9180 10.25 10.36 3.20
232 5.9285 9.34 9.51 3.06
233 5.9390 8.75 8.90 2.96
234 5.9495 8.40 8.50 2.90
235 5.9599 8.24 8.25 2.87
236 5.9704 8.11 8.10 2.85
237 5.9809 7.99 8.02 2.83
238 5.9914 7.95 7.98 2.82
239 6.0019 7.90 7.95 2.81
240 6.0124 7.89 7.94 2.81
241 6.0228 7.79 7.93 2.79
242 6.0333 7.79 7.92 2.79
243 6.0438 7.84 7.92 2.80
244 6.0543 7.91 7.91 2.81
245 6.0648 7.91 7.91 2.81
246 6.0753 7.90 7.91 2.81
247 6.0857 7.84 7.90 2.80
248 6.0962 7.84 7.90 2.80
249 6.1067 7.79 7.90 2.79
250 6.1172 7.87 7.89 2.81
251 6.1277 7.87 7.89 2.80
252 6.1382 7.94 7.89 2.82
253 6.1487 7.83 7.89 2.80
254 6.1591 7.84 7.88 2.80
255 6.1696 7.76 7.88 2.79
256 6.1801 7.73 7.88 2.78
257 6.1906 7.60 7.88 2.76
258 6.2011 7.68 7.88 2.77
259 6.2116 7.72 7.87 2.78
260 6.2220 7.85 7.87 2.80
261 6.2325 7.82 7.87 2.80
262 6.2430 7.81 7.87 2.79
263 6.2535 7.81 7.86 2.80
264 6.2640 7.74 7.86 2.78
265 6.2744 7.73 7.86 2.78
266 6.2849 7.72 7.86 2.78
267 6.2954 7.82 7.86 2.80
268 6.3059 7.87 7.85 2.81
269 6.3164 7.86 7.85 2.80
270 6.3269 7.86 7.85 2.80
271 6.3373 7.76 7.85 2.79
272 6.3478 7.71 7.85 2.78
273 6.3583 7.70 7.84 2.77
274 6.3688 7.81 7.84 2.79
275 6.3793 7.90 7.84 2.81
276 6.3898 7.92 7.84 2.81
277 6.4002 7.81 7.84 2.79
278 6.4107 7.83 7.84 2.80
279 6.4212 7.84 7.83 2.80
280 6.4317 7.89 7.83 2.81
281 6.4422 7.79 7.83 2.79
282 6.4527 7.64 7.83 2.76
283 6.4631 7.59 7.83 2.75
284 6.4736 7.58 7.82 2.75
285 6.4841 7.58 7.82 2.75
286 6.4946 7.57 7.82 2.75
287 6.5051 7.58 7.82 2.75
288 6.5155 7.68 7.82 2.77
289 6.5260 7.71 7.82 2.78
290 6.5365 7.77 7.81 2.79
291 6.5470 7.82 7.81 2.80
292 6.5575 7.82 7.81 2.80
293 6.5679 7.76 7.81 2.78
294 6.5784 7.65 7.81 2.77
295 6.5889 7.65 7.81 2.77
296 6.5994 7.73 7.80 2.78
297 6.6099 7.81 7.80 2.80
298 6.6203 7.82 7.80 2.80
299 6.6308 7.86 7.80 2.80
300 6.6413 7.95 7.80 2.82
301 6.6518 7.96 7.79 2.82
302 6.6623 7.96 7.79 2.82
303 6.6727 7.92 7.79 2.82
304 6.6832 7.95 7.79 2.82
305 6.6937 7.95 7.79 2.82
306 6.7042 7.91 7.79 2.81
307 6.7147 7.85 7.79 2.80
308 6.7252 7.79 7.78 2.79
309 6.7356 7.71 7.78 2.78
310 6.7461 7.61 7.78 2.76
311 6.7566 7.66 7.78 2.77
312 6.7671 7.77 7.78 2.79
313 6.7776 7.86 7.78 2.80
314 6.7880 7.87 7.78 2.80
315 6.7985 7.84 7.77 2.80
316 6.8090 7.82 7.77 2.80
317 6.8195 7.78 7.77 2.79
318 6.8299 7.80 7.77 2.79
319 6.8404 7.84 7.77 2.80
320 6.8509 7.83 7.77 2.80
321 6.8614 7.75 7.77 2.78
322 6.8719 7.70 7.76 2.78
323 6.8823 7.79 7.76 2.79
324 6.8928 7.85 7.76 2.80
325 6.9033 7.79 7.76 2.79
326 6.9138 7.72 7.76 2.78
327 6.9243 7.71 7.76 2.78
328 6.9347 7.75 7.76 2.78
329 6.9452 7.82 7.76 2.80
330 6.9557 7.79 7.76 2.79
331 6.9662 7.74 7.76 2.78
332 6.9767 7.70 7.76 2.77
333 6.9871 7.66 7.76 2.77
334 6.9976 7.78 7.76 2.79
335 7.0081 7.87 7.76 2.81
336 7.0186 7.96 7.76 2.82
337 7.0290 7.94 7.77 2.82
338 7.0395 7.82 7.79 2.80
339 7.0500 7.80 7.83 2.79
340 7.0605 7.91 7.91 2.81
341 7.0710 8.12 8.02 2.85
342 7.0814 8.34 8.21 2.89
343 7.0919 8.64 8.47 2.94
344 7.1024 9.04 8.82 3.01
345 7.1129 9.51 9.25 3.08
346 7.1234 9.83 9.74 3.14
347 7.1338 10.09 10.22 3.18
348 7.1443 10.39 10.64 3.22
349 7.1548 10.67 10.92 3.27
350 7.1653 10.81 11.02 3.29
351 7.1757 10.86 10.91 3.29
352 7.1862 10.65 10.62 3.26
353 7.1967 10.28 10.19 3.21
354 7.2072 9.77 9.71 3.13
355 7.2176 9.28 9.22 3.05
356 7.2281 8.80 8.79 2.97
357 7.2386 8.39 8.44 2.90
358 7.2491 8.12 8.18 2.85
359 7.2596 7.97 8.00 2.82
360 7.2700 7.80 7.88 2.79
361 7.2805 7.79 7.80 2.79
362 7.2910 7.77 7.76 2.79
363 7.3015 7.86 7.74 2.80
364 7.3119 7.90 7.73 2.81
365 7.3224 7.86 7.72 2.80
366 7.3329 7.85 7.72 2.80
367 7.3434 7.71 7.71 2.78
368 7.3538 7.71 7.71 2.78
369 7.3643 7.64 7.71 2.76
370 7.3748 7.65 7.71 2.77
371 7.3853 7.70 7.70 2.77
372 7.3958 7.72 7.70 2.78
373 7.4062 7.78 7.70 2.79
374 7.4167 7.79 7.70 2.79
375 7.4272 7.80 7.70 2.79
376 7.4377 7.82 7.70 2.80
377 7.4481 7.78 7.70 2.79
378 7.4586 7.81 7.69 2.79
379 7.4691 7.83 7.69 2.80
380 7.4796 7.88 7.69 2.81
381 7.4900 7.82 7.69 2.80
382 7.5005 7.81 7.69 2.79
383 7.5110 7.76 7.69 2.79
384 7.5215 7.84 7.69 2.80
385 7.5319 7.85 7.69 2.80
386 7.5424 7.78 7.68 2.79
387 7.5529 7.76 7.68 2.79
388 7.5634 7.68 7.68 2.77
389 7.5739 7.71 7.68 2.78
390 7.5843 7.75 7.68 2.78
391 7.5948 7.77 7.68 2.79
392 7.6053 7.78 7.68 2.79
393 7.6157 7.76 7.68 2.78
394 7.6262 7.75 7.68 2.78
395 7.6367 7.71 7.68 2.78
396 7.6472 7.69 7.67 2.77
397 7.6576 7.67 7.67 2.77
398 7.6681 7.63 7.67 2.76
399 7.6786 7.64 7.67 2.76
400 7.6891 7.66 7.67 2.77
401 7.6996 7.76 7.67 2.79
402 7.7100 7.74 7.67 2.78
403 7.7205 7.73 7.67 2.78
404 7.7310 7.64 7.67 2.76
405 7.7414 7.65 7.67 2.77
406 7.7519 7.68 7.67 2.77
407 7.7624 7.71 7.66 2.78
408 7.7729 7.76 7.66 2.79
409 7.7833 7.78 7.66 2.79
410 7.7938 7.77 7.66 2.79
411 7.8043 7.73 7.66 2.78
412 7.8148 7.70 7.66 2.78
413 7.8252 7.66 7.66 2.77
414 7.8357 7.57 7.66 2.75
415 7.8462 7.49 7.66 2.74
416 7.8567 7.57 7.66 2.75
417 7.8671 7.61 7.66 2.76
418 7.8776 7.54 7.66 2.75
419 7.8881 7.44 7.66 2.73
420 7.8986 7.40 7.66 2.72
421 7.9090 7.54 7.65 2.75
422 7.9195 7.61 7.65 2.76
423 7.9300 7.74 7.65 2.78
424 7.9405 7.76 7.65 2.79
425 7.9509 7.77 7.65 2.79
426 7.9614 7.76 7.65 2.79
427 7.9719 7.75 7.65 2.78
428 7.9823 7.69 7.65 2.77
429 7.9928 7.59 7.65 2.75
430 8.0033 7.52 7.65 2.74
431 8.0138 7.54 7.65 2.75
432 8.0242 7.60 7.65 2.76
433 8.0347 7.65 7.65 2.77
434 8.0452 7.63 7.65 2.76
435 8.0557 7.60 7.65 2.76
436 8.0661 7.55 7.65 2.75
437 8.0766 7.53 7.65 2.74
438 8.0871 7.58 7.65 2.75
439 8.0976 7.61 7.65 2.76
440 8.1080 7.58 7.65 2.75
441 8.1185 7.52 7.65 2.74
442 8.1290 7.48 7.65 2.74
443 8.1394 7.48 7.65 2.74
444 8.1499 7.56 7.65 2.75
445 8.1604 7.65 7.65 2.77
446 8.1709 7.80 7.66 2.79
447 8.1813 7.86 7.67 2.80
448 8.1918 7.89 7.69 2.81
449 8.2023 7.83 7.72 2.80
450 8.2128 7.80 7.76 2.79
451 8.2232 7.78 7.81 2.79
452 8.2337 7.85 7.86 2.80
453 8.2442 7.94 7.91 2.82
454 8.2546 7.99 7.96 2.83
455 8.2651 8.07 7.99 2.84
456 8.2756 8.03 8.00 2.83
457 8.2860 8.00 7.99 2.83
458 8.2965 7.85 7.96 2.80
459 8.3070 7.80 7.91 2.79
460 8.3175 7.80 7.86 2.79
461 8.3279 7.77 7.80 2.79
462 8.3384 7.78 7.76 2.79
463 8.3489 7.68 7.72 2.77
464 8.3594 7.66 7.69 2.77
465 8.3698 7.60 7.67 2.76
466 8.3803 7.58 7.65 2.75
467 8.3908 7.62 7.65 2.76
468 8.4012 7.66 7.64 2.77
469 8.4117 7.66 7.64 2.77
470 8.4222 7.68 7.64 2.77
471 8.4327 7.68 7.64 2.77
472 8.4431 7.69 7.64 2.77
473 8.4536 7.67 7.64 2.77
474 8.4641 7.65 7.64 2.77
475 8.4745 7.71 7.64 2.78
476 8.4850 7.70 7.64 2.77
477 8.4955 7.70 7.64 2.77
478 8.5059 7.69 7.64 2.77
479 8.5164 7.73 7.63 2.78
480 8.5269 7.69 7.63 2.77
481 8.5374 7.70 7.63 2.78
482 8.5478 7.65 7.63 2.77
483 8.5583 7.66 7.63 2.77
484 8.5688 7.66 7.63 2.77
485 8.5793 7.71 7.63 2.78
486 8.5897 7.72 7.63 2.78
487 8.6002 7.74 7.63 2.78
488 8.6107 7.66 7.63 2.77
489 8.6211 7.60 7.63 2.76
490 8.6316 7.55 7.63 2.75
491 8.6421 7.57 7.63 2.75
492 8.6525 7.65 7.63 2.77
493 8.6630 7.72 7.63 2.78
494 8.6735 7.73 7.63 2.78
495 8.6840 7.79 7.63 2.79
496 8.6944 7.74 7.63 2.78
497 8.7049 7.79 7.63 2.79
498 8.7154 7.73 7.63 2.78
499 8.7258 7.75 7.63 2.78
500 8.7363 7.72 7.63 2.78
501 8.7468 7.71 7.63 2.78
502 8.7572 7.68 7.63 2.77
503 8.7677 7.67 7.63 2.77
504 8.7782 7.64 7.63 2.76
505 8.7886 7.62 7.64 2.76
506 8.7991 7.62 7.64 2.76
507 8.8096 7.62 7.64 2.76
508 8.8201 7.56 7.64 2.75
509 8.8305 7.58 7.64 2.75
510 8.8410 7.55 7.64 2.75
511 8.8515 7.62 7.64 2.76
512 8.8619 7.63 7.64 2.76
513 8.8724 7.75 7.64 2.78
514 8.8829 7.82 7.64 2.80
515 8.8933 7.78 7.64 2.79
516 8.9038 7.73 7.64 2.78
517 8.9143 7.67 7.64 2.77
518 8.9248 7.64 7.64 2.76
519 8.9352 7.65 7.64 2.76
520 8.9457 7.60 7.64 2.76
521 8.9562 7.65 7.64 2.77
522 8.9666 7.67 7.64 2.77
523 8.9771 7.74 7.64 2.78
524 8.9876 7.68 7.64 2.77
525 8.9980 7.62 7.64 2.76
526 9.0085 7.49 7.64 2.74
527 9.0190 7.51 7.64 2.74
528 9.0294 7.54 7.64 2.75
529 9.0399 7.64 7.64 2.76
530 9.0504 7.64 7.64 2.76
531 9.0609 7.60 7.64 2.76
532 9.0713 7.65 7.64 2.77
533 9.0818 7.72 7.64 2.78
534 9.0922 7.71 7.64 2.78
535 9.1027 7.64 7.64 2.76
536 9.1132 7.66 7.64 2.77
537 9.1237 7.69 7.64 2.77
538 9.1341 7.76 7.64 2.79
539 9.1446 7.64 7.64 2.76
540 9.1551 7.65 7.64 2.77
541 9.1655 7.61 7.64 2.76
542 9.1760 7.66 7.64 2.77
543 9.1865 7.59 7.64 2.75
544 9.1969 7.58 7.64 2.75
545 9.2074 7.61 7.65 2.76
546 9.2179 7.67 7.65 2.77
547 9.2283 7.70 7.65 2.77
548 9.2388 7.61 7.65 2.76
549 9.2493 7.63 7.65 2.76
550 9.2597 7.71 7.65 2.78
551 9.2702 7.81 7.65 2.79
552 9.2807 7.82 7.65 2.80
553 9.2911 7.81 7.65 2.79
554 9.3016 7.76 7.65 2.79
555 9.3121 7.70 7.65 2.77
556 9.3225 7.65 7.65 2.77
557 9.3330 7.75 7.65 2.78
558 9.3435 7.86 7.65 2.80
559 9.3539 7.90 7.65 2.81
560 9.3644 7.79 7.65 2.79
561 9.3749 7.80 7.65 2.79
562 9.3854 7.81 7.65 2.79
563 9.3958 7.83 7.65 2.80
564 9.4063 7.77 7.65 2.79
565 9.4167 7.70 7.65 2.78
566 9.4272 7.70 7.65 2.78
567 9.4377 7.67 7.65 2.77
568 9.4481 7.67 7.66 2.77
569 9.4586 7.66 7.66 2.77
570 9.4691 7.64 7.66 2.76
571 9.4796 7.59 7.66 2.76
572 9.4900 7.62 7.66 2.76
573 9.5005 7.63 7.66 2.76
574 9.5110 7.73 7.66 2.78
575 9.5214 7.70 7.66 2.77
576 9.5319 7.68 7.66 2.77
577 9.5423 7.63 7.66 2.76
578 9.5528 7.59 7.66 2.76
579 9.5633 7.66 7.66 2.77
580 9.5737 7.67 7.66 2.77
581 9.5842 7.71 7.66 2.78
582 9.5947 7.73 7.66 2.78
583 9.6052 7.71 7.66 2.78
584 9.6156 7.78 7.66 2.79
585 9.6261 7.77 7.66 2.79
586 9.6365 7.83 7.66 2.80
587 9.6470 7.80 7.67 2.79
588 9.6575 7.86 7.67 2.80
589 9.6679 7.83 7.67 2.80
590 9.6784 7.79 7.67 2.79
591 9.6889 7.73 7.67 2.78
592 9.6994 7.66 7.67 2.77
593 9.7098 7.58 7.67 2.75
594 9.7203 7.52 7.67 2.74
595 9.7307 7.53 7.67 2.74
596 9.7412 7.60 7.67 2.76
597 9.7517 7.59 7.67 2.76
598 9.7621 7.56 7.67 2.75
599 9.7726 7.54 7.67 2.75
600 9.7831 7.55 7.67 2.75
601 9.7935 7.58 7.67 2.75
602 9.8040 7.68 7.67 2.77
603 9.8145 7.67 7.67 2.77
604 9.8249 7.69 7.68 2.77
605 9.8354 7.68 7.68 2.77
606 9.8459 7.73 7.68 2.78
607 9.8563 7.79 7.68 2.79
608 9.8668 7.82 7.68 2.80
609 9.8773 7.84 7.68 2.80
610 9.8877 7.82 7.68 2.80
611 9.8982 7.77 7.68 2.79
612 9.9087 7.73 7.68 2.78
613 9.9191 7.68 7.68 2.77
614 9.9296 7.65 7.68 2.77
615 9.9401 7.73 7.68 2.78
616 9.9505 7.78 7.68 2.79
617 9.9610 7.79 7.69 2.79
618 9.9714 7.72 7.69 2.78
619 9.9819 7.75 7.69 2.78
620 9.9924 7.81 7.69 2.79
621 10.0028 7.82 7.70 2.80
622 10.0133 7.83 7.70 2.80
623 10.0238 7.81 7.72 2.79
624 10.0342 7.81 7.74 2.79
625 10.0447 7.82 7.78 2.80
626 10.0552 7.81 7.85 2.79
627 10.0656 7.88 7.94 2.81
628 10.0761 8.03 8.06 2.83
629 10.0866 8.20 8.21 2.86
630 10.0970 8.41 8.38 2.90
631 10.1075 8.62 8.55 2.94
632 10.1180 8.81 8.71 2.97
633 10.1284 8.97 8.81 3.00
634 10.1389 9.05 8.85 3.01
635 10.1494 9.06 8.82 3.01
636 10.1598 8.95 8.72 2.99
637 10.1703 8.76 8.58 2.96
638 10.1807 8.48 8.41 2.91
639 10.1912 8.23 8.24 2.87
640 10.2017 7.97 8.09 2.82
641 10.2121 7.87 7.96 2.80
642 10.2226 7.82 7.87 2.80
643 10.2331 7.82 7.80 2.80
644 10.2435 7.78 7.76 2.79
645 10.2540 7.78 7.73 2.79
646 10.2645 7.79 7.72 2.79
647 10.2749 7.76 7.71 2.79
648 10.2854 7.70 7.71 2.78
649 10.2958 7.66 7.71 2.77
650 10.3063 7.65 7.70 2.77
651 10.3168 7.65 7.70 2.77
652 10.3272 7.65 7.70 2.77
653 10.3377 7.67 7.70 2.77
654 10.3482 7.63 7.70 2.76
655 10.3586 7.60 7.70 2.76
656 10.3691 7.60 7.70 2.76
657 10.3796 7.62 7.70 2.76
658 10.3900 7.58 7.70 2.75
659 10.4005 7.55 7.71 2.75
660 10.4109 7.55 7.71 2.75
661 10.4214 7.64 7.71 2.76
662 10.4319 7.65 7.71 2.77
663 10.4423 7.70 7.71 2.78
664 10.4528 7.70 7.71 2.78
665 10.4633 7.75 7.71 2.78
666 10.4737 7.77 7.71 2.79
667 10.4842 7.81 7.71 2.79
668 10.4946 7.81 7.71 2.79
669 10.5051 7.77 7.71 2.79
670 10.5156 7.73 7.71 2.78
671 10.5260 7.64 7.71 2.76
672 10.5365 7.61 7.71 2.76
673 10.5470 7.60 7.71 2.76
674 10.5574 7.62 7.71 2.76
675 10.5679 7.64 7.71 2.76
676 10.5784 7.59 7.71 2.75
677 10.5888 7.57 7.71 2.75
678 10.5993 7.52 7.71 2.74
679 10.6097 7.56 7.71 2.75
680 10.6202 7.61 7.71 2.76
681 10.6307 7.65 7.71 2.77
682 10.6411 7.64 7.71 2.76
683 10.6516 7.58 7.71 2.75
684 10.6621 7.60 7.71 2.76
685 10.6725 7.63 7.72 2.76
686 10.6830 7.73 7.72 2.78
687 10.6934 7.72 7.72 2.78
688 10.7039 7.71 7.72 2.78
689 10.7144 7.66 7.72 2.77
690 10.7248 7.64 7.72 2.76
691 10.7353 7.63 7.72 2.76
692 10.7458 7.65 7.72 2.77
693 10.7562 7.65 7.72 2.77
694 10.7667 7.70 7.72 2.78
695 10.7772 7.71 7.72 2.78
696 10.7876 7.74 7.72 2.78
697 10.7981 7.75 7.72 2.78
698 10.8085 7.78 7.72 2.79
699 10.8190 7.80 7.72 2.79
700 10.8295 7.84 7.72 2.80
701 10.8399 7.76 7.72 2.79
702 10.8504 7.73 7.72 2.78
703 10.8609 7.63 7.72 2.76
704 10.8713 7.65 7.72 2.77
705 10.8818 7.61 7.72 2.76
706 10.8922 7.65 7.72 2.77
707 10.9027 7.67 7.72 2.77
708 10.9132 7.68 7.72 2.77
709 10.9236 7.63 7.72 2.76
710 10.9341 7.59 7.73 2.75
711 10.9445 7.57 7.73 2.75
712 10.9550 7.62 7.73 2.76
713 10.9655 7.67 7.73 2.77
714 10.9759 7.69 7.73 2.77
715 10.9864 7.72 7.73 2.78
716 10.9969 7.68 7.73 2.77
717 11.0073 7.74 7.73 2.78
718 11.0178 7.70 7.73 2.78
719 11.0282 7.74 7.73 2.78
720 11.0387 7.73 7.73 2.78
721 11.0492 7.75 7.73 2.78
722 11.0596 7.72 7.73 2.78
723 11.0701 7.63 7.73 2.76
724 11.0806 7.54 7.73 2.75
725 11.0910 7.46 7.73 2.73
726 11.1015 7.46 7.73 2.73
727 11.1119 7.51 7.73 2.74
728 11.1224 7.52 7.73 2.74
729 11.1328 7.57 7.73 2.75
730 11.1433 7.54 7.74 2.75
731 11.1538 7.58 7.74 2.75
732 11.1642 7.59 7.74 2.75
733 11.1747 7.51 7.74 2.74
734 11.1852 7.50 7.74 2.74
735 11.1956 7.47 7.74 2.73
736 11.2061 7.54 7.74 2.75
737 11.2165 7.64 7.74 2.76
738 11.2270 7.69 7.74 2.77
739 11.2375 7.77 7.74 2.79
740 11.2479 7.70 7.74 2.78
741 11.2584 7.66 7.74 2.77
742 11.2689 7.63 7.74 2.76
743 11.2793 7.63 7.74 2.76
744 11.2898 7.58 7.74 2.75
745 11.3002 7.55 7.74 2.75
746 11.3107 7.54 7.74 2.75
747 11.3211 7.50 7.75 2.74
748 11.3316 7.58 7.75 2.75
749 11.3421 7.66 7.75 2.77
750 11.3525 7.74 7.75 2.78
751 11.3630 7.72 7.75 2.78
752 11.3735 7.64 7.75 2.76
753 11.3839 7.65 7.75 2.77
754 11.3944 7.68 7.75 2.77
755 11.4048 7.72 7.75 2.78
756 11.4153 7.72 7.76 2.78
757 11.4258 7.72 7.76 2.78
758 11.4362 7.71 7.76 2.78
759 11.4467 7.73 7.76 2.78
760 11.4571 7.69 7.77 2.77
761 11.4676 7.67 7.77 2.77
762 11.4781 7.64 7.77 2.76
763 11.4885 7.61 7.78 2.76
764 11.4990 7.63 7.78 2.76
765 11.5094 7.66 7.78 2.77
766 11.5199 7.68 7.79 2.77
767 11.5304 7.66 7.80 2.77
768 11.5408 7.63 7.81 2.76
769 11.5513 7.62 7.82 2.76
770 11.5618 7.69 7.84 2.77
771 11.5722 7.77 7.88 2.79
772 11.5827 7.84 7.96 2.80
773 11.5931 7.94 8.10 2.82
774 11.6036 8.17 8.35 2.86
775 11.6140 8.49 8.77 2.91
776 11.6245 9.12 9.44 3.02
777 11.6350 10.20 10.45 3.19
778 11.6454 11.77 11.86 3.43
779 11.6559 13.73 13.65 3.71
780 11.6664 15.74 15.76 3.97
781 11.6768 17.73 18.00 4.21
782 11.6873 19.61 20.11 4.43
783 11.6977 21.12 21.77 4.60
784 11.7082 22.04 22.69 4.69
785 11.7186 22.18 22.67 4.71
786 11.7291 21.65 21.74 4.65
787 11.7396 20.21 20.06 4.50
788 11.7500 18.25 17.95 4.27
789 11.7605 15.86 15.70 3.98
790 11.7710 13.64 13.60 3.69
791 11.7814 11.74 11.82 3.43
792 11.7919 10.36 10.43 3.22
793 11.8023 9.36 9.44 3.06
794 11.8128 8.72 8.77 2.95
795 11.8232 8.30 8.36 2.88
796 11.8337 8.02 8.11 2.83
797 11.8442 7.93 7.98 2.82
798 11.8546 7.87 7.90 2.80
799 11.8651 7.81 7.86 2.80
800 11.8755 7.75 7.84 2.78
801 11.8860 7.78 7.83 2.79
802 11.8965 7.78 7.82 2.79
803 11.9069 7.74 7.81 2.78
804 11.9174 7.75 7.81 2.78
805 11.9278 7.78 7.80 2.79
806 11.9383 7.77 7.80 2.79
807 11.9488 7.78 7.80 2.79
808 11.9592 7.79 7.80 2.79
809 11.9697 7.83 7.79 2.80
810 11.9801 7.80 7.79 2.79
811 11.9906 7.79 7.79 2.79
812 12.0010 7.81 7.79 2.79
813 12.0115 7.77 7.79 2.79
814 12.0220 7.70 7.79 2.77
815 12.0324 7.62 7.79 2.76
816 12.0429 7.67 7.79 2.77
817 12.0534 7.71 7.79 2.78
818 12.0638 7.73 7.80 2.78
819 12.0743 7.70 7.80 2.78
820 12.0847 7.68 7.80 2.77
821 12.0952 7.71 7.80 2.78
822 12.1056 7.74 7.81 2.78
823 12.1161 7.78 7.81 2.79
824 12.1266 7.86 7.81 2.80
825 12.1370 7.98 7.82 2.83
826 12.1475 8.03 7.83 2.83
827 12.1579 8.05 7.83 2.84
828 12.1684 8.03 7.84 2.83
829 12.1789 8.07 7.85 2.84
830 12.1893 8.05 7.86 2.84
831 12.1998 8.02 7.87 2.83
832 12.2102 7.99 7.88 2.83
833 12.2207 7.91 7.90 2.81
834 12.2311 7.83 7.92 2.80
835 12.2416 7.82 7.94 2.80
836 12.2521 7.93 7.97 2.82
837 12.2625 8.04 8.01 2.84
838 12.2730 8.15 8.08 2.85
839 12.2834 8.28 8.19 2.88
840 12.2939 8.41 8.41 2.90
841 12.3044 8.69 8.81 2.95
842 12.3148 9.09 9.52 3.02
843 12.3253 10.00 10.77 3.16
844 12.3357 11.71 12.76 3.42
845 12.3462 14.71 15.78 3.84
846 12.3567 19.54 20.03 4.42
847 12.3671 25.81 25.57 5.08
848 12.3776 32.83 32.21 5.73
849 12.3880 39.99 39.44 6.32
850 12.3985 46.22 46.42 6.80
851 12.4089 50.78 52.16 7.13
852 12.4194 53.71 55.65 7.33
853 12.4299 54.40 56.21 7.38
854 12.4403 52.87 53.73 7.27
855 12.4508 48.90 48.70 6.99
856 12.4612 43.15 42.04 6.57
857 12.4717 35.86 34.80 5.99
858 12.4822 28.64 27.88 5.35
859 12.4926 22.30 21.89 4.72
860 12.5031 17.31 17.16 4.16
861 12.5135 13.93 13.72 3.73
862 12.5240 11.76 11.39 3.43
863 12.5344 10.36 9.92 3.22
864 12.5449 9.48 9.04 3.08
865 12.5554 8.89 8.54 2.98
866 12.5658 8.64 8.28 2.94
867 12.5763 8.56 8.13 2.93
868 12.5867 8.49 8.05 2.91
869 12.5972 8.41 8.00 2.90
870 12.6076 8.27 7.97 2.88
871 12.6181 8.18 7.95 2.86
872 12.6286 8.13 7.93 2.85
873 12.6390 8.12 7.91 2.85
874 12.6495 8.10 7.90 2.85
875 12.6599 8.13 7.89 2.85
876 12.6704 8.15 7.88 2.86
877 12.6809 8.19 7.87 2.86
878 12.6913 8.11 7.86 2.85
879 12.7018 8.03 7.86 2.83
880 12.7122 8.00 7.86 2.83
881 12.7227 8.05 7.85 2.84
882 12.7331 8.06 7.85 2.84
883 12.7436 8.00 7.85 2.83
884 12.7541 7.90 7.85 2.81
885 12.7645 7.87 7.85 2.81
886 12.7750 7.80 7.86 2.79
887 12.7854 7.78 7.86 2.79
888 12.7959 7.77 7.86 2.79
889 12.8063 7.85 7.87 2.80
890 12.8168 7.86 7.88 2.80
891 12.8273 7.92 7.88 2.81
892 12.8377 7.90 7.89 2.81
893 12.8482 7.94 7.91 2.82
894 12.8586 7.88 7.92 2.81
895 12.8691 7.84 7.93 2.80
896 12.8795 7.82 7.95 2.80
897 12.8900 7.88 7.98 2.81
898 12.9005 7.99 8.00 2.83
899 12.9109 8.03 8.03 2.83
900 12.9214 8.07 8.07 2.84
901 12.9318 8.13 8.13 2.85
902 12.9423 8.22 8.21 2.87
903 12.9528 8.34 8.34 2.89
904 12.9632 8.57 8.60 2.93
905 12.9737 8.89 9.05 2.98
906 12.9841 9.52 9.87 3.09
907 12.9946 10.56 11.32 3.25
908 13.0050 12.55 13.75 3.54
909 13.0155 16.03 17.57 4.00
910 13.0260 22.14 23.17 4.71
911 13.0364 30.87 30.83 5.56
912 13.0469 41.58 40.46 6.45
913 13.0573 53.16 51.52 7.29
914 13.0678 64.04 63.00 8.00
915 13.0782 72.54 73.41 8.52
916 13.0887 78.52 81.11 8.86
917 13.0991 81.50 84.65 9.03
918 13.1096 80.96 83.33 9.00
919 13.1201 76.84 77.41 8.77
920 13.1305 69.19 68.06 8.32
921 13.1410 58.49 56.88 7.65
922 13.1514 46.67 45.45 6.83
923 13.1619 35.56 35.06 5.96
924 13.1723 26.33 26.46 5.13
925 13.1828 19.71 19.91 4.44
926 13.1933 15.38 15.30 3.92
927 13.2037 12.67 12.28 3.56
928 13.2142 10.99 10.41 3.31
929 13.2246 9.99 9.34 3.16
930 13.2351 9.44 8.74 3.07
931 13.2456 9.18 8.42 3.03
932 13.2560 8.97 8.24 2.99
933 13.2665 8.80 8.14 2.97
934 13.2769 8.72 8.07 2.95
935 13.2874 8.64 8.02 2.94
936 13.2978 8.53 7.99 2.92
937 13.3083 8.32 7.96 2.88
938 13.3188 8.19 7.93 2.86
939 13.3292 8.08 7.91 2.84
940 13.3397 8.05 7.89 2.84
941 13.3501 8.01 7.88 2.83
942 13.3606 8.03 7.86 2.83
943 13.3710 8.01 7.85 2.83
944 13.3815 7.98 7.84 2.83
945 13.3919 7.89 7.83 2.81
946 13.4024 7.85 7.83 2.80
947 13.4129 7.86 7.82 2.80
948 13.4233 7.89 7.82 2.81
949 13.4338 7.99 7.81 2.83
950 13.4442 8.01 7.81 2.83
951 13.4547 8.04 7.81 2.84
952 13.4651 7.98 7.82 2.83
953 13.4756 7.98 7.82 2.83
954 13.4860 7.96 7.82 2.82
955 13.4965 7.98 7.83 2.82
956 13.5070 7.93 7.84 2.82
957 13.5174 7.92 7.85 2.81
958 13.5279 7.85 7.86 2.80
959 13.5383 7.89 7.87 2.81
960 13.5488 7.98 7.89 2.82
961 13.5592 8.09 7.92 2.84
962 13.5697 8.16 7.95 2.86
963 13.5802 8.16 8.00 2.86
964 13.5906 8.19 8.08 2.86
965 13.6011 8.33 8.21 2.89
966 13.6115 8.57 8.45 2.93
967 13.6220 8.93 8.90 2.99
968 13.6324 9.46 9.72 3.08
969 13.6429 10.49 11.11 3.24
970 13.6533 12.45 13.37 3.53
971 13.6638 16.03 16.81 4.00
972 13.6743 21.75 21.67 4.66
973 13.6847 28.96 28.00 5.38
974 13.6952 37.31 35.61 6.11
975 13.7056 45.32 43.90 6.73
976 13.7161 52.50 51.91 7.25
977 13.7266 57.93 58.51 7.61
978 13.7370 61.15 62.51 7.82
979 13.7475 61.58 63.14 7.85
980 13.7579 59.40 60.24 7.71
981 13.7684 54.66 54.44 7.39
982 13.7788 47.38 46.77 6.88
983 13.7893 38.94 38.46 6.24
984 13.7997 30.76 30.52 5.55
985 13.8102 23.54 23.69 4.85
986 13.8207 18.02 18.31 4.25
987 13.8311 14.23 14.39 3.77
988 13.8416 11.86 11.75 3.44
989 13.8520 10.45 10.08 3.23
990 13.8625 9.58 9.09 3.09
991 13.8729 9.01 8.52 3.00
992 13.8834 8.64 8.22 2.94
993 13.8939 8.39 8.03 2.90
994 13.9043 8.27 7.93 2.88
995 13.9148 8.16 7.87 2.86
996 13.9252 8.02 7.83 2.83
997 13.9357 7.91 7.80 2.81
998 13.9461 7.87 7.77 2.81
999 13.9566 7.83 7.75 2.80
1000 13.9670 7.81 7.73 2.79
1001 13.9775 7.80 7.72 2.79
1002 13.9880 7.78 7.70 2.79
1003 13.9984 7.76 7.69 2.79
1004 14.0089 7.69 7.68 2.77
1005 14.0193 7.71 7.67 2.78
1006 14.0298 7.66 7.66 2.77
1007 14.0402 7.66 7.65 2.77
1008 14.0507 7.67 7.64 2.77
1009 14.0611 7.71 7.64 2.78
1010 14.0716 7.74 7.63 2.78
1011 14.0821 7.67 7.63 2.77
1012 14.0925 7.57 7.62 2.75
1013 14.1030 7.52 7.62 2.74
1014 14.1134 7.51 7.62 2.74
1015 14.1239 7.49 7.62 2.74
1016 14.1343 7.52 7.62 2.74
1017 14.1448 7.54 7.62 2.75
1018 14.1552 7.60 7.62 2.76
1019 14.1657 7.60 7.62 2.76
1020 14.1762 7.63 7.62 2.76
1021 14.1866 7.66 7.63 2.77
1022 14.1971 7.71 7.64 2.78
1023 14.2075 7.69 7.66 2.77
1024 14.2180 7.69 7.70 2.77
1025 14.2284 7.68 7.77 2.77
1026 14.2389 7.75 7.91 2.78
1027 14.2493 7.90 8.15 2.81
1028 14.2598 8.15 8.57 2.85
1029 14.2703 8.73 9.23 2.95
1030 14.2807 9.83 10.23 3.14
1031 14.2912 11.46 11.61 3.39
1032 14.3016 13.52 13.38 3.68
1033 14.3121 15.73 15.46 3.97
1034 14.3225 17.90 17.66 4.23
1035 14.3330 19.76 19.73 4.45
1036 14.3434 21.07 21.34 4.59
1037 14.3539 21.75 22.19 4.66
1038 14.3644 21.73 22.12 4.66
1039 14.3748 21.11 21.13 4.59
1040 14.3853 19.57 19.43 4.42
1041 14.3957 17.42 17.32 4.17
1042 14.4062 15.10 15.12 3.89
1043 14.4166 12.90 13.07 3.59
1044 14.4271 11.14 11.35 3.34
1045 14.4375 9.87 10.02 3.14
1046 14.4480 9.01 9.08 3.00
1047 14.4585 8.44 8.45 2.90
1048 14.4689 8.07 8.06 2.84
1049 14.4794 7.84 7.83 2.80
1050 14.4898 7.69 7.70 2.77
1051 14.5003 7.57 7.63 2.75
1052 14.5107 7.58 7.59 2.75
1053 14.5212 7.62 7.56 2.76
1054 14.5316 7.63 7.53 2.76
1055 14.5421 7.60 7.52 2.76
1056 14.5526 7.53 7.51 2.74
1057 14.5630 7.47 7.50 2.73
1058 14.5735 7.40 7.49 2.72
1059 14.5839 7.40 7.49 2.72
1060 14.5944 7.37 7.48 2.71
1061 14.6048 7.35 7.48 2.71
1062 14.6153 7.31 7.47 2.70
1063 14.6257 7.34 7.47 2.71
1064 14.6362 7.33 7.46 2.71
1065 14.6466 7.34 7.46 2.71
1066 14.6571 7.35 7.45 2.71
1067 14.6676 7.38 7.45 2.72
1068 14.6780 7.41 7.45 2.72
1069 14.6885 7.40 7.44 2.72
1070 14.6989 7.36 7.44 2.71
1071 14.7094 7.26 7.44 2.69
1072 14.7198 7.23 7.44 2.69
1073 14.7303 7.28 7.43 2.70
1074 14.7407 7.34 7.44 2.71
1075 14.7512 7.44 7.43 2.73
1076 14.7617 7.46 7.43 2.73
1077 14.7721 7.54 7.43 2.75
1078 14.7826 7.54 7.43 2.75
1079 14.7930 7.53 7.43 2.74
1080 14.8035 7.50 7.42 2.74
1081 14.8139 7.45 7.42 2.73
1082 14.8244 7.40 7.42 2.72
1083 14.8348 7.39 7.42 2.72
1084 14.8453 7.45 7.42 2.73
1085 14.8558 7.48 7.42 2.74
1086 14.8662 7.49 7.41 2.74
1087 14.8767 7.49 7.41 2.74
1088 14.8871 7.43 7.41 2.73
1089 14.8976 7.34 7.41 2.71
1090 14.9080 7.30 7.41 2.70
1091 14.9185 7.29 7.41 2.70
1092 14.9289 7.30 7.40 2.70
1093 14.9394 7.22 7.40 2.69
1094 14.9498 7.27 7.40 2.70
1095 14.9603 7.35 7.40 2.71
1096 14.9707 7.43 7.40 2.73
1097 14.9812 7.43 7.40 2.73
1098 14.9917 7.36 7.40 2.71
1099 15.0021 7.30 7.40 2.70
1100 15.0126 7.30 7.39 2.70
1101 15.0230 7.35 7.39 2.71
1102 15.0335 7.42 7.39 2.72
1103 15.0439 7.38 7.39 2.72
1104 15.0544 7.36 7.39 2.71
1105 15.0648 7.38 7.39 2.72
1106 15.0753 7.41 7.39 2.72
1107 15.0857 7.45 7.39 2.73
1108 15.0962 7.43 7.39 2.73
1109 15.1067 7.41 7.39 2.72
1110 15.1171 7.40 7.39 2.72
1111 15.1276 7.38 7.39 2.72
1112 15.1380 7.47 7.39 2.73
1113 15.1485 7.53 7.38 2.74
1114 15.1589 7.59 7.38 2.75
1115 15.1694 7.61 7.38 2.76
1116 15.1798 7.63 7.38 2.76
1117 15.1903 7.64 7.38 2.76
1118 15.2008 7.65 7.38 2.77
1119 15.2112 7.61 7.39 2.76
1120 15.2217 7.58 7.39 2.75
1121 15.2321 7.53 7.39 2.74
1122 15.2426 7.46 7.39 2.73
1123 15.2530 7.45 7.39 2.73
1124 15.2635 7.42 7.40 2.72
1125 15.2739 7.43 7.40 2.73
1126 15.2844 7.40 7.40 2.72
1127 15.2949 7.47 7.41 2.73
1128 15.3053 7.50 7.42 2.74
1129 15.3158 7.51 7.42 2.74
1130 15.3262 7.45 7.43 2.73
1131 15.3367 7.51 7.44 2.74
1132 15.3471 7.56 7.46 2.75
1133 15.3576 7.55 7.48 2.75
1134 15.3680 7.52 7.52 2.74
1135 15.3785 7.54 7.59 2.75
1136 15.3889 7.66 7.71 2.77
1137 15.3994 7.84 7.94 2.80
1138 15.4099 8.15 8.33 2.85
1139 15.4203 8.67 9.00 2.94
1140 15.4308 9.61 10.04 3.10
1141 15.4412 11.31 11.56 3.36
1142 15.4517 13.68 13.63 3.70
1143 15.4621 16.70 16.22 4.09
1144 15.4726 19.82 19.17 4.45
1145 15.4830 22.71 22.21 4.77
1146 15.4935 25.04 24.93 5.00
1147 15.5039 26.60 26.87 5.16
1148 15.5144 27.30 27.68 5.22
1149 15.5248 27.06 27.17 5.20
1150 15.5353 25.63 25.46 5.06
1151 15.5458 23.18 22.88 4.81
1152 15.5562 20.09 19.87 4.48
1153 15.5667 16.86 16.86 4.11
1154 15.5771 13.94 14.17 3.73
1155 15.5876 11.67 11.97 3.42
1156 15.5980 10.06 10.32 3.17
1157 15.6085 9.04 9.17 3.01
1158 15.6189 8.48 8.43 2.91
1159 15.6294 8.11 7.98 2.85
1160 15.6398 7.92 7.72 2.81
1161 15.6503 7.71 7.57 2.78
1162 15.6608 7.56 7.49 2.75
1163 15.6712 7.42 7.45 2.72
1164 15.6817 7.41 7.42 2.72
1165 15.6921 7.40 7.40 2.72
1166 15.7026 7.45 7.39 2.73
1167 15.7130 7.46 7.37 2.73
1168 15.7235 7.50 7.36 2.74
1169 15.7339 7.49 7.35 2.74
1170 15.7444 7.49 7.35 2.74
1171 15.7549 7.37 7.34 2.71
1172 15.7653 7.32 7.33 2.71
1173 15.7758 7.26 7.33 2.69
1174 15.7862 7.24 7.32 2.69
1175 15.7967 7.20 7.32 2.68
1176 15.8071 7.19 7.31 2.68
1177 15.8176 7.21 7.31 2.69
1178 15.8280 7.25 7.30 2.69
1179 15.8385 7.27 7.30 2.70
1180 15.8490 7.30 7.30 2.70
1181 15.8594 7.33 7.29 2.71
1182 15.8699 7.37 7.29 2.71
1183 15.8803 7.39 7.29 2.72
1184 15.8908 7.40 7.28 2.72
1185 15.9012 7.37 7.28 2.72
1186 15.9117 7.36 7.28 2.71
1187 15.9221 7.36 7.28 2.71
1188 15.9326 7.31 7.27 2.70
1189 15.9430 7.24 7.27 2.69
1190 15.9535 7.15 7.27 2.67
1191 15.9639 7.16 7.27 2.68
1192 15.9744 7.18 7.27 2.68
1193 15.9848 7.19 7.26 2.68
1194 15.9953 7.18 7.26 2.68
1195 16.0058 7.18 7.26 2.68
1196 16.0162 7.22 7.26 2.69
1197 16.0267 7.24 7.26 2.69
1198 16.0371 7.22 7.26 2.69
1199 16.0476 7.24 7.25 2.69
1200 16.0580 7.25 7.25 2.69
1201 16.0685 7.29 7.25 2.70
1202 16.0789 7.26 7.25 2.70
1203 16.0894 7.24 7.25 2.69
1204 16.0998 7.20 7.25 2.68
1205 16.1103 7.19 7.24 2.68
1206 16.1208 7.19 7.24 2.68
1207 16.1312 7.19 7.24 2.68
1208 16.1417 7.16 7.24 2.68
1209 16.1521 7.16 7.24 2.68
1210 16.1626 7.18 7.24 2.68
1211 16.1730 7.23 7.24 2.69
1212 16.1835 7.25 7.23 2.69
1213 16.1939 7.26 7.23 2.69
1214 16.2044 7.26 7.23 2.69
1215 16.2148 7.25 7.23 2.69
1216 16.2253 7.22 7.23 2.69
1217 16.2358 7.23 7.23 2.69
1218 16.2462 7.17 7.23 2.68
1219 16.2567 7.18 7.23 2.68
1220 16.2671 7.13 7.22 2.67
1221 16.2776 7.16 7.22 2.68
1222 16.2880 7.12 7.22 2.67
1223 16.2985 7.13 7.22 2.67
1224 16.3089 7.14 7.21 2.67
1225 16.3194 7.15 7.21 2.67
1226 16.3298 7.13 7.21 2.67
1227 16.3403 7.14 7.22 2.67
1228 16.3508 7.19 7.21 2.68
1229 16.3612 7.19 7.21 2.68
1230 16.3717 7.19 7.21 2.68
1231 16.3821 7.16 7.21 2.68
1232 16.3926 7.22 7.21 2.69
1233 16.4030 7.20 7.21 2.68
1234 16.4135 7.24 7.21 2.69
1235 16.4239 7.25 7.21 2.69
1236 16.4344 7.29 7.21 2.70
1237 16.4449 7.24 7.21 2.69
1238 16.4553 7.24 7.21 2.69
1239 16.4658 7.24 7.21 2.69
1240 16.4762 7.29 7.21 2.70
1241 16.4867 7.30 7.21 2.70
1242 16.4971 7.30 7.21 2.70
1243 16.5076 7.28 7.21 2.70
1244 16.5180 7.23 7.21 2.69
1245 16.5285 7.23 7.21 2.69
1246 16.5389 7.23 7.22 2.69
1247 16.5494 7.26 7.22 2.69
1248 16.5599 7.27 7.22 2.70
1249 16.5703 7.31 7.23 2.70
1250 16.5808 7.30 7.23 2.70
1251 16.5912 7.35 7.23 2.71
1252 16.6017 7.29 7.23 2.70
1253 16.6121 7.27 7.23 2.70
1254 16.6226 7.18 7.22 2.68
1255 16.6330 7.17 7.22 2.68
1256 16.6435 7.17 7.21 2.68
1257 16.6539 7.16 7.21 2.68
1258 16.6644 7.18 7.21 2.68
1259 16.6748 7.22 7.20 2.69
1260 16.6853 7.23 7.20 2.69
1261 16.6957 7.22 7.20 2.69
1262 16.7062 7.21 7.20 2.69
1263 16.7167 7.21 7.20 2.69
1264 16.7271 7.15 7.20 2.67
1265 16.7376 7.05 7.20 2.65
1266 16.7480 7.02 7.20 2.65
1267 16.7585 7.05 7.20 2.65
1268 16.7689 7.12 7.20 2.67
1269 16.7794 7.17 7.20 2.68
1270 16.7898 7.17 7.20 2.68
1271 16.8003 7.15 7.20 2.67
1272 16.8107 7.10 7.20 2.66
1273 16.8212 7.05 7.20 2.66
1274 16.8317 7.09 7.20 2.66
1275 16.8421 7.14 7.21 2.67
1276 16.8526 7.26 7.21 2.69
1277 16.8630 7.25 7.21 2.69
1278 16.8735 7.24 7.22 2.69
1279 16.8839 7.20 7.22 2.68
1280 16.8944 7.21 7.22 2.69
1281 16.9048 7.25 7.23 2.69
1282 16.9153 7.27 7.23 2.70
1283 16.9258 7.28 7.24 2.70
1284 16.9362 7.24 7.25 2.69
1285 16.9467 7.23 7.26 2.69
1286 16.9571 7.20 7.28 2.68
1287 16.9676 7.23 7.31 2.69
1288 16.9780 7.30 7.36 2.70
1289 16.9885 7.42 7.46 2.72
1290 16.9989 7.49 7.63 2.74
1291 17.0094 7.72 7.93 2.78
1292 17.0198 8.19 8.42 2.86
1293 17.0303 9.08 9.14 3.01
1294 17.0408 10.32 10.17 3.21
1295 17.0512 11.85 11.49 3.44
1296 17.0617 13.68 13.07 3.70
1297 17.0721 15.43 14.76 3.93
1298 17.0826 16.88 16.38 4.11
1299 17.0930 17.78 17.66 4.22
1300 17.1035 18.13 18.37 4.26
1301 17.1139 18.00 18.37 4.24
1302 17.1244 17.37 17.65 4.17
1303 17.1348 16.25 16.36 4.03
1304 17.1453 14.64 14.75 3.83
1305 17.1558 12.91 13.05 3.59
1306 17.1662 11.14 11.48 3.34
1307 17.1767 9.77 10.16 3.13
1308 17.1871 8.84 9.14 2.97
1309 17.1976 8.32 8.41 2.88
1310 17.2080 7.90 7.93 2.81
1311 17.2185 7.62 7.63 2.76
1312 17.2289 7.45 7.46 2.73
1313 17.2394 7.42 7.36 2.72
1314 17.2498 7.37 7.31 2.71
1315 17.2603 7.33 7.28 2.71
1316 17.2708 7.27 7.26 2.70
1317 17.2812 7.22 7.25 2.69
1318 17.2917 7.23 7.24 2.69
1319 17.3021 7.26 7.24 2.69
1320 17.3126 7.29 7.24 2.70
1321 17.3230 7.26 7.23 2.69
1322 17.3335 7.28 7.23 2.70
1323 17.3439 7.23 7.23 2.69
1324 17.3544 7.22 7.23 2.69
1325 17.3648 7.18 7.23 2.68
1326 17.3753 7.24 7.23 2.69
1327 17.3857 7.23 7.23 2.69
1328 17.3962 7.26 7.23 2.69
1329 17.4067 7.22 7.24 2.69
1330 17.4171 7.19 7.24 2.68
1331 17.4276 7.18 7.25 2.68
1332 17.4380 7.18 7.26 2.68
1333 17.4485 7.14 7.27 2.67
1334 17.4589 7.11 7.29 2.67
1335 17.4694 7.20 7.33 2.68
1336 17.4798 7.30 7.39 2.70
1337 17.4903 7.44 7.51 2.73
1338 17.5007 7.58 7.72 2.75
1339 17.5112 7.86 8.08 2.80
1340 17.5217 8.41 8.66 2.90
1341 17.5321 9.37 9.51 3.06
1342 17.5426 10.83 10.70 3.29
1343 17.5530 12.65 12.23 3.56
1344 17.5635 14.58 14.01 3.82
1345 17.5739 16.58 15.88 4.07
1346 17.5844 18.13 17.63 4.26
1347 17.5948 19.29 18.95 4.39
1348 17.6053 19.65 19.61 4.43
1349 17.6157 19.38 19.45 4.40
1350 17.6262 18.39 18.52 4.29
1351 17.6367 16.94 17.00 4.12
1352 17.6471 14.99 15.18 3.87
1353 17.6576 12.97 13.31 3.60
1354 17.6680 11.23 11.61 3.35
1355 17.6785 9.86 10.21 3.14
1356 17.6889 8.92 9.15 2.99
1357 17.6994 8.29 8.40 2.88
1358 17.7098 7.93 7.92 2.82
1359 17.7203 7.68 7.62 2.77
1360 17.7307 7.54 7.45 2.75
1361 17.7412 7.47 7.35 2.73
1362 17.7517 7.41 7.30 2.72
1363 17.7621 7.40 7.27 2.72
1364 17.7726 7.34 7.25 2.71
1365 17.7830 7.25 7.24 2.69
1366 17.7935 7.15 7.23 2.67
1367 17.8039 7.11 7.23 2.67
1368 17.8144 7.18 7.22 2.68
1369 17.8248 7.17 7.22 2.68
1370 17.8353 7.13 7.21 2.67
1371 17.8458 7.08 7.21 2.66
1372 17.8562 7.06 7.21 2.66
1373 17.8667 7.10 7.20 2.66
1374 17.8771 7.10 7.20 2.67
1375 17.8876 7.15 7.20 2.67
1376 17.8980 7.13 7.20 2.67
1377 17.9085 7.14 7.20 2.67
1378 17.9189 7.19 7.20 2.68
1379 17.9294 7.21 7.20 2.69
1380 17.9398 7.16 7.20 2.68
1381 17.9503 7.12 7.21 2.67
1382 17.9608 7.15 7.22 2.67
1383 17.9712 7.18 7.24 2.68
1384 17.9817 7.23 7.27 2.69
1385 17.9921 7.31 7.34 2.70
1386 18.0026 7.40 7.45 2.72
1387 18.0130 7.53 7.61 2.74
1388 18.0235 7.78 7.85 2.79
1389 18.0339 8.22 8.17 2.87
1390 18.0444 8.69 8.57 2.95
1391 18.0548 9.11 9.02 3.02
1392 18.0653 9.54 9.46 3.09
1393 18.0758 9.86 9.84 3.14
1394 18.0862 10.07 10.09 3.17
1395 18.0967 10.11 10.16 3.18
1396 18.1071 10.00 10.03 3.16
1397 18.1176 9.74 9.73 3.12
1398 18.1280 9.32 9.33 3.05
1399 18.1385 8.79 8.88 2.96
1400 18.1489 8.31 8.44 2.88
1401 18.1594 7.97 8.07 2.82
1402 18.1698 7.74 7.77 2.78
1403 18.1803 7.57 7.56 2.75
1404 18.1908 7.43 7.41 2.73
1405 18.2012 7.30 7.32 2.70
1406 18.2117 7.26 7.26 2.69
1407 18.2221 7.21 7.23 2.69
1408 18.2326 7.24 7.22 2.69
1409 18.2430 7.25 7.21 2.69
1410 18.2535 7.25 7.20 2.69
1411 18.2640 7.17 7.20 2.68
1412 18.2744 7.13 7.20 2.67
1413 18.2849 7.08 7.20 2.66
1414 18.2953 7.07 7.20 2.66
1415 18.3058 7.04 7.20 2.65
1416 18.3162 7.04 7.20 2.65
1417 18.3267 7.11 7.21 2.67
1418 18.3371 7.15 7.21 2.67
1419 18.3476 7.14 7.21 2.67
1420 18.3580 7.16 7.22 2.68
1421 18.3685 7.21 7.22 2.69
1422 18.3790 7.26 7.22 2.69
1423 18.3894 7.25 7.23 2.69
1424 18.3999 7.28 7.24 2.70
1425 18.4103 7.32 7.25 2.71
1426 18.4208 7.25 7.26 2.69
1427 18.4312 7.17 7.30 2.68
1428 18.4417 7.16 7.35 2.68
1429 18.4521 7.27 7.45 2.70
1430 18.4626 7.40 7.62 2.72
1431 18.4730 7.69 7.92 2.77
1432 18.4835 8.21 8.38 2.87
1433 18.4940 9.03 9.08 3.00
1434 18.5044 10.21 10.03 3.20
1435 18.5149 11.74 11.25 3.43
1436 18.5253 13.36 12.66 3.66
1437 18.5358 14.96 14.13 3.87
1438 18.5462 16.13 15.47 4.02
1439 18.5567 17.00 16.47 4.12
1440 18.5671 17.26 16.92 4.16
1441 18.5776 17.05 16.72 4.13
1442 18.5881 16.24 15.93 4.03
1443 18.5985 14.97 14.70 3.87
1444 18.6090 13.38 13.25 3.66
1445 18.6194 11.78 11.80 3.43
1446 18.6299 10.35 10.50 3.22
1447 18.6403 9.23 9.43 3.04
1448 18.6508 8.52 8.64 2.92
1449 18.6612 7.98 8.09 2.82
1450 18.6717 7.66 7.73 2.77
1451 18.6821 7.47 7.51 2.73
1452 18.6926 7.43 7.39 2.73
1453 18.7031 7.42 7.32 2.72
1454 18.7135 7.36 7.28 2.71
1455 18.7240 7.35 7.26 2.71
1456 18.7344 7.29 7.25 2.70
1457 18.7449 7.30 7.24 2.70
1458 18.7553 7.28 7.23 2.70
1459 18.7658 7.30 7.23 2.70
1460 18.7763 7.29 7.22 2.70
1461 18.7867 7.23 7.22 2.69
1462 18.7972 7.15 7.22 2.67
1463 18.8076 7.09 7.22 2.66
1464 18.8181 7.13 7.21 2.67
1465 18.8285 7.17 7.21 2.68
1466 18.8390 7.20 7.21 2.68
1467 18.8494 7.12 7.21 2.67
1468 18.8599 7.06 7.21 2.66
1469 18.8703 7.05 7.21 2.66
1470 18.8808 7.11 7.21 2.67
1471 18.8913 7.16 7.21 2.68
1472 18.9017 7.17 7.21 2.68
1473 18.9122 7.16 7.21 2.68
1474 18.9226 7.14 7.22 2.67
1475 18.9331 7.18 7.23 2.68
1476 18.9435 7.26 7.24 2.69
1477 18.9540 7.27 7.27 2.70
1478 18.9645 7.32 7.31 2.71
1479 18.9749 7.39 7.35 2.72
1480 18.9854 7.48 7.41 2.73
1481 18.9958 7.48 7.47 2.73
1482 19.0063 7.54 7.53 2.75
1483 19.0167 7.61 7.58 2.76
1484 19.0272 7.68 7.61 2.77
1485 19.0376 7.68 7.60 2.77
1486 19.0481 7.59 7.58 2.76
1487 19.0585 7.51 7.53 2.74
1488 19.0690 7.37 7.47 2.72
1489 19.0795 7.30 7.41 2.70
1490 19.0899 7.24 7.35 2.69
1491 19.1004 7.24 7.31 2.69
1492 19.1108 7.22 7.27 2.69
1493 19.1213 7.22 7.25 2.69
1494 19.1317 7.20 7.23 2.68
1495 19.1422 7.18 7.22 2.68
1496 19.1527 7.15 7.21 2.67
1497 19.1631 7.12 7.21 2.67
1498 19.1736 7.14 7.21 2.67
1499 19.1840 7.19 7.21 2.68
1500 19.1945 7.26 7.21 2.69
1501 19.2049 7.27 7.21 2.70
1502 19.2154 7.24 7.21 2.69
1503 19.2258 7.22 7.21 2.69
1504 19.2363 7.16 7.21 2.68
1505 19.2467 7.17 7.21 2.68
1506 19.2572 7.12 7.21 2.67
1507 19.2677 7.11 7.21 2.67
1508 19.2781 7.09 7.21 2.66
1509 19.2886 7.13 7.21 2.67
1510 19.2990 7.19 7.22 2.68
1511 19.3095 7.20 7.22 2.68
1512 19.3199 7.20 7.22 2.68
1513 19.3304 7.20 7.22 2.68
1514 19.3409 7.19 7.22 2.68
1515 19.3513 7.25 7.22 2.69
1516 19.3618 7.28 7.23 2.70
1517 19.3722 7.34 7.23 2.71
1518 19.3827 7.27 7.25 2.70
1519 19.3931 7.24 7.27 2.69
1520 19.4036 7.24 7.30 2.69
1521 19.4140 7.31 7.35 2.70
1522 19.4245 7.39 7.42 2.72
1523 19.4350 7.50 7.49 2.74
1524 19.4454 7.63 7.58 2.76
1525 19.4559 7.80 7.66 2.79
1526 19.4663 7.90 7.74 2.81
1527 19.4768 7.94 7.78 2.82
1528 19.4872 7.94 7.79 2.82
1529 19.4977 7.89 7.76 2.81
1530 19.5082 7.81 7.70 2.79
1531 19.5186 7.66 7.62 2.77
1532 19.5291 7.55 7.54 2.75
1533 19.5395 7.47 7.45 2.73
1534 19.5500 7.42 7.39 2.72
1535 19.5604 7.38 7.33 2.72
1536 19.5709 7.37 7.29 2.71
1537 19.5813 7.33 7.27 2.71
1538 19.5918 7.28 7.25 2.70
1539 19.6022 7.24 7.25 2.69
1540 19.6127 7.24 7.24 2.69
1541 19.6232 7.25 7.24 2.69
1542 19.6336 7.22 7.24 2.69
1543 19.6441 7.22 7.24 2.69
1544 19.6545 7.24 7.24 2.69
1545 19.6650 7.30 7.24 2.70
1546 19.6754 7.28 7.24 2.70
1547 19.6859 7.26 7.24 2.70
1548 19.6964 7.24 7.24 2.69
1549 19.7068 7.20 7.24 2.68
1550 19.7173 7.16 7.24 2.68
1551 19.7277 7.15 7.24 2.67
1552 19.7382 7.17 7.24 2.68
1553 19.7486 7.19 7.24 2.68
1554 19.7591 7.25 7.24 2.69
1555 19.7696 7.30 7.24 2.70
1556 19.7800 7.30 7.25 2.70
1557 19.7905 7.32 7.25 2.71
1558 19.8009 7.34 7.25 2.71
1559 19.8114 7.37 7.25 2.71
1560 19.8218 7.35 7.25 2.71
1561 19.8323 7.34 7.25 2.71
1562 19.8428 7.33 7.25 2.71
1563 19.8532 7.34 7.25 2.71
1564 19.8637 7.36 7.25 2.71
1565 19.8741 7.37 7.25 2.71
1566 19.8846 7.43 7.25 2.73
1567 19.8950 7.42 7.25 2.72
1568 19.9055 7.39 7.26 2.72
1569 19.9159 7.33 7.26 2.71
1570 19.9264 7.33 7.26 2.71
1571 19.9368 7.32 7.26 2.71
1572 19.9473 7.31 7.26 2.70
1573 19.9578 7.31 7.26 2.70
1574 19.9682 7.33 7.26 2.71
1575 19.9787 7.40 7.26 2.72
1576 19.9891 7.42 7.26 2.72
1577 19.9996 7.43 7.26 2.73
1578 20.0100 7.41 7.26 2.72
1579 20.0205 7.43 7.26 2.73
1580 20.0310 7.43 7.27 2.73
1581 20.0414 7.41 7.27 2.72
1582 20.0519 7.44 7.27 2.73
1583 20.0623 7.41 7.27 2.72
1584 20.0728 7.36 7.27 2.71
1585 20.0832 7.28 7.27 2.70
1586 20.0937 7.30 7.27 2.70
1587 20.1042 7.31 7.27 2.70
1588 20.1146 7.30 7.27 2.70
1589 20.1251 7.26 7.27 2.69
1590 20.1355 7.25 7.27 2.69
1591 20.1460 7.23 7.28 2.69
1592 20.1564 7.21 7.28 2.68
1593 20.1669 7.22 7.28 2.69
1594 20.1773 7.25 7.28 2.69
1595 20.1878 7.31 7.28 2.70
1596 20.1983 7.36 7.28 2.71
1597 20.2087 7.39 7.28 2.72
1598 20.2192 7.40 7.28 2.72
1599 20.2296 7.37 7.29 2.71
1600 20.2401 7.31 7.29 2.70
1601 20.2505 7.27 7.29 2.70
1602 20.2610 7.27 7.30 2.70
1603 20.2715 7.38 7.31 2.72
1604 20.2819 7.43 7.33 2.73
1605 20.2924 7.45 7.35 2.73
1606 20.3028 7.44 7.38 2.73
1607 20.3133 7.46 7.41 2.73
1608 20.3237 7.46 7.45 2.73
1609 20.3342 7.43 7.48 2.73
1610 20.3447 7.49 7.51 2.74
1611 20.3551 7.54 7.52 2.75
1612 20.3656 7.53 7.52 2.74
1613 20.3760 7.51 7.51 2.74
1614 20.3865 7.48 7.48 2.74
1615 20.3969 7.47 7.45 2.73
1616 20.4074 7.41 7.41 2.72
1617 20.4179 7.40 7.38 2.72
1618 20.4283 7.43 7.36 2.73
1619 20.4388 7.49 7.36 2.74
1620 20.4492 7.46 7.34 2.73
1621 20.4597 7.44 7.34 2.73
1622 20.4701 7.40 7.33 2.72
1623 20.4806 7.37 7.33 2.71
1624 20.4911 7.35 7.33 2.71
1625 20.5015 7.41 7.33 2.72
1626 20.5120 7.49 7.33 2.74
1627 20.5224 7.44 7.33 2.73
1628 20.5329 7.40 7.33 2.72
1629 20.5434 7.33 7.34 2.71
1630 20.5538 7.37 7.34 2.71
1631 20.5643 7.35 7.34 2.71
1632 20.5747 7.33 7.34 2.71
1633 20.5852 7.26 7.34 2.69
1634 20.5956 7.21 7.34 2.69
1635 20.6061 7.27 7.35 2.70
1636 20.6166 7.33 7.35 2.71
1637 20.6270 7.38 7.35 2.72
1638 20.6375 7.39 7.35 2.72
1639 20.6479 7.39 7.35 2.72
1640 20.6584 7.29 7.36 2.70
1641 20.6688 7.32 7.36 2.71
1642 20.6793 7.37 7.36 2.72
1643 20.6898 7.48 7.36 2.73
1644 20.7002 7.40 7.37 2.72
1645 20.7107 7.35 7.37 2.71
1646 20.7211 7.32 7.37 2.70
1647 20.7316 7.36 7.38 2.71
1648 20.7420 7.33 7.38 2.71
1649 20.7525 7.38 7.38 2.72
1650 20.7630 7.42 7.39 2.72
1651 20.7734 7.47 7.39 2.73
1652 20.7839 7.43 7.39 2.73
1653 20.7943 7.40 7.40 2.72
1654 20.8048 7.45 7.40 2.73
1655 20.8152 7.40 7.41 2.72
1656 20.8257 7.34 7.41 2.71
1657 20.8362 7.27 7.42 2.70
1658 20.8466 7.34 7.42 2.71
1659 20.8571 7.40 7.44 2.72
1660 20.8675 7.47 7.44 2.73
1661 20.8780 7.46 7.45 2.73
1662 20.8885 7.51 7.46 2.74
1663 20.8989 7.55 7.47 2.75
1664 20.9094 7.60 7.48 2.76
1665 20.9198 7.59 7.49 2.75
1666 20.9303 7.54 7.50 2.75
1667 20.9407 7.48 7.51 2.73
1668 20.9512 7.52 7.53 2.74
1669 20.9617 7.53 7.55 2.74
1670 20.9721 7.47 7.56 2.73
1671 20.9826 7.42 7.59 2.72
1672 20.9930 7.44 7.61 2.73
1673 21.0035 7.53 7.64 2.74
1674 21.0139 7.63 7.67 2.76
1675 21.0244 7.69 7.71 2.77
1676 21.0349 7.74 7.76 2.78
1677 21.0453 7.80 7.83 2.79
1678 21.0558 7.92 7.93 2.82
1679 21.0662 8.06 8.11 2.84
1680 21.0767 8.29 8.43 2.88
1681 21.0871 8.61 8.99 2.93
1682 21.0976 9.32 9.98 3.05
1683 21.1081 10.86 11.63 3.30
1684 21.1185 13.58 14.21 3.68
1685 21.1290 17.94 17.98 4.24
1686 21.1394 24.21 23.08 4.92
1687 21.1499 31.55 29.41 5.62
1688 21.1604 39.52 36.56 6.29
1689 21.1708 46.50 43.75 6.82
1690 21.1813 51.90 49.94 7.20
1691 21.1917 54.90 54.02 7.41
1692 21.2022 55.45 55.10 7.45
1693 21.2126 53.11 52.93 7.29
1694 21.2231 48.36 48.02 6.95
1695 21.2336 41.49 41.36 6.44
1696 21.2440 33.74 34.08 5.81
1697 21.2545 26.29 27.15 5.13
1698 21.2649 20.13 21.21 4.49
1699 21.2754 15.64 16.57 3.95
1700 21.2859 12.68 13.24 3.56
1701 21.2963 10.85 11.01 3.29
1702 21.3068 9.73 9.63 3.12
1703 21.3172 9.01 8.81 3.00
1704 21.3277 8.64 8.36 2.94
1705 21.3381 8.41 8.10 2.90
1706 21.3486 8.27 7.96 2.87
1707 21.3591 8.11 7.88 2.85
1708 21.3695 8.02 7.83 2.83
1709 21.3800 7.97 7.79 2.82
1710 21.3904 7.91 7.76 2.81
1711 21.4009 7.87 7.74 2.81
1712 21.4114 7.78 7.73 2.79
1713 21.4218 7.75 7.72 2.78
1714 21.4323 7.75 7.71 2.78
1715 21.4427 7.81 7.72 2.80
1716 21.4532 7.88 7.73 2.81
1717 21.4636 7.95 7.75 2.82
1718 21.4741 8.03 7.81 2.83
1719 21.4846 8.14 7.91 2.85
1720 21.4950 8.29 8.11 2.88
1721 21.5055 8.54 8.46 2.92
1722 21.5159 9.02 9.06 3.00
1723 21.5264 10.01 10.01 3.16
1724 21.5368 11.62 11.41 3.41
1725 21.5473 13.97 13.33 3.74
1726 21.5578 16.78 15.73 4.10
1727 21.5682 19.61 18.47 4.43
1728 21.5787 22.31 21.25 4.72
1729 21.5891 24.36 23.68 4.94
1730 21.5996 25.69 25.33 5.07
1731 21.6101 26.02 25.84 5.10
1732 21.6205 25.12 25.09 5.01
1733 21.6310 23.20 23.25 4.82
1734 21.6414 20.50 20.71 4.53
1735 21.6519 17.45 17.90 4.18
1736 21.6624 14.67 15.21 3.83
1737 21.6728 12.26 12.89 3.50
1738 21.6833 10.45 11.06 3.23
1739 21.6937 9.28 9.75 3.05
1740 21.7042 8.62 8.86 2.94
1741 21.7146 8.18 8.31 2.86
1742 21.7251 7.86 7.99 2.80
1743 21.7356 7.71 7.80 2.78
1744 21.7460 7.69 7.70 2.77
1745 21.7565 7.74 7.64 2.78
1746 21.7669 7.76 7.60 2.79
1747 21.7774 7.73 7.58 2.78
1748 21.7879 7.68 7.56 2.77
1749 21.7983 7.62 7.54 2.76
1750 21.8088 7.61 7.53 2.76
1751 21.8192 7.53 7.52 2.74
1752 21.8297 7.49 7.51 2.74
1753 21.8402 7.46 7.50 2.73
1754 21.8506 7.49 7.50 2.74
1755 21.8611 7.50 7.49 2.74
1756 21.8715 7.50 7.49 2.74
1757 21.8820 7.47 7.48 2.73
1758 21.8925 7.46 7.48 2.73
1759 21.9029 7.38 7.47 2.72
1760 21.9134 7.34 7.47 2.71
1761 21.9238 7.34 7.47 2.71
1762 21.9343 7.37 7.46 2.71
1763 21.9447 7.38 7.46 2.72
1764 21.9552 7.36 7.46 2.71
1765 21.9657 7.34 7.44 2.71
1766 21.9761 7.36 7.43 2.71
1767 21.9866 7.40 7.43 2.72
1768 21.9970 7.43 7.43 2.73
1769 22.0075 7.45 7.43 2.73
1770 22.0180 7.51 7.43 2.74
1771 22.0284 7.49 7.43 2.74
1772 22.0389 7.44 7.43 2.73
1773 22.0494 7.38 7.43 2.72
1774 22.0598 7.38 7.43 2.72
1775 22.0703 7.34 7.43 2.71
1776 22.0807 7.35 7.43 2.71
1777 22.0912 7.33 7.43 2.71
1778 22.1016 7.39 7.43 2.72
1779 22.1121 7.43 7.43 2.73
1780 22.1226 7.47 7.43 2.73
1781 22.1330 7.51 7.43 2.74
1782 22.1435 7.48 7.43 2.74
1783 22.1539 7.44 7.43 2.73
1784 22.1644 7.37 7.43 2.72
1785 22.1749 7.34 7.43 2.71
1786 22.1853 7.32 7.43 2.71
1787 22.1958 7.33 7.43 2.71
1788 22.2062 7.33 7.43 2.71
1789 22.2167 7.31 7.43 2.70
1790 22.2272 7.31 7.43 2.70
1791 22.2376 7.27 7.43 2.70
1792 22.2481 7.26 7.43 2.69
1793 22.2585 7.28 7.43 2.70
1794 22.2690 7.30 7.44 2.70
1795 22.2795 7.33 7.44 2.71
1796 22.2899 7.31 7.45 2.70
1797 22.3004 7.29 7.47 2.70
1798 22.3108 7.36 7.50 2.71
1799 22.3213 7.44 7.56 2.73
1800 22.3318 7.49 7.63 2.74
1801 22.3422 7.60 7.74 2.76
1802 22.3527 7.76 7.87 2.79
1803 22.3631 7.99 8.03 2.83
1804 22.3736 8.18 8.18 2.86
1805 22.3841 8.39 8.32 2.90
1806 22.3945 8.46 8.42 2.91
1807 22.4050 8.49 8.46 2.91
1808 22.4154 8.40 8.42 2.90
1809 22.4259 8.29 8.32 2.88
1810 22.4364 8.17 8.18 2.86
1811 22.4468 8.05 8.02 2.84
1812 22.4573 7.87 7.87 2.81
1813 22.4677 7.72 7.74 2.78
1814 22.4782 7.60 7.63 2.76
1815 22.4887 7.52 7.55 2.74
1816 22.4991 7.45 7.50 2.73
1817 22.5096 7.40 7.47 2.72
1818 22.5200 7.34 7.45 2.71
1819 22.5305 7.31 7.44 2.70
1820 22.5410 7.29 7.44 2.70
1821 22.5514 7.33 7.44 2.71
1822 22.5619 7.32 7.43 2.71
1823 22.5723 7.36 7.43 2.71
1824 22.5828 7.39 7.43 2.72
1825 22.5933 7.45 7.44 2.73
1826 22.6037 7.46 7.44 2.73
1827 22.6142 7.42 7.44 2.72
1828 22.6246 7.33 7.44 2.71
1829 22.6351 7.28 7.44 2.70
1830 22.6456 7.27 7.45 2.70
1831 22.6560 7.31 7.45 2.70
1832 22.6665 7.31 7.47 2.70
1833 22.6769 7.39 7.49 2.72
1834 22.6874 7.47 7.53 2.73
1835 22.6979 7.57 7.60 2.75
1836 22.7083 7.65 7.72 2.77
1837 22.7188 7.79 7.89 2.79
1838 22.7292 8.09 8.13 2.84
1839 22.7397 8.49 8.44 2.91
1840 22.7502 8.95 8.80 2.99
1841 22.7606 9.30 9.18 3.05
1842 22.7711 9.65 9.52 3.11
1843 22.7815 9.89 9.77 3.14
1844 22.7920 9.98 9.88 3.16
1845 22.8025 9.88 9.82 3.14
1846 22.8129 9.59 9.60 3.10
1847 22.8234 9.22 9.27 3.04
1848 22.8339 8.80 8.89 2.97
1849 22.8443 8.41 8.52 2.90
1850 22.8548 8.11 8.20 2.85
1851 22.8652 7.90 7.94 2.81
1852 22.8757 7.73 7.76 2.78
1853 22.8862 7.62 7.63 2.76
1854 22.8966 7.54 7.55 2.75
1855 22.9071 7.50 7.50 2.74
1856 22.9175 7.44 7.48 2.73
1857 22.9280 7.42 7.46 2.72
1858 22.9385 7.45 7.45 2.73
1859 22.9489 7.51 7.45 2.74
1860 22.9594 7.51 7.44 2.74
1861 22.9698 7.43 7.44 2.73
1862 22.9803 7.40 7.44 2.72
1863 22.9908 7.35 7.44 2.71
1864 23.0012 7.29 7.44 2.70
1865 23.0117 7.27 7.44 2.70
1866 23.0222 7.29 7.43 2.70
1867 23.0326 7.29 7.43 2.70
1868 23.0431 7.25 7.43 2.69
1869 23.0535 7.28 7.43 2.70
1870 23.0640 7.39 7.43 2.72
1871 23.0744 7.43 7.43 2.73
1872 23.0849 7.42 7.43 2.72
1873 23.0954 7.39 7.43 2.72
1874 23.1058 7.39 7.43 2.72
1875 23.1163 7.41 7.43 2.72
1876 23.1268 7.41 7.43 2.72
1877 23.1372 7.39 7.43 2.72
1878 23.1477 7.36 7.43 2.71
1879 23.1581 7.37 7.43 2.71
1880 23.1686 7.38 7.43 2.72
1881 23.1791 7.42 7.44 2.72
1882 23.1895 7.43 7.44 2.73
1883 23.2000 7.41 7.44 2.72
1884 23.2104 7.38 7.44 2.72
1885 23.2209 7.33 7.44 2.71
1886 23.2314 7.39 7.44 2.72
1887 23.2418 7.42 7.45 2.72
1888 23.2523 7.40 7.45 2.72
1889 23.2628 7.38 7.45 2.72
1890 23.2732 7.38 7.45 2.72
1891 23.2837 7.39 7.46 2.72
1892 23.2941 7.42 7.46 2.72
1893 23.3046 7.45 7.46 2.73
1894 23.3151 7.43 7.47 2.73
1895 23.3255 7.43 7.47 2.73
1896 23.3360 7.44 7.48 2.73
1897 23.3465 7.47 7.48 2.73
1898 23.3569 7.43 7.49 2.73
1899 23.3674 7.43 7.50 2.73
1900 23.3778 7.46 7.51 2.73
1901 23.3883 7.56 7.52 2.75
1902 23.3988 7.61 7.54 2.76
1903 23.4092 7.66 7.57 2.77
1904 23.4197 7.70 7.62 2.77
1905 23.4301 7.69 7.71 2.77
1906 23.4406 7.75 7.87 2.78
1907 23.4511 7.94 8.15 2.82
1908 23.4615 8.36 8.61 2.89
1909 23.4720 9.06 9.33 3.01
1910 23.4825 10.24 10.37 3.20
1911 23.4929 11.90 11.77 3.45
1912 23.5034 13.80 13.48 3.72
1913 23.5138 15.76 15.38 3.97
1914 23.5243 17.35 17.24 4.17
1915 23.5348 18.55 18.77 4.31
1916 23.5452 19.26 19.68 4.39
1917 23.5557 19.27 19.74 4.39
1918 23.5662 18.55 18.95 4.31
1919 23.5766 17.21 17.50 4.15
1920 23.5871 15.38 15.67 3.92
1921 23.5975 13.48 13.76 3.67
1922 23.6080 11.77 12.01 3.43
1923 23.6185 10.37 10.56 3.22
1924 23.6289 9.33 9.47 3.05
1925 23.6394 8.60 8.70 2.93
1926 23.6498 8.21 8.21 2.87
1927 23.6603 7.96 7.91 2.82
1928 23.6708 7.81 7.74 2.79
1929 23.6812 7.76 7.65 2.78
1930 23.6917 7.73 7.59 2.78
1931 23.7022 7.64 7.56 2.76
1932 23.7126 7.60 7.55 2.76
1933 23.7231 7.54 7.54 2.75
1934 23.7335 7.49 7.53 2.74
1935 23.7440 7.42 7.52 2.72
1936 23.7545 7.46 7.52 2.73
1937 23.7649 7.49 7.53 2.74
1938 23.7754 7.53 7.53 2.74
1939 23.7859 7.50 7.55 2.74
1940 23.7963 7.53 7.58 2.74
1941 23.8068 7.58 7.65 2.75
1942 23.8172 7.69 7.77 2.77
1943 23.8277 7.89 7.97 2.81
1944 23.8382 8.16 8.31 2.86
1945 23.8486 8.69 8.81 2.95
1946 23.8591 9.48 9.51 3.08
1947 23.8696 10.51 10.40 3.24
1948 23.8800 11.67 11.44 3.42
1949 23.8905 12.74 12.52 3.57
1950 23.9009 13.62 13.48 3.69
1951 23.9114 14.17 14.16 3.76
1952 23.9219 14.38 14.40 3.79
1953 23.9323 14.23 14.14 3.77
1954 23.9428 13.63 13.46 3.69
1955 23.9533 12.65 12.48 3.56
1956 23.9637 11.50 11.40 3.39
1957 23.9742 10.41 10.37 3.23
1958 23.9846 9.52 9.47 3.08
1959 23.9951 8.84 8.77 2.97
1960 24.0056 8.36 8.27 2.89
1961 24.0160 8.07 7.94 2.84
1962 24.0265 7.86 7.73 2.80
1963 24.0370 7.71 7.61 2.78
1964 24.0474 7.57 7.54 2.75
1965 24.0579 7.48 7.50 2.73
1966 24.0683 7.46 7.48 2.73
1967 24.0788 7.51 7.47 2.74
1968 24.0893 7.55 7.46 2.75
1969 24.0997 7.51 7.45 2.74
1970 24.1102 7.45 7.45 2.73
1971 24.1207 7.42 7.45 2.72
1972 24.1311 7.39 7.45 2.72
1973 24.1416 7.45 7.45 2.73
1974 24.1521 7.48 7.46 2.73
1975 24.1625 7.44 7.47 2.73
1976 24.1730 7.45 7.51 2.73
1977 24.1834 7.51 7.57 2.74
1978 24.1939 7.63 7.68 2.76
1979 24.2044 7.78 7.86 2.79
1980 24.2148 8.09 8.12 2.84
1981 24.2253 8.58 8.49 2.93
1982 24.2358 9.16 8.95 3.03
1983 24.2462 9.73 9.49 3.12
1984 24.2567 10.24 10.05 3.20
1985 24.2672 10.66 10.54 3.26
1986 24.2776 10.96 10.87 3.31
1987 24.2881 11.08 10.97 3.33
1988 24.2985 10.94 10.81 3.31
1989 24.3090 10.60 10.43 3.26
1990 24.3195 10.16 9.92 3.19
1991 24.3299 9.56 9.36 3.09
1992 24.3404 8.99 8.84 3.00
1993 24.3509 8.51 8.39 2.92
1994 24.3613 8.16 8.04 2.86
1995 24.3718 7.89 7.79 2.81
1996 24.3822 7.70 7.63 2.77
1997 24.3927 7.55 7.53 2.75
1998 24.4032 7.48 7.47 2.74
1999 24.4136 7.45 7.43 2.73
2000 24.4241 7.41 7.41 2.72
2001 24.4346 7.43 7.40 2.73
2002 24.4450 7.43 7.40 2.73
2003 24.4555 7.39 7.39 2.72
2004 24.4660 7.37 7.39 2.71
2005 24.4764 7.38 7.39 2.72
2006 24.4869 7.41 7.38 2.72
2007 24.4974 7.40 7.38 2.72
2008 24.5078 7.38 7.38 2.72
2009 24.5183 7.35 7.38 2.71
2010 24.5287 7.36 7.39 2.71
2011 24.5392 7.39 7.40 2.72
2012 24.5497 7.43 7.42 2.73
2013 24.5601 7.48 7.45 2.74
2014 24.5706 7.51 7.51 2.74
2015 24.5811 7.54 7.58 2.75
2016 24.5915 7.66 7.68 2.77
2017 24.6020 7.76 7.80 2.79
2018 24.6124 7.88 7.93 2.81
2019 24.6229 8.02 8.05 2.83
2020 24.6334 8.18 8.15 2.86
2021 24.6438 8.23 8.19 2.87
2022 24.6543 8.22 8.18 2.87
2023 24.6648 8.13 8.12 2.85
2024 24.6752 7.98 8.01 2.83
2025 24.6857 7.79 7.88 2.79
2026 24.6962 7.63 7.76 2.76
2027 24.7066 7.52 7.65 2.74
2028 24.7171 7.46 7.56 2.73
2029 24.7276 7.44 7.50 2.73
2030 24.7380 7.48 7.46 2.73
2031 24.7485 7.51 7.43 2.74
2032 24.7589 7.55 7.42 2.75
2033 24.7694 7.52 7.42 2.74
2034 24.7799 7.51 7.42 2.74
2035 24.7903 7.51 7.43 2.74
2036 24.8008 7.52 7.44 2.74
2037 24.8113 7.52 7.45 2.74
2038 24.8217 7.56 7.46 2.75
2039 24.8322 7.56 7.48 2.75
2040 24.8427 7.56 7.51 2.75
2041 24.8531 7.51 7.54 2.74
2042 24.8636 7.55 7.60 2.75
2043 24.8741 7.60 7.69 2.76
2044 24.8845 7.69 7.86 2.77
2045 24.8950 7.89 8.17 2.81
2046 24.9055 8.28 8.70 2.88
2047 24.9159 9.10 9.57 3.02
2048 24.9264 10.53 10.91 3.24
2049 24.9368 12.74 12.82 3.57
2050 24.9473 15.58 15.34 3.95
2051 24.9578 18.79 18.35 4.33
2052 24.9682 22.00 21.59 4.69
2053 24.9787 24.75 24.63 4.98
2054 24.9892 26.71 26.96 5.17
2055 24.9996 27.66 28.07 5.26
2056 25.0101 27.46 27.70 5.24
2057 25.0206 26.13 25.93 5.11
2058 25.0310 23.59 23.17 4.86
2059 25.0415 20.42 19.97 4.52
2060 25.0520 17.28 16.79 4.16
2061 25.0624 14.41 14.00 3.80
2062 25.0729 12.14 11.78 3.48
2063 25.0833 10.47 10.16 3.24
2064 25.0938 9.32 9.06 3.05
2065 25.1043 8.56 8.37 2.93
2066 25.1147 8.17 7.97 2.86
2067 25.1252 7.97 7.74 2.82
2068 25.1357 7.81 7.61 2.80
2069 25.1461 7.69 7.53 2.77
2070 25.1566 7.65 7.48 2.77
2071 25.1671 7.65 7.45 2.77
2072 25.1775 7.55 7.43 2.75
2073 25.1880 7.44 7.41 2.73
2074 25.1985 7.44 7.39 2.73
2075 25.2089 7.53 7.38 2.74
2076 25.2194 7.60 7.36 2.76
2077 25.2299 7.63 7.35 2.76
2078 25.2403 7.62 7.34 2.76
2079 25.2508 7.61 7.33 2.76
2080 25.2613 7.64 7.33 2.76
2081 25.2717 7.65 7.32 2.77
2082 25.2822 7.63 7.31 2.76
2083 25.2927 7.55 7.31 2.75
2084 25.3031 7.50 7.30 2.74
2085 25.3136 7.48 7.30 2.73
2086 25.3241 7.45 7.29 2.73
2087 25.3345 7.45 7.29 2.73
2088 25.3450 7.42 7.28 2.72
2089 25.3554 7.39 7.28 2.72
2090 25.3659 7.34 7.28 2.71
2091 25.3764 7.32 7.28 2.70
2092 25.3869 7.33 7.27 2.71
2093 25.3973 7.33 7.27 2.71
2094 25.4078 7.29 7.27 2.70
2095 25.4182 7.24 7.27 2.69
2096 25.4287 7.20 7.26 2.68
2097 25.4392 7.23 7.26 2.69
2098 25.4496 7.26 7.26 2.70
2099 25.4601 7.24 7.26 2.69
2100 25.4706 7.17 7.26 2.68
2101 25.4810 7.20 7.26 2.68
2102 25.4915 7.27 7.26 2.70
2103 25.5020 7.33 7.26 2.71
2104 25.5124 7.30 7.26 2.70
2105 25.5229 7.26 7.26 2.69
2106 25.5334 7.22 7.27 2.69
2107 25.5438 7.22 7.27 2.69
2108 25.5543 7.24 7.28 2.69
2109 25.5648 7.25 7.29 2.69
2110 25.5752 7.33 7.32 2.71
2111 25.5857 7.44 7.36 2.73
2112 25.5962 7.53 7.44 2.74
2113 25.6066 7.62 7.59 2.76
2114 25.6171 7.82 7.82 2.80
2115 25.6276 8.18 8.16 2.86
2116 25.6380 8.81 8.64 2.97
2117 25.6485 9.46 9.25 3.08
2118 25.6590 10.15 9.95 3.19
2119 25.6694 10.80 10.67 3.29
2120 25.6799 11.43 11.29 3.38
2121 25.6904 11.79 11.71 3.43
2122 25.7008 11.95 11.81 3.46
2123 25.7113 11.80 11.59 3.44
2124 25.7218 11.39 11.08 3.37
2125 25.7322 10.72 10.41 3.27
2126 25.7427 9.98 9.68 3.16
2127 25.7532 9.22 9.00 3.04
2128 25.7636 8.61 8.43 2.93
2129 25.7741 8.15 8.00 2.85
2130 25.7845 7.88 7.69 2.81
2131 25.7950 7.66 7.49 2.77
2132 25.8055 7.50 7.37 2.74
2133 25.8160 7.35 7.30 2.71
2134 25.8264 7.26 7.26 2.69
2135 25.8369 7.23 7.24 2.69
2136 25.8473 7.28 7.23 2.70
2137 25.8578 7.24 7.22 2.69
2138 25.8683 7.15 7.21 2.67
2139 25.8787 7.12 7.20 2.67
2140 25.8892 7.16 7.20 2.68
2141 25.8997 7.21 7.19 2.69
2142 25.9102 7.22 7.19 2.69
2143 25.9206 7.25 7.19 2.69
2144 25.9311 7.24 7.18 2.69
2145 25.9415 7.25 7.18 2.69
2146 25.9520 7.18 7.18 2.68
2147 25.9625 7.15 7.18 2.67
2148 25.9729 7.17 7.18 2.68
2149 25.9834 7.19 7.18 2.68
2150 25.9939 7.21 7.18 2.69
2151 26.0044 7.18 7.18 2.68
2152 26.0148 7.14 7.17 2.67
2153 26.0253 7.16 7.17 2.68
2154 26.0357 7.20 7.17 2.68
2155 26.0462 7.14 7.17 2.67
2156 26.0567 7.11 7.17 2.67
2157 26.0672 7.14 7.17 2.67
2158 26.0776 7.21 7.17 2.69
2159 26.0881 7.21 7.17 2.69
2160 26.0986 7.15 7.17 2.67
2161 26.1090 7.11 7.18 2.67
2162 26.1195 7.21 7.18 2.68
2163 26.1300 7.28 7.18 2.70
2164 26.1404 7.34 7.18 2.71
2165 26.1509 7.33 7.19 2.71
2166 26.1614 7.29 7.19 2.70
2167 26.1718 7.23 7.20 2.69
2168 26.1823 7.16 7.20 2.68
2169 26.1928 7.14 7.21 2.67
2170 26.2032 7.20 7.22 2.68
2171 26.2137 7.23 7.23 2.69
2172 26.2242 7.23 7.25 2.69
2173 26.2346 7.23 7.27 2.69
2174 26.2451 7.28 7.31 2.70
2175 26.2556 7.26 7.37 2.69
2176 26.2660 7.31 7.49 2.70
2177 26.2765 7.48 7.71 2.73
2178 26.2870 7.85 8.08 2.80
2179 26.2974 8.46 8.67 2.91
2180 26.3079 9.42 9.55 3.07
2181 26.3184 10.78 10.77 3.28
2182 26.3288 12.40 12.31 3.52
2183 26.3393 14.22 14.08 3.77
2184 26.3498 15.90 15.87 3.99
2185 26.3602 17.30 17.42 4.16
2186 26.3707 18.11 18.41 4.26
2187 26.3812 18.33 18.62 4.28
2188 26.3916 17.88 17.98 4.23
2189 26.4021 16.79 16.66 4.10
2190 26.4126 15.25 14.95 3.91
2191 26.4230 13.53 13.14 3.68
2192 26.4335 11.84 11.47 3.44
2193 26.4440 10.51 10.09 3.24
2194 26.4544 9.46 9.05 3.08
2195 26.4649 8.67 8.32 2.95
2196 26.4754 8.06 7.86 2.84
2197 26.4858 7.72 7.58 2.78
2198 26.4963 7.56 7.42 2.75
2199 26.5068 7.47 7.33 2.73
2200 26.5173 7.38 7.29 2.72
2201 26.5277 7.28 7.26 2.70
2202 26.5382 7.23 7.24 2.69
2203 26.5487 7.13 7.24 2.67
2204 26.5591 7.14 7.23 2.67
2205 26.5696 7.24 7.24 2.69
2206 26.5801 7.26 7.25 2.69
2207 26.5905 7.30 7.29 2.70
2208 26.6010 7.36 7.36 2.71
2209 26.6115 7.39 7.49 2.72
2210 26.6219 7.56 7.72 2.75
2211 26.6324 7.88 8.08 2.81
2212 26.6429 8.50 8.63 2.92
2213 26.6533 9.29 9.38 3.05
2214 26.6638 10.31 10.32 3.21
2215 26.6743 11.29 11.39 3.36
2216 26.6847 12.17 12.46 3.49
2217 26.6952 12.92 13.36 3.59
2218 26.7057 13.49 13.90 3.67
2219 26.7161 13.73 13.96 3.71
2220 26.7266 13.45 13.52 3.67
2221 26.7371 12.70 12.69 3.56
2222 26.7475 11.67 11.64 3.42
2223 26.7580 10.60 10.55 3.26
2224 26.7685 9.69 9.57 3.11
2225 26.7790 8.92 8.76 2.99
2226 26.7894 8.32 8.16 2.88
2227 26.7999 7.86 7.75 2.80
2228 26.8104 7.59 7.49 2.76
2229 26.8208 7.38 7.34 2.72
2230 26.8313 7.25 7.25 2.69
2231 26.8418 7.16 7.20 2.68
2232 26.8522 7.17 7.17 2.68
2233 26.8627 7.20 7.16 2.68
2234 26.8732 7.20 7.15 2.68
2235 26.8836 7.11 7.15 2.67
2236 26.8941 7.07 7.15 2.66
2237 26.9046 7.08 7.16 2.66
2238 26.9151 7.17 7.18 2.68
2239 26.9255 7.14 7.23 2.67
2240 26.9360 7.15 7.31 2.67
2241 26.9464 7.29 7.46 2.70
2242 26.9569 7.51 7.71 2.74
2243 26.9674 7.89 8.10 2.81
2244 26.9779 8.52 8.66 2.92
2245 26.9883 9.30 9.40 3.05
2246 26.9988 10.25 10.28 3.20
2247 27.0093 11.18 11.23 3.34
2248 27.0197 12.07 12.12 3.47
2249 27.0302 12.68 12.77 3.56
2250 27.0407 12.85 13.05 3.58
2251 27.0511 12.69 12.89 3.56
2252 27.0616 12.17 12.31 3.49
2253 27.0721 11.33 11.47 3.37
2254 27.0826 10.40 10.52 3.23
2255 27.0930 9.59 9.60 3.10
2256 27.1035 8.93 8.82 2.99
2257 27.1140 8.42 8.20 2.90
2258 27.1244 7.90 7.76 2.81
2259 27.1349 7.57 7.47 2.75
2260 27.1454 7.43 7.30 2.73
2261 27.1558 7.37 7.19 2.71
2262 27.1663 7.24 7.14 2.69
2263 27.1768 7.13 7.11 2.67
2264 27.1872 7.10 7.09 2.66
2265 27.1977 7.10 7.08 2.67
2266 27.2082 7.07 7.08 2.66
2267 27.2187 7.05 7.08 2.65
2268 27.2291 7.04 7.09 2.65
2269 27.2396 7.04 7.10 2.65
2270 27.2500 7.03 7.13 2.65
2271 27.2605 7.08 7.20 2.66
2272 27.2710 7.21 7.32 2.68
2273 27.2815 7.36 7.52 2.71
2274 27.2919 7.66 7.83 2.77
2275 27.3024 8.18 8.30 2.86
2276 27.3129 8.96 8.92 2.99
2277 27.3233 9.77 9.67 3.12
2278 27.3338 10.59 10.50 3.25
2279 27.3443 11.29 11.30 3.36
2280 27.3547 11.82 11.92 3.44
2281 27.3652 12.07 12.22 3.47
2282 27.3757 12.03 12.14 3.47
2283 27.3862 11.64 11.68 3.41
2284 27.3966 11.03 10.97 3.32
2285 27.4071 10.25 10.14 3.20
2286 27.4176 9.42 9.33 3.07
2287 27.4280 8.65 8.62 2.94
2288 27.4385 8.06 8.05 2.84
2289 27.4490 7.64 7.65 2.76
2290 27.4594 7.36 7.38 2.71
2291 27.4699 7.15 7.21 2.67
2292 27.4804 7.07 7.11 2.66
2293 27.4909 7.07 7.05 2.66
2294 27.5013 7.01 7.02 2.65
2295 27.5118 6.84 7.01 2.62
2296 27.5223 6.81 6.99 2.61
2297 27.5327 6.89 6.99 2.62
2298 27.5432 6.97 6.98 2.64
2299 27.5537 6.99 6.98 2.64
2300 27.5641 6.98 6.98 2.64
2301 27.5746 6.95 6.99 2.64
2302 27.5851 6.96 7.02 2.64
2303 27.5956 7.00 7.06 2.65
2304 27.6060 7.10 7.14 2.66
2305 27.6165 7.23 7.26 2.69
2306 27.6270 7.41 7.44 2.72
2307 27.6374 7.66 7.68 2.77
2308 27.6479 7.96 7.96 2.82
2309 27.6584 8.29 8.27 2.88
2310 27.6688 8.59 8.55 2.93
2311 27.6793 8.81 8.76 2.97
2312 27.6898 8.86 8.85 2.98
2313 27.7003 8.73 8.79 2.95
2314 27.7107 8.55 8.60 2.92
2315 27.7212 8.31 8.32 2.88
2316 27.7317 8.01 8.01 2.83
2317 27.7421 7.67 7.72 2.77
2318 27.7526 7.41 7.46 2.72
2319 27.7631 7.23 7.26 2.69
2320 27.7736 7.12 7.12 2.67
2321 27.7840 7.08 7.03 2.66
2322 27.7945 7.05 6.97 2.66
2323 27.8050 6.98 6.94 2.64
2324 27.8154 6.89 6.92 2.63
2325 27.8259 6.82 6.91 2.61
2326 27.8364 6.85 6.90 2.62
2327 27.8468 6.84 6.90 2.62
2328 27.8573 6.82 6.89 2.61
2329 27.8678 6.79 6.89 2.61
2330 27.8783 6.77 6.88 2.60
2331 27.8887 6.73 6.88 2.60
2332 27.8992 6.78 6.88 2.60
2333 27.9097 6.83 6.88 2.61
2334 27.9201 6.80 6.88 2.61
2335 27.9306 6.84 6.88 2.62
2336 27.9411 6.79 6.88 2.61
2337 27.9515 6.81 6.88 2.61
2338 27.9620 6.85 6.88 2.62
2339 27.9725 6.89 6.89 2.62
2340 27.9830 6.81 6.89 2.61
2341 27.9934 6.75 6.90 2.60
2342 28.0039 6.77 6.90 2.60
2343 28.0144 6.85 6.90 2.62
2344 28.0248 6.91 6.90 2.63
2345 28.0353 6.92 6.89 2.63
2346 28.0458 6.93 6.88 2.63
2347 28.0562 6.96 6.88 2.64
2348 28.0667 6.94 6.87 2.63
2349 28.0772 6.92 6.87 2.63
2350 28.0877 6.94 6.86 2.64
2351 28.0981 6.97 6.86 2.64
2352 28.1086 6.95 6.86 2.64
2353 28.1191 6.95 6.86 2.64
2354 28.1296 6.93 6.86 2.63
2355 28.1400 6.88 6.86 2.62
2356 28.1505 6.82 6.86 2.61
2357 28.1610 6.81 6.87 2.61
2358 28.1714 6.84 6.87 2.62
2359 28.1819 6.79 6.88 2.61
2360 28.1924 6.73 6.89 2.59
2361 28.2029 6.74 6.92 2.60
2362 28.2133 6.86 6.96 2.62
2363 28.2238 6.94 7.04 2.63
2364 28.2343 7.07 7.17 2.66
2365 28.2447 7.26 7.39 2.69
2366 28.2552 7.60 7.73 2.76
2367 28.2657 8.22 8.20 2.87
2368 28.2761 9.03 8.81 3.00
2369 28.2866 9.81 9.52 3.13
2370 28.2971 10.56 10.25 3.25
2371 28.3076 11.16 10.88 3.34
2372 28.3180 11.48 11.30 3.39
2373 28.3285 11.54 11.40 3.40
2374 28.3390 11.25 11.15 3.35
2375 28.3494 10.76 10.61 3.28
2376 28.3599 10.06 9.92 3.17
2377 28.3704 9.21 9.18 3.04
2378 28.3809 8.41 8.51 2.90
2379 28.3913 7.91 7.96 2.81
2380 28.4018 7.62 7.54 2.76
2381 28.4123 7.39 7.26 2.72
2382 28.4228 7.19 7.08 2.68
2383 28.4332 7.03 6.97 2.65
2384 28.4437 6.94 6.91 2.63
2385 28.4542 6.86 6.87 2.62
2386 28.4646 6.75 6.85 2.60
2387 28.4751 6.74 6.84 2.60
2388 28.4856 6.73 6.83 2.59
2389 28.4960 6.76 6.82 2.60
2390 28.5065 6.77 6.82 2.60
2391 28.5170 6.80 6.81 2.61
2392 28.5275 6.80 6.81 2.61
2393 28.5379 6.76 6.80 2.60
2394 28.5484 6.75 6.80 2.60
2395 28.5589 6.72 6.80 2.59
2396 28.5694 6.67 6.80 2.58
2397 28.5798 6.73 6.79 2.59
2398 28.5903 6.79 6.79 2.61
2399 28.6008 6.77 6.79 2.60
2400 28.6112 6.71 6.79 2.59
2401 28.6217 6.69 6.78 2.59
2402 28.6322 6.73 6.78 2.59
2403 28.6427 6.72 6.78 2.59
2404 28.6531 6.67 6.78 2.58
2405 28.6636 6.68 6.78 2.58
2406 28.6741 6.76 6.78 2.60
2407 28.6845 6.76 6.78 2.60
2408 28.6950 6.74 6.78 2.60
2409 28.7055 6.77 6.78 2.60
2410 28.7160 6.80 6.78 2.61
2411 28.7264 6.80 6.78 2.61
2412 28.7369 6.76 6.78 2.60
2413 28.7474 6.64 6.78 2.58
2414 28.7579 6.58 6.78 2.57
2415 28.7683 6.59 6.78 2.57
2416 28.7788 6.63 6.78 2.58
2417 28.7893 6.70 6.79 2.59
2418 28.7997 6.75 6.79 2.60
2419 28.8102 6.74 6.80 2.60
2420 28.8207 6.72 6.81 2.59
2421 28.8312 6.70 6.83 2.59
2422 28.8416 6.73 6.88 2.59
2423 28.8521 6.84 6.95 2.62
2424 28.8626 6.94 7.08 2.63
2425 28.8731 7.07 7.28 2.66
2426 28.8835 7.38 7.57 2.72
2427 28.8940 7.86 7.97 2.80
2428 28.9045 8.46 8.46 2.91
2429 28.9149 9.00 8.99 3.00
2430 28.9254 9.45 9.49 3.07
2431 28.9359 9.86 9.88 3.14
2432 28.9464 10.08 10.06 3.18
2433 28.9568 9.98 9.98 3.16
2434 28.9673 9.59 9.67 3.10
2435 28.9778 9.08 9.20 3.01
2436 28.9883 8.50 8.67 2.92
2437 28.9987 8.00 8.16 2.83
2438 29.0092 7.57 7.72 2.75
2439 29.0197 7.29 7.38 2.70
2440 29.0301 7.04 7.14 2.65
2441 29.0406 6.96 6.99 2.64
2442 29.0511 6.94 6.89 2.63
2443 29.0616 6.82 6.84 2.61
2444 29.0720 6.72 6.81 2.59
2445 29.0825 6.65 6.79 2.58
2446 29.0930 6.67 6.78 2.58
2447 29.1035 6.64 6.78 2.58
2448 29.1139 6.63 6.78 2.57
2449 29.1244 6.61 6.78 2.57
2450 29.1349 6.60 6.79 2.57
2451 29.1453 6.68 6.81 2.58
2452 29.1558 6.70 6.86 2.59
2453 29.1663 6.80 6.93 2.61
2454 29.1768 7.00 7.05 2.65
2455 29.1872 7.32 7.24 2.71
2456 29.1977 7.65 7.49 2.77
2457 29.2082 8.06 7.82 2.84
2458 29.2187 8.44 8.18 2.90
2459 29.2291 8.70 8.55 2.95
2460 29.2396 8.92 8.85 2.99
2461 29.2501 9.15 9.02 3.02
2462 29.2605 9.17 9.02 3.03
2463 29.2710 8.94 8.84 2.99
2464 29.2815 8.58 8.54 2.93
2465 29.2920 8.19 8.17 2.86
2466 29.3024 7.80 7.80 2.79
2467 29.3129 7.47 7.48 2.73
2468 29.3234 7.15 7.22 2.67
2469 29.3339 6.88 7.04 2.62
2470 29.3443 6.77 6.92 2.60
2471 29.3548 6.72 6.84 2.59
2472 29.3653 6.66 6.80 2.58
2473 29.3758 6.66 6.78 2.58
2474 29.3862 6.70 6.76 2.59
2475 29.3967 6.70 6.76 2.59
2476 29.4072 6.66 6.76 2.58
2477 29.4177 6.68 6.77 2.58
2478 29.4281 6.74 6.78 2.60
2479 29.4386 6.71 6.80 2.59
2480 29.4491 6.73 6.84 2.59
2481 29.4595 6.80 6.93 2.61
2482 29.4700 6.97 7.07 2.64
2483 29.4805 7.24 7.30 2.69
2484 29.4910 7.69 7.64 2.77
2485 29.5014 8.26 8.13 2.87
2486 29.5119 8.89 8.74 2.98
2487 29.5224 9.59 9.43 3.10
2488 29.5329 10.23 10.12 3.20
2489 29.5433 10.70 10.70 3.27
2490 29.5538 10.93 11.03 3.31
2491 29.5643 10.92 11.02 3.31
2492 29.5748 10.66 10.68 3.26
2493 29.5852 10.08 10.10 3.17
2494 29.5957 9.30 9.41 3.05
2495 29.6062 8.57 8.71 2.93
2496 29.6166 7.94 8.10 2.82
2497 29.6271 7.59 7.62 2.75
2498 29.6376 7.32 7.27 2.71
2499 29.6481 7.08 7.04 2.66
2500 29.6586 6.91 6.89 2.63
2501 29.6690 6.86 6.81 2.62
2502 29.6795 6.84 6.76 2.62
2503 29.6900 6.83 6.73 2.61
2504 29.7004 6.78 6.72 2.60
2505 29.7109 6.68 6.71 2.59
2506 29.7214 6.71 6.70 2.59
2507 29.7319 6.74 6.69 2.60
2508 29.7423 6.68 6.69 2.59
2509 29.7528 6.63 6.69 2.58
2510 29.7633 6.62 6.69 2.57
2511 29.7738 6.61 6.70 2.57
2512 29.7842 6.61 6.72 2.57
2513 29.7947 6.69 6.74 2.59
2514 29.8052 6.78 6.77 2.60
2515 29.8157 6.89 6.82 2.62
2516 29.8261 6.98 6.87 2.64
2517 29.8366 7.02 6.91 2.65
2518 29.8471 6.98 6.95 2.64
2519 29.8576 6.93 6.96 2.63
2520 29.8680 6.88 6.96 2.62
2521 29.8785 6.82 6.92 2.61
2522 29.8890 6.81 6.88 2.61
2523 29.8995 6.80 6.83 2.61
2524 29.9099 6.79 6.77 2.61
2525 29.9204 6.72 6.73 2.59
2526 29.9309 6.66 6.70 2.58
2527 29.9414 6.63 6.67 2.57
2528 29.9518 6.62 6.66 2.57
2529 29.9623 6.67 6.65 2.58
2530 29.9728 6.71 6.64 2.59
2531 29.9832 6.68 6.64 2.58
2532 29.9937 6.61 6.63 2.57
2533 30.0042 6.62 6.63 2.57
2534 30.0147 6.64 6.63 2.58
2535 30.0252 6.62 6.63 2.57
2536 30.0356 6.57 6.63 2.56
2537 30.0461 6.62 6.63 2.57
2538 30.0566 6.65 6.63 2.58
2539 30.0671 6.67 6.63 2.58
2540 30.0775 6.67 6.63 2.58
2541 30.0880 6.65 6.64 2.58
2542 30.0985 6.61 6.65 2.57
2543 30.1089 6.63 6.66 2.57
2544 30.1194 6.68 6.68 2.58
2545 30.1299 6.69 6.70 2.59
2546 30.1404 6.73 6.71 2.59
2547 30.1508 6.74 6.72 2.60
2548 30.1613 6.77 6.72 2.60
2549 30.1718 6.74 6.71 2.60
2550 30.1823 6.67 6.70 2.58
2551 30.1927 6.62 6.68 2.57
2552 30.2032 6.65 6.66 2.58
2553 30.2137 6.69 6.65 2.59
2554 30.2242 6.69 6.63 2.59
2555 30.2346 6.64 6.62 2.58
2556 30.2451 6.61 6.62 2.57
2557 30.2556 6.66 6.61 2.58
2558 30.2661 6.73 6.61 2.59
2559 30.2766 6.73 6.61 2.59
2560 30.2870 6.66 6.60 2.58
2561 30.2975 6.59 6.60 2.57
2562 30.3080 6.57 6.60 2.56
2563 30.3185 6.59 6.60 2.57
2564 30.3289 6.61 6.60 2.57
2565 30.3394 6.58 6.60 2.56
2566 30.3499 6.59 6.60 2.57
2567 30.3603 6.66 6.60 2.58
2568 30.3708 6.65 6.61 2.58
2569 30.3813 6.59 6.62 2.57
2570 30.3918 6.57 6.63 2.56
2571 30.4023 6.64 6.65 2.58
2572 30.4127 6.68 6.67 2.58
2573 30.4232 6.71 6.69 2.59
2574 30.4337 6.77 6.71 2.60
2575 30.4442 6.85 6.72 2.62
2576 30.4546 6.84 6.73 2.61
2577 30.4651 6.76 6.72 2.60
2578 30.4756 6.65 6.70 2.58
2579 30.4860 6.57 6.68 2.56
2580 30.4965 6.59 6.66 2.57
2581 30.5070 6.61 6.64 2.57
2582 30.5175 6.60 6.62 2.57
2583 30.5280 6.57 6.61 2.56
2584 30.5384 6.56 6.60 2.56
2585 30.5489 6.57 6.59 2.56
2586 30.5594 6.56 6.59 2.56
2587 30.5699 6.54 6.59 2.56
2588 30.5803 6.63 6.59 2.57
2589 30.5908 6.62 6.58 2.57
2590 30.6013 6.55 6.58 2.56
2591 30.6118 6.51 6.58 2.55
2592 30.6222 6.52 6.59 2.55
2593 30.6327 6.53 6.59 2.56
2594 30.6432 6.60 6.59 2.57
2595 30.6537 6.59 6.60 2.57
2596 30.6641 6.58 6.61 2.56
2597 30.6746 6.61 6.63 2.57
2598 30.6851 6.73 6.66 2.59
2599 30.6956 6.84 6.71 2.61
2600 30.7060 6.90 6.75 2.63
2601 30.7165 6.94 6.81 2.63
2602 30.7270 6.95 6.85 2.64
2603 30.7375 6.90 6.89 2.63
2604 30.7479 6.95 6.90 2.64
2605 30.7584 7.01 6.88 2.65
2606 30.7689 6.95 6.84 2.64
2607 30.7794 6.83 6.79 2.61
2608 30.7899 6.71 6.74 2.59
2609 30.8003 6.67 6.69 2.58
2610 30.8108 6.66 6.65 2.58
2611 30.8213 6.65 6.62 2.58
2612 30.8318 6.64 6.60 2.58
2613 30.8422 6.67 6.59 2.58
2614 30.8527 6.72 6.58 2.59
2615 30.8632 6.66 6.57 2.58
2616 30.8737 6.61 6.57 2.57
2617 30.8841 6.58 6.57 2.57
2618 30.8946 6.59 6.57 2.57
2619 30.9051 6.55 6.57 2.56
2620 30.9156 6.57 6.57 2.56
2621 30.9260 6.56 6.56 2.56
2622 30.9365 6.57 6.56 2.56
2623 30.9470 6.57 6.56 2.56
2624 30.9575 6.58 6.56 2.57
2625 30.9679 6.50 6.56 2.55
2626 30.9784 6.47 6.56 2.54
2627 30.9889 6.45 6.56 2.54
2628 30.9994 6.49 6.56 2.55
2629 31.0098 6.57 6.56 2.56
2630 31.0203 6.64 6.56 2.58
2631 31.0308 6.64 6.56 2.58
2632 31.0413 6.57 6.56 2.56
2633 31.0518 6.52 6.56 2.55
2634 31.0622 6.54 6.56 2.56
2635 31.0727 6.51 6.56 2.55
2636 31.0832 6.49 6.56 2.55
2637 31.0937 6.51 6.56 2.55
2638 31.1041 6.59 6.56 2.57
2639 31.1146 6.61 6.56 2.57
2640 31.1251 6.60 6.56 2.57
2641 31.1356 6.60 6.56 2.57
2642 31.1460 6.66 6.56 2.58
2643 31.1565 6.70 6.56 2.59
2644 31.1670 6.66 6.56 2.58
2645 31.1775 6.56 6.57 2.56
2646 31.1880 6.53 6.57 2.56
2647 31.1984 6.53 6.58 2.56
2648 31.2089 6.57 6.59 2.56
2649 31.2194 6.65 6.61 2.58
2650 31.2299 6.69 6.64 2.59
2651 31.2403 6.67 6.69 2.58
2652 31.2508 6.68 6.78 2.58
2653 31.2613 6.84 6.91 2.61
2654 31.2718 7.08 7.09 2.66
2655 31.2822 7.36 7.31 2.71
2656 31.2927 7.62 7.55 2.76
2657 31.3032 7.88 7.78 2.81
2658 31.3137 8.08 7.95 2.84
2659 31.3241 8.09 8.02 2.85
2660 31.3346 8.06 7.97 2.84
2661 31.3451 7.83 7.82 2.80
2662 31.3556 7.50 7.60 2.74
2663 31.3661 7.23 7.36 2.69
2664 31.3765 7.04 7.13 2.65
2665 31.3870 6.88 6.94 2.62
2666 31.3975 6.72 6.80 2.59
2667 31.4080 6.68 6.71 2.58
2668 31.4184 6.68 6.65 2.59
2669 31.4289 6.66 6.61 2.58
2670 31.4394 6.60 6.59 2.57
2671 31.4499 6.61 6.58 2.57
2672 31.4604 6.61 6.58 2.57
2673 31.4708 6.57 6.57 2.56
2674 31.4813 6.56 6.58 2.56
2675 31.4918 6.59 6.58 2.57
2676 31.5023 6.60 6.59 2.57
2677 31.5127 6.60 6.61 2.57
2678 31.5232 6.64 6.64 2.58
2679 31.5337 6.70 6.70 2.59
2680 31.5442 6.80 6.78 2.61
2681 31.5546 6.99 6.89 2.64
2682 31.5651 7.16 7.04 2.68
2683 31.5756 7.35 7.21 2.71
2684 31.5861 7.53 7.37 2.74
2685 31.5965 7.62 7.51 2.76
2686 31.6070 7.64 7.58 2.76
2687 31.6175 7.67 7.57 2.77
2688 31.6280 7.63 7.48 2.76
2689 31.6385 7.41 7.33 2.72
2690 31.6489 7.25 7.16 2.69
2691 31.6594 7.11 7.00 2.67
2692 31.6699 6.95 6.87 2.64
2693 31.6804 6.83 6.76 2.61
2694 31.6908 6.70 6.69 2.59
2695 31.7013 6.61 6.64 2.57
2696 31.7118 6.61 6.62 2.57
2697 31.7223 6.62 6.61 2.57
2698 31.7327 6.57 6.60 2.56
2699 31.7432 6.55 6.60 2.56
2700 31.7537 6.58 6.61 2.56
2701 31.7642 6.62 6.62 2.57
2702 31.7747 6.63 6.64 2.58
2703 31.7851 6.71 6.68 2.59
2704 31.7956 6.83 6.75 2.61
2705 31.8061 6.93 6.88 2.63
2706 31.8166 7.03 7.08 2.65
2707 31.8270 7.35 7.40 2.71
2708 31.8375 7.81 7.85 2.79
2709 31.8480 8.41 8.42 2.90
2710 31.8585 9.24 9.07 3.04
2711 31.8690 10.01 9.73 3.16
2712 31.8794 10.48 10.27 3.24
2713 31.8899 10.79 10.57 3.29
2714 31.9004 10.85 10.54 3.29
2715 31.9109 10.45 10.20 3.23
2716 31.9214 9.68 9.63 3.11
2717 31.9318 8.93 8.97 2.99
2718 31.9423 8.28 8.33 2.88
2719 31.9528 7.67 7.78 2.77
2720 31.9633 7.22 7.36 2.69
2721 31.9737 6.96 7.07 2.64
2722 31.9842 6.83 6.88 2.61
2723 31.9947 6.75 6.77 2.60
2724 32.0052 6.72 6.71 2.59
2725 32.0157 6.73 6.68 2.59
2726 32.0261 6.76 6.68 2.60
2727 32.0366 6.83 6.68 2.61
2728 32.0471 6.82 6.69 2.61
2729 32.0576 6.84 6.73 2.62
2730 32.0680 6.80 6.80 2.61
2731 32.0785 6.86 6.93 2.62
2732 32.0890 7.09 7.16 2.66
2733 32.0995 7.50 7.54 2.74
2734 32.1100 8.16 8.12 2.86
2735 32.1204 9.14 8.93 3.02
2736 32.1309 10.35 9.95 3.22
2737 32.1414 11.56 11.09 3.40
2738 32.1519 12.70 12.22 3.56
2739 32.1623 13.49 13.10 3.67
2740 32.1728 13.78 13.53 3.71
2741 32.1833 13.48 13.38 3.67
2742 32.1938 12.76 12.70 3.57
2743 32.2043 11.78 11.66 3.43
2744 32.2147 10.53 10.50 3.25
2745 32.2252 9.29 9.40 3.05
2746 32.2357 8.36 8.48 2.89
2747 32.2462 7.72 7.78 2.78
2748 32.2566 7.33 7.30 2.71
2749 32.2671 7.06 7.00 2.66
2750 32.2776 6.86 6.82 2.62
2751 32.2881 6.76 6.71 2.60
2752 32.2986 6.69 6.66 2.59
2753 32.3090 6.72 6.62 2.59
2754 32.3195 6.73 6.60 2.60
2755 32.3300 6.69 6.59 2.59
2756 32.3405 6.70 6.58 2.59
2757 32.3509 6.72 6.57 2.59
2758 32.3614 6.64 6.56 2.58
2759 32.3719 6.54 6.55 2.56
2760 32.3824 6.52 6.55 2.55
2761 32.3929 6.51 6.54 2.55
2762 32.4033 6.53 6.54 2.55
2763 32.4138 6.54 6.54 2.56
2764 32.4243 6.50 6.53 2.55
2765 32.4348 6.46 6.53 2.54
2766 32.4453 6.48 6.53 2.54
2767 32.4557 6.48 6.52 2.55
2768 32.4662 6.50 6.52 2.55
2769 32.4767 6.50 6.52 2.55
2770 32.4872 6.45 6.52 2.54
2771 32.4977 6.34 6.52 2.52
2772 32.5081 6.35 6.51 2.52
2773 32.5186 6.39 6.51 2.53
2774 32.5291 6.42 6.51 2.53
2775 32.5396 6.49 6.51 2.55
2776 32.5500 6.49 6.51 2.55
2777 32.5605 6.44 6.51 2.54
2778 32.5710 6.49 6.51 2.55
2779 32.5815 6.54 6.51 2.56
2780 32.5920 6.51 6.51 2.55
2781 32.6024 6.48 6.51 2.55
2782 32.6129 6.56 6.51 2.56
2783 32.6234 6.66 6.51 2.58
2784 32.6339 6.68 6.52 2.58
2785 32.6443 6.65 6.53 2.58
2786 32.6548 6.66 6.55 2.58
2787 32.6653 6.69 6.59 2.59
2788 32.6758 6.74 6.64 2.60
2789 32.6863 6.74 6.70 2.60
2790 32.6968 6.81 6.76 2.61
2791 32.7072 6.94 6.83 2.63
2792 32.7177 7.03 6.89 2.65
2793 32.7282 7.03 6.92 2.65
2794 32.7387 6.98 6.91 2.64
2795 32.7491 6.95 6.87 2.64
2796 32.7596 6.91 6.81 2.63
2797 32.7701 6.81 6.74 2.61
2798 32.7806 6.70 6.68 2.59
2799 32.7911 6.62 6.62 2.57
2800 32.8015 6.58 6.58 2.57
2801 32.8120 6.58 6.56 2.56
2802 32.8225 6.53 6.54 2.55
2803 32.8330 6.48 6.54 2.55
2804 32.8434 6.51 6.54 2.55
2805 32.8539 6.58 6.54 2.57
2806 32.8644 6.54 6.55 2.56
2807 32.8749 6.50 6.56 2.55
2808 32.8854 6.54 6.58 2.56
2809 32.8958 6.59 6.62 2.57
2810 32.9063 6.59 6.68 2.57
2811 32.9168 6.65 6.81 2.58
2812 32.9273 6.79 7.01 2.61
2813 32.9378 7.12 7.33 2.67
2814 32.9482 7.68 7.80 2.77
2815 32.9587 8.50 8.40 2.91
2816 32.9692 9.30 9.11 3.05
2817 32.9797 10.01 9.85 3.16
2818 32.9902 10.64 10.47 3.26
2819 33.0006 11.05 10.84 3.32
2820 33.0111 10.99 10.85 3.32
2821 33.0216 10.44 10.49 3.23
2822 33.0321 9.73 9.88 3.12
2823 33.0425 8.98 9.15 3.00
2824 33.0530 8.29 8.43 2.88
2825 33.0635 7.66 7.82 2.77
2826 33.0740 7.19 7.35 2.68
2827 33.0845 6.92 7.02 2.63
2828 33.0950 6.75 6.81 2.60
2829 33.1054 6.63 6.68 2.57
2830 33.1159 6.59 6.61 2.57
2831 33.1264 6.57 6.57 2.56
2832 33.1369 6.52 6.55 2.55
2833 33.1474 6.54 6.53 2.56
2834 33.1578 6.58 6.52 2.57
2835 33.1683 6.60 6.52 2.57
2836 33.1788 6.58 6.51 2.57
2837 33.1893 6.52 6.50 2.55
2838 33.1997 6.48 6.50 2.55
2839 33.2102 6.47 6.50 2.54
2840 33.2207 6.41 6.49 2.53
2841 33.2312 6.43 6.49 2.54
2842 33.2417 6.49 6.49 2.55
2843 33.2521 6.48 6.49 2.55
2844 33.2626 6.51 6.49 2.55
2845 33.2731 6.52 6.49 2.55
2846 33.2836 6.48 6.49 2.55
2847 33.2941 6.46 6.49 2.54
2848 33.3045 6.41 6.49 2.53
2849 33.3150 6.44 6.49 2.54
2850 33.3255 6.56 6.49 2.56
2851 33.3360 6.65 6.49 2.58
2852 33.3465 6.64 6.49 2.58
2853 33.3569 6.64 6.49 2.58
2854 33.3674 6.60 6.50 2.57
2855 33.3779 6.63 6.50 2.57
2856 33.3884 6.66 6.51 2.58
2857 33.3989 6.65 6.51 2.58
2858 33.4093 6.65 6.52 2.58
2859 33.4198 6.63 6.54 2.57
2860 33.4303 6.65 6.56 2.58
2861 33.4408 6.65 6.60 2.58
2862 33.4513 6.64 6.67 2.58
2863 33.4617 6.77 6.80 2.60
2864 33.4722 6.97 7.02 2.64
2865 33.4827 7.31 7.36 2.70
2866 33.4932 7.86 7.84 2.80
2867 33.5037 8.58 8.47 2.93
2868 33.5141 9.38 9.20 3.06
2869 33.5246 10.21 9.94 3.19
2870 33.5351 10.76 10.55 3.28
2871 33.5456 11.00 10.89 3.32
2872 33.5560 10.92 10.85 3.30
2873 33.5665 10.53 10.45 3.24
2874 33.5770 9.79 9.80 3.13
2875 33.5875 8.95 9.05 2.99
2876 33.5980 8.15 8.33 2.85
2877 33.6085 7.54 7.73 2.75
2878 33.6189 7.12 7.28 2.67
2879 33.6294 6.86 6.97 2.62
2880 33.6399 6.77 6.78 2.60
2881 33.6504 6.68 6.66 2.58
2882 33.6609 6.62 6.60 2.57
2883 33.6713 6.56 6.57 2.56
2884 33.6818 6.53 6.56 2.56
2885 33.6923 6.53 6.55 2.56
2886 33.7028 6.53 6.56 2.56
2887 33.7132 6.56 6.58 2.56
2888 33.7237 6.57 6.63 2.56
2889 33.7342 6.63 6.71 2.58
2890 33.7447 6.81 6.86 2.61
2891 33.7552 7.08 7.09 2.66
2892 33.7657 7.52 7.41 2.74
2893 33.7761 8.00 7.82 2.83
2894 33.7866 8.42 8.27 2.90
2895 33.7971 8.80 8.71 2.97
2896 33.8076 9.23 9.03 3.04
2897 33.8181 9.35 9.16 3.06
2898 33.8285 9.23 9.06 3.04
2899 33.8390 8.95 8.75 2.99
2900 33.8495 8.38 8.32 2.90
2901 33.8600 7.79 7.86 2.79
2902 33.8704 7.34 7.44 2.71
2903 33.8809 7.03 7.11 2.65
2904 33.8914 6.82 6.86 2.61
2905 33.9019 6.67 6.70 2.58
2906 33.9124 6.56 6.60 2.56
2907 33.9229 6.52 6.54 2.55
2908 33.9333 6.54 6.51 2.56
2909 33.9438 6.53 6.50 2.56
2910 33.9543 6.50 6.49 2.55
2911 33.9648 6.50 6.49 2.55
2912 33.9753 6.53 6.49 2.55
2913 33.9857 6.53 6.51 2.55
2914 33.9962 6.55 6.54 2.56
2915 34.0067 6.61 6.59 2.57
2916 34.0172 6.60 6.68 2.57
2917 34.0276 6.67 6.82 2.58
2918 34.0381 6.86 7.00 2.62
2919 34.0486 7.08 7.21 2.66
2920 34.0591 7.32 7.43 2.71
2921 34.0696 7.49 7.63 2.74
2922 34.0801 7.55 7.74 2.75
2923 34.0905 7.58 7.74 2.75
2924 34.1010 7.57 7.63 2.75
2925 34.1115 7.45 7.44 2.73
2926 34.1220 7.23 7.22 2.69
2927 34.1325 6.96 7.00 2.64
2928 34.1429 6.80 6.82 2.61
2929 34.1534 6.71 6.67 2.59
2930 34.1639 6.58 6.58 2.57
2931 34.1744 6.49 6.51 2.55
2932 34.1849 6.47 6.48 2.54
2933 34.1953 6.45 6.46 2.54
2934 34.2058 6.42 6.45 2.53
2935 34.2163 6.34 6.44 2.52
2936 34.2268 6.39 6.44 2.53
2937 34.2373 6.44 6.44 2.54
2938 34.2477 6.43 6.45 2.54
2939 34.2582 6.48 6.48 2.54
2940 34.2687 6.50 6.52 2.55
2941 34.2792 6.51 6.58 2.55
2942 34.2897 6.63 6.68 2.57
2943 34.3001 6.81 6.82 2.61
2944 34.3106 7.04 6.99 2.65
2945 34.3211 7.32 7.18 2.71
2946 34.3316 7.54 7.35 2.75
2947 34.3421 7.63 7.47 2.76
2948 34.3526 7.58 7.51 2.75
2949 34.3630 7.50 7.44 2.74
2950 34.3735 7.35 7.30 2.71
2951 34.3840 7.19 7.12 2.68
2952 34.3945 6.98 6.93 2.64
2953 34.4049 6.74 6.77 2.60
2954 34.4154 6.59 6.64 2.57
2955 34.4259 6.53 6.55 2.56
2956 34.4364 6.48 6.49 2.55
2957 34.4469 6.48 6.45 2.54
2958 34.4574 6.53 6.44 2.56
2959 34.4678 6.48 6.43 2.55
2960 34.4783 6.47 6.42 2.54
2961 34.4888 6.52 6.43 2.55
2962 34.4993 6.53 6.43 2.56
2963 34.5098 6.47 6.44 2.54
2964 34.5202 6.42 6.47 2.53
2965 34.5307 6.50 6.53 2.55
2966 34.5412 6.67 6.61 2.58
2967 34.5517 6.80 6.75 2.61
2968 34.5622 6.92 6.94 2.63
2969 34.5726 7.19 7.18 2.68
2970 34.5831 7.51 7.45 2.74
2971 34.5936 7.77 7.70 2.79
2972 34.6041 7.94 7.89 2.82
2973 34.6146 7.97 7.95 2.82
2974 34.6250 7.91 7.88 2.81
2975 34.6355 7.68 7.69 2.77
2976 34.6460 7.38 7.43 2.72
2977 34.6565 7.13 7.16 2.67
2978 34.6670 6.95 6.92 2.64
2979 34.6774 6.78 6.73 2.60
2980 34.6879 6.68 6.59 2.58
2981 34.6984 6.59 6.50 2.57
2982 34.7089 6.53 6.45 2.56
2983 34.7194 6.39 6.42 2.53
2984 34.7299 6.35 6.40 2.52
2985 34.7403 6.48 6.39 2.55
2986 34.7508 6.50 6.39 2.55
2987 34.7613 6.48 6.39 2.55
2988 34.7718 6.41 6.39 2.53
2989 34.7823 6.32 6.40 2.51
2990 34.7927 6.37 6.41 2.52
2991 34.8032 6.46 6.44 2.54
2992 34.8137 6.54 6.48 2.56
2993 34.8242 6.58 6.54 2.57
2994 34.8347 6.70 6.62 2.59
2995 34.8451 6.88 6.71 2.62
2996 34.8556 6.97 6.79 2.64
2997 34.8661 7.03 6.85 2.65
2998 34.8766 7.02 6.87 2.65
2999 34.8871 6.88 6.84 2.62
3000 34.8975 6.77 6.77 2.60
3001 34.9080 6.67 6.69 2.58
3002 34.9185 6.57 6.60 2.56
3003 34.9290 6.44 6.53 2.54
3004 34.9395 6.39 6.46 2.53
3005 34.9500 6.46 6.42 2.54
3006 34.9604 6.45 6.39 2.54
3007 34.9709 6.41 6.38 2.53
3008 34.9814 6.40 6.37 2.53
3009 34.9919 6.31 6.37 2.51
3010 35.0023 6.24 6.37 2.50
3011 35.0128 6.27 6.37 2.50
3012 35.0233 6.28 6.38 2.51
3013 35.0338 6.35 6.39 2.52
3014 35.0443 6.46 6.43 2.54
3015 35.0548 6.48 6.48 2.55
3016 35.0652 6.51 6.57 2.55
3017 35.0757 6.66 6.71 2.58
3018 35.0862 6.90 6.90 2.63
3019 35.0967 7.18 7.14 2.68
3020 35.1072 7.48 7.40 2.73
3021 35.1176 7.69 7.63 2.77
3022 35.1281 7.81 7.79 2.79
3023 35.1386 7.84 7.82 2.80
3024 35.1491 7.77 7.72 2.79
3025 35.1596 7.55 7.51 2.75
3026 35.1701 7.21 7.26 2.68
3027 35.1805 6.90 7.01 2.63
3028 35.1910 6.70 6.79 2.59
3029 35.2015 6.51 6.62 2.55
3030 35.2120 6.35 6.51 2.52
3031 35.2225 6.36 6.43 2.52
3032 35.2329 6.40 6.39 2.53
3033 35.2434 6.41 6.36 2.53
3034 35.2539 6.41 6.35 2.53
3035 35.2644 6.40 6.34 2.53
3036 35.2749 6.41 6.33 2.53
3037 35.2854 6.49 6.33 2.55
3038 35.2958 6.50 6.33 2.55
3039 35.3063 6.39 6.32 2.53
3040 35.3168 6.33 6.32 2.52
3041 35.3273 6.30 6.32 2.51
3042 35.3377 6.29 6.32 2.51
3043 35.3482 6.31 6.32 2.51
3044 35.3587 6.38 6.32 2.53
3045 35.3692 6.45 6.32 2.54
3046 35.3797 6.46 6.31 2.54
3047 35.3902 6.40 6.31 2.53
3048 35.4006 6.33 6.31 2.52
3049 35.4111 6.31 6.31 2.51
3050 35.4216 6.32 6.31 2.51
3051 35.4321 6.32 6.32 2.51
3052 35.4426 6.32 6.32 2.51
3053 35.4530 6.30 6.32 2.51
3054 35.4635 6.33 6.32 2.52
3055 35.4740 6.35 6.32 2.52
3056 35.4845 6.35 6.33 2.52
3057 35.4950 6.36 6.33 2.52
3058 35.5055 6.31 6.34 2.51
3059 35.5159 6.31 6.35 2.51
3060 35.5264 6.39 6.36 2.53
3061 35.5369 6.36 6.39 2.52
3062 35.5474 6.34 6.43 2.52
3063 35.5579 6.43 6.50 2.54
3064 35.5683 6.51 6.62 2.55
3065 35.5788 6.71 6.83 2.59
3066 35.5893 7.07 7.16 2.66
3067 35.5998 7.60 7.62 2.76
3068 35.6103 8.19 8.19 2.86
3069 35.6208 8.87 8.83 2.98
3070 35.6312 9.42 9.43 3.07
3071 35.6417 9.75 9.86 3.12
3072 35.6522 9.98 10.00 3.16
3073 35.6627 9.81 9.79 3.13
3074 35.6731 9.25 9.31 3.04
3075 35.6836 8.64 8.69 2.94
3076 35.6941 8.01 8.05 2.83
3077 35.7046 7.44 7.50 2.73
3078 35.7151 7.05 7.07 2.65
3079 35.7256 6.70 6.77 2.59
3080 35.7360 6.48 6.58 2.55
3081 35.7465 6.46 6.47 2.54
3082 35.7570 6.49 6.41 2.55
3083 35.7675 6.46 6.38 2.54
3084 35.7780 6.41 6.36 2.53
3085 35.7884 6.36 6.35 2.52
3086 35.7989 6.33 6.35 2.52
3087 35.8094 6.37 6.35 2.52
3088 35.8199 6.39 6.37 2.53
3089 35.8304 6.38 6.40 2.53
3090 35.8409 6.40 6.45 2.53
3091 35.8513 6.51 6.53 2.55
3092 35.8618 6.68 6.64 2.58
3093 35.8723 6.76 6.76 2.60
3094 35.8828 6.86 6.89 2.62
3095 35.8933 7.02 6.99 2.65
3096 35.9037 7.05 7.04 2.65
3097 35.9142 7.00 7.02 2.65
3098 35.9247 6.98 6.94 2.64
3099 35.9352 6.81 6.83 2.61
3100 35.9457 6.60 6.70 2.57
3101 35.9562 6.45 6.59 2.54
3102 35.9666 6.37 6.50 2.52
3103 35.9771 6.36 6.44 2.52
3104 35.9876 6.43 6.41 2.54
3105 35.9981 6.44 6.39 2.54
3106 36.0086 6.42 6.39 2.53
3107 36.0190 6.41 6.40 2.53
3108 36.0295 6.36 6.42 2.52
3109 36.0400 6.42 6.45 2.53
3110 36.0505 6.54 6.52 2.56
3111 36.0610 6.49 6.63 2.55
3112 36.0714 6.49 6.85 2.55
3113 36.0819 6.83 7.22 2.61
3114 36.0924 7.47 7.82 2.73
3115 36.1029 8.49 8.71 2.91
3116 36.1134 9.93 9.91 3.15
3117 36.1239 11.57 11.35 3.40
3118 36.1343 13.01 12.85 3.61
3119 36.1448 14.08 14.13 3.75
3120 36.1553 14.67 14.85 3.83
3121 36.1658 14.56 14.78 3.82
3122 36.1763 13.86 13.94 3.72
3123 36.1867 12.54 12.61 3.54
3124 36.1972 10.99 11.10 3.31
3125 36.2077 9.59 9.69 3.10
3126 36.2182 8.47 8.54 2.91
3127 36.2287 7.62 7.70 2.76
3128 36.2392 7.08 7.15 2.66
3129 36.2496 6.79 6.81 2.61
3130 36.2601 6.59 6.62 2.57
3131 36.2706 6.49 6.52 2.55
3132 36.2811 6.36 6.47 2.52
3133 36.2916 6.29 6.45 2.51
3134 36.3020 6.25 6.46 2.50
3135 36.3125 6.33 6.49 2.52
3136 36.3230 6.49 6.58 2.55
3137 36.3335 6.58 6.74 2.56
3138 36.3440 6.80 7.01 2.61
3139 36.3545 7.28 7.43 2.70
3140 36.3649 8.01 7.99 2.83
3141 36.3754 8.74 8.68 2.96
3142 36.3859 9.41 9.41 3.07
3143 36.3964 10.06 10.03 3.17
3144 36.4068 10.42 10.40 3.23
3145 36.4173 10.42 10.38 3.23
3146 36.4278 10.03 9.98 3.17
3147 36.4383 9.36 9.33 3.06
3148 36.4488 8.67 8.59 2.94
3149 36.4593 7.93 7.90 2.82
3150 36.4697 7.28 7.33 2.70
3151 36.4802 6.88 6.91 2.62
3152 36.4907 6.62 6.63 2.57
3153 36.5012 6.42 6.46 2.53
3154 36.5117 6.29 6.37 2.51
3155 36.5221 6.25 6.31 2.50
3156 36.5326 6.30 6.28 2.51
3157 36.5431 6.31 6.26 2.51
3158 36.5536 6.31 6.25 2.51
3159 36.5641 6.36 6.24 2.52
3160 36.5746 6.35 6.23 2.52
3161 36.5850 6.33 6.22 2.52
3162 36.5955 6.33 6.21 2.52
3163 36.6060 6.27 6.21 2.50
3164 36.6165 6.18 6.21 2.49
3165 36.6270 6.17 6.20 2.48
3166 36.6375 6.19 6.20 2.49
3167 36.6479 6.24 6.20 2.50
3168 36.6584 6.22 6.20 2.49
3169 36.6689 6.12 6.19 2.47
3170 36.6794 6.06 6.19 2.46
3171 36.6899 6.07 6.18 2.46
3172 36.7003 6.08 6.18 2.47
3173 36.7108 6.09 6.17 2.47
3174 36.7213 6.06 6.17 2.46
3175 36.7318 6.08 6.16 2.47
3176 36.7423 6.11 6.16 2.47
3177 36.7527 6.12 6.16 2.47
3178 36.7632 6.05 6.16 2.46
3179 36.7737 5.98 6.15 2.44
3180 36.7842 6.04 6.15 2.46
3181 36.7947 6.06 6.15 2.46
3182 36.8051 6.06 6.15 2.46
3183 36.8156 6.09 6.15 2.47
3184 36.8261 6.03 6.15 2.46
3185 36.8366 5.99 6.15 2.45
3186 36.8471 6.09 6.16 2.47
3187 36.8576 6.13 6.17 2.48
3188 36.8680 6.15 6.19 2.48
3189 36.8785 6.19 6.21 2.49
3190 36.8890 6.26 6.23 2.50
3191 36.8995 6.23 6.25 2.50
3192 36.9100 6.18 6.25 2.49
3193 36.9204 6.19 6.25 2.49
3194 36.9309 6.22 6.23 2.49
3195 36.9414 6.22 6.21 2.49
3196 36.9519 6.17 6.18 2.48
3197 36.9624 6.19 6.16 2.49
3198 36.9729 6.17 6.15 2.48
3199 36.9833 6.10 6.13 2.47
3200 36.9938 6.10 6.13 2.47
3201 37.0043 6.15 6.12 2.48
3202 37.0148 6.15 6.12 2.48
3203 37.0253 6.17 6.12 2.48
3204 37.0357 6.22 6.12 2.49
3205 37.0462 6.17 6.12 2.48
3206 37.0567 6.12 6.12 2.47
3207 37.0672 6.14 6.13 2.48
3208 37.0777 6.17 6.14 2.48
3209 37.0882 6.14 6.16 2.48
3210 37.0986 6.13 6.20 2.48
3211 37.1091 6.19 6.25 2.49
3212 37.1196 6.34 6.32 2.52
3213 37.1301 6.41 6.40 2.53
3214 37.1406 6.42 6.47 2.53
3215 37.1510 6.48 6.52 2.55
3216 37.1615 6.46 6.53 2.54
3217 37.1720 6.49 6.50 2.55
3218 37.1825 6.48 6.43 2.55
3219 37.1930 6.35 6.35 2.52
3220 37.2034 6.14 6.28 2.48
3221 37.2139 6.03 6.21 2.46
3222 37.2244 6.09 6.16 2.47
3223 37.2349 6.08 6.13 2.47
3224 37.2454 6.08 6.11 2.47
3225 37.2559 6.07 6.10 2.46
3226 37.2663 6.05 6.09 2.46
3227 37.2768 6.07 6.08 2.46
3228 37.2873 6.10 6.08 2.47
3229 37.2978 6.08 6.08 2.47
3230 37.3083 5.95 6.07 2.44
3231 37.3187 5.95 6.07 2.44
3232 37.3292 5.98 6.07 2.45
3233 37.3397 5.98 6.07 2.45
3234 37.3502 6.01 6.07 2.45
3235 37.3607 6.05 6.07 2.46
3236 37.3712 6.06 6.06 2.46
3237 37.3816 6.06 6.06 2.46
3238 37.3921 6.09 6.06 2.47
3239 37.4026 6.00 6.06 2.45
3240 37.4131 5.97 6.06 2.44
3241 37.4236 5.96 6.06 2.44
3242 37.4340 5.95 6.06 2.44
3243 37.4445 6.04 6.05 2.46
3244 37.4550 6.09 6.05 2.47
3245 37.4655 6.08 6.05 2.46
3246 37.4760 6.06 6.05 2.46
3247 37.4865 6.05 6.05 2.46
3248 37.4969 6.08 6.05 2.47
3249 37.5074 6.13 6.05 2.48
3250 37.5179 6.13 6.05 2.48
3251 37.5284 6.08 6.05 2.47
3252 37.5388 6.10 6.05 2.47
3253 37.5493 6.13 6.05 2.48
3254 37.5598 6.10 6.05 2.47
3255 37.5703 6.03 6.05 2.46
3256 37.5808 5.98 6.05 2.45
3257 37.5913 5.98 6.06 2.45
3258 37.6017 6.02 6.07 2.45
3259 37.6122 6.02 6.08 2.45
3260 37.6227 6.03 6.10 2.46
3261 37.6332 6.14 6.11 2.48
3262 37.6437 6.23 6.12 2.50
3263 37.6541 6.19 6.12 2.49
3264 37.6646 6.16 6.11 2.48
3265 37.6751 6.20 6.10 2.49
3266 37.6856 6.13 6.08 2.48
3267 37.6961 6.02 6.06 2.45
3268 37.7066 6.00 6.05 2.45
3269 37.7170 6.07 6.04 2.46
3270 37.7275 6.18 6.03 2.49
3271 37.7380 6.14 6.03 2.48
3272 37.7485 6.14 6.03 2.48
3273 37.7590 6.18 6.02 2.49
3274 37.7694 6.11 6.02 2.47
3275 37.7799 6.06 6.02 2.46
3276 37.7904 6.04 6.02 2.46
3277 37.8009 6.07 6.03 2.46
3278 37.8114 6.12 6.03 2.47
3279 37.8218 6.10 6.04 2.47
3280 37.8323 6.11 6.06 2.47
3281 37.8428 6.13 6.08 2.48
3282 37.8533 6.14 6.11 2.48
3283 37.8638 6.16 6.15 2.48
3284 37.8743 6.14 6.18 2.48
3285 37.8847 6.13 6.21 2.48
3286 37.8952 6.20 6.21 2.49
3287 37.9057 6.16 6.20 2.48
3288 37.9162 6.09 6.17 2.47
3289 37.9267 6.12 6.13 2.47
3290 37.9371 6.05 6.10 2.46
3291 37.9476 5.98 6.07 2.45
3292 37.9581 6.03 6.05 2.46
3293 37.9686 6.06 6.03 2.46
3294 37.9791 6.04 6.03 2.46
3295 37.9895 6.03 6.02 2.46
3296 38.0000 6.03 6.02 2.46
3297 38.0105 6.04 6.03 2.46
3298 38.0210 6.10 6.03 2.47
3299 38.0315 6.15 6.05 2.48
3300 38.0420 6.12 6.07 2.47
3301 38.0524 6.11 6.12 2.47
3302 38.0629 6.21 6.20 2.49
3303 38.0734 6.35 6.33 2.52
3304 38.0839 6.49 6.53 2.55
3305 38.0944 6.76 6.78 2.60
3306 38.1048 7.12 7.08 2.67
3307 38.1153 7.36 7.37 2.71
3308 38.1258 7.50 7.58 2.74
3309 38.1363 7.70 7.65 2.77
3310 38.1468 7.70 7.56 2.77
3311 38.1572 7.41 7.33 2.72
3312 38.1677 7.10 7.03 2.66
3313 38.1782 6.69 6.74 2.59
3314 38.1887 6.44 6.49 2.54
3315 38.1992 6.38 6.30 2.53
3316 38.2096 6.30 6.17 2.51
3317 38.2201 6.22 6.09 2.49
3318 38.2306 6.17 6.05 2.48
3319 38.2411 6.08 6.03 2.47
3320 38.2516 6.02 6.01 2.45
3321 38.2621 6.06 6.01 2.46
3322 38.2725 6.04 6.00 2.46
3323 38.2830 6.01 6.00 2.45
3324 38.2935 5.94 6.01 2.44
3325 38.3040 5.88 6.03 2.42
3326 38.3145 5.94 6.06 2.44
3327 38.3249 6.09 6.10 2.47
3328 38.3354 6.19 6.16 2.49
3329 38.3459 6.30 6.23 2.51
3330 38.3564 6.31 6.30 2.51
3331 38.3669 6.27 6.35 2.50
3332 38.3773 6.30 6.36 2.51
3333 38.3878 6.26 6.34 2.50
3334 38.3983 6.25 6.28 2.50
3335 38.4088 6.21 6.21 2.49
3336 38.4193 6.16 6.14 2.48
3337 38.4297 6.15 6.09 2.48
3338 38.4402 6.08 6.04 2.47
3339 38.4507 5.98 6.02 2.45
3340 38.4612 5.93 6.00 2.44
3341 38.4717 5.87 5.99 2.42
3342 38.4822 5.87 5.99 2.42
3343 38.4926 5.88 6.00 2.42
3344 38.5031 5.88 6.01 2.43
3345 38.5136 6.01 6.03 2.45
3346 38.5241 6.13 6.06 2.48
3347 38.5345 6.11 6.13 2.47
3348 38.5450 6.16 6.26 2.48
3349 38.5555 6.54 6.45 2.56
3350 38.5660 6.93 6.74 2.63
3351 38.5765 7.25 7.12 2.69
3352 38.5870 7.63 7.55 2.76
3353 38.5974 7.87 7.95 2.81
3354 38.6079 8.07 8.24 2.84
3355 38.6184 8.18 8.30 2.86
3356 38.6289 7.99 8.13 2.83
3357 38.6394 7.68 7.77 2.77
3358 38.6498 7.41 7.34 2.72
3359 38.6603 7.16 6.93 2.68
3360 38.6708 6.76 6.59 2.60
3361 38.6813 6.41 6.34 2.53
3362 38.6918 6.26 6.17 2.50
3363 38.7023 6.19 6.07 2.49
3364 38.7127 6.11 6.02 2.47
3365 38.7232 6.04 5.99 2.46
3366 38.7337 6.00 5.97 2.45
3367 38.7442 6.01 5.96 2.45
3368 38.7547 6.06 5.95 2.46
3369 38.7651 6.06 5.94 2.46
3370 38.7756 6.07 5.94 2.46
3371 38.7861 6.01 5.93 2.45
3372 38.7966 5.96 5.93 2.44
3373 38.8070 5.99 5.93 2.45
3374 38.8175 5.95 5.92 2.44
3375 38.8280 5.96 5.92 2.44
3376 38.8385 6.04 5.92 2.46
3377 38.8490 6.02 5.92 2.45
3378 38.8595 5.91 5.92 2.43
3379 38.8699 5.92 5.91 2.43
3380 38.8804 6.02 5.91 2.45
3381 38.8909 5.99 5.91 2.45
3382 38.9014 5.97 5.91 2.44
3383 38.9119 5.93 5.91 2.44
3384 38.9223 5.88 5.91 2.43
3385 38.9328 5.89 5.91 2.43
3386 38.9433 5.88 5.92 2.42
3387 38.9538 6.00 5.92 2.45
3388 38.9643 6.02 5.92 2.45
3389 38.9747 5.88 5.93 2.43
3390 38.9852 5.86 5.94 2.42
3391 38.9957 5.94 5.96 2.44
3392 39.0062 5.95 6.00 2.44
3393 39.0167 6.00 6.07 2.45
3394 39.0271 6.20 6.19 2.49
3395 39.0376 6.49 6.37 2.55
3396 39.0481 6.67 6.61 2.58
3397 39.0586 6.89 6.91 2.62
3398 39.0691 7.10 7.21 2.66
3399 39.0795 7.39 7.46 2.72
3400 39.0900 7.64 7.57 2.76
3401 39.1005 7.44 7.50 2.73
3402 39.1110 7.23 7.29 2.69
3403 39.1215 7.02 6.99 2.65
3404 39.1319 6.75 6.68 2.60
3405 39.1424 6.53 6.42 2.56
3406 39.1529 6.20 6.22 2.49
3407 39.1634 5.99 6.08 2.45
3408 39.1739 6.00 6.00 2.45
3409 39.1843 6.03 5.95 2.46
3410 39.1948 6.00 5.93 2.45
3411 39.2053 5.94 5.91 2.44
3412 39.2158 5.92 5.90 2.43
3413 39.2263 5.90 5.90 2.43
3414 39.2367 5.80 5.89 2.41
3415 39.2472 5.83 5.89 2.41
3416 39.2577 5.88 5.88 2.42
3417 39.2682 5.85 5.88 2.42
3418 39.2787 5.83 5.88 2.41
3419 39.2892 5.83 5.88 2.41
3420 39.2996 5.84 5.88 2.42
3421 39.3101 5.80 5.87 2.41
3422 39.3206 5.84 5.87 2.42
3423 39.3311 5.82 5.87 2.41
3424 39.3415 5.81 5.87 2.41
3425 39.3520 5.87 5.87 2.42
3426 39.3625 5.93 5.87 2.43
3427 39.3730 5.91 5.87 2.43
3428 39.3835 5.82 5.88 2.41
3429 39.3939 5.84 5.88 2.42
3430 39.4044 5.77 5.88 2.40
3431 39.4149 5.67 5.88 2.38
3432 39.4254 5.76 5.89 2.40
3433 39.4359 5.84 5.90 2.42
3434 39.4463 5.91 5.90 2.43
3435 39.4568 5.97 5.92 2.44
3436 39.4673 5.99 5.95 2.45
3437 39.4778 5.99 6.01 2.45
3438 39.4883 6.08 6.11 2.46
3439 39.4987 6.20 6.28 2.49
3440 39.5092 6.48 6.53 2.55
3441 39.5197 6.86 6.89 2.62
3442 39.5302 7.23 7.31 2.69
3443 39.5407 7.65 7.74 2.77
3444 39.5511 7.94 8.08 2.82
3445 39.5616 8.01 8.22 2.83
3446 39.5721 7.94 8.11 2.82
3447 39.5826 7.75 7.78 2.78
3448 39.5931 7.47 7.36 2.73
3449 39.6035 7.04 6.93 2.65
3450 39.6140 6.63 6.57 2.57
3451 39.6245 6.42 6.30 2.53
3452 39.6350 6.30 6.12 2.51
3453 39.6455 6.15 6.01 2.48
3454 39.6559 6.07 5.95 2.46
3455 39.6664 6.02 5.92 2.45
3456 39.6769 5.93 5.91 2.43
3457 39.6874 5.87 5.90 2.42
3458 39.6978 5.81 5.90 2.41
3459 39.7083 5.76 5.91 2.40
3460 39.7188 5.83 5.93 2.42
3461 39.7293 5.93 5.97 2.44
3462 39.7398 6.05 6.03 2.46
3463 39.7503 6.19 6.13 2.49
3464 39.7607 6.20 6.25 2.49
3465 39.7712 6.36 6.38 2.52
3466 39.7817 6.55 6.49 2.56
3467 39.7922 6.53 6.56 2.56
3468 39.8027 6.46 6.54 2.54
3469 39.8131 6.46 6.46 2.54
3470 39.8236 6.36 6.34 2.52
3471 39.8341 6.29 6.20 2.51
3472 39.8446 6.18 6.09 2.49
3473 39.8550 6.07 6.00 2.46
3474 39.8655 6.04 5.94 2.46
3475 39.8760 6.00 5.91 2.45
3476 39.8865 5.97 5.89 2.44
3477 39.8970 6.01 5.89 2.45
3478 39.9074 5.98 5.89 2.45
3479 39.9179 5.92 5.90 2.43
3480 39.9284 5.86 5.92 2.42
3481 39.9389 5.81 5.95 2.41
3482 39.9493 5.92 6.03 2.43
3483 39.9598 6.12 6.16 2.47
3484 39.9703 6.32 6.38 2.51
3485 39.9808 6.69 6.69 2.59
3486 39.9913 7.20 7.09 2.68
3487 40.0018 7.71 7.54 2.78
3488 40.0122 8.07 7.96 2.84
3489 40.0227 8.20 8.21 2.86
3490 40.0332 8.09 8.22 2.85
3491 40.0437 7.84 7.97 2.80
3492 40.0541 7.49 7.57 2.74
3493 40.0646 7.20 7.12 2.68
3494 40.0751 6.93 6.71 2.63
3495 40.0856 6.70 6.39 2.59
3496 40.0961 6.50 6.17 2.55
3497 40.1065 6.27 6.03 2.50
3498 40.1170 6.06 5.96 2.46
3499 40.1275 5.91 5.92 2.43
3500 40.1380 5.87 5.90 2.42
3501 40.1484 5.92 5.89 2.43
3502 40.1589 5.98 5.90 2.44
3503 40.1694 6.01 5.92 2.45
3504 40.1799 6.01 5.96 2.45
3505 40.1904 6.00 6.05 2.45
3506 40.2009 6.08 6.19 2.47
3507 40.2113 6.40 6.41 2.53
3508 40.2218 6.75 6.69 2.60
3509 40.2323 7.09 7.02 2.66
3510 40.2428 7.33 7.32 2.71
3511 40.2532 7.36 7.51 2.71
3512 40.2637 7.34 7.53 2.71
3513 40.2742 7.17 7.36 2.68
3514 40.2847 6.98 7.07 2.64
3515 40.2952 6.64 6.74 2.58
3516 40.3056 6.39 6.44 2.53
3517 40.3161 6.27 6.21 2.50
3518 40.3266 6.07 6.04 2.46
3519 40.3371 5.91 5.94 2.43
3520 40.3475 5.85 5.88 2.42
3521 40.3580 5.76 5.85 2.40
3522 40.3685 5.77 5.83 2.40
3523 40.3790 5.87 5.82 2.42
3524 40.3895 5.92 5.81 2.43
3525 40.3999 6.06 5.81 2.46
3526 40.4104 6.00 5.80 2.45
3527 40.4209 5.85 5.80 2.42
3528 40.4314 5.91 5.80 2.43
3529 40.4418 5.83 5.79 2.41
3530 40.4523 5.72 5.79 2.39
3531 40.4628 5.80 5.79 2.41
3532 40.4733 5.86 5.79 2.42
3533 40.4838 5.86 5.78 2.42
3534 40.4942 5.77 5.78 2.40
3535 40.5047 5.81 5.78 2.41
3536 40.5152 5.85 5.78 2.42
3537 40.5257 5.77 5.78 2.40
3538 40.5362 5.63 5.78 2.37
3539 40.5466 5.60 5.78 2.37
3540 40.5571 5.74 5.77 2.40
3541 40.5676 5.86 5.77 2.42
3542 40.5781 5.81 5.77 2.41
3543 40.5885 5.74 5.77 2.40
3544 40.5990 5.69 5.77 2.39
3545 40.6095 5.73 5.77 2.39
3546 40.6200 5.73 5.77 2.39
3547 40.6305 5.72 5.77 2.39
3548 40.6409 5.75 5.77 2.40
3549 40.6514 5.74 5.77 2.40
3550 40.6619 5.72 5.77 2.39
3551 40.6724 5.89 5.77 2.43
3552 40.6828 5.96 5.77 2.44
3553 40.6933 5.90 5.78 2.43
3554 40.7038 5.84 5.78 2.42
3555 40.7143 5.81 5.78 2.41
3556 40.7248 5.86 5.78 2.42
3557 40.7352 5.85 5.78 2.42
3558 40.7457 5.81 5.78 2.41
3559 40.7562 5.81 5.78 2.41
3560 40.7667 5.78 5.78 2.40
3561 40.7771 5.85 5.77 2.42
3562 40.7876 5.86 5.77 2.42
3563 40.7981 5.82 5.78 2.41
3564 40.8086 5.80 5.78 2.41
3565 40.8190 5.80 5.78 2.41
3566 40.8295 5.80 5.79 2.41
3567 40.8400 5.79 5.80 2.41
3568 40.8505 5.85 5.81 2.42
3569 40.8610 5.85 5.84 2.42
3570 40.8714 5.81 5.89 2.41
3571 40.8819 5.95 5.99 2.44
3572 40.8924 6.18 6.14 2.48
3573 40.9029 6.42 6.36 2.53
3574 40.9133 6.64 6.63 2.58
3575 40.9238 6.93 6.92 2.63
3576 40.9343 7.24 7.17 2.69
3577 40.9448 7.37 7.30 2.71
3578 40.9553 7.22 7.24 2.69
3579 40.9657 7.00 7.04 2.65
3580 40.9762 6.72 6.75 2.59
3581 40.9867 6.48 6.47 2.55
3582 40.9972 6.34 6.22 2.52
3583 41.0076 6.27 6.04 2.50
3584 41.0181 6.15 5.92 2.48
3585 41.0286 5.97 5.85 2.44
3586 41.0391 5.88 5.81 2.42
3587 41.0496 5.81 5.79 2.41
3588 41.0600 5.80 5.78 2.41
3589 41.0705 5.73 5.77 2.39
3590 41.0810 5.72 5.77 2.39
3591 41.0915 5.76 5.76 2.40
3592 41.1019 5.88 5.76 2.42
3593 41.1124 5.85 5.76 2.42
3594 41.1229 5.77 5.76 2.40
3595 41.1334 5.87 5.75 2.42
3596 41.1438 5.89 5.75 2.43
3597 41.1543 5.86 5.75 2.42
3598 41.1648 5.88 5.75 2.42
3599 41.1753 5.86 5.75 2.42
3600 41.1857 5.82 5.75 2.41
3601 41.1962 5.80 5.75 2.41
3602 41.2067 5.87 5.75 2.42
3603 41.2172 5.80 5.74 2.41
3604 41.2277 5.71 5.74 2.39
3605 41.2381 5.64 5.74 2.38
3606 41.2486 5.67 5.74 2.38
3607 41.2591 5.71 5.74 2.39
3608 41.2696 5.71 5.75 2.39
3609 41.2800 5.66 5.75 2.38
3610 41.2905 5.57 5.75 2.36
3611 41.3010 5.60 5.75 2.37
3612 41.3115 5.66 5.76 2.38
3613 41.3219 5.76 5.77 2.40
3614 41.3324 5.88 5.78 2.42
3615 41.3429 5.83 5.81 2.41
3616 41.3534 5.76 5.85 2.40
3617 41.3638 5.88 5.91 2.42
3618 41.3743 6.00 5.97 2.45
3619 41.3848 6.08 6.03 2.47
3620 41.3953 6.06 6.07 2.46
3621 41.4058 5.99 6.07 2.45
3622 41.4162 6.05 6.03 2.46
3623 41.4267 6.05 5.97 2.46
3624 41.4372 6.00 5.91 2.45
3625 41.4477 5.86 5.85 2.42
3626 41.4581 5.79 5.81 2.41
3627 41.4686 5.83 5.78 2.41
3628 41.4791 5.74 5.77 2.40
3629 41.4896 5.66 5.76 2.38
3630 41.5000 5.68 5.75 2.38
3631 41.5105 5.73 5.75 2.39
3632 41.5210 5.71 5.75 2.39
3633 41.5315 5.69 5.76 2.39
3634 41.5420 5.72 5.77 2.39
3635 41.5524 5.80 5.78 2.41
3636 41.5629 5.82 5.81 2.41
3637 41.5734 5.83 5.85 2.41
3638 41.5839 5.91 5.91 2.43
3639 41.5943 6.02 5.99 2.45
3640 41.6048 6.05 6.07 2.46
3641 41.6153 6.07 6.13 2.46
3642 41.6258 6.08 6.16 2.47
3643 41.6362 6.07 6.13 2.46
3644 41.6467 6.10 6.07 2.47
3645 41.6572 6.01 5.99 2.45
3646 41.6677 5.84 5.91 2.42
3647 41.6781 5.83 5.86 2.42
3648 41.6886 5.77 5.82 2.40
3649 41.6991 5.64 5.80 2.37
3650 41.7096 5.61 5.78 2.37
3651 41.7200 5.70 5.78 2.39
3652 41.7305 5.79 5.79 2.41
3653 41.7410 5.78 5.80 2.40
3654 41.7515 5.86 5.82 2.42
3655 41.7619 5.90 5.85 2.43
3656 41.7724 5.89 5.92 2.43
3657 41.7829 6.04 6.04 2.46
3658 41.7934 6.23 6.25 2.50
3659 41.8038 6.47 6.56 2.54
3660 41.8143 6.91 6.96 2.63
3661 41.8248 7.41 7.40 2.72
3662 41.8353 7.66 7.80 2.77
3663 41.8457 7.78 8.03 2.79
3664 41.8562 7.83 7.98 2.80
3665 41.8667 7.62 7.68 2.76
3666 41.8772 7.16 7.25 2.68
3667 41.8876 6.74 6.81 2.60
3668 41.8981 6.57 6.44 2.56
3669 41.9086 6.34 6.17 2.52
3670 41.9191 6.13 5.99 2.48
3671 41.9295 6.03 5.89 2.45
3672 41.9400 5.97 5.83 2.44
3673 41.9505 5.85 5.80 2.42
3674 41.9610 5.88 5.79 2.42
3675 41.9714 5.89 5.78 2.43
3676 41.9819 5.86 5.78 2.42
3677 41.9924 5.85 5.78 2.42
3678 42.0029 5.87 5.80 2.42
3679 42.0133 5.84 5.83 2.42
3680 42.0238 5.95 5.87 2.44
3681 42.0343 5.97 5.94 2.44
3682 42.0448 5.90 6.02 2.43
3683 42.0552 5.96 6.10 2.44
3684 42.0657 5.95 6.15 2.44
3685 42.0762 5.90 6.16 2.43
3686 42.0867 5.92 6.11 2.43
3687 42.0971 6.00 6.04 2.45
3688 42.1076 5.99 5.95 2.45
3689 42.1181 5.86 5.88 2.42
3690 42.1286 5.78 5.82 2.40
3691 42.1390 5.79 5.78 2.41
3692 42.1495 5.75 5.76 2.40
3693 42.1600 5.73 5.75 2.39
3694 42.1704 5.75 5.74 2.40
3695 42.1809 5.76 5.74 2.40
3696 42.1914 5.76 5.74 2.40
3697 42.2019 5.73 5.74 2.39
3698 42.2123 5.78 5.75 2.40
3699 42.2228 5.87 5.76 2.42
3700 42.2333 5.97 5.79 2.44
3701 42.2438 5.92 5.84 2.43
3702 42.2542 5.89 5.91 2.43
3703 42.2647 6.03 5.99 2.46
3704 42.2752 6.14 6.07 2.48
3705 42.2857 6.18 6.13 2.49
3706 42.2961 6.16 6.15 2.48
3707 42.3066 6.14 6.11 2.48
3708 42.3171 6.10 6.04 2.47
3709 42.3276 6.00 5.96 2.45
3710 42.3380 5.95 5.88 2.44
3711 42.3485 5.92 5.82 2.43
3712 42.3590 5.86 5.78 2.42
3713 42.3695 5.89 5.75 2.43
3714 42.3799 5.84 5.74 2.42
3715 42.3904 5.75 5.73 2.40
3716 42.4009 5.71 5.73 2.39
3717 42.4114 5.75 5.73 2.40
3718 42.4218 5.83 5.73 2.41
3719 42.4323 5.80 5.73 2.41
3720 42.4428 5.74 5.74 2.40
3721 42.4532 5.76 5.76 2.40
3722 42.4637 5.89 5.79 2.43
3723 42.4742 5.93 5.83 2.43
3724 42.4847 5.82 5.89 2.41
3725 42.4951 5.80 5.95 2.41
3726 42.5056 5.92 5.99 2.43
3727 42.5161 5.99 6.01 2.45
3728 42.5266 5.93 5.99 2.44
3729 42.5370 5.93 5.94 2.44
3730 42.5475 5.96 5.88 2.44
3731 42.5580 5.88 5.82 2.42
3732 42.5685 5.78 5.78 2.40
3733 42.5789 5.75 5.75 2.40
3734 42.5894 5.71 5.73 2.39
3735 42.5999 5.64 5.72 2.37
3736 42.6103 5.68 5.72 2.38
3737 42.6208 5.76 5.72 2.40
3738 42.6313 5.73 5.71 2.39
3739 42.6418 5.70 5.71 2.39
3740 42.6522 5.64 5.72 2.38
3741 42.6627 5.71 5.72 2.39
3742 42.6732 5.77 5.73 2.40
3743 42.6837 5.68 5.75 2.38
3744 42.6941 5.76 5.78 2.40
3745 42.7046 5.79 5.81 2.41
3746 42.7151 5.89 5.84 2.43
3747 42.7255 5.97 5.87 2.44
3748 42.7360 5.94 5.88 2.44
3749 42.7465 5.97 5.87 2.44
3750 42.7570 5.98 5.84 2.45
3751 42.7674 5.86 5.80 2.42
3752 42.7779 5.77 5.77 2.40
3753 42.7884 5.72 5.75 2.39
3754 42.7989 5.69 5.73 2.38
3755 42.8093 5.65 5.72 2.38
3756 42.8198 5.63 5.71 2.37
3757 42.8303 5.67 5.71 2.38
3758 42.8407 5.70 5.71 2.39
3759 42.8512 5.75 5.71 2.40
3760 42.8617 5.78 5.70 2.40
3761 42.8722 5.76 5.70 2.40
3762 42.8826 5.67 5.70 2.38
3763 42.8931 5.69 5.70 2.39
3764 42.9036 5.66 5.70 2.38
3765 42.9140 5.57 5.70 2.36
3766 42.9245 5.57 5.70 2.36
3767 42.9350 5.66 5.70 2.38
3768 42.9455 5.77 5.70 2.40
3769 42.9559 5.83 5.71 2.41
3770 42.9664 5.77 5.71 2.40
3771 42.9769 5.72 5.71 2.39
3772 42.9873 5.82 5.71 2.41
3773 42.9978 5.85 5.71 2.42
3774 43.0083 5.79 5.71 2.41
3775 43.0188 5.72 5.71 2.39
3776 43.0292 5.65 5.72 2.38
3777 43.0397 5.62 5.72 2.37
3778 43.0502 5.58 5.72 2.36
3779 43.0606 5.49 5.73 2.34
3780 43.0711 5.39 5.74 2.32
3781 43.0816 5.57 5.76 2.36
3782 43.0921 5.72 5.79 2.39
3783 43.1025 5.74 5.84 2.40
3784 43.1130 5.82 5.93 2.41
3785 43.1235 5.98 6.09 2.44
3786 43.1339 6.28 6.31 2.51
3787 43.1444 6.66 6.58 2.58
3788 43.1549 6.86 6.87 2.62
3789 43.1654 6.98 7.08 2.64
3790 43.1758 7.09 7.13 2.66
3791 43.1863 6.95 7.00 2.64
3792 43.1968 6.77 6.75 2.60
3793 43.2072 6.53 6.46 2.56
3794 43.2177 6.30 6.21 2.51
3795 43.2282 6.13 6.02 2.48
3796 43.2387 5.99 5.89 2.45
3797 43.2491 5.96 5.82 2.44
3798 43.2596 5.87 5.78 2.42
3799 43.2701 5.89 5.77 2.43
3800 43.2805 5.96 5.76 2.44
3801 43.2910 5.78 5.76 2.40
3802 43.3015 5.69 5.76 2.38
3803 43.3120 5.74 5.78 2.39
3804 43.3224 5.77 5.81 2.40
3805 43.3329 5.80 5.87 2.41
3806 43.3434 5.83 5.97 2.41
3807 43.3538 5.92 6.10 2.43
3808 43.3643 6.22 6.27 2.49
3809 43.3748 6.37 6.43 2.52
3810 43.3852 6.42 6.54 2.53
3811 43.3957 6.54 6.54 2.56
3812 43.4062 6.46 6.45 2.54
3813 43.4166 6.29 6.29 2.51
3814 43.4271 6.19 6.12 2.49
3815 43.4376 6.12 5.98 2.47
3816 43.4481 5.98 5.89 2.44
3817 43.4585 5.76 5.82 2.40
3818 43.4690 5.66 5.79 2.38
3819 43.4795 5.81 5.78 2.41
3820 43.4899 5.79 5.78 2.41
3821 43.5004 5.74 5.78 2.40
3822 43.5109 5.62 5.80 2.37
3823 43.5214 5.59 5.83 2.36
3824 43.5318 5.68 5.90 2.38
3825 43.5423 5.81 6.02 2.41
3826 43.5528 5.97 6.23 2.44
3827 43.5632 6.25 6.56 2.50
3828 43.5737 6.69 7.01 2.59
3829 43.5842 7.27 7.52 2.70
3830 43.5946 7.71 7.98 2.78
3831 43.6051 7.92 8.23 2.81
3832 43.6156 7.91 8.14 2.81
3833 43.6260 7.68 7.77 2.77
3834 43.6365 7.26 7.26 2.69
3835 43.6470 6.85 6.77 2.62
3836 43.6575 6.50 6.38 2.55
3837 43.6679 6.28 6.11 2.51
3838 43.6784 6.17 5.95 2.48
3839 43.6889 6.19 5.86 2.49
3840 43.6993 6.08 5.81 2.47
3841 43.7098 5.85 5.79 2.42
3842 43.7203 5.79 5.78 2.41
3843 43.7307 5.77 5.78 2.40
3844 43.7412 5.71 5.79 2.39
3845 43.7517 5.72 5.82 2.39
3846 43.7621 5.79 5.88 2.41
3847 43.7726 5.90 5.99 2.43
3848 43.7831 6.01 6.15 2.45
3849 43.7936 6.23 6.35 2.50
3850 43.8040 6.48 6.57 2.55
3851 43.8145 6.58 6.74 2.57
3852 43.8250 6.64 6.80 2.58
3853 43.8354 6.63 6.70 2.58
3854 43.8459 6.53 6.51 2.56
3855 43.8564 6.27 6.29 2.50
3856 43.8668 6.10 6.09 2.47
3857 43.8773 5.95 5.94 2.44
3858 43.8878 6.00 5.85 2.45
3859 43.8982 5.92 5.80 2.43
3860 43.9087 5.81 5.77 2.41
3861 43.9192 5.77 5.76 2.40
3862 43.9296 5.78 5.76 2.40
3863 43.9401 5.87 5.77 2.42
3864 43.9506 5.90 5.78 2.43
3865 43.9610 5.92 5.82 2.43
3866 43.9715 5.92 5.89 2.43
3867 43.9820 5.97 6.02 2.44
3868 43.9925 6.18 6.22 2.49
3869 44.0029 6.44 6.52 2.54
3870 44.0134 6.73 6.86 2.59
3871 44.0239 7.25 7.20 2.69
3872 44.0343 7.47 7.40 2.73
3873 44.0448 7.30 7.37 2.70
3874 44.0553 7.06 7.13 2.66
3875 44.0657 6.92 6.79 2.63
3876 44.0762 6.65 6.44 2.58
3877 44.0867 6.31 6.17 2.51
3878 44.0971 6.01 5.97 2.45
3879 44.1076 5.90 5.86 2.43
3880 44.1181 5.87 5.79 2.42
3881 44.1285 5.78 5.76 2.40
3882 44.1390 5.64 5.74 2.37
3883 44.1495 5.60 5.73 2.37
3884 44.1599 5.60 5.72 2.37
3885 44.1704 5.70 5.71 2.39
3886 44.1809 5.73 5.71 2.39
3887 44.1913 5.76 5.72 2.40
3888 44.2018 5.77 5.73 2.40
3889 44.2123 5.72 5.75 2.39
3890 44.2227 5.77 5.77 2.40
3891 44.2332 5.76 5.80 2.40
3892 44.2437 5.79 5.82 2.41
3893 44.2541 5.77 5.82 2.40
3894 44.2646 5.69 5.81 2.38
3895 44.2751 5.62 5.79 2.37
3896 44.2855 5.71 5.76 2.39
3897 44.2960 5.74 5.74 2.40
3898 44.3065 5.75 5.73 2.40
3899 44.3169 5.72 5.72 2.39
3900 44.3274 5.71 5.72 2.39
3901 44.3379 5.79 5.72 2.41
3902 44.3483 5.81 5.73 2.41
3903 44.3588 5.77 5.74 2.40
3904 44.3693 5.65 5.76 2.38
3905 44.3797 5.69 5.79 2.38
3906 44.3902 5.75 5.85 2.40
3907 44.4007 5.99 5.96 2.45
3908 44.4111 6.15 6.16 2.48
3909 44.4216 6.39 6.49 2.53
3910 44.4321 6.78 6.94 2.60
3911 44.4425 7.25 7.47 2.69
3912 44.4530 7.62 7.95 2.76
3913 44.4635 7.88 8.21 2.81
3914 44.4739 8.08 8.11 2.84
3915 44.4844 7.87 7.71 2.81
3916 44.4949 7.43 7.18 2.73
3917 44.5053 7.03 6.68 2.65
3918 44.5158 6.57 6.30 2.56
3919 44.5263 6.24 6.04 2.50
3920 44.5367 6.01 5.88 2.45
3921 44.5472 5.89 5.80 2.43
3922 44.5577 5.89 5.76 2.43
3923 44.5681 5.86 5.73 2.42
3924 44.5786 5.78 5.72 2.40
3925 44.5891 5.72 5.70 2.39
3926 44.5995 5.78 5.70 2.41
3927 44.6100 5.71 5.69 2.39
3928 44.6204 5.66 5.68 2.38
3929 44.6309 5.68 5.68 2.38
3930 44.6414 5.71 5.68 2.39
3931 44.6519 5.64 5.67 2.38
3932 44.6623 5.61 5.67 2.37
3933 44.6728 5.59 5.67 2.36
3934 44.6832 5.58 5.66 2.36
3935 44.6937 5.61 5.66 2.37
3936 44.7042 5.62 5.66 2.37
3937 44.7146 5.60 5.66 2.37
3938 44.7251 5.70 5.66 2.39
3939 44.7356 5.68 5.66 2.38
3940 44.7460 5.67 5.66 2.38
3941 44.7565 5.78 5.65 2.40
3942 44.7670 5.73 5.65 2.39
3943 44.7774 5.66 5.65 2.38
3944 44.7879 5.61 5.65 2.37
3945 44.7984 5.64 5.65 2.38
3946 44.8088 5.62 5.65 2.37
3947 44.8193 5.63 5.65 2.37
3948 44.8298 5.57 5.65 2.36
3949 44.8402 5.56 5.65 2.36
3950 44.8507 5.69 5.65 2.39
3951 44.8611 5.80 5.65 2.41
3952 44.8716 5.63 5.65 2.37
3953 44.8821 5.67 5.65 2.38
3954 44.8925 5.67 5.65 2.38
3955 44.9030 5.66 5.64 2.38
3956 44.9135 5.72 5.64 2.39
3957 44.9239 5.69 5.64 2.39
3958 44.9344 5.68 5.64 2.38
3959 44.9449 5.64 5.64 2.38
3960 44.9553 5.57 5.64 2.36
3961 44.9658 5.54 5.64 2.35
3962 44.9762 5.54 5.64 2.35
3963 44.9867 5.60 5.64 2.37
3964 44.9972 5.69 5.64 2.39
3965 45.0076 5.64 5.64 2.38
3966 45.0181 5.66 5.65 2.38
3967 45.0286 5.73 5.65 2.39
3968 45.0390 5.85 5.66 2.42
3969 45.0495 5.79 5.68 2.41
3970 45.0600 5.64 5.70 2.38
3971 45.0704 5.58 5.74 2.36
3972 45.0809 5.69 5.78 2.38
3973 45.0913 5.77 5.82 2.40
3974 45.1018 5.75 5.83 2.40
3975 45.1123 5.70 5.81 2.39
3976 45.1227 5.71 5.78 2.39
3977 45.1332 5.70 5.73 2.39
3978 45.1437 5.70 5.70 2.39
3979 45.1541 5.71 5.67 2.39
3980 45.1646 5.66 5.66 2.38
3981 45.1750 5.65 5.65 2.38
3982 45.1855 5.67 5.64 2.38
3983 45.1960 5.63 5.64 2.37
3984 45.2064 5.67 5.64 2.38
3985 45.2169 5.74 5.64 2.39
3986 45.2274 5.81 5.65 2.41
3987 45.2378 5.84 5.65 2.42
3988 45.2483 5.73 5.67 2.39
3989 45.2587 5.64 5.69 2.38
3990 45.2692 5.68 5.72 2.38
3991 45.2797 5.82 5.78 2.41
3992 45.2901 5.96 5.83 2.44
3993 45.3006 6.02 5.89 2.45
3994 45.3111 5.91 5.91 2.43
3995 45.3215 5.89 5.89 2.43
3996 45.3320 5.84 5.84 2.42
3997 45.3424 5.86 5.78 2.42
3998 45.3529 5.86 5.72 2.42
3999 45.3634 5.68 5.69 2.38
4000 45.3738 5.59 5.66 2.36
4001 45.3843 5.54 5.65 2.35
4002 45.3947 5.62 5.64 2.37
4003 45.4052 5.74 5.64 2.40
4004 45.4157 5.73 5.64 2.39
4005 45.4261 5.66 5.64 2.38
4006 45.4366 5.69 5.64 2.39
4007 45.4471 5.71 5.64 2.39
4008 45.4575 5.74 5.64 2.40
4009 45.4680 5.67 5.65 2.38
4010 45.4784 5.69 5.66 2.39
4011 45.4889 5.84 5.68 2.42
4012 45.4994 5.82 5.70 2.41
4013 45.5098 5.69 5.72 2.39
4014 45.5203 5.54 5.73 2.35
4015 45.5307 5.53 5.72 2.35
4016 45.5412 5.59 5.71 2.36
4017 45.5517 5.64 5.69 2.38
4018 45.5621 5.76 5.67 2.40
4019 45.5726 5.71 5.66 2.39
4020 45.5830 5.65 5.65 2.38
4021 45.5935 5.53 5.65 2.35
4022 45.6040 5.52 5.65 2.35
4023 45.6144 5.63 5.66 2.37
4024 45.6249 5.75 5.66 2.40
4025 45.6353 5.82 5.68 2.41
4026 45.6458 5.75 5.70 2.40
4027 45.6563 5.68 5.73 2.38
4028 45.6667 5.64 5.81 2.37
4029 45.6772 5.77 5.94 2.40
4030 45.6876 5.83 6.15 2.41
4031 45.6981 6.11 6.45 2.47
4032 45.7086 6.59 6.80 2.57
4033 45.7190 6.93 7.10 2.63
4034 45.7295 6.97 7.22 2.64
4035 45.7399 6.91 7.09 2.63
4036 45.7504 6.72 6.79 2.59
4037 45.7609 6.59 6.44 2.57
4038 45.7713 6.34 6.14 2.52
4039 45.7818 6.16 5.93 2.48
4040 45.7923 6.08 5.80 2.47
4041 45.8027 5.80 5.73 2.41
4042 45.8132 5.66 5.69 2.38
4043 45.8236 5.74 5.68 2.40
4044 45.8341 5.69 5.67 2.38
4045 45.8445 5.67 5.66 2.38
4046 45.8550 5.63 5.66 2.37
4047 45.8655 5.67 5.66 2.38
4048 45.8759 5.69 5.67 2.39
4049 45.8864 5.68 5.68 2.38
4050 45.8968 5.83 5.71 2.41
4051 45.9073 5.80 5.76 2.41
4052 45.9178 5.72 5.81 2.39
4053 45.9282 5.72 5.85 2.39
4054 45.9387 5.79 5.86 2.41
4055 45.9491 5.79 5.84 2.41
4056 45.9596 5.82 5.79 2.41
4057 45.9701 5.89 5.74 2.43
4058 45.9805 5.84 5.70 2.42
4059 45.9910 5.71 5.67 2.39
4060 46.0014 5.70 5.66 2.39
4061 46.0119 5.78 5.65 2.40
4062 46.0223 5.63 5.65 2.37
4063 46.0328 5.65 5.65 2.38
4064 46.0433 5.72 5.65 2.39
4065 46.0537 5.68 5.66 2.38
4066 46.0642 5.61 5.68 2.37
4067 46.0746 5.61 5.71 2.37
4068 46.0851 5.68 5.78 2.38
4069 46.0956 5.90 5.89 2.43
4070 46.1060 6.01 6.08 2.45
4071 46.1165 6.24 6.32 2.50
4072 46.1269 6.53 6.60 2.55
4073 46.1374 6.67 6.80 2.58
4074 46.1478 6.70 6.84 2.59
4075 46.1583 6.66 6.68 2.58
4076 46.1688 6.45 6.42 2.54
4077 46.1792 6.30 6.15 2.51
4078 46.1897 6.07 5.94 2.46
4079 46.2001 5.86 5.80 2.42
4080 46.2106 5.83 5.72 2.42
4081 46.2210 5.75 5.68 2.40
4082 46.2315 5.77 5.66 2.40
4083 46.2420 5.78 5.64 2.40
4084 46.2524 5.68 5.63 2.38
4085 46.2629 5.64 5.63 2.37
4086 46.2733 5.61 5.63 2.37
4087 46.2838 5.60 5.62 2.37
4088 46.2942 5.72 5.62 2.39
4089 46.3047 5.62 5.62 2.37
4090 46.3152 5.51 5.62 2.35
4091 46.3256 5.56 5.61 2.36
4092 46.3361 5.57 5.61 2.36
4093 46.3465 5.47 5.61 2.34
4094 46.3570 5.59 5.61 2.36
4095 46.3674 5.72 5.61 2.39
4096 46.3779 5.64 5.61 2.38
4097 46.3884 5.54 5.61 2.35
4098 46.3988 5.54 5.61 2.35
4099 46.4093 5.51 5.61 2.35
4100 46.4197 5.49 5.61 2.34
4101 46.4302 5.61 5.61 2.37
4102 46.4406 5.72 5.61 2.39
4103 46.4511 5.63 5.61 2.37
4104 46.4615 5.58 5.61 2.36
4105 46.4720 5.53 5.62 2.35
4106 46.4824 5.59 5.62 2.36
4107 46.4929 5.77 5.64 2.40
4108 46.5034 5.88 5.66 2.42
4109 46.5138 5.92 5.69 2.43
4110 46.5243 5.96 5.75 2.44
4111 46.5347 5.99 5.81 2.45
4112 46.5452 6.04 5.87 2.46
4113 46.5556 6.02 5.90 2.45
4114 46.5661 5.87 5.88 2.42
4115 46.5765 5.91 5.83 2.43
4116 46.5870 5.88 5.76 2.42
4117 46.5975 5.83 5.70 2.42
4118 46.6079 5.77 5.67 2.40
4119 46.6184 5.77 5.64 2.40
4120 46.6288 5.83 5.63 2.42
4121 46.6393 5.80 5.62 2.41
4122 46.6497 5.72 5.62 2.39
4123 46.6602 5.71 5.62 2.39
4124 46.6706 5.73 5.62 2.39
4125 46.6811 5.64 5.63 2.37
4126 46.6916 5.65 5.63 2.38
4127 46.7020 5.59 5.65 2.36
4128 46.7125 5.59 5.67 2.36
4129 46.7229 5.70 5.72 2.39
4130 46.7334 5.80 5.77 2.41
4131 46.7438 5.88 5.84 2.43
4132 46.7543 5.86 5.89 2.42
4133 46.7647 5.91 5.91 2.43
4134 46.7752 5.82 5.87 2.41
4135 46.7856 5.89 5.81 2.43
4136 46.7961 5.89 5.75 2.43
4137 46.8065 5.72 5.70 2.39
4138 46.8170 5.66 5.68 2.38
4139 46.8274 5.78 5.66 2.40
4140 46.8379 5.81 5.66 2.41
4141 46.8484 5.79 5.66 2.41
4142 46.8588 5.71 5.67 2.39
4143 46.8693 5.69 5.68 2.38
4144 46.8797 5.74 5.70 2.40
4145 46.8902 5.76 5.73 2.40
4146 46.9006 5.86 5.79 2.42
4147 46.9111 5.99 5.92 2.45
4148 46.9215 6.11 6.15 2.47
4149 46.9320 6.35 6.50 2.52
4150 46.9424 6.72 6.96 2.59
4151 46.9529 7.09 7.42 2.66
4152 46.9633 7.24 7.69 2.69
4153 46.9738 7.30 7.60 2.70
4154 46.9842 7.23 7.22 2.69
4155 46.9947 6.95 6.74 2.64
4156 47.0051 6.50 6.33 2.55
4157 47.0156 6.23 6.04 2.50
4158 47.0261 5.95 5.86 2.44
4159 47.0365 5.75 5.77 2.40
4160 47.0470 5.77 5.72 2.40
4161 47.0574 5.79 5.70 2.41
4162 47.0679 5.75 5.69 2.40
4163 47.0783 5.58 5.69 2.36
4164 47.0888 5.65 5.69 2.38
4165 47.0992 5.66 5.70 2.38
4166 47.1097 5.72 5.74 2.39
4167 47.1201 5.72 5.81 2.39
4168 47.1306 5.85 5.93 2.42
4169 47.1410 5.98 6.11 2.45
4170 47.1515 6.18 6.32 2.49
4171 47.1619 6.42 6.50 2.53
4172 47.1724 6.53 6.54 2.56
4173 47.1828 6.43 6.42 2.54
4174 47.1933 6.23 6.21 2.50
4175 47.2037 6.08 6.01 2.47
4176 47.2142 5.97 5.85 2.44
4177 47.2246 5.75 5.75 2.40
4178 47.2351 5.78 5.70 2.40
4179 47.2455 5.87 5.67 2.42
4180 47.2560 5.70 5.65 2.39
4181 47.2664 5.53 5.64 2.35
4182 47.2769 5.54 5.64 2.35
4183 47.2873 5.65 5.63 2.38
4184 47.2978 5.57 5.63 2.36
4185 47.3082 5.57 5.63 2.36
4186 47.3187 5.55 5.63 2.36
4187 47.3291 5.63 5.63 2.37
4188 47.3396 5.66 5.62 2.38
4189 47.3500 5.63 5.62 2.37
4190 47.3605 5.58 5.62 2.36
4191 47.3709 5.42 5.62 2.33
4192 47.3814 5.46 5.62 2.34
4193 47.3918 5.65 5.62 2.38
4194 47.4023 5.70 5.62 2.39
4195 47.4127 5.66 5.62 2.38
4196 47.4232 5.67 5.62 2.38
4197 47.4336 5.62 5.62 2.37
4198 47.4441 5.67 5.62 2.38
4199 47.4545 5.73 5.62 2.39
4200 47.4650 5.75 5.62 2.40
4201 47.4754 5.72 5.62 2.39
4202 47.4859 5.78 5.62 2.40
4203 47.4963 5.73 5.62 2.39
4204 47.5068 5.62 5.63 2.37
4205 47.5172 5.55 5.63 2.36
4206 47.5277 5.56 5.64 2.36
4207 47.5381 5.67 5.66 2.38
4208 47.5486 5.72 5.69 2.39
4209 47.5590 5.75 5.71 2.40
4210 47.5695 5.68 5.74 2.38
4211 47.5799 5.71 5.74 2.39
4212 47.5904 5.65 5.72 2.38
4213 47.6008 5.68 5.69 2.38
4214 47.6113 5.61 5.67 2.37
4215 47.6217 5.55 5.65 2.36
4216 47.6322 5.55 5.65 2.35
4217 47.6426 5.62 5.64 2.37
4218 47.6531 5.69 5.64 2.39
4219 47.6635 5.63 5.64 2.37
4220 47.6740 5.62 5.65 2.37
4221 47.6844 5.55 5.65 2.36
4222 47.6949 5.52 5.66 2.35
4223 47.7053 5.63 5.67 2.37
4224 47.7158 5.70 5.70 2.39
4225 47.7262 5.87 5.76 2.42
4226 47.7366 5.82 5.86 2.41
4227 47.7471 5.89 6.01 2.43
4228 47.7575 6.15 6.20 2.48
4229 47.7680 6.23 6.36 2.50
4230 47.7784 6.49 6.42 2.55
4231 47.7889 6.49 6.32 2.55
4232 47.7993 6.38 6.14 2.53
4233 47.8098 6.10 5.97 2.47
4234 47.8202 5.92 5.83 2.43
4235 47.8307 5.84 5.74 2.42
4236 47.8411 5.79 5.70 2.41
4237 47.8516 5.75 5.68 2.40
4238 47.8620 5.86 5.66 2.42
4239 47.8725 5.74 5.66 2.39
4240 47.8829 5.64 5.65 2.38
4241 47.8934 5.56 5.65 2.36
4242 47.9038 5.68 5.65 2.38
4243 47.9142 5.61 5.65 2.37
4244 47.9247 5.53 5.65 2.35
4245 47.9351 5.61 5.65 2.37
4246 47.9456 5.63 5.65 2.37
4247 47.9560 5.55 5.65 2.36
4248 47.9665 5.48 5.65 2.34
4249 47.9769 5.66 5.65 2.38
4250 47.9874 5.66 5.65 2.38
4251 47.9978 5.65 5.65 2.38
4252 48.0083 5.57 5.65 2.36
4253 48.0187 5.45 5.65 2.34
4254 48.0292 5.49 5.65 2.34
4255 48.0396 5.76 5.65 2.40
4256 48.0500 5.75 5.66 2.40
4257 48.0605 5.59 5.66 2.36
4258 48.0709 5.63 5.66 2.37
4259 48.0814 5.65 5.67 2.38
4260 48.0918 5.70 5.67 2.39
4261 48.1023 5.64 5.68 2.37
4262 48.1127 5.56 5.70 2.36
4263 48.1232 5.56 5.74 2.36
4264 48.1336 5.76 5.80 2.40
4265 48.1441 5.82 5.91 2.41
4266 48.1545 6.02 6.06 2.45
4267 48.1649 6.31 6.23 2.51
4268 48.1754 6.47 6.33 2.54
4269 48.1858 6.28 6.31 2.51
4270 48.1963 6.04 6.17 2.46
4271 48.2067 5.93 6.01 2.43
4272 48.2172 5.80 5.87 2.41
4273 48.2276 5.67 5.78 2.38
4274 48.2380 5.80 5.73 2.41
4275 48.2485 5.76 5.71 2.40
4276 48.2589 5.71 5.70 2.39
4277 48.2694 5.63 5.70 2.37
4278 48.2798 5.51 5.70 2.35
4279 48.2903 5.67 5.70 2.38
4280 48.3007 5.82 5.71 2.41
4281 48.3111 6.00 5.73 2.45
4282 48.3216 5.90 5.77 2.43
4283 48.3320 5.73 5.85 2.39
4284 48.3425 5.81 5.98 2.41
4285 48.3529 6.03 6.18 2.45
4286 48.3634 6.28 6.40 2.51
4287 48.3738 6.56 6.56 2.56
4288 48.3843 6.54 6.55 2.56
4289 48.3947 6.44 6.37 2.54
4290 48.4051 6.05 6.15 2.46
4291 48.4156 5.82 5.96 2.41
4292 48.4260 5.94 5.84 2.44
4293 48.4365 5.93 5.77 2.43
4294 48.4469 5.74 5.74 2.40
4295 48.4574 5.56 5.72 2.36
4296 48.4678 5.64 5.71 2.38
4297 48.4782 5.69 5.71 2.39
4298 48.4887 5.66 5.71 2.38
4299 48.4991 5.79 5.72 2.41
4300 48.5096 5.85 5.73 2.42
4301 48.5200 5.92 5.76 2.43
4302 48.5304 5.63 5.81 2.37
4303 48.5409 5.78 5.91 2.40
4304 48.5513 5.95 6.07 2.44
4305 48.5618 6.16 6.25 2.48
4306 48.5722 6.19 6.38 2.49
4307 48.5826 6.27 6.38 2.50
4308 48.5931 6.20 6.25 2.49
4309 48.6035 5.89 6.07 2.43
4310 48.6140 5.82 5.92 2.41
4311 48.6244 5.78 5.82 2.40
4312 48.6349 5.74 5.76 2.40
4313 48.6453 5.64 5.73 2.37
4314 48.6557 5.53 5.71 2.35
4315 48.6662 5.67 5.71 2.38
4316 48.6766 5.82 5.70 2.41
4317 48.6871 5.98 5.70 2.45
4318 48.6975 6.07 5.70 2.46
4319 48.7080 6.01 5.70 2.45
4320 48.7184 5.74 5.71 2.40
4321 48.7288 5.69 5.72 2.38
4322 48.7393 5.84 5.74 2.42
4323 48.7497 5.68 5.78 2.38
4324 48.7602 5.52 5.82 2.35
4325 48.7706 5.65 5.85 2.38
4326 48.7810 5.80 5.86 2.41
4327 48.7915 5.90 5.83 2.43
4328 48.8019 5.78 5.79 2.40
4329 48.8123 5.80 5.75 2.41
4330 48.8228 5.75 5.73 2.40
4331 48.8332 5.70 5.72 2.39
4332 48.8437 5.75 5.72 2.40
4333 48.8541 5.84 5.72 2.42
4334 48.8645 5.98 5.73 2.44
4335 48.8750 6.06 5.74 2.46
4336 48.8854 6.08 5.75 2.47
4337 48.8959 5.97 5.77 2.44
4338 48.9063 5.64 5.81 2.37
4339 48.9167 5.66 5.88 2.38
4340 48.9272 5.95 6.03 2.44
4341 48.9376 6.22 6.31 2.49
4342 48.9481 6.36 6.73 2.52
4343 48.9585 6.46 7.25 2.54
4344 48.9689 6.98 7.64 2.64
4345 48.9794 7.30 7.64 2.70
4346 48.9898 7.09 7.24 2.66
4347 49.0002 6.96 6.73 2.64
4348 49.0107 6.84 6.31 2.62
4349 49.0211 6.62 6.03 2.57
4350 49.0316 6.21 5.88 2.49
4351 49.0420 6.02 5.81 2.45
4352 49.0524 5.82 5.77 2.41
4353 49.0629 5.70 5.75 2.39
4354 49.0733 5.58 5.74 2.36
4355 49.0838 5.83 5.73 2.41
4356 49.0942 5.79 5.72 2.41
4357 49.1046 5.97 5.72 2.44
4358 49.1151 5.94 5.71 2.44
4359 49.1255 5.96 5.71 2.44
4360 49.1359 5.86 5.71 2.42
4361 49.1464 5.58 5.71 2.36
4362 49.1568 5.66 5.71 2.38
4363 49.1672 5.51 5.71 2.35
4364 49.1777 5.59 5.71 2.36
4365 49.1881 5.55 5.71 2.36
4366 49.1986 5.66 5.71 2.38
4367 49.2090 5.86 5.70 2.42
4368 49.2194 5.78 5.70 2.40
4369 49.2299 5.75 5.71 2.40
4370 49.2403 5.90 5.71 2.43
4371 49.2507 5.96 5.71 2.44
4372 49.2612 5.79 5.72 2.41
4373 49.2716 5.99 5.73 2.45
4374 49.2820 5.97 5.74 2.44
4375 49.2925 5.44 5.75 2.33
4376 49.3029 5.62 5.79 2.37
4377 49.3134 5.71 5.85 2.39
4378 49.3238 5.87 5.99 2.42
4379 49.3342 5.98 6.24 2.45
4380 49.3447 6.41 6.61 2.53
4381 49.3551 6.81 7.05 2.61
4382 49.3655 7.08 7.34 2.66
4383 49.3760 6.95 7.24 2.64
4384 49.3864 6.93 6.85 2.63
4385 49.3968 6.85 6.42 2.62
4386 49.4073 6.64 6.10 2.58
4387 49.4177 6.45 5.90 2.54
4388 49.4281 6.11 5.81 2.47
4389 49.4386 5.78 5.76 2.40
4390 49.4490 5.92 5.73 2.43
4391 49.4594 5.90 5.72 2.43
4392 49.4699 5.95 5.71 2.44
4393 49.4803 5.75 5.70 2.40
4394 49.4907 5.61 5.69 2.37
4395 49.5012 5.64 5.69 2.37
4396 49.5116 5.41 5.68 2.33
4397 49.5220 5.57 5.68 2.36
4398 49.5325 5.87 5.67 2.42
4399 49.5429 5.62 5.67 2.37
4400 49.5533 5.33 5.67 2.31
4401 49.5638 5.37 5.67 2.32
4402 49.5742 5.51 5.67 2.35
4403 49.5846 5.64 5.67 2.37
4404 49.5951 5.79 5.67 2.41
4405 49.6055 5.88 5.67 2.42
4406 49.6159 5.47 5.67 2.34
4407 49.6264 5.56 5.67 2.36
4408 49.6368 5.88 5.67 2.43
4409 49.6472 6.08 5.68 2.47
4410 49.6577 5.91 5.68 2.43
4411 49.6681 5.84 5.69 2.42
4412 49.6785 5.85 5.70 2.42
4413 49.6890 5.86 5.72 2.42
4414 49.6994 6.01 5.76 2.45
4415 49.7098 5.92 5.85 2.43
4416 49.7203 6.00 6.02 2.45
4417 49.7307 6.15 6.33 2.48
4418 49.7411 6.36 6.77 2.52
4419 49.7516 6.73 7.20 2.59
4420 49.7620 6.79 7.35 2.61
4421 49.7724 6.90 7.07 2.63
4422 49.7828 6.84 6.60 2.62
4423 49.7933 6.39 6.20 2.53
4424 49.8037 6.27 5.93 2.50
4425 49.8142 5.80 5.79 2.41
4426 49.8246 5.67 5.72 2.38
4427 49.8350 5.89 5.69 2.43
4428 49.8454 6.19 5.67 2.49
4429 49.8559 5.80 5.65 2.41
4430 49.8663 5.64 5.64 2.37
4431 49.8767 5.43 5.64 2.33
4432 49.8872 5.52 5.63 2.35
4433 49.8976 5.53 5.63 2.35
4434 49.9080 5.23 5.64 2.29
4435 49.9185 5.43 5.67 2.33
4436 49.9289 5.73 5.72 2.39
4437 49.9393 5.83 5.78 2.42
4438 49.9497 5.87 5.84 2.42
4439 49.9602 6.08 5.84 2.47
4440 49.9706 5.97 5.78 2.44
4441 49.9810 5.48 5.70 2.34
4442 49.9915 5.40 5.64 2.32
loop_
_pd_proc_info_excluded_regions
'from 0.001 to 3.500'
'from 50 to 52.367'
loop_
_refln_index_h
_refln_index_k
_refln_index_l
_refln_F_squared_calc
_refln_F_squared_meas
_refln_observed_status
_refln_d_spacing
1 0 1 11269.96 10762.94 o 6.750899
1 1 1 8541.07 8388.85 o 5.512086
0 0 2 926.15 866.47 o 4.773606
1 1 2 1846.28 2046.77 o 3.897633
2 0 2 70609.60 69239.48 o 3.375449
2 1 2 128631.35 127535.63 o 3.182405
0 1 3 25327.13 25157.11 o 3.019094
1 0 3 414277.09 411496.03 o 3.019094
1 1 3 179757.67 179566.58 o 2.878593
2 2 2 153267.69 151800.84 o 2.756043
2 1 3 54798.55 54959.50 o 2.551600
1 2 3 24142.61 24213.52 o 2.551600
0 0 4 11.39 13.09 < 2.386803
2 2 3 56410.51 56298.32 o 2.315539
3 0 3 75287.70 75820.48 o 2.250300
1 1 4 27247.49 27440.31 o 2.250300
3 1 3 16359.16 16274.13 o 2.190281
2 0 4 37660.85 39423.09 o 2.134822
0 2 4 74124.05 77592.50 o 2.134822
1 2 4 1207.03 1173.28 o 2.083373
2 1 4 1242.91 1208.15 o 2.083373
3 2 3 3386.51 4054.58 o 2.035473
2 2 4 1369.36 1395.33 o 1.948817
3 1 4 4040.05 4113.75 o 1.872362
1 3 4 237211.39 241538.33 o 1.872362
1 0 5 143292.00 145905.77 o 1.872362
0 1 5 66439.61 67651.52 o 1.872362
3 3 3 53477.81 54187.42 o 1.837362
1 1 5 124892.35 126549.59 o 1.837362
2 3 4 4392.01 4303.87 o 1.772873
3 2 4 4158.58 4075.12 o 1.772873
2 1 5 16844.01 17099.77 o 1.743075
1 2 5 3377.84 3429.13 o 1.743075
4 0 4 226973.39 222185.11 o 1.687725
2 2 5 64601.65 65766.45 o 1.661956
4 1 4 1017.58 1035.92 o 1.661956
3 0 5 51910.02 54811.69 o 1.637334
0 3 5 2577.13 2721.19 o 1.637334
3 3 4 6475.76 6837.74 o 1.637334
3 1 5 3113.71 2969.23 o 1.613774
1 3 5 5090.71 4854.49 o 1.613774
0 0 6 60154.88 60671.80 o 1.591202
4 2 4 189469.50 191097.67 o 1.591202
2 3 5 14312.94 15129.77 o 1.548762
1 1 6 9661.12 10212.46 o 1.548762
3 2 5 22130.84 23393.83 o 1.548762
0 2 6 139849.50 140526.30 o 1.509547
2 0 6 112572.11 113116.91 o 1.509547
4 3 4 866.24 841.99 o 1.491024
2 1 6 39292.62 38193.07 o 1.491024
1 2 6 39553.68 38446.80 o 1.491024
4 1 5 45904.94 44821.74 o 1.473167
1 4 5 22910.27 22369.66 o 1.473167
3 3 5 63253.83 62898.23 o 1.455936
2 2 6 23753.42 23603.04 o 1.439296
4 2 5 140.06 96.38 < 1.423214
2 4 5 348.83 240.03 < 1.423214
3 1 6 52165.57 54334.77 o 1.407660
1 3 6 3125.91 3255.90 o 1.407660
4 4 4 125202.44 121242.03 o 1.378021
3 2 6 16850.92 17741.54 o 1.363888
2 3 6 14699.20 15476.09 o 1.363888
4 3 5 48721.33 48484.68 o 1.350180
1 0 7 4315.66 4294.70 o 1.350180
3 4 5 4815.31 4791.92 o 1.350180
5 0 5 965.82 961.13 o 1.350180
0 1 7 1250.71 1244.63 o 1.350180
1 1 7 2314.93 2082.48 o 1.336877
5 1 5 2076.23 1867.75 o 1.336877
4 0 6 1995.99 1905.27 < 1.323960
0 4 6 10.70 10.21 < 1.323960
1 4 6 1328.48 1247.32 < 1.311411
4 1 6 645.15 605.74 < 1.311411
1 2 7 1195.46 1464.81 o 1.299211
2 1 7 28.64 35.09 o 1.299211
3 3 6 2032.51 2490.46 o 1.299211
5 2 5 1108.49 1358.25 o 1.299211
4 2 6 16100.61 16278.92 o 1.275800
2 4 6 6166.03 6234.31 o 1.275800
4 4 5 233.82 264.63 o 1.264559
2 2 7 15692.03 17760.22 o 1.264559
3 0 7 18.35 19.04 o 1.253610
0 3 7 121327.62 125906.92 o 1.253610
1 3 7 30450.80 31581.36 o 1.242941
5 3 5 48193.09 49982.38 o 1.242941
3 1 7 32342.81 33543.61 o 1.242941
4 3 6 2946.81 3643.79 o 1.222395
3 4 6 3772.81 4665.16 o 1.222395
5 1 6 26742.65 26780.76 o 1.212497
3 2 7 25545.34 25581.74 o 1.212497
1 5 6 5969.78 5978.29 o 1.212497
2 3 7 10860.18 10875.66 o 1.212497
0 0 8 294183.81 298512.62 o 1.193402
2 5 6 25517.49 26834.16 o 1.184186
5 2 6 20892.81 21970.85 o 1.184186
5 4 5 1196.52 1074.08 o 1.175181
1 1 8 9871.82 8861.64 o 1.175181
1 4 7 2433.73 2184.69 o 1.175181
4 1 7 9279.67 8330.08 o 1.175181
3 3 7 19253.25 20839.82 o 1.166378
0 2 8 13110.15 13375.12 o 1.157770
2 0 8 8549.11 8721.90 o 1.157770
4 4 6 16840.41 17180.78 o 1.157770
4 2 7 3712.11 4246.11 o 1.149349
1 2 8 0.19 0.21 o 1.149349
2 1 8 8.53 9.75 o 1.149349
2 4 7 5323.57 6089.39 o 1.149349
3 5 6 24069.53 24069.84 o 1.141110
5 3 6 1143.00 1143.01 o 1.141110
2 2 8 3002.13 2960.14 o 1.125150
6 0 6 124518.38 122776.50 o 1.125150
6 1 6 13776.56 13066.18 o 1.117417
1 3 8 181.67 178.87 o 1.109841
4 3 7 88.35 86.99 o 1.109841
0 5 7 55883.18 55021.03 o 1.109841
3 4 7 76192.45 75016.97 o 1.109841
3 1 8 46476.34 45759.32 o 1.109841
5 0 7 11960.60 11776.07 o 1.109841
1 5 7 35837.12 35930.55 o 1.102417
5 5 5 30658.44 30738.36 o 1.102417
5 1 7 33916.40 34004.82 o 1.102417
6 2 6 0.00 0.00 < 1.095140
2 3 8 696.04 520.13 < 1.088006
3 2 8 1313.50 981.54 < 1.088006
4 5 6 301.95 225.64 < 1.088006
5 4 6 134.21 100.29 < 1.088006
2 5 7 10.33 9.16 o 1.081009
5 2 7 8196.23 7264.27 o 1.081009
4 0 8 2919.43 3161.49 < 1.067411
0 4 8 601.53 651.41 < 1.067411
4 4 7 418.35 324.86 o 1.060801
4 1 8 485.45 376.97 o 1.060801
6 3 6 2778.42 2157.50 o 1.060801
1 4 8 460.79 357.81 o 1.060801
0 1 9 22867.19 23278.13 o 1.054313
3 3 8 15446.69 15724.28 o 1.054313
1 0 9 10987.91 11185.37 o 1.054313
3 5 7 2257.40 2047.75 o 1.047943
1 1 9 2361.78 2142.42 o 1.047943
5 3 7 3437.55 3118.29 o 1.047943
4 2 8 22134.68 21822.91 o 1.041686
2 4 8 25262.80 24906.96 o 1.041686
1 2 9 8904.34 8811.20 o 1.029503
2 1 9 11013.44 10898.25 o 1.029503
5 5 6 450.33 445.62 o 1.029503
1 6 7 873.32 864.19 o 1.029503
6 1 7 11487.51 11367.35 o 1.029503
6 4 6 49137.64 47190.89 o 1.017736
4 3 8 1257.00 1260.60 o 1.012003
2 2 9 8352.29 8376.23 o 1.012003
3 4 8 681.08 683.03 o 1.012003
6 2 7 2172.86 2179.09 o 1.012003
2 6 7 2792.89 2800.90 o 1.012003
0 3 9 29246.80 29475.57 o 1.006365
4 5 7 2718.35 2739.61 o 1.006365
3 0 9 21156.66 21322.14 o 1.006365
1 5 8 76.92 77.52 o 1.006365
5 4 7 20803.12 20965.85 o 1.006365
5 1 8 2415.34 2434.23 o 1.006365
3 1 9 20486.88 19184.98 o 1.000820
1 3 9 17186.07 16093.93 o 1.000820
2 5 8 236.48 498.88 < 0.990000
5 2 8 120.41 254.02 < 0.990000
2 3 9 82.28 83.82 o 0.984720
3 2 9 3709.50 3778.72 o 0.984720
3 6 7 5166.63 5263.04 o 0.984720
6 3 7 22985.30 23414.23 o 0.984720
4 4 8 7540.38 7446.09 o 0.974408
6 5 6 9259.49 8378.95 o 0.969373
7 0 7 240.15 227.41 o 0.964414
4 1 9 8110.98 7680.68 o 0.964414
3 5 8 868.72 822.64 o 0.964414
1 4 9 14815.41 14029.43 o 0.964414
5 3 8 25083.07 23752.37 o 0.964414
7 1 7 6389.55 4070.35 < 0.959531
3 3 9 2774.07 1767.17 < 0.959531
5 5 7 480.68 306.21 < 0.959531
0 6 8 7739.88 8686.19 o 0.954721
0 0 10 4543.28 5098.76 o 0.954721
6 0 8 7316.49 8211.03 o 0.954721
4 6 7 3209.94 2634.92 < 0.949983
4 2 9 9.72 7.98 < 0.949983
6 4 7 3143.97 2580.78 < 0.949983
1 6 8 3.42 2.80 < 0.949983
6 1 8 329.63 270.58 < 0.949983
2 4 9 131.92 108.29 < 0.949983
1 1 10 3870.73 4904.84 o 0.945315
7 2 7 35.11 44.48 o 0.945315
0 2 10 422.43 415.22 o 0.936181
2 6 8 16001.71 15728.37 o 0.936181
2 0 10 3102.55 3049.55 o 0.936181
6 2 8 14830.71 14577.38 o 0.936181
4 5 8 243.90 225.37 o 0.931713
1 2 10 8625.25 7969.82 o 0.931713
2 1 10 10351.55 9564.96 o 0.931713
5 4 8 166.08 153.46 o 0.931713
4 3 9 13388.06 11892.34 o 0.927307
0 5 9 63.61 56.50 o 0.927307
3 4 9 25244.55 22424.22 o 0.927307
5 0 9 35822.80 31820.67 o 0.927307
7 3 7 698.05 622.76 o 0.922964
1 5 9 13282.89 11850.24 o 0.922964
5 1 9 11376.97 10149.89 o 0.922964
2 2 10 33665.41 33679.82 o 0.918681
6 6 6 14492.26 14498.47 o 0.918681
3 6 8 1372.81 895.71 < 0.914457
6 3 8 1597.96 1042.62 < 0.914457
5 6 7 409.12 389.73 o 0.910291
6 5 7 16241.50 15471.99 o 0.910291
3 1 10 7171.26 6831.49 o 0.910291
2 5 9 14188.72 13516.47 o 0.910291
5 2 9 330.29 314.64 o 0.910291
1 3 10 17785.52 16942.85 o 0.910291
2 3 10 1528.10 817.84 < 0.898126
4 4 9 118.71 63.53 < 0.898126
3 2 10 2960.38 1584.40 < 0.898126
1 7 8 1248.25 1414.93 o 0.894178
7 1 8 3534.72 4006.71 o 0.894178
5 5 8 11.08 12.55 o 0.894178
7 4 7 1686.51 1911.71 o 0.894178
3 5 9 905.63 485.20 < 0.890282
5 3 9 1420.77 761.19 < 0.890282
4 6 8 11016.07 9397.26 o 0.886436
4 0 10 18864.07 16092.00 o 0.886436
0 4 10 22918.48 19550.61 o 0.886436
6 4 8 5557.67 4740.97 o 0.886436
4 1 10 292.67 228.16 < 0.882640
7 2 8 2309.45 1800.42 < 0.882640
1 4 10 1145.44 892.97 < 0.882640
2 7 8 1733.39 1351.33 < 0.882640
1 6 9 13270.03 12431.67 o 0.878892
3 3 10 10559.43 9892.31 o 0.878892
6 1 9 3444.03 3226.45 o 0.878892
4 2 10 2932.34 4003.51 o 0.871537
2 4 10 2386.54 3258.34 o 0.871537
6 6 7 0.05 0.05 o 0.867928
6 2 9 3917.21 3868.78 o 0.867928
2 6 9 2913.71 2877.69 o 0.867928
4 5 9 14618.13 12824.39 o 0.864364
7 3 8 2013.94 1766.82 o 0.864364
3 7 8 20874.78 18313.31 o 0.864364
0 1 11 2225.64 1952.54 o 0.864364
1 0 11 14935.54 13102.85 o 0.864364
5 4 9 815.16 715.13 o 0.864364
1 1 11 15293.15 14162.87 o 0.860843
7 5 7 6627.35 6137.54 o 0.860843
4 3 10 911.15 630.84 < 0.853929
3 4 10 1780.29 1232.60 < 0.853929
6 5 8 1.52 1.05 < 0.853929
5 6 8 35.92 24.87 < 0.853929
1 2 11 6.42 6.55 o 0.850533
2 1 11 4131.50 4218.81 o 0.850533
3 6 9 3669.53 3747.08 o 0.850533
1 5 10 4393.88 4486.74 o 0.850533
6 3 9 4398.03 4490.98 o 0.850533
5 1 10 1234.71 1260.80 o 0.850533
8 0 8 31634.61 29610.94 o 0.843862
4 7 8 849.46 758.07 o 0.840585
2 2 11 7318.63 6531.29 o 0.840585
8 1 8 524.83 468.37 o 0.840585
7 4 8 886.44 791.08 o 0.840585
2 5 10 6439.50 5746.73 o 0.840585
5 2 10 5341.96 4767.27 o 0.840585
0 7 9 16924.59 12994.89 o 0.837346
7 0 9 10316.93 7921.46 o 0.837346
0 3 11 2507.41 1925.21 o 0.837346
3 0 11 1853.19 1422.90 o 0.837346
1 7 9 1265.21 733.85 < 0.834144
7 1 9 377.75 219.10 < 0.834144
3 1 11 539.73 313.06 < 0.834144
5 5 9 1055.06 611.96 < 0.834144
1 3 11 633.82 367.63 < 0.834144
4 4 10 35796.36 26793.70 o 0.830978
8 2 8 9165.73 6860.58 o 0.830978
4 6 9 47.54 22.22 < 0.827848
6 4 9 199.43 93.23 < 0.827848
2 3 11 166.22 144.04 o 0.824754
3 5 10 628.68 544.80 o 0.824754
7 6 7 3147.38 2727.49 o 0.824754
3 2 11 3179.94 2755.70 o 0.824754
7 2 9 3739.19 3240.34 o 0.824754
2 7 9 7588.96 6576.51 o 0.824754
5 3 10 17534.76 15195.43 o 0.824754
0 6 10 18128.00 14074.05 o 0.818667
6 6 8 16758.73 13010.99 o 0.818667
6 0 10 24432.94 18969.02 o 0.818667
8 3 8 1049.98 1283.04 < 0.815673
1 6 10 2101.96 2568.53 < 0.815673
6 1 10 2793.41 3413.46 < 0.815673
loop_
_cod_changelog_entry_id
_cod_changelog_entry_author
_cod_changelog_entry_date
_cod_changelog_entry_text
1 'Vaitkus, Antanas' 2022-05-09T02:40:00+03:00
'Updated bibliographic information.'
