#------------------------------------------------------------------------------
#$Date: 2021-04-30 12:13:07 +0300 (Fri, 30 Apr 2021) $
#$Revision: 264724 $
#$URL: file:///home/coder/svn-repositories/cod/cif/1/56/23/1562322.cif $
#------------------------------------------------------------------------------
#
# This file is available in the Crystallography Open Database (COD),
# http://www.crystallography.net/
#
# All data on this site have been placed in the public domain by the
# contributors.
#
data_1562322
loop_
_publ_author_name
'Oh, George N.'
'Burns, Peter C.'
_publ_section_title
;
 Solid-state actinide acid phosphites from phosphorous acid melts
;
_journal_name_full               'Journal of Solid State Chemistry'
_journal_page_first              50
_journal_page_last               56
_journal_paper_doi               10.1016/j.jssc.2014.03.029
_journal_volume                  215
_journal_year                    2014
_chemical_formula_sum            'H8 O12 P4 U'
_chemical_formula_weight         561.97
_chemical_name_systematic
; 
Beta-Uranium (IV) tetra(hydrogenphosphonate) 
;
_space_group_crystal_system      monoclinic
_space_group_IT_number           15
_space_group_name_Hall           '-C 2yc'
_space_group_name_H-M_alt        'C 1 2/c 1'
_atom_sites_solution_hydrogens   .
_atom_sites_solution_primary     direct
_atom_sites_solution_secondary   difmap
_audit_creation_method           SHELXL-97
_cell_angle_alpha                90.00
_cell_angle_beta                 102.3170(10)
_cell_angle_gamma                90.00
_cell_formula_units_Z            4
_cell_length_a                   11.3116(15)
_cell_length_b                   7.7632(11)
_cell_length_c                   12.4181(17)
_cell_measurement_temperature    298(2)
_cell_volume                     1065.4(3)
_computing_cell_refinement       SAINT
_computing_data_collection       APEX2
_computing_data_reduction        SAINT
_computing_molecular_graphics    'CrystalMaker(R) (Palmer, 2011)'
_computing_structure_refinement  'SHELXL-97 (Sheldrick, 2008)'
_computing_structure_solution    'SHELXS-97 (Sheldrick, 2008)'
_diffrn_ambient_temperature      298(2)
_diffrn_measured_fraction_theta_full 1
_diffrn_measured_fraction_theta_max 0.948
_diffrn_measurement_device_type  'Bruker Apex2'
_diffrn_measurement_method       sphere
_diffrn_radiation_monochromator  graphite
_diffrn_radiation_source         'fine-focus sealed tube'
_diffrn_radiation_type           MoK\a
_diffrn_radiation_wavelength     0.71073
_diffrn_reflns_av_R_equivalents  0.0398
_diffrn_reflns_av_sigmaI/netI    0.0334
_diffrn_reflns_limit_h_max       14
_diffrn_reflns_limit_h_min       -14
_diffrn_reflns_limit_k_max       10
_diffrn_reflns_limit_k_min       -10
_diffrn_reflns_limit_l_max       16
_diffrn_reflns_limit_l_min       -16
_diffrn_reflns_number            6141
_diffrn_reflns_theta_full        25
_diffrn_reflns_theta_max         28.80
_diffrn_reflns_theta_min         3.21
_exptl_absorpt_coefficient_mu    15.895
_exptl_absorpt_correction_T_max  0.608
_exptl_absorpt_correction_T_min  0.575
_exptl_absorpt_correction_type   numerical
_exptl_absorpt_process_details   SADABS
_exptl_crystal_colour            green
_exptl_crystal_density_diffrn    3.504
_exptl_crystal_density_meas      .
_exptl_crystal_density_method    'not measured'
_exptl_crystal_description       rhombohedron
_exptl_crystal_F_000             1024
_refine_diff_density_max         1.231
_refine_diff_density_min         -0.818
_refine_diff_density_rms         0.187
_refine_ls_extinction_method     none
_refine_ls_goodness_of_fit_ref   1.278
_refine_ls_hydrogen_treatment    .
_refine_ls_matrix_type           full
_refine_ls_number_parameters     78
_refine_ls_number_reflns         1319
_refine_ls_number_restraints     0
_refine_ls_restrained_S_all      1.278
_refine_ls_R_factor_all          0.0268
_refine_ls_R_factor_gt           0.0214
_refine_ls_shift/su_max          0.022
_refine_ls_shift/su_mean         0.002
_refine_ls_structure_factor_coef Fsqd
_refine_ls_weighting_details
; calc 
 [1.00000+0.00000exp(0.00(sin\q/\l)^2^)]/ 
   [\s^2^(Fo^2^)+0.0000+0.0000*P+(0.0149P)^2^+0.0000sin\q/\l] 
 where P = 1.00000Fo^2^ + 0.00000Fc^2^ 
;
_refine_ls_weighting_scheme      calc
_refine_ls_wR_factor_gt          0.0477
_refine_ls_wR_factor_ref         0.0497
_reflns_number_gt                1162
_reflns_number_total             1319
_reflns_threshold_expression     >2sigma(I)
_cod_data_source_file            JSSC-2014-215-50.cif
_cod_data_source_block           betauhp
_cod_original_sg_symbol_H-M      'C 2/c'
_cod_database_code               1562322
_shelx_res_file
;
TITL beta-U(H2PO3)4 in C2/c
CELL 0.71073  11.3116   7.7632  12.4181  90.000 102.317  90.000
ZERR    4.00   0.0015   0.0011   0.0017   0.000   0.001   0.000
LATT  7
SYMM -X, Y, 0.5-Z
SFAC O H P U
UNIT 48 32 16 4
TEMP 25.000
 
L.S. 4
BOND
ACTA
FMAP 2
PLAN 20
 
WGHT    0.014900    0.000000    0.000000    0.000000    0.000000    1.000000
FVAR       0.22320
U1    4    0.000000    0.507333    0.250000    10.50000    0.00936    0.00957 =
         0.00913    0.00000    0.00238    0.00000
P1    3    0.065453    0.250869    0.015235    11.00000    0.01549    0.01168 =
         0.01105    0.00039    0.00329    0.00018
P2    3    0.226078    0.163145    0.335499    11.00000    0.01379    0.01412 =
         0.01412    0.00285    0.00593    0.00385
O1    1    0.079276    0.375993    0.109292    11.00000    0.02150    0.02025 =
         0.01653   -0.00463    0.00625   -0.00182
O2    1    0.135728    0.014011    0.293998    11.00000    0.02460    0.02271 =
         0.04303   -0.00261    0.00862   -0.00450
O3    1    0.152178    0.323768    0.336313    11.00000    0.01859    0.01800 =
         0.01903    0.00151    0.00707    0.00763
O4    1    0.163707    0.105534    0.043106    11.00000    0.02982    0.01689 =
         0.02123   -0.00012    0.00136    0.01193
O5    1    0.321373    0.177290    0.267138    11.00000    0.02497    0.01888 =
         0.02919    0.00606    0.01735    0.00917
O6    1    0.429494    0.172776    0.094518    11.00000    0.04714    0.02137 =
         0.01434    0.00596    0.01485    0.01326
HKLF 4
 
REM  beta-U(H2PO3)4 in C2/c
REM R1 =  0.0214 for   1162 Fo > 4sig(Fo)  and  0.0268 for all   1319 data
REM     78 parameters refined using      0 restraints
 
END  
     
WGHT      0.0149      5.8371 
REM Highest difference peak  1.231,  deepest hole -0.818,  1-sigma level  0.187
Q1    1   0.2782  0.1399  0.4242  11.00000  0.05    1.23
Q2    1  -0.0535  0.1798 -0.0150  11.00000  0.05    1.05
Q3    1   0.1777 -0.0829  0.2780  11.00000  0.05    0.72
Q4    1   0.4702  0.2065  0.1515  11.00000  0.05    0.71
Q5    1   0.2783  0.1283  0.0579  11.00000  0.05    0.61
Q6    1   0.1887  0.3733  0.3688  11.00000  0.05    0.61
Q7    1   0.0445  0.5727  0.2645  11.00000  0.05    0.60
Q8    1   0.0793  0.1263  0.1747  11.00000  0.05    0.55
Q9    1   0.1474  0.4022  0.0860  11.00000  0.05    0.53
Q10   1   0.4370  0.1270  0.0684  11.00000  0.05    0.53
Q11   1   0.2001 -0.0533 -0.0268  11.00000  0.05    0.53
Q12   1   0.2194  0.1307  0.0310  11.00000  0.05    0.53
Q13   1   0.1717  0.1936  0.0704  11.00000  0.05    0.52
Q14   1   0.3037  0.2025  0.1976  11.00000  0.05    0.50
Q15   1   0.2181  0.1093  0.0953  11.00000  0.05    0.50
Q16   1   0.0543  0.0296  0.3092  11.00000  0.05    0.50
Q17   1   0.1813  0.2347  0.3293  11.00000  0.05    0.50
Q18   1   0.1183 -0.0984  0.0720  11.00000  0.05    0.50
Q19   1   0.0984  0.0696  0.2410  11.00000  0.05    0.50
Q20   1   0.3159  0.3746  0.3438  11.00000  0.05    0.48
;
_shelx_hkl_file
;
   2   0   0 3191.94   87.92   4
   2   0   0 3160.45   94.38   3
   2   0   0 3228.66   93.27   2
  -2   0   0 3248.92   95.65   1
  -4   0   0 1910.80   64.97   1
   4   0   0 1855.56   67.30   3
   4   0   0 1953.03   55.98   4
  -6   0   0 1861.98   66.58   1
   6   0   0 1645.72   69.85   3
  -6   0   0 1738.80   68.29   2
   6   0   0 1722.27   53.51   4
  -8   0   0 774.200  42.294   1
  -8   0   0 866.265  47.290   2
 -10   0   0 688.970  46.875   2
 -10   0   0 662.505  41.964   1
  10   0   0 663.735  49.169   3
 -12   0   0 1271.51   74.79   2
  12   0   0 1418.51   83.21   3
  14   0   0 1383.20   88.76   3
 -14   0   0 1311.15   82.15   2
   1  -1   0 5215.61  146.74   4
   1  -1   0 5280.51  148.17   3
  -1  -1   0 5312.73  145.53   4
   1   1   0 5374.59  146.77   3
   1   1   0 5179.44  149.20   2
  -1   1   0 5381.22  154.21   1
  -1   1   0 5356.81  148.07   2
   1   1   0 5392.72  155.44   1
   3  -1   0 6156.03  180.73   3
   3  -1   0 6147.16  172.42   4
  -3  -1   0 6258.46  185.24   1
   3   1   0 6252.75  180.24   2
   3   1   0 6385.45  179.26   3
  -3   1   0 6125.02  178.19   2
  -3   1   0 6327.52  183.00   1
   3   1   0 6241.39  170.14   4
   5  -1   0 2123.75   79.98   3
  -5  -1   0 2184.89   78.12   1
   5  -1   0 2332.32   68.64   4
   5   1   0 2107.91   77.51   2
   5   1   0 2231.11   65.27   4
  -5   1   0 2192.57   75.39   1
  -5   1   0 2133.20   76.40   2
   5   1   0 2225.02   78.79   3
  -7  -1   0 1724.19   70.32   1
   7  -1   0 1789.28   76.39   3
   7  -1   0 1754.64   57.83   4
   7   1   0 1818.79   73.12   2
  -7   1   0 1699.04   70.65   2
  -7   1   0 1724.61   67.73   1
   7   1   0 1795.49   74.25   3
  -9  -1   0 1130.09   56.44   1
   9  -1   0 1052.59   62.01   3
  -9  -1   0 1119.09   60.46   2
  -9   1   0 1218.18   60.21   2
   9   1   0 1193.36   63.40   3
  -9   1   0 1155.50   54.61   1
   9   1   0 1013.08   58.59   2
  11  -1   0 1891.23   95.54   3
 -11  -1   0 1790.28   88.78   2
  11   1   0 1808.66   92.21   3
 -11   1   0 1830.72   87.64   2
 -13  -1   0 806.962  60.256   2
 -13   1   0 713.329  59.517   2
  13   1   0 698.742  61.726   3
   0  -2   0 809.214  32.190   4
   0  -2   0 777.880  26.107   3
   0   2   0 838.851  33.267   2
   2  -2   0 3285.22  100.81   3
   2  -2   0 3353.00  102.27   4
  -2  -2   0 3346.89   99.38   4
   2   2   0 3328.75  103.96   2
  -2   2   0 3324.29  105.60   1
   2   2   0 3322.09  107.93   1
  -2   2   0 3359.42  101.61   2
   2   2   0 3485.35   98.17   3
  -4  -2   0 2311.59   70.53   4
   4  -2   0 2234.13   79.22   3
  -4  -2   0 2230.24   81.14   1
   4  -2   0 2191.02   73.97   4
   4   2   0 2217.40   79.43   2
   4   2   0 2369.51   76.33   3
  -4   2   0 2285.52   77.35   2
  -4   2   0 2249.18   77.42   1
  -6  -2   0 4103.43  138.20   1
   6  -2   0 4095.35  124.46   4
   6  -2   0 4258.41  139.30   3
   6   2   0 4060.26  134.23   3
   6   2   0 3967.31  135.76   2
  -6   2   0 4203.63  133.26   1
   6   2   0 4019.58  118.87   4
  -6   2   0 4120.67  133.39   2
   8  -2   0 3889.18  134.91   3
  -8  -2   0 3621.96  127.45   1
   8   2   0 3435.19  126.21   3
   8   2   0 3277.60  126.02   2
  -8   2   0 3365.54  123.65   2
  -8   2   0 3459.28  120.90   1
 -10  -2   0 1624.50   79.41   1
  10   2   0 1850.07   85.87   2
  10   2   0 1918.49   86.48   3
 -10   2   0 1728.82   82.09   2
 -12  -2   0 704.618  58.785   2
  12  -2   0 728.619  63.071   3
 -12   2   0 788.818  56.713   2
  12   2   0 788.617  58.063   3
 -14   2   0 387.860  49.829   2
  14   2   0 499.712  55.632   3
  -1  -3   0 1051.34   44.00   4
   1  -3   0 1122.64   38.24   3
  -1  -3   0 1120.87   36.23   3
   1  -3   0 1036.26   45.31   4
   1   3   0 1120.01   46.30   2
  -1   3   0 1103.39   46.62   1
  -1   3   0 1056.56   44.30   2
   1   3   0 1190.40   48.49   1
   3  -3   0 4516.67  138.68   4
  -3  -3   0 4349.07  133.55   4
   3  -3   0 4360.01  135.24   3
   3   3   0 4570.69  146.98   1
  -3   3   0 4526.52  142.55   1
   3   3   0 4403.21  140.67   2
  -3   3   0 4352.11  137.07   2
   3   3   0 4533.16  130.96   3
  -5  -3   0 4155.08  143.46   1
  -5  -3   0 4287.68  127.01   4
   5  -3   0 4294.23  138.17   3
   5  -3   0 4041.16  132.07   4
   5   3   0 4028.41  138.74   2
   5   3   0 4273.77  131.93   3
  -5   3   0 4226.83  137.97   1
  -5   3   0 4288.37  135.92   2
   7  -3   0 1057.34   56.33   3
   7  -3   0 1106.05   49.15   4
  -7  -3   0 1082.94   56.16   1
   7   3   0 1097.11   56.97   2
   7   3   0 1056.59   51.93   3
  -7   3   0 974.268  51.260   2
  -7   3   0 1163.42   52.23   1
  -9  -3   0 2789.95  113.28   1
   9  -3   0 2886.71  117.36   3
   9   3   0 2724.09  109.15   3
   9   3   0 2755.08  113.26   2
  -9   3   0 2700.98  108.82   2
  11  -3   0 564.326  53.799   3
 -11  -3   0 604.495  47.128   1
  11   3   0 669.452  54.789   2
 -11   3   0 609.092  47.318   2
  11   3   0 674.809  50.323   3
  13  -3   0 1041.73   76.96   3
 -13  -3   0 907.279  67.964   2
  13   3   0 971.772  68.097   3
 -13   3   0 880.648  65.324   2
   0  -4   0 1904.69   56.70   3
   0  -4   0 1752.79   70.16   4
   0   4   0 1808.00   73.00   1
   0   4   0 1799.61   71.11   2
  -2  -4   0 4863.75  148.66   4
  -2  -4   0 4767.37  136.52   3
   2  -4   0 4787.32  141.21   3
   2  -4   0 4766.51  152.07   4
   2   4   0 4697.02  159.58   1
  -2   4   0 4877.02  156.89   1
  -2   4   0 4759.31  150.05   2
   2   4   0 4587.61  152.66   2
   4  -4   0 1809.11   72.96   4
  -4  -4   0 1840.01   67.64   4
   4  -4   0 1686.46   66.62   3
  -4   4   0 1766.10   71.95   1
  -4   4   0 1693.31   68.77   2
   4   4   0 1751.70   61.73   3
   4   4   0 1910.26   78.11   1
   4   4   0 1688.08   72.75   2
  -6  -4   0 1549.71   73.33   1
   6  -4   0 1557.30   67.03   4
  -6  -4   0 1502.94   60.11   4
   6  -4   0 1603.38   69.39   3
   6   4   0 1575.22   72.34   2
   6   4   0 1535.40   62.75   3
  -6   4   0 1536.68   67.19   2
  -6   4   0 1592.98   68.49   1
   8  -4   0 1112.73   62.96   3
   8  -4   0 1076.62   55.05   4
  -8  -4   0 1214.66   65.64   1
   8   4   0 1053.89   62.46   2
   8   4   0 1163.65   57.81   3
  -8   4   0 1198.09   59.02   1
  -8   4   0 1212.44   61.27   2
 -10  -4   0 781.225  55.376   1
  10  -4   0 747.225  56.159   3
  10   4   0 790.503  56.738   2
  10   4   0 717.329  49.903   3
 -10   4   0 783.080  52.071   2
  12  -4   0 729.818  64.049   3
 -12   4   0 721.407  54.390   2
  12   4   0 552.386  55.618   2
   1  -5   0 2477.87   94.98   4
  -1  -5   0 2520.67   94.16   4
   1   5   0 2443.90   94.20   2
   1   5   0 2530.48   99.43   1
  -1   5   0 2489.49   96.94   1
  -1   5   0 2438.36   94.15   2
   3  -5   0 1477.55   67.44   4
  -3  -5   0 1474.20   63.55   4
   3  -5   0 1462.78   55.68   3
   3   5   0 1347.45   67.87   1
  -3   5   0 1346.26   62.31   2
  -3   5   0 1533.26   67.61   1
   3   5   0 1439.54   66.79   2
   5  -5   0 2052.47   80.64   3
   5  -5   0 1923.27   85.06   4
  -5  -5   0 2076.42   80.47   4
  -5   5   0 2079.34   84.01   2
   5   5   0 2159.22   94.37   1
   5   5   0 2163.32   90.74   2
  -5   5   0 2090.36   86.48   1
   7  -5   0 1764.05   80.50   3
  -7  -5   0 1731.34   86.83   1
   7  -5   0 1854.27   81.58   4
   7   5   0 1828.46   87.17   2
  -7   5   0 1942.52   83.09   2
  -7   5   0 1826.11   80.90   1
   9  -5   0 546.756  47.408   3
  -9  -5   0 561.983  49.070   1
  -9   5   0 552.591  42.959   2
   9   5   0 606.366  51.732   2
  11  -5   0 1161.27   74.25   3
  11   5   0 992.219  70.697   2
 -11   5   0 1061.98   67.52   2
 -13   5   0 515.003  54.296   2
   0  -6   0 2726.37  108.06   4
   0   6   0 2825.79  108.81   2
   0   6   0 2919.28  114.42   1
   2  -6   0 472.023  40.085   4
  -2  -6   0 468.008  37.752   4
   2   6   0 435.990  37.499   2
  -2   6   0 469.955  37.818   2
  -2   6   0 497.932  37.830   1
   2   6   0 421.423  38.708   1
   4  -6   0 1643.86   82.28   4
  -4  -6   0 1895.33   80.31   4
   4   6   0 2002.35   87.21   2
  -4   6   0 1896.20   81.91   2
   4   6   0 1843.82   88.55   1
  -4   6   0 1835.83   83.81   1
   6  -6   0 1524.09   75.62   4
  -6  -6   0 1439.24   67.38   4
  -6   6   0 1600.53   73.99   2
   6   6   0 1361.46   74.49   2
   6   6   0 1429.05   79.11   1
  -6   6   0 1397.49   71.58   1
  -8  -6   0 1691.20   91.64   1
   8  -6   0 1894.26   87.88   4
  -8   6   0 1874.72   86.96   2
   8   6   0 1684.84   91.27   2
 -10  -6   0 915.329  67.726   1
 -10   6   0 934.935  62.758   2
  10   6   0 872.051  65.425   2
 -12  -6   0 476.093  56.131   1
  -1  -7   0 1261.68   68.13   4
   1  -7   0 1280.71   69.84   4
  -1   7   0 1243.64   70.37   1
   1   7   0 1402.90   70.99   2
  -1   7   0 1325.98   68.46   2
   1   7   0 1342.21   73.87   1
   3  -7   0 1442.97   76.53   4
  -3  -7   0 1538.36   74.01   4
  -3   7   0 1391.31   73.29   2
   3   7   0 1423.20   78.76   1
  -3   7   0 1489.11   76.45   1
   3   7   0 1482.01   75.53   2
  -5  -7   0 693.594  48.056   4
   5  -7   0 732.118  53.533   4
   5   7   0 805.051  57.838   1
   5   7   0 791.183  55.345   2
  -5   7   0 803.859  53.680   1
  -5   7   0 786.302  52.800   2
   7  -7   0 1044.48   66.29   4
  -7  -7   0 1025.45   68.15   1
   7   7   0 982.125  66.692   2
  -9  -7   0 473.870  51.934   1
   9   7   0 549.899  55.887   2
   0  -8   0 1401.99   77.15   4
   0   8   0 1383.28   80.01   1
   2  -8   0 1623.18   86.04   4
  -2  -8   0 1511.09   81.41   4
   2   8   0 1703.17   85.36   2
  -2   8   0 1707.44   88.50   1
   2   8   0 1619.63   89.06   1
   4  -8   0 690.258  56.658   4
  -4  -8   0 666.241  50.204   4
   4   8   0 655.831  53.128   2
   4   8   0 568.945  54.591   1
  -4   8   0 604.876  52.481   1
   6  -8   0 462.067  50.475   4
   6   8   0 505.565  50.636   2
   6   8   0 448.029  51.573   1
  -6   8   0 573.609  51.281   1
  -8  -8   0 301.708  45.228   1
   8  -8   0 315.655  44.972   4
   8   8   0 339.630  47.193   2
   1  -9   0 548.890  54.105   4
  -1  -9   0 578.243  54.529   4
   1   9   0 558.633  55.818   1
  -1   9   0 633.527  57.474   1
  -3  -9   0 831.008  59.870   4
   3  -9   0 854.897  63.122   4
   3   9   0 836.914  65.810   1
  -3   9   0 761.939  61.505   1
   5  -9   0 790.728  66.406   4
  -5  -9   0 771.115  58.116   4
   5   9   0 684.642  65.565   1
  -5   9   0 785.299  62.011   1
   7  -9   0 287.164  46.328   4
   0 -10   0 285.871  44.908   4
   0  10   0 255.729  43.859   1
  -2 -10   0 540.876  56.194   4
  -2  10   0 412.600  53.120   1
  -4  10   0 250.423  43.728   1
 -14   0   1 13.3917 17.9315   2
  14   0  -1 -3.6525 15.8129   3
 -12   0   1 -5.0199  9.9419   2
  12   0  -1 -9.3892 11.3981   3
  10   0  -1 2.37251 9.84990   3
 -10   0   1  8.8548 11.2984   2
  -8   0   1 2.20512 6.57283   2
   8   0  -1 -1.3870  7.1722   3
  -8   0   1 6.01189 6.54453   1
  -6   0   1 -8.6210  3.8437   2
  -6   0   1 -0.6881  4.4447   1
   6   0  -1 -4.0408  4.1861   3
   6   0  -1 -0.2169  3.4433   4
   4   0  -1 -4.8143  2.6411   4
  -4   0   1 0.47557 4.44643   2
  -4   0   1 -8.6737  2.7871   1
   4   0  -1 1.65317 4.82784   3
   2   0  -1 -4.1542  1.9152   4
  -2   0   1 -2.2276  2.5202   2
   2   0  -1 -1.7070  2.5398   3
  -2   0   1 2.12025 2.12697   1
   0   0   1 -5.0047  1.7330   3
   0   0   1 -0.0725  1.8693   2
   0   0  -1 -6.9105  0.9569   4
   0   0  -1 -1.2080  1.6095   1
   2   0   1 -2.7502  3.1822   2
  -2   0  -1 -9.1404  2.7349   1
   2   0   1 -6.6839  3.3836   3
   4   0   1 -3.3765  4.4703   2
  -4   0  -1 -0.2794  5.2746   1
   4   0   1 -5.2736  4.9131   3
   4   0   1 -2.6841  1.5617   4
   6   0   1 -1.0908  2.1275   4
   6   0   1 -2.2075  5.0632   2
   6   0   1 -0.6755  5.9909   3
  -6   0  -1 -1.3495  4.8858   1
  -8   0  -1 4.93352 7.54157   2
   8   0   1 -9.8018  6.7795   3
  -8   0  -1 0.98674 7.46220   1
 -10   0  -1 -11.365   6.409   2
  10   0   1 14.2720 12.7945   3
 -10   0  -1  2.1992 10.1610   1
 -12   0  -1  0.0579 12.6799   2
  12   0   1 -10.285  12.037   3
 -14   0  -1 -4.7259 15.2440   2
  14   0   1 22.4677 21.3379   3
  13  -1  -1 135.506  31.400   3
 -13  -1   1 120.350  28.207   2
 -13   1   1 122.032  27.898   2
  13   1  -1 133.661  29.955   3
 -11  -1   1  1.5945 10.8633   2
  11  -1  -1 -0.0272 11.3651   3
  11   1  -1 -14.964   8.550   3
 -11   1   1 -11.710   9.760   2
  -9  -1   1 283.836  30.770   2
  -9  -1   1 336.976  26.778   1
   9  -1  -1 260.662  32.014   3
   9   1  -1 308.878  32.689   3
  -9   1   1 270.750  29.120   2
   7  -1  -1 175.829  14.943   4
  -7  -1   1 191.933  19.036   1
   7  -1  -1 171.078  22.973   3
   7   1  -1 206.484  22.247   2
  -7   1   1 185.025  20.837   2
   7   1  -1 187.296  13.731   4
   7   1  -1 170.191  21.872   3
  -7   1   1 182.989  16.786   1
   5  -1  -1 315.856  17.949   4
   5  -1  -1 290.492  22.257   3
  -5  -1   1 317.453  19.743   1
   5   1  -1 317.547  21.519   2
   5   1  -1 329.012  16.726   4
   5   1  -1 298.274  21.488   3
  -5   1   1 317.139  17.944   1
  -5   1   1 312.009  21.491   2
   3  -1  -1 2591.68   83.32   3
   3  -1  -1 2670.01   79.58   4
   3   1  -1 2582.05   82.13   2
   3   1  -1 2615.12   83.04   3
  -3   1   1 2617.72   80.07   1
  -3   1   1 2684.44   83.35   2
   3   1  -1 2677.07   83.92   1
   3   1  -1 2681.81   77.90   4
   1  -1  -1 12.6704  3.4670   3
   1  -1  -1 6.33873 4.10362   4
   1   1  -1 4.76791 3.91823   1
   1   1  -1 4.42456 3.15724   2
  -1   1   1 13.3662  4.8993   2
   1   1  -1 2.87252 3.72109   4
   1   1  -1 2.18786 3.41254   3
  -1   1   1 5.11122 3.24563   1
   1  -1   1 85.8744  8.8380   3
  -1  -1  -1 82.6604  8.4753   1
  -1  -1  -1 104.933   7.330   4
   1  -1   1 94.0980  7.9058   4
   1   1   1 94.9804  6.8116   3
  -1   1  -1 101.645   6.746   2
  -1   1  -1 90.5267  8.7420   1
   1   1   1 91.2304  9.6839   2
  -3  -1  -1 844.379  26.286   4
   3  -1   1 827.537  36.697   3
  -3  -1  -1 820.941  35.390   1
   3  -1   1 839.024  29.580   4
  -3   1  -1 755.289  31.717   2
  -3   1  -1 858.518  34.318   1
   3   1   1 851.640  35.588   2
   3   1   1 823.857  33.711   3
   5  -1   1 188.381  20.617   3
  -5  -1  -1 229.495  20.176   1
  -5  -1  -1 204.719   9.106   4
   5  -1   1 199.138  12.110   4
   5   1   1 204.737  19.671   2
  -5   1  -1 203.099  17.815   1
   5   1   1 190.823  19.318   3
  -5   1  -1 189.431  17.683   2
  -7  -1  -1 -9.7224  4.8621   1
   7  -1   1 -0.8000  6.6156   3
  -7   1  -1 5.37280 6.81379   2
  -7   1  -1 -1.7350  6.2447   1
   7   1   1 -0.1209  6.0749   2
   7   1   1 15.1629  9.5558   3
  -9  -1  -1 22.7205 11.6381   1
   9  -1   1 10.5605 12.3668   3
   9   1   1 21.6714 11.8993   2
  -9   1  -1 29.5506 12.3208   2
  -9   1  -1 75.0507 16.5777   1
   9   1   1 27.3460 13.2710   3
 -11  -1  -1 443.839  44.140   2
  11  -1   1 442.440  47.927   3
 -11  -1  -1 457.557  40.892   1
 -11   1  -1 597.496  47.515   2
  11   1   1 427.555  45.716   3
  13  -1   1  4.0882 14.8033   3
 -13  -1  -1 17.1353 17.1849   2
 -13   1  -1 13.2403 16.7164   2
  13   1   1 18.9784 20.5986   3
  14  -2  -1  5.7131 20.7338   3
 -14  -2   1 -18.604  16.193   2
  14   2  -1 -17.913  15.131   3
 -14   2   1 20.3798 19.9837   2
  12  -2  -1  6.8462 16.3012   3
 -12  -2   1 -0.8167 13.2803   2
  12   2  -1 12.8017 14.8096   3
 -12   2   1  0.1833 13.5956   2
  10  -2  -1 45.4700 18.7889   3
 -10  -2   1 41.4790 16.4191   2
 -10  -2   1 63.3861 17.0601   1
  10   2  -1 78.0025 20.2431   3
  10   2  -1 85.5820 22.1154   2
 -10   2   1 63.4169 17.8616   2
   8  -2  -1 111.385  14.773   4
  -8  -2   1 68.4987 15.2658   1
   8  -2  -1 109.041  21.120   3
   8   2  -1 94.3888 18.2333   2
  -8   2   1 97.2317 14.4277   1
  -8   2   1 103.403  19.021   2
   8   2  -1 75.3988 17.0159   3
   6  -2  -1 85.0173 16.1157   3
   6  -2  -1 125.309  14.461   4
  -6  -2   1 128.703  16.605   1
  -6   2   1 104.661  12.932   1
   6   2  -1 111.180  16.665   3
  -6   2   1 100.241  16.067   2
   6   2  -1 122.774  17.314   2
   6   2  -1 132.355  12.690   4
   4  -2  -1 1566.76   55.06   4
   4  -2  -1 1508.00   57.37   3
   4   2  -1 1530.01   52.11   4
   4   2  -1 1498.97   57.42   2
  -4   2   1 1454.83   56.50   2
  -4   2   1 1570.37   54.54   1
   4   2  -1 1408.91   57.97   1
   4   2  -1 1487.51   55.82   3
   2  -2  -1 160.738  14.123   4
   2  -2  -1 161.407  11.169   3
   2   2  -1 154.975  11.187   3
   2   2  -1 189.649  14.864   1
   2   2  -1 151.680  12.615   2
   2   2  -1 160.343  13.165   4
  -2   2   1 164.329  12.041   1
  -2   2   1 144.321  13.410   2
   0  -2  -1 741.174  30.441   4
   0  -2   1 759.310  28.609   3
   0  -2   1 709.217  29.803   4
   0   2   1 668.785  32.100   2
   0   2  -1 729.741  28.230   2
   0   2  -1 705.597  31.163   1
   0   2   1 718.629  31.119   1
   2  -2   1 253.715  17.813   3
  -2  -2  -1 270.602  15.728   4
   2  -2   1 280.139  17.423   4
   2   2   1 314.792  20.839   2
  -2   2  -1 280.727  15.751   2
   2   2   1 250.668  18.452   1
  -2   2  -1 256.421  17.895   1
   2   2   1 289.965  13.918   3
  -4  -2  -1 -4.9495  4.2020   1
   4  -2   1 -4.0093  4.8954   3
   4  -2   1 -2.0042  4.0815   4
  -4  -2  -1 -4.5433  3.1579   4
  -4   2  -1 -0.7943  4.7081   2
  -4   2  -1 1.95180 5.45714   1
   4   2   1 -0.4662  3.8771   3
   4   2   1 -1.3241  5.1578   2
   6  -2   1 52.6293 13.3178   3
  -6  -2  -1 47.5064 12.6587   1
  -6  -2  -1 49.4058  7.0040   4
   6  -2   1 59.1519  9.7416   4
   6   2   1 62.1852 14.1913   2
   6   2   1 56.9384 13.5050   3
  -6   2  -1 48.4973 11.7018   1
  -6   2  -1 39.3242 11.3708   2
   8  -2   1 355.390  36.058   3
  -8  -2  -1 319.672  30.547   1
  -8   2  -1 305.890  29.433   2
  -8   2  -1 309.494  27.939   1
   8   2   1 354.680  32.440   3
   8   2   1 326.817  32.353   2
  10  -2   1  0.5156 12.2393   3
 -10  -2  -1 18.5012 13.5697   1
 -10   2  -1 -7.1210  9.1536   1
 -10   2  -1 -1.0448 10.8952   2
  10   2   1 -13.845   9.771   2
  10   2   1  8.3689 11.6999   3
 -12  -2  -1 27.7167 17.3084   2
  12  -2   1 11.0864 16.7456   3
  12   2   1 -7.6919 12.4761   3
 -12   2  -1 33.8980 16.3655   2
 -14   2  -1 13.4939 18.3084   2
  14   2   1  4.5949 18.8534   3
 -13  -3   1 134.208  31.190   2
  13  -3  -1 96.0361 29.1955   3
 -13   3   1 71.6497 23.9835   2
  13   3  -1 76.1636 26.4068   3
  11  -3  -1 80.6722 24.9936   3
  11   3  -1 72.3698 21.0003   3
  11   3  -1 47.3214 18.8546   2
 -11   3   1 85.9511 21.0638   2
  -9  -3   1 147.188  23.557   1
   9  -3  -1 112.328  23.434   3
   9   3  -1 85.2474 20.1394   3
  -9   3   1 121.954  22.343   2
   9   3  -1 76.0697 19.7590   2
   7  -3  -1 15.9372 10.1166   3
  -7  -3   1 39.2730 12.7887   1
   7  -3  -1 49.5817 12.2560   4
  -7   3   1 30.7408  9.9701   1
   7   3  -1 27.5245 11.3864   2
   7   3  -1 46.8123 10.2511   4
  -7   3   1 39.8296 13.2846   2
   7   3  -1 32.3414 11.4881   3
   5  -3  -1 78.1111 14.1668   4
   5  -3  -1 89.1068 14.9627   3
  -5   3   1 116.397  14.663   1
   5   3  -1 114.334  17.010   2
   5   3  -1 108.105  17.268   1
  -5   3   1 121.435  17.387   2
   5   3  -1 102.418  13.170   4
   5   3  -1 114.695  14.959   3
   3  -3  -1 5.86987 6.16940   4
   3  -3  -1 -2.9819  4.1859   3
  -3  -3   1 10.3391  5.7409   4
   3   3  -1 8.35439 4.92818   3
  -3   3   1 8.45118 6.46684   2
   3   3  -1 3.20454 5.02389   2
   3   3  -1 0.00607 5.23618   1
  -3   3   1 17.5847  6.4462   1
  -1  -3   1 19.3538  6.0704   3
  -1  -3   1 16.0446  6.9653   4
   1  -3  -1 16.8017  7.5997   4
   1  -3  -1 13.6390  3.5883   3
   1   3  -1 19.0800  7.1365   2
  -1   3   1 18.6599  8.0788   2
  -1   3   1 4.40446 5.62971   1
   1   3  -1 16.1824  6.9087   1
  -1  -3  -1 -5.2382  3.0542   4
   1  -3   1 4.49449 4.93750   4
   1  -3   1 -3.8987  3.6608   3
   1   3   1 6.10926 5.32705   1
   1   3   1 1.49433 5.70717   2
  -1   3  -1 -3.2208  3.9148   1
  -1   3  -1 2.11594 5.12286   2
   3  -3   1 447.582  27.459   4
  -3  -3  -1 462.388  25.069   4
   3  -3   1 473.862  27.601   3
  -3   3  -1 482.220  28.961   1
  -3   3  -1 471.808  25.652   2
   3   3   1 507.446  31.276   2
   3   3   1 432.784  29.664   1
   3   3   1 452.696  21.453   3
  -5  -3  -1 611.401  36.790   1
   5  -3   1 570.295  31.656   4
   5  -3   1 615.555  36.499   3
  -5  -3  -1 560.857  27.459   4
   5   3   1 535.508  35.555   2
  -5   3  -1 560.577  33.175   1
  -5   3  -1 544.869  31.240   2
   5   3   1 539.646  29.946   3
   7  -3   1 56.5154 17.1921   3
   7  -3   1 62.0130 12.8898   4
  -7  -3  -1 53.1918 14.7207   1
   7   3   1 22.9816 11.4669   2
  -7   3  -1 53.3541 13.8113   2
   7   3   1 61.9868 14.5490   3
  -7   3  -1 38.9797 12.5986   1
  -9  -3  -1 -0.8932  9.8856   1
   9  -3   1 -0.5043 11.1210   3
  -9   3  -1 10.1003 10.4963   2
  -9   3  -1 11.9311 11.0259   1
   9   3   1 -9.3446  8.7997   2
   9   3   1  3.1288 10.1292   3
 -11  -3  -1 23.4444 16.5086   1
  11  -3   1  6.1328 15.1773   3
  11   3   1  6.5319 13.6254   3
 -11   3  -1  0.4055 12.7926   2
  11   3   1 -6.6993 11.8003   2
 -13  -3  -1 23.4638 20.6481   2
  13  -3   1 -11.270  16.953   3
  13   3   1 20.0977 20.2932   3
 -13   3  -1 16.2945 19.6644   2
  13   3   1 -6.3951 16.4437   2
  12  -4  -1 98.9075 29.4994   3
 -12   4   1 92.2008 25.9746   2
  12   4  -1 92.2180 26.7032   2
  12   4  -1 60.0312 22.5694   3
 -10  -4   1 -2.2145 11.8331   1
  10  -4  -1  5.9283 14.5427   3
  10   4  -1  5.7482 12.9801   2
  10   4  -1 17.4545 15.2771   3
 -10   4   1  9.7697 11.6343   2
   8  -4  -1 247.918  30.561   3
  -8  -4   1 249.109  30.426   1
   8  -4  -1 244.574  26.545   4
  -8   4   1 238.382  29.346   2
   8   4  -1 244.206  26.783   3
   8   4  -1 286.597  31.982   2
   6  -4  -1 50.7071 13.8926   4
   6  -4  -1 58.0494 14.0757   3
  -6  -4   1 90.3001 14.9865   4
   6   4  -1 84.8175 18.0317   1
   6   4  -1 81.4028 14.6266   3
   6   4  -1 71.2644 16.4664   2
  -6   4   1 70.6152 14.0727   1
  -6   4   1 69.9281 16.1040   2
   4  -4  -1 44.3164 12.3888   4
   4  -4  -1 52.4480 10.9916   3
  -4  -4   1 41.7386 11.2031   4
   4   4  -1 41.9261  9.6178   3
   4   4  -1 22.2843  9.6514   2
  -4   4   1 77.4740 13.7805   1
  -4   4   1 46.7106 13.1439   2
   4   4  -1 43.8138 12.6559   1
  -2  -4   1 256.898  22.736   4
   2  -4  -1 222.966  14.114   3
   2  -4  -1 217.317  22.617   4
  -2  -4   1 204.673  15.014   3
  -2   4   1 215.281  21.600   2
   2   4  -1 188.207  19.650   2
  -2   4   1 184.354  19.355   1
   2   4  -1 176.870  20.775   1
   0  -4   1 13.6266  6.1293   3
   0  -4   1 5.74791 6.46321   4
   0  -4  -1 4.07760 6.22944   4
   0   4  -1 11.9232  7.0957   1
   0   4  -1 9.08206 7.31490   2
   0   4   1 6.97272 8.48599   2
   0   4   1 10.2064  7.1074   1
  -2  -4  -1 556.508  20.589   3
   2  -4   1 595.118  29.998   3
   2  -4   1 587.859  34.855   4
  -2  -4  -1 608.481  32.954   4
   2   4   1 516.137  34.230   1
  -2   4  -1 543.010  34.072   1
  -2   4  -1 567.150  30.965   2
   2   4   1 539.605  35.389   2
   4  -4   1 5.11767 7.24545   4
   4  -4   1 -0.0905  6.9802   3
  -4  -4  -1 1.59313 6.09506   4
   4   4   1 4.88223 7.90011   1
  -4   4  -1 -1.3359  5.3253   2
   4   4   1 -5.5146  6.3634   2
  -4   4  -1 3.09795 6.84340   1
   4   4   1 4.84840 4.93829   3
   6  -4   1 589.194  36.131   4
   6  -4   1 466.309  34.802   3
  -6  -4  -1 478.197  36.856   1
  -6  -4  -1 490.568  28.791   4
  -6   4  -1 461.867  33.550   1
   6   4   1 424.363  37.451   2
   6   4   1 477.810  29.548   3
  -6   4  -1 470.577  32.583   2
   8  -4   1 13.3580 13.6877   3
  -8  -4  -1 33.2357 15.1506   1
   8   4   1 20.1504 11.4151   3
  -8   4  -1 28.5284 12.9904   1
   8   4   1 -2.0627  9.5956   2
  -8   4  -1 19.5274 11.9983   2
 -10  -4  -1 34.4349 18.2374   1
  10  -4   1 45.3946 19.7199   3
 -10   4  -1 35.9366 16.6126   2
  10   4   1 21.6182 15.8044   2
 -12  -4  -1  0.0141 16.5616   1
  12  -4   1 -1.1764 17.3251   3
  12   4   1  2.3713 15.9118   2
 -12   4  -1  7.0408 16.3032   2
  13  -5  -1 19.3701 23.9615   3
 -13   5   1 37.7898 22.7777   2
  11  -5  -1 43.5410 20.2204   3
 -11  -5   1  6.7033 15.0536   1
  11   5  -1 46.6671 21.1919   2
 -11   5   1 42.4830 19.8645   2
   9  -5  -1 226.005  32.408   3
  -9  -5   1 223.319  33.005   1
   9   5  -1 215.472  32.816   2
  -9   5   1 209.907  30.980   2
   7  -5  -1 27.8495 12.8810   4
   7  -5  -1 11.7710 11.4410   3
  -7  -5   1 20.9791 13.8914   1
   7   5  -1 20.1791 13.2008   2
  -7   5   1 16.0512 12.8784   2
  -7   5   1 22.4160 11.5281   1
   5  -5  -1 707.541  44.686   4
   5  -5  -1 670.244  37.522   3
  -5  -5   1 664.223  39.149   4
  -5   5   1 676.040  41.031   1
   5   5  -1 690.168  43.122   2
  -5   5   1 642.345  41.230   2
   5   5  -1 673.429  45.977   1
  -3  -5   1 76.3913 15.7518   4
   3  -5  -1 97.3146 18.9971   4
   3   5  -1 76.5927 17.5401   1
  -3   5   1 60.9879 14.3867   1
   3   5  -1 62.7708 14.8144   2
  -3   5   1 64.6006 15.2141   2
   1  -5  -1 366.609  31.597   4
  -1  -5   1 287.195  27.562   4
   1   5  -1 389.912  29.002   2
   1   5  -1 406.037  31.120   1
  -1   5   1 373.044  29.332   1
  -1   5   1 360.928  31.710   2
  -1  -5  -1 -6.2517  5.5049   4
   1  -5   1 -2.4717  5.2848   3
   1  -5   1 3.47520 7.25610   4
   1   5   1 -5.9800  7.2448   2
  -1   5  -1 -5.1154  5.2950   1
  -1   5  -1 1.56149 6.92995   2
   1   5   1 14.5248  9.2996   1
  -3  -5  -1 36.9415 11.2964   4
   3  -5   1 39.8213 13.7773   4
   3  -5   1 32.4134 10.0593   3
  -3   5  -1 26.8657 10.7287   2
  -3   5  -1 10.7383  8.9970   1
   3   5   1 20.5495 11.5785   2
   3   5   1 16.6793 10.5924   1
  -5  -5  -1 15.4425 11.4048   1
   5  -5   1 21.8738 12.4224   4
   5  -5   1 17.2847 11.0614   3
  -5  -5  -1 25.6050 10.2146   4
  -5   5  -1 13.9580 10.6176   1
   5   5   1 20.7955 12.6816   2
   5   5   1 8.39120 9.87625   1
  -5   5  -1 30.9280 11.6596   2
   7  -5   1  4.5834 10.1103   4
  -7  -5  -1 16.0647 12.1501   1
   7  -5   1 -4.4823  9.1636   3
   7   5   1 -6.6917  9.4525   2
  -7   5  -1  5.0333 10.5463   2
  -7   5  -1  5.2357 10.0373   1
  -9  -5  -1 169.762  31.415   1
   9  -5   1 232.324  34.458   3
  -9   5  -1 185.447  28.431   2
   9   5   1 259.607  37.827   2
  11  -5   1 25.9382 21.4553   3
 -11  -5  -1 52.1949 24.2979   1
 -11   5  -1 84.8464 24.4150   2
  11   5   1 82.6556 26.9679   2
 -12   6   1 99.5783 27.8913   2
 -10  -6   1 47.2820 21.8605   1
 -10   6   1 55.9127 21.2807   2
  10   6  -1 81.5394 26.2869   2
   8  -6  -1 134.767  27.469   4
  -8  -6   1 144.044  29.163   1
   8   6  -1 118.768  28.094   2
  -8   6   1 123.173  25.693   2
  -6  -6   1 70.6550 18.3404   4
   6  -6  -1 78.6216 20.8153   4
  -6   6   1 126.048  22.719   1
   6   6  -1 78.0206 21.8895   1
  -6   6   1 128.859  24.454   2
   6   6  -1 111.981  23.747   2
  -4  -6   1 7.80321 9.60805   4
   4  -6  -1 22.3957 13.0294   4
  -4   6   1 21.8965 11.6624   1
   4   6  -1 14.8007 11.2261   1
  -4   6   1 41.1916 15.2945   2
   4   6  -1 31.8247 13.5645   2
   2  -6  -1 235.668  29.679   4
  -2  -6   1 197.265  26.606   4
   2   6  -1 207.953  25.856   2
   2   6  -1 196.511  27.866   1
  -2   6   1 188.444  25.087   1
  -2   6   1 257.369  30.238   2
   0  -6  -1 240.101  28.710   4
   0  -6   1 251.301  29.626   4
   0   6   1 189.470  27.329   2
   0   6  -1 235.143  26.268   2
   0   6   1 192.078  26.581   1
   0   6  -1 241.374  29.567   1
   2  -6   1 218.721  28.470   4
  -2  -6  -1 225.348  27.493   4
  -2   6  -1 208.807  25.614   2
   2   6   1 206.639  28.489   2
   2   6   1 174.964  27.377   1
  -2   6  -1 220.830  28.375   1
   4  -6   1 159.541  25.823   4
  -4  -6  -1 115.395  20.709   4
   4   6   1 99.1763 22.0776   2
  -4   6  -1 102.912  21.429   1
   4   6   1 111.856  23.776   1
  -4   6  -1 144.756  22.718   2
   6  -6   1 69.7581 19.4754   4
  -6  -6  -1 75.8397 21.3644   1
  -6   6  -1 97.1399 20.5648   2
   6   6   1 56.3128 20.4847   2
  -6   6  -1 76.5304 19.7845   1
  -8  -6  -1  8.1214 15.8013   1
   8   6   1 30.1016 19.1518   2
  -8   6  -1 17.1077 14.4337   1
 -10  -6  -1 40.3210 20.8964   1
  10   6   1 70.2588 25.8737   2
 -11  -7   1 638.783  62.212   1
  11   7  -1 528.502  58.086   2
  -9  -7   1 11.1548 16.3995   1
  -9   7   1 12.7717 16.5747   2
   9   7  -1 24.5327 19.7459   2
   7  -7  -1 74.3148 21.5224   4
   7   7  -1 40.1112 19.0744   2
   7   7  -1 55.1412 20.0570   1
  -7   7   1 42.4944 18.2435   2
   5  -7  -1  0.5943 11.3262   4
  -5  -7   1  5.0878 11.6932   4
   5   7  -1 11.9799 13.8693   2
  -5   7   1  9.8829 12.5419   1
   5   7  -1 18.5966 14.2187   1
  -5   7   1 15.2206 14.6768   2
   3  -7  -1 37.0490 16.7708   4
  -3  -7   1 75.4581 19.8530   4
  -3   7   1 74.5023 19.0074   1
   3   7  -1 65.7100 18.1743   2
  -3   7   1 127.574  25.610   2
   3   7  -1 77.4335 20.6352   1
  -1  -7   1  8.3822 11.8478   4
   1  -7  -1 14.0172 12.0790   4
   1   7  -1  7.1916 11.5257   1
  -1   7   1  3.6840 10.0731   1
  -1   7   1  6.9719 12.6176   2
   1   7  -1 17.0970 12.3398   2
   1  -7   1 783.514  51.880   4
  -1  -7  -1 677.045  47.857   4
   1   7   1 835.936  54.042   2
  -1   7  -1 735.274  52.536   1
   1   7   1 678.530  50.433   1
  -3  -7  -1 479.502  40.844   4
   3  -7   1 342.275  39.465   4
   3   7   1 429.242  43.332   1
  -3   7  -1 517.333  44.997   1
   3   7   1 467.302  43.710   2
  -5  -7  -1 226.587  29.655   4
   5  -7   1 181.538  31.116   4
   5   7   1 237.895  35.037   2
   5   7   1 215.925  34.754   1
  -5   7  -1 204.075  31.780   1
   7  -7   1 112.193  26.576   4
  -7  -7  -1 106.677  27.530   1
   7   7   1 150.068  32.759   2
  -7   7  -1 113.250  26.776   1
  -9  -7  -1 -2.4641 15.1506   1
   9   7   1 -6.2998 16.2552   2
  -8  -8   1 76.8048 26.1254   1
   8  -8  -1 71.2564 25.2096   4
  -6  -8   1 46.6750 19.9257   4
   6  -8  -1 41.8142 21.9960   4
   6   8  -1 48.7345 21.7686   1
   4  -8  -1 208.239  34.736   4
  -4  -8   1 144.080  29.302   4
  -4   8   1 145.604  29.438   2
   4   8  -1 179.330  33.622   1
  -4   8   1 186.690  31.279   1
  -2  -8   1 105.158  24.601   4
   2  -8  -1 85.0756 23.8437   4
  -2   8   1 68.6154 22.3649   1
  -2   8   1 43.6663 19.7181   2
   2   8  -1 97.0566 25.7065   1
   0  -8   1 402.401  43.518   4
   0  -8  -1 384.006  42.760   4
   0   8   1 473.334  47.235   1
   0   8   1 411.008  42.942   2
   0   8  -1 378.361  43.105   1
   2  -8   1 19.3189 15.3120   4
  -2  -8  -1 28.3441 15.9548   4
   2   8   1 20.5489 15.5481   1
  -2   8  -1  3.6417 12.7321   1
   2   8   1 25.0972 16.5663   2
  -4  -8  -1 303.373  37.061   4
   4  -8   1 314.694  41.428   4
   4   8   1 293.573  41.287   1
   4   8   1 325.905  41.645   2
  -4   8  -1 294.806  39.184   1
   6  -8   1 21.0600 19.9211   4
  -6  -8  -1 16.2826 17.1979   1
   6   8   1 10.7542 18.2647   2
   6   8   1  4.3764 14.6227   1
  -6   8  -1  7.9079 15.9584   1
  -8  -8  -1 204.827  39.582   1
   8   8   1 174.399  38.053   2
   7  -9  -1 159.654  36.950   4
   5  -9  -1 304.202  44.831   4
  -5  -9   1 234.430  36.820   4
   5   9  -1 292.360  44.706   1
   3  -9  -1 333.291  44.298   4
  -3  -9   1 479.328  49.836   4
  -3   9   1 438.213  48.599   1
   3   9  -1 395.369  49.407   1
   1  -9  -1 112.025  26.997   4
  -1  -9   1 125.058  30.224   4
   1   9  -1 76.1356 25.2525   1
  -1   9   1 146.046  31.834   1
  -1  -9  -1 35.4818 18.2630   4
   1  -9   1 60.6287 23.3865   4
   1   9   1 -2.2178 15.6480   1
  -1   9  -1 66.2759 23.8631   1
  -3  -9  -1 17.9654 16.6938   4
   3  -9   1 10.7394 16.0468   4
   3   9   1 10.0104 17.6785   1
  -3   9  -1 10.3656 16.9946   1
   5  -9   1 -17.942  13.702   4
   5   9   1  7.5897 19.6255   1
   5   9   1 18.0817 20.2361   2
  -5   9  -1  0.8005 18.6235   1
   7  -9   1 151.791  35.539   4
   7   9   1 186.587  38.361   2
  -2  10   1 258.381  42.780   1
   0 -10  -1 67.4146 26.4601   4
   0  10  -1 79.3992 29.2058   1
   0  10   1 73.1310 26.7063   1
  -2 -10  -1 168.906  34.545   4
  -2  10  -1 205.672  41.565   1
  -4 -10  -1 30.6213 22.3218   4
 -14   0   2 620.835  59.752   2
  14   0  -2 738.085  66.215   3
 -12   0   2 381.995  40.893   2
  12   0  -2 371.331  44.365   3
  10   0  -2 3136.13  126.96   3
 -10   0   2 3259.66  123.71   2
  -8   0   2 3240.03  110.57   1
   8   0  -2 3430.93  104.50   4
   8   0  -2 3244.84  121.68   3
  -8   0   2 3444.00  120.03   2
  -6   0   2 5324.15  159.97   1
   6   0  -2 5111.28  166.32   3
   6   0  -2 5371.20  153.67   4
  -6   0   2 5375.99  164.61   2
  -4   0   2 2109.75   70.80   2
   4   0  -2 2206.61   67.36   4
   4   0  -2 2030.66   72.71   3
  -4   0   2 2115.60   65.50   1
  -2   0   2 1793.92   55.85   2
   2   0  -2 1822.02   57.98   3
   2   0  -2 1727.56   55.25   4
   0   0  -2 4489.22  123.24   4
   0   0   2 4305.81  125.46   2
   0   0  -2 4644.38  130.41   1
   0   0   2 4380.85  128.79   3
  -2   0  -2 529.199  25.097   1
  -2   0  -2 541.493  17.408   4
   2   0   2 552.650  23.111   2
   2   0   2 455.912  24.715   3
   4   0   2 4841.48  149.98   3
   4   0   2 4843.73  144.85   2
  -4   0  -2 4648.57  150.75   1
   6   0   2 3526.02  124.57   3
  -6   0  -2 3589.88  124.17   1
   6   0   2 3626.83  120.03   2
   8   0   2 3824.77  141.58   3
  -8   0  -2 3961.04  139.00   1
   8   0   2 3802.28  135.92   2
 -10   0  -2 853.128  51.973   1
  10   0   2 708.903  53.768   3
 -10   0  -2 761.767  51.394   2
 -12   0  -2 1118.67   69.41   2
  12   0   2 1040.61   72.77   3
 -13  -1   2 877.907  62.630   2
  13  -1  -2 742.491  64.814   3
  13   1  -2 892.851  64.587   3
 -13   1   2 750.215  57.927   2
 -11  -1   2 1388.56   75.86   2
  11  -1  -2 1608.86   83.58   3
 -11   1   2 1498.90   77.49   2
  11   1  -2 1546.26   81.47   3
   9  -1  -2 1151.71   63.26   3
  -9  -1   2 1202.14   54.35   1
  -9  -1   2 1211.93   61.27   2
   9   1  -2 1299.55   65.45   3
  -9   1   2 1079.70   58.98   2
  -7  -1   2 3634.79  121.18   2
  -7  -1   2 3424.35  115.04   1
   7  -1  -2 3517.46  123.96   3
   7  -1  -2 3530.95  109.35   4
   7   1  -2 3521.31  107.04   4
  -7   1   2 3394.18  110.16   1
   7   1  -2 3389.19  121.63   3
  -7   1   2 3496.86  120.17   2
  -5  -1   2 2987.93   98.75   2
   5  -1  -2 2839.30  100.07   3
   5  -1  -2 2946.00   93.39   4
  -5  -1   2 3052.47   96.37   1
   5   1  -2 3042.54   91.62   4
  -5   1   2 3094.93   91.74   1
  -5   1   2 2939.66   99.01   2
   5   1  -2 2927.50   98.55   2
   5   1  -2 2997.89  100.55   3
   3  -1  -2 4066.93  117.51   4
   3  -1  -2 3930.01  120.28   3
   3   1  -2 3979.37  115.99   4
  -3   1   2 3814.73  120.09   2
   3   1  -2 4076.66  117.83   2
  -3   1   2 4071.14  115.78   1
   3   1  -2 4068.01  121.45   3
   3   1  -2 3965.90  120.82   1
  -1  -1   2 3181.75   93.37   3
   1  -1  -2 3168.87   90.69   4
   1  -1  -2 2951.18   88.84   3
   1   1  -2 3087.18   86.42   2
  -1   1   2 3046.24   91.21   1
  -1  -1  -2 5295.30  155.07   1
  -1  -1  -2 5155.86  142.90   4
  -1   1  -2 5407.03  155.33   1
  -1   1  -2 5264.76  144.78   4
   1   1   2 5209.90  147.37   3
   1   1   2 5158.75  151.87   2
  -1   1  -2 4876.21  142.78   2
  -3  -1  -2 2803.79   80.34   4
   3  -1   2 2934.01   97.17   3
  -3  -1  -2 2743.26   96.59   1
   3  -1   2 3014.69   85.32   4
  -3   1  -2 3064.27   96.89   1
   3   1   2 2921.29   93.42   3
   3   1   2 2821.33   94.32   2
  -3   1  -2 2956.65   89.67   2
   5  -1   2 4351.24  125.46   4
  -5  -1  -2 4664.89  148.47   1
  -5   1  -2 4480.17  139.61   2
  -5   1  -2 4553.89  146.21   1
   5   1   2 4447.68  143.45   2
   5   1   2 4423.35  143.00   3
  -7  -1  -2 1783.44   76.92   1
   7  -1   2 1850.60   81.42   3
  -7   1  -2 1921.31   76.03   2
  -7   1  -2 1916.10   77.78   1
   7   1   2 1899.86   79.84   3
   7   1   2 1868.02   77.63   2
  -9  -1  -2 960.946  55.876   1
   9  -1   2 1030.43   62.33   3
   9   1   2 1066.54   61.51   3
  -9   1  -2 1161.27   59.52   2
   9   1   2 1083.60   59.45   2
  -9   1  -2 1030.06   56.39   1
 -11  -1  -2 1514.70   79.22   1
 -11  -1  -2 1549.49   82.60   2
  11  -1   2 1494.62   86.20   3
 -11   1  -2 1685.73   82.24   2
 -11   1  -2 1495.70   76.95   1
  11   1   2 1523.66   84.34   3
  13  -1   2 585.014  61.349   3
 -13  -1  -2 561.066  55.530   2
  13   1   2 645.987  62.309   3
 -13   1  -2 559.420  53.326   2
  14  -2  -2 746.069  69.905   3
 -14  -2   2 769.352  66.028   2
  14   2  -2 809.437  69.100   3
 -14   2   2 770.728  65.004   2
 -12  -2   2 1223.85   72.61   2
  12  -2  -2 1216.51   76.22   3
 -12   2   2 1221.94   72.11   2
  12   2  -2 1175.87   73.20   3
 -10  -2   2 792.610  51.888   2
  10  -2  -2 816.405  55.059   3
 -10   2   2 827.085  52.116   2
  10   2  -2 757.091  51.635   3
   8  -2  -2 1369.77   69.65   3
   8  -2  -2 1465.42   59.88   4
  -8  -2   2 1538.32   64.95   1
   8   2  -2 1514.32   69.27   3
   8   2  -2 1517.85   56.82   4
  -8   2   2 1557.11   69.54   2
   8   2  -2 1571.87   68.97   2
   6  -2  -2 1029.87   44.56   4
  -6  -2   2 1054.93   47.02   1
   6  -2  -2 1026.33   49.77   3
   6   2  -2 1018.26   47.72   2
   6   2  -2 1009.53   41.71   4
  -6   2   2 1097.92   49.76   2
  -6   2   2 1034.51   40.97   1
   6   2  -2 973.313  48.047   3
   4  -2  -2 2709.62   91.91   4
   4  -2  -2 2845.19   94.40   3
   4   2  -2 2869.11   90.63   4
   4   2  -2 2856.82   93.06   2
  -4   2   2 2838.08   89.76   1
  -4   2   2 2984.35   97.38   2
   4   2  -2 2940.53   95.10   3
   4   2  -2 2979.28   97.28   1
   2  -2  -2 6638.21  183.41   3
  -2  -2   2 6091.37  186.90   3
   2   2  -2 6603.79  183.38   2
   2   2  -2 6494.80  185.36   4
  -2   2   2 6570.90  190.20   2
  -2   2   2 6513.98  190.63   1
   2   2  -2 6629.87  195.57   1
   0  -2   2 6142.62  177.07   3
   0  -2  -2 6216.07  172.96   4
   0   2   2 6037.06  167.61   3
   0   2  -2 5983.16  168.56   2
   0   2  -2 6124.54  183.42   1
   0   2  -2 6031.72  173.27   4
   0   2   2 5933.62  181.30   1
   0   2   2 6068.82  180.70   2
   2  -2   2 6920.53  211.63   3
  -2  -2  -2 7515.41  201.77   4
   2  -2   2 7013.24  204.71   4
  -2  -2  -2 7343.94  219.21   1
  -2   2  -2 7402.13  202.50   2
  -2   2  -2 7163.81  217.89   1
   2   2   2 7040.55  214.27   2
   2   2   2 7540.39  203.14   3
  -4  -2  -2 2118.86   78.58   1
   4  -2   2 2110.00   68.85   4
  -4  -2  -2 2024.29   62.68   4
   4  -2   2 1950.43   77.23   3
  -4   2  -2 2068.17   69.97   2
   4   2   2 2094.22   71.79   3
   4   2   2 1941.04   76.78   2
  -4   2  -2 2004.04   75.51   1
   6  -2   2 1416.93   66.95   3
  -6  -2  -2 1395.67   65.65   1
   6  -2   2 1459.46   52.81   4
   6   2   2 1535.50   67.57   2
   6   2   2 1528.81   63.75   3
  -6   2  -2 1498.66   64.41   1
  -6   2  -2 1535.16   60.87   2
  -8  -2  -2 916.978  52.935   1
   8  -2   2 848.512  54.446   3
  -8   2  -2 930.244  50.767   1
  -8   2  -2 893.272  48.529   2
   8   2   2 922.414  52.087   3
   8   2   2 866.844  52.726   2
  10  -2   2 1072.39   68.13   3
 -10  -2  -2 1095.07   63.31   1
  10   2   2 1076.26   64.66   2
  10   2   2 1002.27   62.28   3
 -10   2  -2 976.817  58.896   2
 -10   2  -2 1083.53   60.70   1
  12  -2   2 555.566  58.870   3
 -12  -2  -2 648.196  51.495   1
 -12  -2  -2 654.376  58.449   2
  12   2   2 650.352  58.681   2
 -12   2  -2 775.624  55.631   2
  12   2   2 790.177  63.091   3
 -13  -3   2 867.542  66.036   2
  13  -3  -2 1015.55   73.75   3
  13   3  -2 1045.36   70.36   3
 -13   3   2 980.530  67.808   2
 -11  -3   2 979.299  63.063   2
  11  -3  -2 1068.64   67.51   3
  11   3  -2 982.091  62.687   3
 -11   3   2 1036.66   63.62   2
   9  -3  -2 1971.04   77.71   4
  -9  -3   2 2030.54   85.20   1
   9  -3  -2 1909.38   89.49   3
  -9   3   2 1922.43   85.68   2
   9   3  -2 1932.85   85.91   3
   9   3  -2 1894.61   85.90   2
  -7  -3   2 506.983  34.636   1
   7  -3  -2 517.263  35.777   3
   7  -3  -2 531.967  33.263   4
  -7   3   2 583.532  30.742   1
   7   3  -2 478.827  28.748   4
  -7   3   2 484.886  35.080   2
   7   3  -2 607.206  37.141   2
   7   3  -2 488.585  33.732   3
   5  -3  -2 4162.24  133.55   3
   5  -3  -2 4018.31  132.63   4
   5   3  -2 4017.52  128.30   4
  -5   3   2 4221.95  137.14   2
   5   3  -2 4415.82  133.84   3
   5   3  -2 4052.91  139.75   1
  -5   3   2 4144.91  131.26   1
   5   3  -2 4073.81  133.39   2
   3  -3  -2 2765.25   86.28   3
   3  -3  -2 2669.54   92.40   4
  -3   3   2 2806.89   90.63   1
  -3   3   2 2752.67   94.30   2
   3   3  -2 2763.80   90.83   4
   3   3  -2 2474.75   95.10   1
   3   3  -2 2718.55   88.86   3
   3   3  -2 2732.05   88.79   2
   1  -3  -2 2944.88   81.61   3
  -1  -3   2 2789.75   92.09   3
  -1  -3   2 2781.72   93.36   4
   1  -3  -2 2811.92   94.66   4
   1   3  -2 2939.61   99.79   1
  -1   3   2 2905.98   98.92   2
  -1   3   2 2879.13   96.65   1
   1   3  -2 2855.00   88.97   2
   1  -3   2 1948.53   69.58   4
  -1  -3  -2 1964.28   68.44   4
   1  -3   2 1964.43   68.75   3
   1   3   2 1927.24   74.88   2
  -1   3  -2 1807.52   62.70   2
   1   3   2 1966.62   73.31   1
  -1   3  -2 1996.10   73.72   1
   3  -3   2 7190.23  213.09   4
   3  -3   2 7559.17  219.97   3
  -3  -3  -2 7159.45  207.85   4
  -3  -3  -2 7344.06  228.46   1
  -3   3  -2 6942.00  224.96   1
   3   3   2 7031.19  222.42   2
  -3   3  -2 7520.12  210.01   2
   3   3   2 7517.81  206.58   3
   5  -3   2 1025.19   45.63   4
  -5  -3  -2 975.788  51.678   1
   5  -3   2 1001.00   51.74   3
  -5  -3  -2 975.139  38.961   4
   5   3   2 1002.98   52.81   2
  -5   3  -2 880.336  47.075   1
  -5   3  -2 1014.57   44.40   2
   5   3   2 1016.67   44.24   3
  -7  -3  -2 1348.54   68.08   1
   7  -3   2 1372.34   68.92   3
   7   3   2 1319.76   60.81   3
  -7   3  -2 1369.46   60.99   2
  -7   3  -2 1336.12   63.86   1
   7   3   2 1285.97   67.47   2
  -9  -3  -2 2053.95   95.62   1
   9  -3   2 2100.91   99.51   3
   9   3   2 2095.83   97.41   2
  -9   3  -2 2037.59   88.71   2
   9   3   2 2096.51   91.69   3
  -9   3  -2 2159.95   93.07   1
 -11  -3  -2 624.497  53.056   1
  11  -3   2 614.420  57.567   3
 -11   3  -2 598.685  49.854   2
  11   3   2 598.464  54.750   2
  11   3   2 652.904  52.803   3
  13  -3   2 796.045  72.993   3
  13   3   2 813.370  62.708   3
 -13   3  -2 912.166  64.925   2
  13   3   2 756.372  68.228   2
  12  -4  -2 1242.75   77.22   3
 -12  -4   2 1043.98   71.30   2
  12   4  -2 1189.93   75.99   2
 -12   4   2 990.751  68.176   2
  12   4  -2 1104.64   68.32   3
 -10  -4   2 1059.80   61.85   1
  10  -4  -2 990.369  63.610   3
  10   4  -2 1064.51   60.49   3
 -10   4   2 940.130  60.470   2
  10   4  -2 1007.71   62.24   2
  -8  -4   2 2701.75  113.38   1
   8  -4  -2 3019.09  109.75   4
   8  -4  -2 2928.08  113.95   3
   8   4  -2 2927.84  113.75   2
  -8   4   2 2943.22  114.43   2
   8   4  -2 2899.39  109.00   3
   6  -4  -2 2385.61   91.34   3
   6  -4  -2 2273.52   92.51   4
  -6  -4   2 2463.58   88.78   4
   6   4  -2 2483.89   94.53   2
  -6   4   2 2523.88   97.16   2
  -6   4   2 2471.71   89.46   1
   6   4  -2 2383.63   98.73   1
   6   4  -2 2614.80   91.01   3
   4  -4  -2 1773.48   71.85   4
  -4  -4   2 1673.14   67.07   4
   4  -4  -2 1700.74   63.04   3
  -4   4   2 1745.23   67.26   1
  -4   4   2 1820.27   72.70   2
   4   4  -2 1750.55   68.06   2
   4   4  -2 1633.71   63.85   3
   4   4  -2 1658.47   73.68   1
  -2  -4   2 2398.87   85.12   4
   2  -4  -2 2337.56   71.59   3
  -2  -4   2 2349.74   79.85   3
   2  -4  -2 2362.24   87.41   4
  -2   4   2 2457.82   90.14   2
  -2   4   2 2218.03   84.81   1
   2   4  -2 2203.40   89.08   1
   2   4  -2 2438.57   81.56   2
   0  -4  -2 1995.70   74.93   4
   0  -4   2 1974.42   69.36   3
   0  -4   2 1896.77   73.95   4
   0   4   2 1971.51   79.42   2
   0   4  -2 1818.41   76.57   1
   0   4   2 1831.66   75.55   1
   0   4  -2 1976.30   68.52   2
   2  -4   2 1574.90   62.35   3
  -2  -4  -2 1585.15   62.88   4
   2  -4   2 1579.42   65.29   4
  -2   4  -2 1689.86   69.40   1
   2   4   2 1538.98   69.92   2
  -2   4  -2 1538.52   58.54   2
   2   4   2 1634.88   69.49   1
   2   4   2 1555.33   46.67   3
   4  -4   2 1274.96   59.06   3
  -4  -4  -2 1343.21   64.71   1
  -4  -4  -2 1198.82   52.35   4
   4  -4   2 1355.44   59.34   4
   4   4   2 1389.11   48.78   3
   4   4   2 1200.48   62.85   2
  -4   4  -2 1318.38   61.75   1
  -4   4  -2 1331.06   54.03   2
  -6  -4  -2 3745.94  139.71   1
   6  -4   2 3588.68  125.35   4
   6  -4   2 3792.77  133.95   3
   6   4   2 3634.54  120.48   3
   6   4   2 3783.61  138.71   2
  -6   4  -2 3683.74  133.95   1
  -6   4  -2 3500.38  123.87   2
  -8  -4  -2 2003.35   92.86   1
   8  -4   2 1922.10   90.67   3
  -8   4  -2 1767.36   83.85   1
  -8   4  -2 1761.97   78.47   2
   8   4   2 2013.09   94.30   2
  10  -4   2 1434.10   82.40   3
 -10  -4  -2 1415.79   80.88   1
 -10   4  -2 1557.15   75.90   2
  10   4   2 1217.02   77.79   2
 -12  -4  -2 572.089  56.317   1
  12  -4   2 514.081  58.147   3
  12   4   2 578.024  59.793   2
  13  -5  -2 591.638  60.440   3
 -13   5   2 465.428  52.849   2
  11  -5  -2 1042.50   68.40   3
  11   5  -2 947.327  66.705   2
 -11   5   2 1172.41   70.87   2
   9  -5  -2 860.773  54.884   3
   9  -5  -2 716.380  49.486   4
  -9  -5   2 846.613  55.830   1
   9   5  -2 758.204  52.889   2
  -9   5   2 796.443  53.791   2
   7  -5  -2 1433.80   67.57   3
  -7  -5   2 1388.87   64.67   4
   7  -5  -2 1459.71   71.85   4
   7   5  -2 1492.30   72.30   2
   7   5  -2 1569.96   78.01   1
  -7   5   2 1465.52   72.69   2
   5  -5  -2 2017.03   75.71   3
  -5  -5   2 1994.47   80.68   4
   5  -5  -2 1997.55   85.67   4
   5   5  -2 2002.41   82.28   2
   5   5  -2 2038.10   89.35   1
  -5   5   2 1973.27   80.08   1
  -5   5   2 2027.48   85.84   2
  -3  -5   2 3183.49  104.14   3
   3  -5  -2 3073.69  115.07   4
  -3  -5   2 3248.61  112.75   4
  -3   5   2 3228.56  114.59   1
  -3   5   2 3081.71  116.53   2
   3   5  -2 3132.08  109.24   2
   3   5  -2 3060.14  119.90   1
   1  -5  -2 1571.96   69.30   4
  -1  -5   2 1505.00   67.21   4
  -1  -5   2 1631.97   60.05   3
  -1   5   2 1590.97   72.63   2
  -1   5   2 1567.90   69.25   1
   1   5  -2 1482.80   70.49   1
   1   5  -2 1520.17   62.67   2
   1  -5   2 2139.26   85.48   4
  -1  -5  -2 2121.98   84.15   4
   1  -5   2 2097.59   76.94   3
   1   5   2 2075.82   88.07   1
  -1   5  -2 2317.97   81.30   2
   1   5   2 2103.80   89.27   2
   3  -5   2 1404.79   59.47   3
   3  -5   2 1303.59   63.06   4
  -3  -5  -2 1357.32   59.62   4
  -3   5  -2 1235.31   63.58   1
  -3   5  -2 1253.74   55.33   2
   3   5   2 1317.21   67.75   2
   3   5   2 1277.51   66.47   1
  -5  -5  -2 1687.87   81.15   1
  -5  -5  -2 1569.09   65.92   4
   5  -5   2 1671.03   74.55   4
   5  -5   2 1589.09   71.66   3
  -5   5  -2 1487.61   65.94   2
  -5   5  -2 1600.01   75.41   1
   5   5   2 1631.09   80.06   2
   7  -5   2 1177.28   60.34   4
  -7  -5  -2 1138.01   67.25   1
   7  -5   2 1140.12   63.53   3
  -7   5  -2 1148.01   63.39   1
  -7   5  -2 1063.23   56.56   2
   7   5   2 1017.49   65.28   2
   9  -5   2 983.913  65.237   3
  -9  -5  -2 1072.84   69.22   1
   9   5   2 1071.51   70.97   2
  -9   5  -2 1040.22   63.07   1
  11  -5   2 893.093  69.455   3
 -11  -5  -2 1028.02   71.69   1
  11   5   2 1018.57   74.00   2
  12   6  -2 276.314  43.793   2
 -12   6   2 230.795  40.579   2
 -10  -6   2 709.956  56.460   1
 -10   6   2 725.663  55.195   2
  10   6  -2 641.799  56.153   2
   8  -6  -2 440.655  42.320   4
  -8  -6   2 450.126  44.017   1
   8   6  -2 474.025  43.627   2
  -8   6   2 423.496  42.298   2
   8   6  -2 385.665  43.200   1
  -6  -6   2 1433.77   68.27   4
   6  -6  -2 1283.60   70.90   4
   6   6  -2 1553.56   72.84   2
   6   6  -2 1299.59   74.34   1
  -6   6   2 1345.72   72.10   2
  -4  -6   2 1196.41   60.90   4
   4  -6  -2 1154.30   63.71   4
   4   6  -2 1179.02   59.32   2
  -4   6   2 1197.43   60.91   1
  -4   6   2 1174.37   64.46   2
   4   6  -2 1138.54   65.80   1
   2  -6  -2 2517.45  102.46   4
  -2  -6   2 2449.97   98.97   4
  -2   6   2 2486.38  104.12   2
   2   6  -2 2425.84  104.96   1
  -2   6   2 2360.33  100.18   1
   2   6  -2 2642.85   96.11   2
   0  -6   2 4034.09  147.19   4
   0  -6  -2 4030.49  146.90   4
   0   6   2 4420.42  154.24   2
   0   6  -2 4311.48  141.14   2
   0   6   2 4367.51  155.19   1
   0   6  -2 4128.90  154.89   1
  -2  -6  -2 542.151  38.468   4
   2  -6   2 531.366  40.656   4
   2   6   2 604.343  43.901   1
  -2   6  -2 615.832  44.770   1
   2   6   2 617.831  45.692   2
   4  -6   2 1557.74   74.95   4
  -4  -6  -2 1396.89   66.80   4
   4   6   2 1415.17   76.26   2
   4   6   2 1588.33   80.57   1
  -4   6  -2 1436.99   74.29   1
   6  -6   2 649.282  47.078   4
   6  -6   2 629.400  44.657   3
  -6  -6  -2 738.613  53.634   1
  -6   6  -2 669.960  48.861   1
   6   6   2 571.895  51.628   2
  -8  -6  -2 756.540  58.667   1
   8  -6   2 754.284  54.198   3
  -8   6  -2 698.832  51.995   1
   8   6   2 790.578  60.611   2
 -10  -6  -2 342.639  46.897   1
  10  -6   2 302.920  43.488   3
  10   6   2 282.825  46.357   2
 -11  -7   2 623.783  60.878   1
  11   7  -2 742.558  65.918   2
 -11   7   2 639.553  59.124   2
   9  -7  -2 541.146  52.164   4
  -9  -7   2 496.011  51.243   1
   9   7  -2 636.827  55.098   2
  -9   7   2 510.842  50.845   2
  -7  -7   2 1128.68   63.34   4
   7  -7  -2 991.214  66.157   4
   7   7  -2 1149.42   68.40   2
  -7   7   2 1134.26   69.21   2
   7   7  -2 1135.43   73.57   1
   5  -7  -2 778.164  55.520   4
  -5  -7   2 741.560  50.608   4
  -5   7   2 817.669  52.633   1
   5   7  -2 858.442  59.597   1
   5   7  -2 902.081  54.818   2
  -5   7   2 860.791  58.108   2
  -3  -7   2 1593.41   78.26   4
   3  -7  -2 1629.92   81.75   4
   3   7  -2 1630.47   85.36   1
  -3   7   2 1561.89   82.15   2
  -3   7   2 1600.69   79.26   1
   1  -7  -2 757.127  50.580   4
  -1  -7   2 624.107  46.590   4
  -1   7   2 699.905  50.028   1
   1   7  -2 738.428  53.012   1
  -1   7   2 765.216  52.802   2
   1  -7   2 1469.78   76.96   4
  -1  -7  -2 1525.13   75.97   4
  -1   7  -2 1576.40   81.44   1
   1   7   2 1466.32   77.94   1
   1   7   2 1516.29   80.14   2
  -3  -7  -2 1248.27   64.80   4
   3  -7   2 1184.10   68.23   4
   3   7   2 1084.65   68.48   1
   3   7   2 1137.20   69.67   2
  -3   7  -2 1228.18   70.55   1
   5  -7   2 1096.26   68.25   4
  -5  -7  -2 1145.22   72.01   1
  -5   7  -2 1195.91   70.55   1
   5   7   2 1250.15   74.15   2
  -7  -7  -2 777.567  59.570   1
   7  -7   2 719.665  54.530   4
   7   7   2 663.376  60.042   2
  -7   7  -2 653.392  52.204   1
  -9  -7  -2 505.524  57.216   1
   9   7   2 695.841  66.134   2
   8  -8  -2 1227.82   80.77   4
   8   8  -2 1412.92   87.69   1
   6  -8  -2 921.672  64.692   4
  -6  -8   2 852.988  58.733   4
  -6   8   2 821.435  62.173   2
   6   8  -2 734.927  64.032   1
   4  -8  -2 792.884  57.260   4
  -4  -8   2 714.909  53.450   4
  -4   8   2 721.632  59.099   2
   4   8  -2 620.836  57.204   1
  -4   8   2 708.146  52.511   1
   2  -8  -2 476.252  47.234   4
  -2  -8   2 471.203  46.189   4
   2   8  -2 604.261  54.030   1
  -2   8   2 465.458  48.096   2
  -2   8   2 504.807  46.790   1
   0  -8  -2 313.886  38.913   4
   0  -8   2 410.131  43.599   4
   0   8   2 389.976  42.433   1
   0   8  -2 304.624  40.156   1
   0   8   2 332.214  39.933   2
  -2  -8  -2 1217.19   69.33   4
   2  -8   2 1104.84   69.53   4
   2   8   2 1162.99   73.28   2
  -2   8  -2 1170.06   72.73   1
   2   8   2 1153.03   72.92   1
  -4  -8  -2 1047.84   62.56   4
   4  -8   2 1034.00   67.62   4
  -4   8  -2 1093.00   69.23   1
   4   8   2 959.712  67.534   2
   4   8   2 810.974  64.538   1
  -6  -8  -2 1190.99   78.26   1
   6  -8   2 1108.49   72.44   4
   6   8   2 1079.86   75.91   2
  -6   8  -2 1145.13   75.39   1
   8   8   2 855.411  74.502   2
  -5  -9   2 1069.01   69.67   4
   5  -9  -2 898.862  68.247   4
   5   9  -2 848.893  68.806   1
  -3  -9   2 339.246  44.024   4
   3  -9  -2 252.002  39.376   4
   3   9  -2 324.810  45.930   1
  -3   9   2 286.017  41.203   1
  -1  -9   2 878.402  63.591   4
   1  -9  -2 832.553  63.104   4
  -1   9   2 909.415  64.994   1
   1   9  -2 898.592  68.930   1
  -1   9   2 998.997  67.633   2
  -1  -9  -2 484.044  49.550   4
   1  -9   2 426.647  48.955   4
   1   9   2 471.534  51.496   1
  -1   9  -2 457.568  51.726   1
   1   9   2 452.473  50.207   2
   3  -9   2 1104.56   75.43   4
  -3  -9  -2 1271.42   74.20   4
   3   9   2 1178.53   80.46   1
  -3   9  -2 1301.90   82.21   1
   3   9   2 1299.35   80.72   2
  -5  -9  -2 371.841  49.635   1
   5  -9   2 509.177  55.029   4
  -5   9  -2 471.362  53.519   1
   5   9   2 491.561  54.943   2
   7  -9   2 509.679  57.342   4
  -2  10   2 792.296  67.580   1
   0  10   2 603.082  60.396   1
  -2 -10  -2 826.555  67.484   4
 -14   0   3 -11.519  14.238   2
  14   0  -3  5.1736 16.8114   3
  12   0  -3 -11.841  10.737   3
 -12   0   3 -11.173  10.714   2
 -10   0   3 2.06546 8.35691   2
  10   0  -3 -2.2579  9.2375   3
  -8   0   3 -6.4546  5.2979   2
   8   0  -3 3.89458 5.89752   4
   8   0  -3 -5.0681  6.0996   3
   6   0  -3 1.40907 4.72940   4
   6   0  -3 -0.2149  6.3399   3
  -6   0   3 1.51837 5.59216   2
  -6   0   3 0.90899 3.73946   1
  -4   0   3 -0.1542  2.3216   1
   4   0  -3 1.41355 4.35192   3
  -4   0   3 -1.2004  3.6049   2
   4   0  -3 3.94914 4.41698   4
   2   0  -3 -3.5830  3.1059   4
   2   0  -3 0.94385 2.50783   1
  -2   0   3 4.73077 3.71988   2
   2   0  -3 0.43724 4.27784   3
   0   0   3 7.64991 5.13599   3
   0   0  -3 -4.7297  2.2199   4
   0   0   3 2.45506 3.84096   2
   0   0  -3 3.60867 3.90061   1
   2   0   3 8.57463 5.66887   3
  -2   0  -3 -2.2115  3.9816   1
  -2   0  -3 -0.6045  2.5024   4
   2   0   3 -0.2351  3.5682   2
   4   0   3 -3.5360  4.1849   2
   4   0   3 2.71549 6.12874   3
  -4   0  -3 -4.6947  5.3495   1
   6   0   3 3.10028 6.39912   3
  -6   0  -3 -8.8607  5.5444   1
   6   0   3 -0.7456  6.0133   2
  -8   0  -3 -0.1912  7.9507   1
   8   0   3 0.39803 8.45282   3
   8   0   3 7.13246 8.77030   2
 -10   0  -3 10.4262 12.0305   1
  10   0   3 10.5738 13.4752   3
 -10   0  -3  7.7138 11.3204   2
 -12   0  -3 -1.8113 13.0771   2
  12   0   3  5.8683 16.3056   3
 -12   0  -3  1.9111 16.4950   1
  13  -1  -3 116.023  29.935   3
 -13  -1   3 98.5789 25.7181   2
 -13   1   3 121.684  27.882   2
  13   1  -3 84.7431 26.7334   3
 -11  -1   3 222.951  31.663   2
  11  -1  -3 347.478  41.099   3
  11   1  -3 277.951  36.348   3
 -11   1   3 234.306  32.650   2
  -9  -1   3 17.4097 11.2684   2
   9  -1  -3 19.1814  8.7216   4
   9  -1  -3  5.0753 10.9821   3
  -9   1   3 3.77216 9.53300   2
   9   1  -3 14.6826 11.7765   3
  -7  -1   3 1.47702 5.40893   1
  -7  -1   3 12.8505  8.4886   2
   7  -1  -3 1.47973 7.57553   3
   7  -1  -3 0.28717 4.70501   4
  -7   1   3 3.30940 4.43407   1
   7   1  -3 13.4251  6.9101   4
  -7   1   3 16.8503  8.8394   2
   7   1  -3 5.63661 8.16801   3
   5  -1  -3 0.97817 4.85204   4
  -5  -1   3 4.59099 5.13765   2
  -5  -1   3 -0.2051  3.9508   1
   5  -1  -3 38.5658  9.9232   3
   5   1  -3 2.50204 5.60492   3
  -5   1   3 3.03496 5.71832   2
   5   1  -3 -0.4109  3.8487   4
  -5   1   3 -0.4245  2.3695   1
   3  -1  -3 125.977  12.764   3
  -3  -1   3 108.813  10.041   2
   3  -1  -3 89.8619 11.2296   4
   3   1  -3 117.900  11.660   4
  -3   1   3 111.790  12.508   2
   3   1  -3 84.5376  8.9330   1
   3   1  -3 141.444  13.950   3
  -1  -1   3 705.085  23.219   2
  -1  -1   3 649.117  31.413   3
   1  -1  -3 692.032  28.957   4
   1  -1  -3 726.193  27.077   1
   1   1  -3 682.588  29.168   4
  -1   1   3 744.491  28.970   3
   1   1  -3 806.469  30.576   1
  -1   1   3 719.115  31.336   2
   1  -1   3 2470.59   85.17   3
  -1  -1  -3 2548.13   75.34   4
   1  -1   3 2510.98   72.71   2
  -1  -1  -3 2656.15   84.18   1
  -1   1  -3 2572.49   77.18   4
   1   1   3 2526.16   80.56   3
   1   1   3 2465.45   83.26   2
  -3  -1  -3 91.1214  6.7988   4
  -3  -1  -3 63.2134 11.6873   1
   3  -1   3 109.849  10.731   2
   3  -1   3 85.5626  8.6446   4
   3  -1   3 109.542  15.865   3
   3   1   3 83.5132 12.7379   2
  -3   1  -3 94.7735 13.1439   1
   3   1   3 109.264  13.760   3
   5  -1   3 207.416  12.369   4
   5  -1   3 148.852  21.544   3
  -5  -1  -3 224.667  22.654   1
   5  -1   3 219.259  19.407   2
  -5   1  -3 145.563  18.688   1
   5   1   3 192.236  20.748   2
   5   1   3 225.180  22.122   3
   7  -1   3 18.6363 11.5578   3
  -7  -1  -3 12.8584  9.1396   1
  -7   1  -3 -3.8056  7.0169   1
   7   1   3 12.7063  9.4365   2
   7   1   3 0.58899 8.38620   3
  -7   1  -3 2.02245 7.53231   2
   9  -1   3 -9.4311 10.3256   3
  -9  -1  -3 14.4647 12.7295   1
  -9   1  -3 18.5558 11.8080   1
   9   1   3 11.2031 11.8244   2
   9   1   3 24.7382 13.2744   3
  -9   1  -3 -0.1501  9.1460   2
 -11  -1  -3 21.9933 14.9906   1
  11  -1   3  8.5820 16.1001   3
 -11  -1  -3  3.3975 13.3768   2
  11   1   3 20.9613 17.0728   3
 -11   1  -3 15.2292 15.1078   1
 -11   1  -3 37.4650 17.7941   2
  11   1   3 45.5022 19.2733   2
  13  -1   3  8.7113 19.7815   3
 -13  -1  -3 37.6517 20.4588   2
 -13   1  -3 34.6886 19.8418   2
  13   1   3 32.5050 20.9109   3
  14  -2  -3 38.9569 23.7587   3
 -14  -2   3 11.0847 18.3479   2
  14   2  -3 37.8931 22.2248   3
 -14   2   3 53.9310 21.9138   2
  12  -2  -3 10.2184 15.3311   3
 -12  -2   3 21.2521 15.9155   2
  12   2  -3  8.3804 13.3551   3
 -12   2   3  7.4076 12.9101   2
  10  -2  -3 161.620  28.334   3
 -10  -2   3 187.309  27.698   2
  10   2  -3 207.350  29.849   3
 -10   2   3 194.800  28.801   2
  -8  -2   3 154.899  22.024   2
   8  -2  -3 133.599  21.907   3
  -8  -2   3 148.436  18.601   1
   8  -2  -3 144.183  18.581   4
   8   2  -3 158.051  17.204   4
  -8   2   3 122.129  20.460   2
   8   2  -3 128.961  21.628   3
   6  -2  -3 193.323  21.888   3
   6  -2  -3 257.298  21.828   4
   6   2  -3 212.148  22.358   3
  -6   2   3 260.334  14.884   1
   6   2  -3 249.105  20.666   1
   6   2  -3 231.515  19.497   4
  -6   2   3 241.746  23.478   2
   6   2  -3 250.739  22.126   2
   4  -2  -3 -5.2387  3.9412   3
   4  -2  -3 -6.4212  4.6026   4
   4   2  -3 -4.9536  4.3394   1
   4   2  -3 -2.9469  4.8981   3
  -4   2   3 -3.4958  3.1314   1
   4   2  -3 -2.4665  3.7515   2
  -4   2   3 -0.2939  4.8539   2
   4   2  -3 -4.5489  4.7833   4
   2  -2  -3 160.279  15.106   4
   2  -2  -3 157.507  11.763   3
  -2  -2   3 177.615  15.534   3
  -2   2   3 191.374  17.768   2
   2   2  -3 150.588   9.989   2
  -2   2   3 164.254  11.560   1
   2   2  -3 150.936  14.645   4
   2   2  -3 163.862  14.916   1
   0  -2   3 45.0973 10.0946   3
   0  -2  -3 46.3369  8.5796   4
   0  -2  -3 25.7655  7.2591   1
   0   2  -3 29.8768  8.2623   1
   0   2   3 20.2714  8.3508   2
   0   2   3 47.2912  6.6955   3
   0   2  -3 33.8648  8.0679   4
  -2  -2  -3 -3.1583  3.5191   4
   2  -2   3 -2.8819  4.4460   4
   2  -2   3 -2.1528  5.5483   3
  -2  -2  -3 -6.7874  4.1786   1
  -2   2  -3 5.91339 3.92917   2
   2   2   3 -2.0127  5.6639   2
  -2   2  -3 0.03202 4.89662   1
   2   2   3 -3.6287  3.9452   3
  -4  -2  -3 30.2624  5.7449   4
   4  -2   3 18.3147  9.9141   3
   4  -2   3 41.9923  9.0365   4
  -4  -2  -3 65.6042 13.6399   1
  -4   2  -3 30.3828  7.6970   2
   4   2   3 30.3233 10.7782   2
   4   2   3 31.9478  8.9935   3
  -4   2  -3 36.7371 10.6868   1
   6  -2   3 58.0282 15.6971   3
  -6  -2  -3 65.0157 15.1101   1
   6   2   3 30.3008 11.4982   3
   6   2   3 44.5818 13.3782   2
  -6   2  -3 40.7466 10.7878   2
  -6   2  -3 46.7571 13.6318   1
   8  -2   3 189.530  29.729   3
  -8  -2  -3 199.731  27.631   1
  -8   2  -3 169.634  22.989   2
   8   2   3 201.443  28.704   2
  -8   2  -3 185.894  25.529   1
   8   2   3 196.033  27.248   3
 -10  -2  -3 17.6344 14.9076   1
  10  -2   3  1.6142 15.3432   3
 -10   2  -3  2.9309 11.4851   2
 -10   2  -3 20.2244 15.1562   1
  10   2   3  6.7434 12.1593   2
  10   2   3 18.1282 14.5333   3
 -12  -2  -3 73.2862 24.6658   1
  12  -2   3 91.3918 28.6393   3
 -12   2  -3 96.8205 25.8661   2
  12   2   3 78.5504 24.9803   2
  12   2   3 82.5805 27.2942   3
  13  -3  -3 20.3924 19.5035   3
 -13  -3   3 -15.834  13.829   2
 -13   3   3  5.7178 15.6648   2
  13   3  -3 -9.6717 13.8087   3
  11  -3  -3 15.5012 16.4101   3
 -11  -3   3 -3.2133 11.8983   2
  11   3  -3 -2.0085 11.6979   3
 -11   3   3 11.2233 13.2288   2
   9  -3  -3  9.6346 11.2246   3
  -9  -3   3 4.71209 8.96126   1
   9  -3  -3 11.6034 10.1234   4
  -9   3   3 -3.8091  9.0185   2
   9   3  -3 14.7919 11.0595   2
   9   3  -3 1.40266 9.55903   3
   7  -3  -3 57.9668 14.1578   4
  -7  -3   3 34.8740 11.8841   1
   7  -3  -3 91.8211 17.4069   3
  -7   3   3 80.4074 16.9861   2
   7   3  -3 94.0372 17.7842   3
   7   3  -3 91.4124 14.9457   4
   7   3  -3 63.1963 14.5157   1
   7   3  -3 64.7813 14.4941   2
   5  -3  -3 526.268  30.411   3
   5  -3  -3 460.100  30.437   4
   5   3  -3 516.986  29.452   2
   5   3  -3 537.407  32.400   1
   5   3  -3 504.866  30.633   3
   5   3  -3 436.011  28.422   4
  -5   3   3 459.589  32.010   2
  -5   3   3 494.745  25.039   1
   3  -3  -3 488.529  29.375   4
   3  -3  -3 470.731  23.789   3
  -3  -3   3 406.792  25.985   3
   3   3  -3 453.864  28.774   1
   3   3  -3 541.545  29.187   4
  -3   3   3 405.234  28.335   2
   3   3  -3 423.222  23.046   2
  -3   3   3 473.790  24.570   1
   1  -3  -3 198.639  18.764   4
  -1  -3   3 194.585  18.602   3
  -1   3   3 182.575  16.773   1
   1   3  -3 180.374  18.470   1
   1   3  -3 177.918  11.686   2
   1   3  -3 175.005  18.203   4
  -1   3   3 198.362  11.124   3
  -1   3   3 163.336  19.803   2
   1  -3   3 40.7052 10.2357   4
   1  -3   3 50.8449 12.0189   3
  -1  -3  -3 51.5940 11.8731   1
  -1  -3  -3 65.8407 11.4387   4
   1   3   3 51.4315  5.9243   3
  -1   3  -3 51.9810 11.8705   1
   1   3   3 66.1741 12.8662   1
  -1   3  -3 78.5352  8.4126   2
   1   3   3 62.9125 14.7478   2
  -3  -3  -3 136.943  13.848   4
   3  -3   3 118.306  18.291   3
  -3  -3  -3 116.582  17.652   1
   3  -3   3 146.022  16.760   4
  -3   3  -3 131.388  18.396   1
  -3   3  -3 135.643  12.677   2
   3   3   3 151.221  12.960   3
   3   3   3 123.815  19.972   2
  -5  -3  -3 49.7669 14.0409   1
   5  -3   3 58.0043 12.5134   4
   5  -3   3 72.9051 17.0187   3
   5   3   3 88.1167 18.7271   2
  -5   3  -3 55.7609 11.5056   2
  -5   3  -3 60.7885 14.1791   1
   5   3   3 55.6122 12.1220   3
  -7  -3  -3 12.2134 11.1586   1
   7  -3   3 38.1909 15.7168   3
   7   3   3 37.7086 12.9643   3
  -7   3  -3 54.4328 15.8890   1
  -7   3  -3 42.4736 13.1515   2
   7   3   3  9.8035 10.6103   2
  -9  -3  -3 76.0860 21.9066   1
   9  -3   3 70.5907 24.2404   3
   9   3   3 104.524  24.956   2
   9   3   3 76.9910 19.6503   3
  -9   3  -3 140.561  25.232   1
  -9   3  -3 129.918  22.877   2
  11  -3   3 189.879  37.155   3
 -11  -3  -3 171.170  32.700   1
  11   3   3 182.100  32.681   3
  11   3   3 174.851  33.999   2
 -11   3  -3 121.460  26.468   2
 -13  -3  -3 38.6335 22.8457   1
  14   4  -3 -0.7157 20.4796   3
  12  -4  -3 38.8087 21.6412   3
 -12  -4   3 45.4831 20.7021   2
 -12   4   3 27.7257 18.7753   2
  12   4  -3  4.8188 17.2117   3
  10  -4  -3 23.1354 15.1488   3
  10   4  -3 13.3377 13.5145   3
  10   4  -3 19.5486 14.4180   2
 -10   4   3  7.8680 12.3127   2
   8  -4  -3 497.563  36.699   4
  -8  -4   3 507.879  38.380   1
   8  -4  -3 534.479  38.105   3
   8   4  -3 504.876  37.647   2
  -8   4   3 483.016  40.651   2
   8   4  -3 522.677  37.162   3
   8   4  -3 473.660  33.299   4
   6  -4  -3 129.218  20.815   4
   6  -4  -3 157.918  19.491   3
  -6   4   3 168.584  24.064   2
   6   4  -3 172.554  21.160   2
   6   4  -3 161.650  20.449   4
   6   4  -3 144.414  22.034   1
   6   4  -3 150.292  20.169   3
   4  -4  -3 68.2798 11.2166   3
  -4  -4   3 56.0575 12.5137   3
   4  -4  -3 74.3724 15.4280   4
   4   4  -3 93.7779 14.2030   2
  -4   4   3 72.3494 12.6479   1
   4   4  -3 79.2684 14.7434   4
   4   4  -3 45.5503 13.4817   1
  -4   4   3 54.3824 14.6278   2
   2  -4  -3 588.009  23.607   3
  -2  -4   3 545.995  33.720   4
   2  -4  -3 656.989  37.259   4
  -2  -4   3 562.384  32.175   3
   2   4  -3 620.489  37.081   1
  -2   4   3 608.069  34.037   1
   2   4  -3 557.764  33.981   4
  -2   4   3 663.798  39.732   2
   2   4  -3 581.860  28.613   2
   0  -4   3 112.075  16.291   3
   0  -4  -3 99.6899 15.9329   4
   0  -4   3 66.1330 13.4765   4
   0   4   3 59.6642 15.4064   2
   0   4  -3 81.4652 10.6070   2
   0   4  -3 72.6625 14.9079   1
   0   4   3 97.2804 15.8767   1
  -2  -4  -3 66.5774 13.6347   4
  -2  -4  -3 99.9420 17.7564   1
   2  -4   3 89.3912 16.2053   4
   2  -4   3 102.771  16.844   3
  -2   4  -3 97.6672 12.0937   2
  -2   4  -3 86.7199 17.3129   1
   2   4   3 98.7662 19.5799   2
   2   4   3 76.3861 15.9659   1
  -4  -4  -3 105.877  19.563   1
   4  -4   3 127.379  19.284   4
  -4  -4  -3 99.4932 14.5210   4
   4  -4   3 78.9397 16.8521   3
  -4   4  -3 97.6701 18.6547   1
  -4   4  -3 106.311  14.379   2
   4   4   3 95.9803 20.6083   2
   6  -4   3 138.640  20.597   4
  -6  -4  -3 71.6694 18.6229   1
   6  -4   3 98.4008 21.7740   3
   6   4   3 113.327  23.653   2
  -6   4  -3 114.184  21.560   1
  -6   4  -3 106.176  17.129   2
  -8  -4  -3 39.9432 17.4674   1
   8  -4   3 14.6303 14.3678   3
   8   4   3 34.5081 16.5156   2
  -8   4  -3 12.7643 11.3677   2
  -8   4  -3 22.4374 13.2311   1
  10  -4   3 197.709  36.783   3
 -10  -4  -3 152.831  30.431   1
 -10   4  -3 137.630  28.233   1
  10   4   3 192.679  35.431   2
  12  -4   3 -3.1223 21.6389   3
 -12  -4  -3 13.6750 20.3451   1
  12   4   3 -0.7858 19.6702   2
 -13  -5   3 109.537  29.899   2
  13  -5  -3 73.9263 30.7002   3
  11  -5  -3 139.757  29.437   3
 -11   5   3 120.507  28.612   2
  11   5  -3 197.453  34.037   2
   9  -5  -3 189.859  28.813   3
  -9  -5   3 136.072  25.888   1
   9  -5  -3 155.047  26.867   4
  -9   5   3 171.298  29.901   2
   9   5  -3 110.643  23.650   2
  -7  -5   3 5.82420 9.55849   4
   7  -5  -3  3.2898 10.2820   4
   7  -5  -3 18.6062 10.6619   3
   7   5  -3 25.6739 13.9070   1
   7   5  -3 2.61629 8.60035   2
   7   5  -3 -2.4871  9.3521   3
  -7   5   3 -3.6041  9.6692   2
  -5  -5   3 1.00871 7.85838   3
   5  -5  -3 27.9094 12.3097   4
  -5  -5   3 9.75310 8.46088   4
   5   5  -3 -6.1580  7.4868   2
   5   5  -3 -1.2973  8.3037   1
  -5   5   3 11.3304  8.3279   1
  -5   5   3 6.48027 9.12491   2
  -3  -5   3 63.9464 13.5039   3
  -3  -5   3 73.6115 15.8403   4
   3  -5  -3 63.8835 15.9309   4
  -3   5   3 74.8448 15.1199   1
   3   5  -3 72.1589 16.5127   1
   3   5  -3 86.4045 14.5891   2
  -3   5   3 60.2547 17.3531   2
   1  -5  -3 362.257  31.939   4
  -1  -5   3 432.047  31.660   4
  -1  -5   3 407.896  27.850   3
   1   5  -3 425.239  33.313   1
  -1   5   3 402.300  30.587   1
  -1   5   3 420.038  36.744   2
   1   5  -3 430.128  26.386   2
   1  -5   3 18.2794  9.5070   3
  -1  -5  -3 20.0098 11.1139   4
   1  -5   3 13.3888  9.6885   4
  -1   5  -3 21.0547 10.7617   1
  -1   5  -3 21.6862  8.8848   2
   1   5   3 17.9733 12.0516   2
   1   5   3 23.4188 10.7668   1
   3  -5   3 1533.01   71.50   4
   3  -5   3 1592.74   70.28   3
  -3  -5  -3 1528.50   66.28   4
  -3  -5  -3 1670.57   77.87   1
   3   5   3 1637.92   79.95   2
   3   5   3 1709.12   77.72   1
  -3   5  -3 1585.67   75.35   1
   5  -5   3 132.689  22.914   4
  -5  -5  -3 103.717  22.612   1
   5  -5   3 146.444  24.191   3
   5   5   3 197.212  30.759   2
  -5   5  -3 108.790  21.864   1
  -7  -5  -3 97.4455 24.1012   1
   7  -5   3 56.0239 18.7966   3
  -7   5  -3 76.1391 20.6783   1
   7   5   3 46.2006 19.3555   2
  -9  -5  -3 23.7874 15.9353   1
   9  -5   3 -11.263  12.580   3
  -9   5  -3 -2.9313 12.7588   1
   9   5   3  4.1840 15.0661   2
  11  -5   3 -5.2864 18.9100   3
 -11  -5  -3 11.4352 19.7397   1
  11   5   3  8.6575 19.4040   2
 -12   6   3 71.1408 26.4874   2
  12   6  -3 39.3542 23.4899   2
 -10  -6   3 71.9858 22.2458   1
  10   6  -3 90.2809 26.1153   2
 -10   6   3 49.0599 20.1084   2
   8  -6  -3 127.353  27.466   4
  -8   6   3 159.280  28.612   2
   8   6  -3 95.3386 22.3651   2
   8   6  -3 121.856  27.157   1
   6  -6  -3 165.539  28.576   4
  -6  -6   3 218.421  28.198   4
   6   6  -3 187.415  30.500   1
   6   6  -3 198.943  26.992   2
  -6   6   3 201.604  31.097   2
  -4  -6   3 149.504  24.719   4
   4  -6  -3 132.140  24.501   4
   4   6  -3 123.357  24.843   1
  -4   6   3 119.236  20.715   1
   4   6  -3 127.367  20.224   2
  -4   6   3 70.7197 19.5653   2
   2  -6  -3 14.3268 11.1571   4
  -2  -6   3 7.72309 9.97955   4
  -2   6   3 -0.0607 10.0864   2
   2   6  -3 1.06742 8.93490   1
  -2   6   3 -1.0977  8.4144   1
   0  -6  -3 201.151  26.956   4
   0  -6   3 160.077  25.379   4
   0   6  -3 185.421  27.704   1
   0   6   3 151.330  23.976   1
   0   6   3 147.674  26.935   2
  -2  -6  -3 97.1593 20.2311   4
   2  -6   3 126.016  23.389   4
  -2   6  -3 94.2547 21.1941   1
   2   6   3 113.752  24.318   2
   2   6   3 77.5716 19.4959   1
   4  -6   3 56.6430 16.4374   3
   4  -6   3 49.6888 17.0527   4
  -4  -6  -3 25.1675 14.0103   1
  -4  -6  -3 18.5592 12.1981   4
   4   6   3 62.1799 20.0243   2
  -4   6  -3 55.0956 17.6415   1
   6  -6   3 215.511  30.259   3
  -6  -6  -3 275.727  37.771   1
   6  -6   3 245.598  32.931   4
  -6   6  -3 230.870  32.845   1
   6   6   3 213.046  35.384   2
  -8  -6  -3 60.8321 22.7627   1
   8  -6   3 106.149  26.856   3
   8   6   3 77.7938 25.0727   2
  -8   6  -3 106.745  24.997   1
 -10  -6  -3 15.2506 19.0059   1
  10  -6   3  5.8567 19.6537   3
  10   6   3 52.9585 25.8618   2
 -11   7   3 39.7183 23.7854   2
   9  -7  -3 21.5325 18.2967   4
  -9  -7   3 46.1172 21.3316   1
  -9   7   3 58.3676 22.8264   2
   7  -7  -3 394.004  44.715   4
  -7  -7   3 443.450  41.879   4
   7   7  -3 368.524  43.733   1
  -7   7   3 363.020  43.330   2
   5  -7  -3 564.772  50.162   4
  -5  -7   3 621.190  45.943   4
   5   7  -3 550.527  50.967   1
  -5   7   3 464.252  46.398   2
  -3  -7   3 522.072  44.934   4
   3  -7  -3 620.154  46.847   4
  -3   7   3 577.688  43.734   1
  -3   7   3 537.532  48.932   2
   3   7  -3 587.801  50.377   1
  -1  -7   3 10.3830 12.0490   4
   1  -7  -3  7.2342 12.3576   4
  -1   7   3  5.6137 11.3650   1
  -1   7   3 20.7488 14.3441   2
   1   7  -3 19.3832 13.8214   1
  -1  -7  -3 142.859  25.760   4
   1  -7   3 62.7534 18.5735   4
  -1   7  -3 80.8210 21.7323   1
   1   7   3 72.1395 22.4633   2
   1   7   3 110.129  23.942   1
   3  -7   3  7.1886 11.7206   4
  -3  -7  -3 19.9459 13.6405   4
   3   7   3 53.6352 20.2547   2
   3   7   3 22.0400 15.3491   1
  -3   7  -3  6.6221 12.5321   1
   5  -7   3 84.5151 24.0360   4
  -5  -7  -3 124.840  28.066   1
   5   7   3 102.217  27.691   2
  -5   7  -3 126.431  28.196   1
  -7  -7  -3 48.1711 21.8536   1
  -7   7  -3 51.4808 20.9457   1
   7   7   3 56.7407 24.0732   2
  -9  -7  -3 331.973  49.085   1
   9   7   3 306.916  50.207   2
   8  -8  -3 -3.8299 16.4664   4
   8   8  -3 12.2196 20.1883   1
  -8   8   3  3.2334 18.6851   2
   6  -8  -3 339.000  44.749   4
  -6  -8   3 461.760  45.928   4
  -6   8   3 336.053  45.020   2
   6   8  -3 383.804  47.186   1
   4  -8  -3 85.8935 23.8672   4
  -4  -8   3 56.8562 19.5098   4
  -4   8   3 12.7584 17.5819   2
   4   8  -3 54.0182 21.1077   1
  -2  -8   3 103.636  24.801   4
   2  -8  -3 145.426  29.182   4
   2   8  -3 99.1052 25.7285   1
  -2   8   3 107.288  24.585   1
  -2   8   3 92.2145 26.6094   2
   0  -8   3 195.209  32.700   4
   0  -8  -3 216.100  33.652   4
   0   8   3 173.165  31.189   1
   0   8  -3 149.763  30.896   1
   0   8   3 242.319  36.400   2
   2  -8   3 63.5156 21.8314   4
  -2  -8  -3 25.9366 15.9671   4
  -2   8  -3 58.6598 22.7341   1
   2   8   3 76.2451 24.0713   1
   2   8   3 36.2444 19.0309   2
  -4  -8  -3 142.208  27.845   4
  -4  -8  -3 164.732  32.706   1
   4  -8   3 90.2222 26.3587   4
  -4   8  -3 116.956  28.382   1
   4   8   3 80.4331 26.3376   2
   6  -8   3 102.563  27.603   4
  -6  -8  -3 88.1480 27.0821   1
   6   8   3 79.7188 27.7518   2
  -6   8  -3 47.7827 22.2618   1
   5  -9  -3 24.2993 18.3834   4
  -5  -9   3 -2.0769 17.5389   4
  -5   9   3  5.0375 18.6242   2
   5   9  -3 -1.3609 15.7888   1
  -3  -9   3 55.3961 22.0300   4
   3  -9  -3 43.8948 20.4303   4
  -3   9   3 132.574  32.144   2
   3   9  -3 88.9163 27.5548   1
  -3   9   3 115.388  28.699   1
  -1  -9   3 115.206  29.344   4
   1  -9  -3 90.9719 25.1513   4
  -1   9   3 115.589  29.684   2
  -1   9   3 77.1838 25.7653   1
   1   9  -3 101.280  28.597   1
   1  -9   3 255.152  41.483   4
  -1  -9  -3 282.270  40.613   4
   1   9   3 249.854  41.060   2
   1   9   3 288.257  42.480   1
  -1   9  -3 247.425  41.889   1
   3  -9   3 447.360  51.901   4
  -3  -9  -3 392.673  44.583   4
   3   9   3 364.886  48.256   2
  -3   9  -3 352.727  47.555   1
   3   9   3 289.692  44.733   1
   5  -9   3 252.382  44.035   4
   5   9   3 313.787  47.316   2
  -5   9  -3 287.455  45.511   1
  -2  10   3 225.134  41.051   1
   0  10   3 156.497  35.713   1
   2  10   3 107.005  32.652   2
  14   0  -4 945.298  72.675   3
 -14   0   4 1060.70   71.87   2
 -12   0   4 487.102  45.814   2
  12   0  -4 326.584  42.524   3
  10   0  -4 1753.76   86.87   3
 -10   0   4 1859.13   84.21   2
  -8   0   4 1017.05   52.04   2
   8   0  -4 997.895  45.865   4
   8   0  -4 986.951  54.784   3
   6   0  -4 4219.90  140.21   3
  -6   0   4 4184.43  135.65   2
  -6   0   4 4173.99  123.42   1
   6   0  -4 4306.58  131.69   4
   4   0  -4 1253.27   50.90   3
  -4   0   4 1200.46   47.46   2
   4   0  -4 1195.92   37.21   1
   4   0  -4 1197.85   47.56   4
   2   0  -4 9999.99  270.61   1
  -2   0   4 9155.18  269.87   3
  -2   0   4 9038.64  263.92   2
   2   0  -4 9651.51  264.00   4
   0   0   4 4239.05  133.80   3
   0   0   4 4469.14  127.73   2
   0   0  -4 4269.33  132.38   1
   0   0  -4 4258.73  125.12   4
   2   0   4 1292.17   55.18   3
  -2   0  -4 1278.19   53.86   1
  -2   0  -4 1411.96   44.58   4
   2   0   4 1403.52   49.64   2
  -4   0  -4 3520.78  121.33   1
   4   0   4 3406.13  119.85   3
   4   0   4 3386.68  112.03   2
  -4   0  -4 3514.34   97.01   4
   6   0   4 2329.54   97.69   3
   6   0   4 2430.12   90.97   2
  -6   0  -4 2627.52   99.31   1
  -8   0  -4 1060.57   59.34   1
   8   0   4 972.046  59.522   3
   8   0   4 1023.28   55.14   2
 -10   0  -4 592.997  48.137   2
  10   0   4 509.385  49.977   3
 -10   0  -4 618.387  47.940   1
 -12   0  -4 1717.72   90.89   2
 -12   0  -4 1703.01   91.03   1
  12   0   4 1546.77   94.97   3
 -13  -1   4 1045.23   68.12   2
  13  -1  -4 914.518  68.564   3
 -13   1   4 888.807  64.115   2
  13   1  -4 1028.41   70.94   3
 -11  -1   4 1118.53   63.67   2
  11  -1  -4 1094.86   67.74   3
 -11   1   4 1074.13   64.57   2
  11   1  -4 1113.71   67.49   3
   9  -1  -4 1675.81   80.91   3
   9  -1  -4 1830.42   70.97   4
  -9  -1   4 1726.20   76.88   2
   9   1  -4 1698.05   80.65   3
   9   1  -4 1836.50   68.84   4
  -9   1   4 1705.10   78.59   2
   7  -1  -4 1955.69   74.90   4
  -7  -1   4 2153.17   70.82   1
  -7  -1   4 1998.92   78.12   2
   7  -1  -4 2109.30   84.32   3
  -7   1   4 1991.58   80.60   2
   7   1  -4 2036.09   73.69   4
   7   1  -4 1984.90   82.58   3
  -5  -1   4 4326.78  138.05   2
   5  -1  -4 4483.67  138.98   4
   5  -1  -4 4711.98  145.19   3
   5   1  -4 4611.88  137.23   1
  -5   1   4 4697.78  143.49   2
   5   1  -4 4444.55  137.39   4
   5   1  -4 4344.46  144.89   3
   3  -1  -4 4061.55  116.27   1
   3  -1  -4 3916.68  122.92   4
   3  -1  -4 4186.64  125.12   3
  -3  -1   4 4077.59  119.23   2
   3   1  -4 3949.90  122.61   1
   3   1  -4 4047.17  127.96   3
   3   1  -4 4018.11  122.62   4
  -3   1   4 4059.31  125.70   2
   1  -1  -4 816.550  33.624   4
  -1  -1   4 737.659  36.752   3
   1  -1  -4 867.506  31.961   1
  -1  -1   4 750.777  26.544   2
  -1   1   4 823.226  35.970   2
  -1   1   4 808.195  34.474   3
   1   1  -4 790.684  33.296   1
   1   1  -4 757.833  32.920   4
   1  -1   4 4257.11  118.74   2
  -1  -1  -4 4255.00  121.67   4
  -1  -1  -4 4293.91  133.33   1
   1  -1   4 3994.82  134.56   3
   1   1   4 4071.76  129.32   3
  -1   1  -4 4248.51  123.38   4
  -1   1  -4 4495.34  134.28   1
   1   1   4 3952.38  130.10   2
  -3  -1  -4 3039.43   85.43   4
   3  -1   4 2982.31  105.43   3
   3  -1   4 3094.12   92.23   2
  -3   1  -4 2703.09  101.66   1
   3   1   4 2962.64  100.42   3
  -3   1  -4 2957.56   88.78   4
   3   1   4 2807.97   98.80   2
   5  -1   4 3118.67  102.02   2
   5  -1   4 2804.03  111.69   3
   5  -1   4 3089.78   90.34   4
  -5  -1  -4 3074.90  112.47   1
   5   1   4 3035.44  107.64   2
   5   1   4 3063.18  110.25   3
  -5   1  -4 3079.30  111.88   1
  -7  -1  -4 1528.42   71.71   1
   7  -1   4 1571.69   75.16   3
   7   1   4 1391.75   69.75   3
   7   1   4 1475.67   68.67   2
  -7   1  -4 1491.09   65.58   2
  -7   1  -4 1391.85   69.21   1
   9  -1   4 2047.78   95.48   3
  -9  -1  -4 1955.24   90.54   1
  -9   1  -4 1739.73   86.20   1
  -9   1  -4 1821.34   82.92   2
   9   1   4 1774.36   85.46   2
   9   1   4 1765.01   88.34   3
  11  -1   4 826.095  63.386   3
 -11  -1  -4 836.487  59.727   1
  11   1   4 849.311  63.068   3
 -11   1  -4 910.369  59.350   2
  11   1   4 847.121  60.110   2
 -11   1  -4 863.430  59.172   1
 -13  -1  -4 577.324  56.824   1
 -13  -1  -4 459.477  53.034   2
 -13   1  -4 493.433  51.179   2
  13   1   4 496.239  57.329   3
 -14  -2   4 426.106  49.123   2
  14  -2  -4 479.642  57.670   3
  14   2  -4 511.056  55.535   3
 -14   2   4 448.877  51.112   2
 -12  -2   4 1143.38   68.59   2
  12  -2  -4 1244.91   75.73   3
 -12   2   4 1081.86   67.99   2
  12   2  -4 1059.39   68.74   3
  10  -2  -4 1438.93   75.78   3
 -10  -2   4 1413.74   71.84   2
 -10   2   4 1491.20   74.42   2
  10   2  -4 1459.18   75.05   3
   8  -2  -4 3976.33  139.56   3
  -8  -2   4 3779.45  129.29   1
  -8  -2   4 3995.80  134.98   2
   8  -2  -4 3894.04  129.41   4
  -8   2   4 3894.71  137.63   2
   8   2  -4 3896.16  126.28   4
   8   2  -4 3804.44  138.51   3
   6  -2  -4 2056.18   78.04   4
  -6  -2   4 2130.73   77.52   2
   6  -2  -4 2055.27   81.11   3
  -6   2   4 2141.60   83.43   2
   6   2  -4 2133.76   76.83   1
   6   2  -4 2050.71   75.54   4
   6   2  -4 2124.82   82.67   3
  -4  -2   4 2645.99   83.62   2
   4  -2  -4 2490.48   87.21   3
   4  -2  -4 2545.38   88.92   4
   4   2  -4 2587.30   91.21   3
  -4   2   4 2587.08   92.14   2
   4   2  -4 2553.74   87.00   4
  -4   2   4 2551.52   78.05   1
   4   2  -4 2688.06   88.86   1
  -2  -2   4 2472.58   86.59   3
  -2  -2   4 2479.21   72.94   2
   2  -2  -4 2480.92   79.31   3
   2  -2  -4 2388.21   82.65   4
   2  -2  -4 2481.20   79.39   1
   2   2  -4 2440.38   83.13   4
  -2   2   4 2504.23   80.31   3
   2   2  -4 2598.60   86.16   1
   0  -2   4 2717.11   97.87   3
   0  -2  -4 2756.80   89.73   4
   0  -2  -4 2907.44   94.54   1
   0   2  -4 2912.53   91.97   4
   0   2   4 2858.71   89.25   3
   0   2  -4 2838.77   97.42   1
   0   2   4 2820.12   98.79   2
  -2  -2  -4 1752.81   57.34   4
   2  -2   4 1679.61   69.51   3
  -2  -2  -4 1594.02   66.24   1
  -2   2  -4 1813.39   53.12   2
  -2   2  -4 1627.09   60.20   4
   2   2   4 1630.56   60.32   3
  -2   2  -4 1638.20   66.82   1
   2   2   4 1759.11   69.79   2
  -4  -2  -4 2590.97   99.06   1
   4  -2   4 2654.20   86.26   4
   4  -2   4 2707.38  101.95   3
  -4  -2  -4 2705.73   78.89   4
  -4   2  -4 2679.86   85.81   2
  -4   2  -4 2506.68   97.44   1
   4   2   4 2641.60   92.88   3
   4   2   4 2518.81   97.40   2
  -6  -2  -4 3184.36  123.96   1
   6  -2   4 3287.29  126.74   3
   6   2   4 3352.98  122.42   2
  -6   2  -4 3356.10  111.58   2
   6   2   4 3312.69  117.91   3
  -6   2  -4 3251.36  122.50   1
  -8  -2  -4 2177.20   95.90   1
   8  -2   4 1998.40   96.92   3
   8   2   4 2077.06   94.25   2
  -8   2  -4 2098.36   93.95   1
  -8   2  -4 2170.14   87.19   2
   8   2   4 2253.59   94.61   3
  10  -2   4 1159.69   74.94   3
 -10  -2  -4 1255.37   72.71   1
  10   2   4 1117.85   69.47   3
  10   2   4 1156.10   70.88   2
 -10   2  -4 1216.39   65.84   2
 -10   2  -4 1301.07   72.06   1
  12  -2   4 404.005  53.264   3
 -12  -2  -4 456.577  49.628   1
 -12   2  -4 439.775  46.194   2
  12   2   4 491.169  51.614   2
  12   2   4 446.560  51.328   3
 -13  -3   4 733.473  60.440   2
  13  -3  -4 750.600  65.770   3
 -13   3   4 805.511  61.187   2
  13   3  -4 799.558  60.931   3
  11  -3  -4 1343.07   78.04   3
 -11  -3   4 1523.48   78.55   2
 -11   3   4 1460.97   80.00   2
  11   3  -4 1630.88   82.32   3
  -9  -3   4 913.133  51.630   2
   9  -3  -4 776.536  45.848   4
   9  -3  -4 716.473  48.927   3
   9   3  -4 707.013  40.877   4
   9   3  -4 775.327  49.193   3
  -9   3   4 711.059  49.055   2
   7  -3  -4 1731.38   74.84   4
   7  -3  -4 1773.91   76.20   3
   7   3  -4 1893.26   72.83   4
   7   3  -4 1882.33   78.25   3
   7   3  -4 1843.19   76.35   1
   7   3  -4 1816.47   74.38   2
  -7   3   4 1829.25   79.83   2
   5  -3  -4 2688.35   94.69   3
   5  -3  -4 2664.89   97.29   4
   5   3  -4 2780.26   95.54   4
  -5   3   4 2787.75   87.77   1
   5   3  -4 2746.81   99.68   1
   5   3  -4 2609.66   97.40   3
   5   3  -4 2743.33   91.68   2
  -5   3   4 2678.89  101.14   2
   3  -3  -4 2413.29   83.57   4
   3  -3  -4 2231.15   74.00   3
  -3  -3   4 2132.50   81.32   3
  -3   3   4 2230.74   75.80   1
  -3   3   4 2213.60   85.52   2
   3   3  -4 2239.29   80.90   4
   3   3  -4 2086.94   82.07   1
   3   3  -4 2317.88   71.70   2
   1  -3  -4 4835.12  150.04   4
  -1  -3   4 4941.73  156.15   3
  -1   3   4 4813.67  153.54   1
  -1   3   4 5008.59  159.82   2
   1   3  -4 4638.98  158.27   1
   1   3  -4 4806.50  150.92   4
   1   3  -4 5014.62  135.56   2
  -1   3   4 4999.67  141.84   3
  -1  -3  -4 2564.38   91.60   1
   1  -3   4 2465.34   92.60   3
  -1  -3  -4 2463.96   84.18   4
  -1   3  -4 2454.30   93.25   1
  -1   3  -4 2600.33   73.26   2
  -1   3  -4 2431.96   86.45   4
   1   3   4 2344.56   94.09   2
   1   3   4 2559.69   77.84   3
   3  -3   4 4844.26  159.59   3
   3  -3   4 4699.66  147.75   4
  -3  -3  -4 4826.21  141.97   4
  -3  -3  -4 4254.71  158.08   1
  -3   3  -4 4993.04  139.47   2
   3   3   4 4707.90  160.87   2
  -3   3  -4 4802.88  159.87   1
   3   3   4 4802.93  144.06   3
   5  -3   4 491.892  30.306   4
  -5  -3  -4 438.449  34.885   1
   5  -3   4 428.512  37.722   3
   5   3   4 492.465  37.479   2
   5   3   4 452.027  29.294   3
  -5   3  -4 507.195  35.790   1
  -5   3  -4 429.414  26.485   2
  -7  -3  -4 1934.83   88.69   1
   7  -3   4 1789.71   88.76   3
   7   3   4 1960.83   80.55   3
  -7   3  -4 1850.70   75.16   2
  -7   3  -4 1739.57   83.79   1
   7   3   4 1897.02   88.57   2
   9  -3   4 936.011  65.345   3
  -9  -3  -4 973.164  63.902   1
   9   3   4 910.857  57.337   3
  -9   3  -4 957.029  54.529   2
  -9   3  -4 992.133  60.675   1
   9   3   4 1003.15   64.81   2
  11  -3   4 1099.42   77.86   3
 -11  -3  -4 1016.19   70.72   1
 -11   3  -4 1070.47   68.92   1
  11   3   4 1086.56   73.02   2
  11   3   4 1056.49   67.96   3
  14   4  -4 727.204  64.260   3
 -12  -4   4 1019.43   66.27   2
  12  -4  -4 1029.43   69.50   3
 -12   4   4 879.227  64.251   2
  12   4  -4 1012.49   66.24   3
 -10  -4   4 580.857  45.475   2
  10  -4  -4 695.006  46.656   4
  10  -4  -4 689.868  49.697   3
  10   4  -4 553.773  46.030   3
 -10   4   4 638.636  51.580   2
   8  -4  -4 1105.41   57.61   3
   8  -4  -4 1065.96   57.21   4
   8   4  -4 1027.05   56.69   3
   8   4  -4 977.093  54.372   2
  -8   4   4 1159.67   63.57   2
   8   4  -4 974.049  56.896   1
   8   4  -4 1116.77   54.38   4
   6  -4  -4 469.960  31.639   3
   6  -4  -4 438.952  33.684   4
   6   4  -4 474.674  35.079   1
  -6   4   4 491.245  36.874   2
   6   4  -4 462.484  30.905   2
   6   4  -4 458.691  32.034   4
   6   4  -4 396.115  31.277   3
   4  -4  -4 3149.63  100.55   3
   4  -4  -4 2999.76  110.62   4
  -4  -4   4 3011.28  107.69   3
   4   4  -4 3075.69  108.83   4
  -4   4   4 2947.31  114.32   2
  -4   4   4 3101.23  104.96   1
   4   4  -4 3221.15  115.29   1
   4   4  -4 3165.62  101.04   2
   2  -4  -4 3428.22  117.74   4
  -2  -4   4 3467.31  117.36   3
   2   4  -4 3531.56  123.69   1
   2   4  -4 3385.32  102.99   2
  -2   4   4 3451.53  101.96   3
  -2   4   4 3144.47  121.62   2
   2   4  -4 3442.47  117.54   4
  -2   4   4 3390.51  116.14   1
   0  -4  -4 5163.43  163.57   4
   0  -4   4 5202.81  168.02   3
   0   4  -4 5173.82  175.11   1
   0   4   4 4900.58  173.42   2
   0   4   4 5294.18  171.72   1
   0   4  -4 5445.09  149.00   2
  -2  -4  -4 3234.94  116.41   1
   2  -4   4 3121.80  112.75   3
   2  -4   4 3001.69  107.71   4
  -2  -4  -4 3134.79  104.53   4
   2   4   4 2933.75  117.07   2
  -2   4  -4 2996.37  115.55   1
  -4  -4  -4 986.457  56.098   1
   4  -4   4 1021.83   51.02   4
  -4  -4  -4 967.031  44.710   4
   4  -4   4 1056.83   57.19   3
  -4   4  -4 1089.54   57.23   1
   4   4   4 1030.37   59.64   2
  -6  -4  -4 798.627  52.374   1
   6  -4   4 702.816  50.135   3
   6  -4   4 755.612  43.755   4
   6   4   4 748.243  52.870   2
  -6   4  -4 712.851  48.165   1
   8  -4   4 532.741  50.011   3
  -8  -4  -4 650.612  53.703   1
  -8   4  -4 624.477  46.417   1
   8   4   4 552.219  51.520   2
 -10  -4  -4 821.271  63.020   1
  10  -4   4 880.010  66.468   3
 -10   4  -4 820.440  58.687   1
  10   4   4 931.958  67.757   2
 -12  -4  -4 684.592  63.628   1
  13  -5  -4 857.509  69.861   3
 -13  -5   4 642.686  60.022   2
 -11  -5   4 877.290  61.341   2
  11  -5  -4 863.497  60.604   3
 -11   5   4 1055.93   68.93   2
   9  -5  -4 1048.04   62.38   4
  -9  -5   4 1128.47   64.51   1
  -9   5   4 1057.87   66.23   2
   9   5  -4 1150.50   62.79   3
   9   5  -4 1039.90   60.98   2
  -7  -5   4 1467.09   67.59   3
   7  -5  -4 1105.96   65.43   4
   7   5  -4 1386.14   64.56   2
  -7   5   4 1411.94   72.82   2
   7   5  -4 1433.72   66.07   4
   7   5  -4 1268.95   64.05   3
   7   5  -4 1334.88   70.98   1
   5  -5  -4 1320.80   66.97   4
  -5  -5   4 1356.27   61.90   3
  -5   5   4 1387.21   70.17   2
   5   5  -4 1323.91   58.73   2
   5   5  -4 1360.34   64.06   4
   5   5  -4 1374.49   69.60   1
  -3  -5   4 1577.98   69.36   4
   3  -5  -4 1463.56   69.49   4
  -3  -5   4 1516.31   65.40   3
  -3   5   4 1523.00   65.66   1
  -3   5   4 1488.11   73.42   2
   3   5  -4 1489.11   71.93   1
   1  -5  -4 1799.67   76.20   4
  -1  -5   4 1755.19   72.30   3
  -1  -5   4 1816.21   75.77   4
  -1   5   4 1712.35   81.13   2
  -1   5   4 1766.84   75.25   1
   1   5  -4 1522.01   76.73   1
   1  -5   4 2195.89   89.82   4
  -1  -5  -4 2379.55   88.38   4
   1  -5   4 2276.93   88.35   3
  -1   5  -4 2142.26   93.91   1
   1   5   4 2204.06   96.25   2
   1   5   4 2099.31   91.47   1
   3  -5   4 1380.07   66.38   4
  -3  -5  -4 1362.63   61.13   4
  -3  -5  -4 1397.77   71.21   1
   3  -5   4 1435.77   68.30   3
   3   5   4 1351.40   73.80   2
  -3   5  -4 1459.82   71.81   1
  -5  -5  -4 2027.99   96.94   1
   5  -5   4 2180.44   95.12   3
   5  -5   4 2170.15   89.99   4
   5   5   4 2171.74  100.43   2
  -5   5  -4 2022.40   94.80   1
  -7  -5  -4 625.018  54.021   1
   7  -5   4 632.287  52.264   3
  -7   5  -4 641.762  49.278   1
   7   5   4 608.924  54.570   2
   9  -5   4 852.447  64.112   3
  -9  -5  -4 905.152  66.355   1
  -9   5  -4 887.382  61.264   1
   9   5   4 828.739  69.113   2
 -11  -5  -4 682.707  65.186   1
  11  -5   4 695.944  68.007   3
  10  -6  -4 2186.91  102.15   4
 -10   6   4 1968.28  102.80   2
  -8  -6   4 1073.15   61.70   4
   8  -6  -4 1098.18   67.34   4
   8   6  -4 1229.77   71.89   1
  -8   6   4 1071.48   68.42   2
  -6  -6   4 2180.32   94.18   4
   6  -6  -4 2300.15  100.82   4
   6   6  -4 2279.74  102.54   1
  -6   6   4 2064.96   99.08   2
  -4  -6   4 558.138  41.242   4
   4  -6  -4 645.359  45.778   4
  -4   6   4 511.314  45.744   2
  -4   6   4 537.462  37.848   1
   4   6  -4 501.232  44.656   1
  -2  -6   4 1248.82   64.04   4
   2  -6  -4 1078.52   62.52   4
  -2   6   4 1276.84   62.95   1
   2   6  -4 1202.63   66.76   1
  -2   6   4 1273.84   70.49   2
   0  -6  -4 416.483  37.455   4
   0  -6   4 415.608  38.745   4
   0   6   4 486.049  37.764   1
   0   6   4 493.235  44.310   2
   0   6  -4 497.665  43.226   1
   2  -6   4 1211.05   63.23   4
   2  -6   4 1141.54   58.15   3
  -2  -6  -4 1014.51   61.87   1
  -2  -6  -4 1149.59   58.71   4
   2   6   4 998.829  64.661   2
  -2   6  -4 1181.55   66.06   1
   2   6   4 1039.04   61.76   1
   4  -6   4 1844.70   84.01   3
  -4  -6  -4 1762.72   89.82   1
   4  -6   4 1775.06   85.16   4
  -4  -6  -4 1889.96   78.64   4
  -4   6  -4 1838.07   89.75   1
   4   6   4 1737.71   91.49   2
   6  -6   4 1819.58   90.33   3
  -6  -6  -4 1930.76   98.24   1
   6  -6   4 1971.19   90.10   4
   6   6   4 1773.00   97.10   2
  -6   6  -4 1777.20   91.50   1
  -8  -6  -4 1532.17   89.99   1
   8  -6   4 1426.48   83.08   3
  -8   6  -4 1493.13   85.13   1
 -10  -6  -4 437.658  54.605   1
  10  -6   4 443.339  53.972   3
   9  -7  -4 793.027  60.802   4
   9   7  -4 871.371  65.300   1
  -9   7   4 793.977  66.010   2
  -7  -7   4 981.117  61.796   4
   7  -7  -4 895.701  63.506   4
  -7   7   4 1051.93   68.94   2
   7   7  -4 931.391  65.930   1
  -5  -7   4 1202.37   68.01   4
   5  -7  -4 1148.66   69.99   4
  -5   7   4 1145.22   71.91   2
   5   7  -4 1201.61   73.31   1
  -3  -7   4 1374.72   72.39   4
   3  -7  -4 1280.44   72.91   4
   3   7  -4 1254.49   74.46   1
  -3   7   4 1341.31   69.40   1
  -3   7   4 1317.02   77.36   2
   1  -7  -4 683.281  49.015   4
  -1  -7   4 709.560  49.894   4
  -1   7   4 674.032  48.114   1
  -1   7   4 659.467  54.613   2
   1   7  -4 633.350  50.008   1
  -1  -7  -4 1394.66   71.80   4
   1  -7   4 1266.36   72.36   4
  -1   7  -4 1465.95   79.91   1
   1   7   4 1419.60   80.32   2
   1   7   4 1418.27   77.41   1
  -3  -7  -4 852.314  52.508   4
   3  -7   4 854.076  57.545   4
  -3  -7  -4 842.493  59.571   1
   3   7   4 755.855  59.200   2
  -3   7  -4 862.556  59.448   1
   5  -7   4 1348.39   75.84   4
  -5  -7  -4 1185.85   76.03   1
  -5   7  -4 1273.11   76.77   1
   5   7   4 1267.77   80.43   2
  -7  -7  -4 580.935  58.577   1
  -7   7  -4 569.304  54.726   1
   7   7   4 615.437  61.917   2
  -9   7  -4 739.145  63.352   1
   8  -8  -4 451.638  53.197   4
  -8   8   4 618.220  60.201   2
   8   8  -4 524.148  57.278   1
  -6  -8   4 502.644  49.875   4
   6  -8  -4 559.153  55.089   4
  -6   8   4 540.445  54.553   2
   6   8  -4 553.245  55.425   1
   4  -8  -4 1252.11   75.22   4
  -4  -8   4 1072.05   69.26   4
   4   8  -4 1090.76   74.37   1
  -4   8   4 1226.57   78.43   2
   2  -8  -4 1428.96   80.44   4
  -2  -8   4 1452.97   79.55   4
   2   8  -4 1312.60   81.72   1
  -2   8   4 1387.09   77.41   1
  -2   8   4 1475.51   86.01   2
   0  -8   4 1538.98   83.06   4
   0  -8  -4 1457.60   79.45   4
   0   8  -4 1414.73   84.70   1
   0   8   4 1454.87   81.86   1
   0   8   4 1480.58   85.10   2
   2  -8   4 823.162  59.652   4
  -2  -8  -4 741.781  53.846   4
   2   8   4 783.814  64.459   2
   2   8   4 869.825  62.310   1
  -2   8  -4 735.680  58.868   1
  -4  -8  -4 601.760  57.137   1
   4  -8   4 590.540  55.134   4
  -4   8  -4 667.180  59.689   1
   4   8   4 564.621  57.318   2
  -6  -8  -4 388.225  50.363   1
   6  -8   4 366.403  47.086   4
  -6   8  -4 367.588  47.266   1
   6   8   4 342.704  49.822   2
  -8   8  -4 437.056  52.997   1
  -7  -9   4 447.185  51.771   4
  -7   9   4 507.842  58.444   2
   5  -9  -4 832.755  69.676   4
  -5  -9   4 891.445  65.768   4
   5   9  -4 816.092  70.362   1
  -5   9   4 790.312  69.803   2
  -3  -9   4 662.691  59.642   4
   3  -9  -4 581.798  57.754   4
  -3   9   4 607.314  61.188   2
   3   9  -4 727.439  65.321   1
  -1  -9   4 699.127  61.838   4
   1  -9  -4 796.233  63.819   4
  -1   9   4 813.585  61.228   1
   1   9  -4 694.371  64.698   1
  -1   9   4 776.251  66.083   2
   1  -9   4 445.984  50.818   4
  -1  -9  -4 436.858  47.558   4
   1   9   4 511.965  55.805   2
  -1   9  -4 410.225  51.169   1
   1   9   4 457.967  50.862   1
  -3  -9  -4 1086.68   75.17   1
  -3  -9  -4 1018.52   66.77   4
   3  -9   4 1003.95   71.74   4
  -3   9  -4 997.503  74.153   1
   3   9   4 903.002  74.733   2
   5  -9   4 173.271  37.836   4
   5   9   4 211.311  41.217   2
  -5   9  -4 194.180  39.395   1
  -2  10   4 291.432  47.887   2
   0  10   4 407.942  52.722   1
   0  10   4 289.107  48.681   2
 -14   0   5 13.2322 16.6016   2
  14   0  -5  1.3311 16.5540   3
 -12   0   5 12.3914 13.3219   2
  12   0  -5 16.0666 13.2329   3
 -10   0   5 -0.9702  8.6556   2
  10   0  -5 -7.3369  9.1537   3
  10   0  -5 -3.1726  7.7421   4
   8   0  -5 0.77078 6.56102   4
   8   0  -5 9.56128 8.68356   3
  -8   0   5 1.71557 6.83916   2
  -6   0   5 -2.7553  5.7102   2
   6   0  -5 2.89745 6.87692   3
   6   0  -5 -2.4487  4.8534   4
   4   0  -5 -0.0518  4.9849   4
   4   0  -5 -1.5132  2.5920   1
  -4   0   5 -2.8120  4.4626   2
   4   0  -5 -0.0051  6.0811   3
   2   0  -5 -4.0783  3.8194   4
  -2   0   5 2.26127 5.46344   3
   2   0  -5 -2.3618  3.1914   1
  -2   0   5 -2.7017  3.7848   2
   0   0  -5 4.22763 4.72663   4
   0   0  -5 -1.7251  4.4763   1
   0   0   5 5.15386 6.03772   3
   0   0   5 -4.5302  4.0223   2
  -2   0  -5 -3.7205  2.9261   4
   2   0   5 1.66662 5.26153   2
  -2   0  -5 3.94457 5.77715   1
   2   0   5 5.94654 7.36022   3
  -4   0  -5 1.29123 3.74947   4
   4   0   5 2.25245 7.46855   3
  -4   0  -5 4.12143 6.86905   1
   4   0   5 -2.5132  4.9626   2
   6   0   5 -4.4086  7.4525   3
  -6   0  -5 1.26211 8.00147   1
   6   0   5 -5.5950  6.4536   2
   8   0   5 -10.040  10.187   3
  -8   0  -5  7.4760 10.3933   1
   8   0   5 2.48375 9.56883   2
 -10   0  -5 -5.9428 11.3724   2
  10   0   5  2.2020 12.0282   2
  10   0   5 -16.364  10.416   3
 -10   0  -5 -1.1891 13.5947   1
 -12   0  -5 -11.373  16.768   1
  12   0   5  6.5297 17.9573   3
 -12   0  -5 12.2061 17.0319   2
  13  -1  -5  0.1149 14.5929   3
 -13  -1   5 -11.982  12.823   2
  13   1  -5 -1.5000 13.7692   3
 -13   1   5 -3.9107 13.9138   2
 -11  -1   5 81.6332 20.7390   2
  11  -1  -5 65.4388 20.1555   3
  11   1  -5 82.6544 22.3275   3
 -11   1   5 43.8852 17.6504   2
   9  -1  -5 109.959  22.452   3
  -9  -1   5 96.7312 19.5191   2
   9  -1  -5 82.2158 16.4348   4
   9   1  -5 97.3762 17.2363   4
  -9   1   5 105.243  20.400   2
   9   1  -5 86.1048 19.6060   3
  -7  -1   5 15.1990  8.4260   2
   7  -1  -5 14.3209  8.4223   4
   7  -1  -5 14.2411  8.5615   3
   7   1  -5 10.4899  7.0889   4
  -7   1   5 -5.1480  5.3985   2
   7   1  -5 2.44796 6.68878   3
   5  -1  -5 361.621  24.799   4
  -5  -1   5 385.883  23.492   2
   5  -1  -5 338.103  25.948   3
  -5   1   5 369.369  26.434   2
   5   1  -5 358.258  19.410   1
   5   1  -5 358.871  24.087   4
   5   1  -5 269.947  25.608   3
   3  -1  -5 90.4438  7.1653   1
  -3  -1   5 76.6735  9.3823   2
  -3  -1   5 87.3650 14.6436   3
   3  -1  -5 48.6555 10.2661   4
   3  -1  -5 107.972  14.471   3
   3   1  -5 93.3402 10.3377   1
   3   1  -5 78.7675 12.5922   4
  -3   1   5 100.115  13.951   2
  -1  -1   5 73.5853  7.8020   2
   1  -1  -5 74.5709 11.4924   4
   1  -1  -5 83.2201 10.2251   1
  -1  -1   5 45.3115 12.0437   3
   1   1  -5 48.2508  9.7423   1
  -1   1   5 67.3503 12.3786   2
   1   1  -5 65.0200 10.9770   4
  -1   1   5 72.1068 12.5913   3
   1  -1   5 245.520  24.728   3
  -1  -1  -5 257.315  20.067   1
  -1  -1  -5 274.722  17.249   4
   1  -1   5 263.050  14.221   2
  -1   1  -5 274.817  18.212   4
   1   1   5 292.815  22.168   3
   1   1   5 338.293  23.617   2
  -3  -1  -5 305.954  16.184   4
   3  -1   5 278.527  27.173   3
  -3  -1  -5 245.298  23.667   1
   3  -1   5 294.252  18.466   2
  -3   1  -5 281.059  24.905   1
  -3   1  -5 294.560  18.128   4
   3   1   5 311.398  25.790   3
   3   1   5 256.243  22.769   2
   5  -1   5 73.0111 12.8831   2
  -5  -1  -5 91.9689 18.6920   1
   5  -1   5 63.9391 16.5694   3
  -5   1  -5 71.6194 15.7163   1
   5   1   5 42.1215 13.0909   3
   5   1   5 83.7386 15.9925   2
   7  -1   5 9.82945 9.23992   2
  -7  -1  -5 18.5181 12.3231   1
   7  -1   5 6.11827 9.67227   3
   7   1   5 20.3430 11.7090   3
   7   1   5  5.1287 10.2823   2
  -7   1  -5 8.33334 9.64559   1
   9  -1   5 195.452  32.646   3
  -9  -1  -5 193.875  31.085   1
   9   1   5 142.824  26.939   2
  -9   1  -5 147.519  27.287   1
   9   1   5 158.434  29.495   3
  -9   1  -5 155.657  25.554   2
 -11  -1  -5 21.7893 17.0276   1
  11  -1   5 -2.3497 13.6637   3
 -11   1  -5 -8.4082 10.8545   2
 -11   1  -5 -3.1340 14.0848   1
  11   1   5 -0.9577 14.0296   3
  11   1   5 17.4850 16.6946   2
 -13  -1  -5 71.7305 29.0236   1
 -13   1  -5 54.0317 24.0531   2
 -14  -2   5 -19.168  13.991   2
  14  -2  -5 -3.0166 16.8175   3
 -14   2   5  4.6049 16.6174   2
  14   2  -5 -17.018  14.947   3
  12  -2  -5 26.2492 17.3857   3
 -12  -2   5 58.8089 20.2673   2
 -12   2   5 84.6057 22.6153   2
  12   2  -5 50.8594 21.2776   3
  10  -2  -5 156.305  23.004   4
  10  -2  -5 192.467  30.571   3
 -10  -2   5 135.960  24.117   2
 -10   2   5 120.612  24.234   2
  10   2  -5 120.099  24.690   3
   8  -2  -5 37.8415 13.6319   3
  -8  -2   5 56.9553 13.7303   2
   8  -2  -5 59.7263 14.2803   4
  -8   2   5 56.8517 16.7726   2
   8   2  -5 29.1134 11.4413   4
   8   2  -5 50.7545 15.3906   3
  -6  -2   5 535.451  30.264   2
   6  -2  -5 470.991  32.249   3
   6  -2  -5 503.353  32.184   4
   6   2  -5 432.280  32.560   3
   6   2  -5 474.367  28.032   1
  -6   2   5 518.206  34.536   2
   6   2  -5 486.574  30.501   4
  -4  -2   5 564.909  35.413   3
  -4  -2   5 541.966  26.936   2
   4  -2  -5 621.180  22.713   1
   4  -2  -5 638.185  34.644   4
   4  -2  -5 594.537  32.300   3
  -4   2   5 605.437  35.554   2
   4   2  -5 666.309  34.474   4
   4   2  -5 607.346  31.219   1
  -2  -2   5 47.4432  5.4486   2
   2  -2  -5 50.3184  8.0650   1
  -2  -2   5 35.0427 10.9538   3
   2  -2  -5 51.9253 11.1609   4
  -2   2   5 38.0548 11.3740   2
   2   2  -5 47.4611 10.8623   4
  -2   2   5 42.2432  8.9966   3
   2   2  -5 46.4265 10.0741   1
   0  -2  -5 307.329  21.167   1
   0  -2  -5 273.455  19.265   4
   0  -2   5 276.721  25.793   3
   0   2   5 276.434  20.068   3
   0   2   5 258.203  24.439   2
   0   2  -5 278.873  21.635   1
   0   2  -5 285.940  20.642   4
  -2  -2  -5 486.245  30.887   1
  -2  -2  -5 477.000  24.678   4
   2  -2   5 502.175  34.805   3
   2   2   5 506.410  33.422   2
  -2   2  -5 489.673  20.132   2
  -2   2  -5 445.029  30.114   1
  -2   2  -5 480.553  27.014   4
   2   2   5 500.309  28.618   3
   4  -2   5 8.35618 6.53964   4
  -4  -2  -5 11.1513  8.8853   1
   4  -2   5 26.5783 13.2783   3
  -4  -2  -5 10.6030  5.3145   4
  -4   2  -5 12.3016  8.9649   1
  -4   2  -5 11.2096  6.0312   2
   4   2   5 8.47974 8.26181   2
   4   2   5 6.56554 7.49692   3
  -6  -2  -5 198.822  26.960   1
   6  -2   5 178.642  29.240   3
  -6   2  -5 227.729  27.924   1
   6   2   5 227.997  25.854   3
   6   2   5 203.229  26.979   2
  -6   2  -5 226.830  21.970   2
   8  -2   5  4.7659 13.4675   3
  -8  -2  -5  6.8766 11.2576   1
   8   2   5 -5.0281  8.4320   3
   8   2   5  4.9220 11.3546   2
  -8   2  -5 3.27780 9.03992   2
  -8   2  -5 -4.4648  9.8459   1
 -10  -2  -5 28.8515 16.9525   1
  10  -2   5 12.8244 17.7192   3
  10   2   5 42.2817 19.6527   2
 -10   2  -5 28.9143 16.3616   2
  10   2   5 84.5002 24.7198   3
 -10   2  -5 50.7025 21.0381   1
  12  -2   5 37.5156 23.8326   3
 -12  -2  -5 58.1625 25.1803   1
  12   2   5 43.4516 22.3206   2
 -12   2  -5 68.3191 24.5027   1
  12   2   5 17.2152 20.0049   3
 -13  -3   5 121.973  27.887   2
  13  -3  -5 121.556  32.023   3
  13   3  -5 73.1532 26.2697   3
 -13   3   5 106.348  28.377   2
  11  -3  -5 91.7215 23.9954   3
 -11  -3   5 117.202  24.580   2
 -11   3   5 144.967  28.363   2
  11   3  -5 108.773  25.038   3
  -9  -3   5 123.937  21.463   2
   9  -3  -5 129.435  24.612   3
   9  -3  -5 152.224  22.974   4
   9   3  -5 156.367  22.023   4
  -9   3   5 127.456  24.087   2
   9   3  -5 129.922  23.727   3
  -7  -3   5 35.9014 11.3545   2
   7  -3  -5 7.65766 8.76637   4
   7  -3  -5 13.2871  9.9095   3
  -7   3   5 14.1913 11.7729   2
   7   3  -5 17.2158 10.5716   3
   7   3  -5 23.0102 10.3323   1
   7   3  -5 18.7607 10.1902   4
  -5  -3   5 173.663  22.357   3
  -5  -3   5 137.565  15.081   2
   5  -3  -5 104.916  15.946   3
   5  -3  -5 148.981  20.561   4
   5   3  -5 158.926  18.963   1
  -5   3   5 134.903  21.540   2
   5   3  -5 157.840  20.025   4
   3  -3  -5 4.56020 5.93417   4
   3  -3  -5 3.80780 5.10143   3
  -3  -3   5 1.42771 3.56002   2
   3  -3  -5 -1.4998  4.1577   1
  -3  -3   5 -0.8743  5.8469   3
   3   3  -5 10.3886  7.0609   4
   3   3  -5 5.93096 6.05854   1
  -3   3   5 -5.0371  5.4296   2
   1  -3  -5 21.9623  8.3180   4
  -1  -3   5 12.5500  9.3806   3
   1  -3  -5 17.8765  7.3806   1
  -1   3   5 10.8144  9.7678   2
   1   3  -5 12.6520  7.9363   4
  -1   3   5 13.8415  6.4311   3
   1   3  -5 5.16660 7.19580   1
  -1  -3  -5 269.793  23.909   1
  -1  -3  -5 273.755  20.742   4
   1  -3   5 298.230  28.848   3
  -1   3  -5 243.326  24.617   1
  -1   3  -5 232.919  22.384   4
   1   3   5 299.417  29.256   2
   1   3   5 240.476  17.887   3
   3  -3   5 883.725  50.653   3
   3  -3   5 862.242  42.414   4
  -3  -3  -5 923.001  38.743   4
  -3  -3  -5 739.995  45.449   1
   3   3   5 867.201  40.135   3
   3   3   5 779.574  48.838   2
  -3   3  -5 867.902  33.392   2
  -3   3  -5 889.767  48.039   1
   5  -3   5 178.593  20.118   4
   5  -3   5 139.056  26.116   3
  -5  -3  -5 175.066  25.450   1
   5   3   5 195.044  21.671   3
   5   3   5 205.682  28.564   2
  -5   3  -5 195.111  26.434   1
  -7  -3  -5 11.5304 11.7575   1
   7  -3   5 44.9354 18.4528   3
   7   3   5 22.0305 14.7557   2
   7   3   5 14.1731 11.5430   3
  -7   3  -5  7.0398 11.0990   1
  -9  -3  -5 -8.0457 10.5829   1
   9  -3   5 -9.0592 11.4520   3
   9   3   5 10.3074 14.4321   3
   9   3   5 -8.4007 12.6792   2
  -9   3  -5 12.2659 13.3922   1
  11  -3   5 56.2791 25.5506   3
 -11  -3  -5 20.2708 17.8421   1
  11   3   5  6.8182 18.0097   2
 -11   3  -5 -1.3843 16.1998   1
  12  -4  -5  9.4543 18.0199   3
 -12  -4   5 20.1899 15.9470   2
  12   4  -5 41.9605 19.1611   3
 -12   4   5 11.8158 16.2862   2
 -10  -4   5 -3.1145 11.5067   2
  10  -4  -5 18.0014 13.9596   4
  10  -4  -5 -2.1672 12.6259   3
  10   4  -5  0.0845 11.8567   3
 -10   4   5 -1.6185 11.9598   2
  -8  -4   5 327.808  30.401   2
   8  -4  -5 278.602  31.759   4
   8  -4  -5 310.174  31.425   3
   8   4  -5 306.512  32.492   3
   8   4  -5 290.882  29.714   4
  -8   4   5 288.895  34.593   2
   8   4  -5 312.542  32.173   1
   6  -4  -5 45.3650 12.6792   3
   6  -4  -5 24.2667 11.7273   4
  -6  -4   5 23.4750 12.4877   3
   6   4  -5 39.4423 12.8754   4
   6   4  -5 40.2941 11.2685   2
   6   4  -5 29.6349 12.2586   1
  -6   4   5 25.9660 11.9359   2
  -4  -4   5 426.368  32.185   3
   4  -4  -5 452.629  26.575   3
   4  -4  -5 503.827  35.269   4
  -4   4   5 504.407  36.873   2
  -4   4   5 465.387  27.549   1
   4   4  -5 484.948  25.359   2
   4   4  -5 437.527  32.084   4
   4   4  -5 477.569  33.832   1
   2  -4  -5 138.370  20.225   4
  -2  -4   5 126.732  20.083   3
  -2   4   5 90.9455 14.6221   1
  -2   4   5 117.456  12.086   3
   2   4  -5 98.3703 17.7916   1
  -2   4   5 136.080  22.458   2
   2   4  -5 119.020  19.066   4
   0  -4   5 115.042  20.703   3
   0  -4  -5 102.903  17.316   1
   0  -4  -5 122.029  18.084   4
   0   4  -5 141.286  21.064   1
   0   4   5 144.011  23.717   2
   0   4  -5 127.268  19.286   4
   2  -4   5 13.4703 11.0127   3
  -2  -4  -5 32.6836 12.1700   1
   2  -4   5 25.7628 10.3785   4
  -2  -4  -5 27.3764  9.8304   4
   2   4   5 16.9482 12.8495   2
  -2   4  -5 25.9185 11.6823   1
   4  -4   5 173.734  27.516   3
   4  -4   5 177.559  23.319   4
  -4  -4  -5 220.897  28.381   1
  -4   4  -5 258.275  29.840   1
   4   4   5 236.495  32.126   2
  -6  -4  -5 -7.1612 10.4972   1
   6  -4   5 -2.5391 10.4319   3
   6   4   5 -1.2008 11.3968   2
  -6   4  -5 2.25223 9.42804   1
   8  -4   5 27.1209 20.3013   3
  -8  -4  -5 37.4698 17.1694   1
  -8   4  -5 29.3146 16.0726   1
   8   4   5 55.9732 21.9479   2
 -10  -4  -5 84.0166 26.7940   1
  10  -4   5 57.4347 24.2043   3
  10   4   5 51.7689 23.6253   2
 -10   4  -5 73.1457 24.3756   1
 -13  -5   5 33.8529 22.1945   2
 -11  -5   5 12.8699 16.3896   2
 -11   5   5  7.8128 16.6147   2
   9  -5  -5 -6.6908 11.6588   4
   9   5  -5 11.0525 12.1563   4
  -9   5   5 18.6289 14.8040   2
   9   5  -5 -8.6928 11.1289   2
   9   5  -5 -5.3951 12.1372   3
  -7  -5   5 485.657  39.586   3
   7  -5  -5 410.404  39.880   4
   7   5  -5 513.369  39.837   1
   7   5  -5 453.497  38.862   4
  -7   5   5 429.043  41.888   2
  -5  -5   5 437.464  33.092   3
   5  -5  -5 345.693  35.212   4
   5   5  -5 303.867  31.824   4
   5   5  -5 394.642  36.760   1
  -5   5   5 443.071  41.085   2
  -3  -5   5 791.244  46.322   3
   3  -5  -5 811.337  49.115   4
   3   5  -5 868.736  48.896   4
  -3   5   5 802.208  43.418   1
   3   5  -5 735.098  48.064   1
  -3   5   5 789.182  51.736   2
  -1  -5   5 118.187  20.892   4
  -1  -5   5 161.261  23.080   3
   1  -5  -5 164.478  23.870   4
   1   5  -5 150.074  23.856   1
  -1   5   5 159.878  27.207   2
  -1   5   5 157.426  21.740   1
   1  -5   5 201.323  26.688   4
  -1  -5  -5 139.010  22.761   1
  -1  -5  -5 184.570  23.136   4
   1  -5   5 139.309  22.921   3
   1   5   5 165.335  27.843   2
  -1   5  -5 180.315  26.676   1
  -3  -5  -5 49.3291 13.6139   4
   3  -5   5 42.5398 14.4461   4
   3  -5   5 61.4542 18.8417   3
  -3  -5  -5 36.7231 14.0344   1
   3   5   5  1.2202 11.0864   2
  -3   5  -5 19.4221 12.7633   1
  -5  -5  -5 78.5638 21.4186   1
   5  -5   5 61.4143 18.7025   4
   5  -5   5 77.6535 21.1298   3
   5   5   5 55.5238 20.6335   2
  -5   5  -5 75.9353 20.4750   1
   7  -5   5 323.066  42.023   3
  -7  -5  -5 287.786  40.465   1
   7   5   5 283.603  41.802   2
  -7   5  -5 318.915  39.372   1
   9  -5   5 58.9269 25.5168   3
  -9  -5  -5 146.273  33.184   1
   9   5   5 126.949  31.797   2
  -9   5  -5 115.699  29.457   1
  10  -6  -5 50.6688 21.3709   4
 -10   6   5 35.8536 19.7793   2
  -8  -6   5 115.285  24.844   4
   8  -6  -5 90.4131 24.9040   4
  -8   6   5 49.6407 19.9430   2
   8   6  -5 77.5220 22.7412   1
   6  -6  -5 85.2494 22.1438   4
  -6  -6   5 37.1334 15.7621   4
   6   6  -5 72.5533 19.7126   1
  -6   6   5 77.6625 22.1384   2
   4  -6  -5 228.953  32.256   4
  -4  -6   5 213.588  30.030   4
   4   6  -5 170.572  28.828   1
  -4   6   5 163.931  30.100   2
  -2  -6   5 148.563  25.472   4
   2  -6  -5 166.052  27.309   4
   2   6  -5 244.769  32.069   1
  -2   6   5 155.296  29.720   2
  -2   6   5 171.974  24.578   1
   0  -6   5 119.643  22.470   3
   0  -6   5 66.7079 18.0495   4
   0  -6  -5 132.091  23.468   4
   0   6   5 82.2157 22.4957   2
   0   6  -5 73.6364 19.6884   1
   0   6   5 74.9948 18.7654   1
   2  -6   5 48.9432 17.7652   3
  -2  -6  -5 31.1777 14.1980   4
   2  -6   5 44.0026 17.0873   4
  -2  -6  -5 49.6586 18.1253   1
  -2   6  -5 41.1706 18.0618   1
   2   6   5 25.7818 17.1595   2
   4  -6   5 56.0435 19.3096   3
   4  -6   5 30.5719 15.9297   4
  -4  -6  -5 29.2850 16.3122   1
  -4   6  -5 67.1807 19.8921   1
   4   6   5 22.8479 15.3266   2
  -6  -6  -5 121.800  28.781   1
   6  -6   5 79.5154 24.5604   3
  -6   6  -5 130.669  28.063   1
   6   6   5 123.416  28.859   2
   8  -6   5 119.761  29.969   3
  -8  -6  -5 98.5195 28.3687   1
   8   6   5 141.083  34.218   2
  -8   6  -5 100.898  27.579   1
  10  -6   5 110.917  34.802   3
 -10   6  -5 43.2130 25.6565   1
   9  -7  -5 61.0345 24.2504   4
   9   7  -5 74.8453 27.6948   1
  -9   7   5 69.3268 26.6153   2
  -7  -7   5  9.4893 15.6209   4
   7  -7  -5 -11.400  13.833   4
  -7   7   5 11.8418 17.0484   2
   7   7  -5  5.1536 14.0396   1
  -5  -7   5 126.798  26.448   4
   5  -7  -5 75.1448 22.4051   4
   5   7  -5 84.0956 24.4287   1
  -5   7   5 49.9913 20.7605   2
  -3  -7   5 19.7995 14.3953   4
   3  -7  -5 12.5953 14.7994   4
  -3   7   5 23.6095 13.5621   1
  -3   7   5 21.7497 17.4161   2
   3   7  -5 13.8834 14.9046   1
   1  -7  -5 82.0447 21.6553   4
  -1  -7   5 18.9594 13.9781   4
   1   7  -5 100.170  23.919   1
  -1   7   5 115.772  24.556   1
  -1   7   5 61.7119 20.7210   2
   1  -7   5 805.540  55.991   4
  -1  -7  -5 899.647  59.354   1
  -1  -7  -5 988.253  58.372   4
  -1   7  -5 954.708  63.657   1
   1   7   5 745.072  62.710   2
  -3  -7  -5 68.2294 19.6355   4
  -3  -7  -5 90.5204 24.6358   1
   3  -7   5 98.5358 24.2200   4
  -3   7  -5 94.6927 25.0380   1
   3   7   5 110.838  27.583   2
   5  -7   5 490.783  48.279   4
  -5  -7  -5 340.382  44.923   1
   5   7   5 436.991  51.720   2
  -5   7  -5 371.001  45.283   1
  -7  -7  -5 93.9487 28.7722   1
  -7   7  -5 52.2016 21.8778   1
   7   7   5 10.5451 18.6108   2
  -9   7  -5  1.8397 19.4276   1
  -8  -8   5 51.5097 22.4095   4
   8  -8  -5 -10.479  17.667   4
  -8   8   5 20.5062 21.1746   2
   8   8  -5 30.8311 22.1099   1
   6  -8  -5 239.682  39.278   4
  -6  -8   5 155.662  31.466   4
  -6   8   5 183.875  36.796   2
   6   8  -5 181.118  34.859   1
  -4  -8   5 13.9472 15.7499   4
   4  -8  -5 19.6965 16.4883   4
   4   8  -5 -0.5805 15.5084   1
  -4   8   5 22.1933 18.4577   2
   2  -8  -5 320.996  41.556   4
  -2  -8   5 296.561  40.019   4
  -2   8   5 307.349  44.542   2
  -2   8   5 389.973  40.530   1
   2   8  -5 283.505  41.501   1
   0  -8  -5 48.5470 19.8023   4
   0  -8   5 40.3232 19.0722   4
   0   8  -5 31.0082 19.0899   1
   0   8   5 38.2549 21.6281   2
   0   8   5 38.7923 18.5773   1
   2  -8   5 221.476  37.225   4
  -2  -8  -5 304.152  41.353   1
  -2  -8  -5 289.997  37.861   4
   2   8   5 255.833  42.221   2
  -2   8  -5 229.608  38.847   1
  -4  -8  -5 37.3361 19.2198   1
   4  -8   5 72.6033 25.3439   4
   4   8   5 28.9763 21.7352   2
  -4   8  -5 109.156  29.069   1
  -6  -8  -5 132.598  33.485   1
  -6   8  -5 123.864  31.659   1
   6   8   5 98.7870 32.0819   2
  -5  -9   5 273.678  43.632   4
   5  -9  -5 266.247  44.226   4
   5   9  -5 338.450  49.860   1
  -5   9   5 268.562  47.529   2
  -3  -9   5 275.552  42.993   4
   3  -9  -5 239.983  41.818   4
   3   9  -5 324.658  48.194   1
  -3   9   5 211.820  41.647   2
  -1  -9   5 86.4124 25.9182   4
   1  -9  -5 134.274  30.510   4
   1   9  -5 82.4029 26.2283   1
  -1   9   5 128.879  32.898   2
  -1   9   5 88.9589 27.5946   1
  -1  -9  -5 66.5589 24.6735   1
   1  -9   5 31.4305 22.3638   4
  -1  -9  -5 57.4529 24.2105   4
  -1   9  -5 95.6995 29.2359   1
   1   9   5 52.3010 25.4759   2
  -3  -9  -5 37.8876 21.1014   1
   3  -9   5 22.3332 21.5585   4
   3   9   5 13.5419 22.3619   2
  -3   9  -5 12.6732 21.0941   1
  14   0  -6 280.305  44.308   3
 -14   0   6 366.794  46.602   2
  12   0  -6 1462.81   83.86   3
 -12   0   6 1438.85   79.25   2
  10   0  -6 2869.07  106.75   4
 -10   0   6 3067.41  117.78   2
  10   0  -6 2803.77  119.86   3
   8   0  -6 1320.49   59.25   4
   8   0  -6 1179.34   63.36   3
  -8   0   6 1265.30   61.19   2
   6   0  -6 2032.54   82.84   3
  -6   0   6 2036.10   77.78   2
   6   0  -6 2051.70   78.63   4
   4   0  -6 2086.38   78.52   4
  -4   0   6 2158.76   83.78   3
  -4   0   6 2046.35   75.75   2
   4   0  -6 2307.70   83.74   3
   4   0  -6 2199.16   67.85   1
  -2   0   6 3177.19  110.31   3
   2   0  -6 3257.59  105.09   4
   2   0  -6 3058.52  101.56   1
  -2   0   6 3339.33  102.18   2
   0   0  -6 1222.90   51.77   1
   0   0  -6 1268.37   49.52   4
   0   0   6 1298.26   49.85   2
   0   0   6 1307.28   57.76   3
  -2   0  -6 4590.40  152.78   1
  -2   0  -6 4580.48  135.05   4
   2   0   6 4556.88  140.40   2
   2   0   6 4576.95  152.94   3
  -4   0  -6 1355.89   64.41   1
   4   0   6 1423.44   67.37   3
   4   0   6 1293.44   55.86   2
  -6   0  -6 3136.85  125.29   1
   6   0   6 3341.81  114.91   2
   6   0   6 3089.28  124.92   3
   8   0   6 1462.93   71.58   2
  -8   0  -6 1604.50   81.56   1
   8   0   6 1424.99   78.46   3
 -10   0  -6 969.916  67.125   1
  10   0   6 1053.48   70.62   3
  10   0   6 1056.12   64.53   2
 -12   0  -6 591.272  54.876   2
  12   0   6 480.631  58.896   3
 -12   0  -6 620.433  59.113   1
  13  -1  -6 1227.56   79.11   3
 -13  -1   6 1312.42   77.12   2
 -13   1   6 1198.86   75.09   2
  13   1  -6 1169.51   77.25   3
  11  -1  -6 941.846  61.606   3
 -11  -1   6 948.197  58.051   2
  11   1  -6 747.598  56.180   3
 -11   1   6 940.244  58.806   2
   9  -1  -6 1696.14   72.78   4
   9  -1  -6 1588.79   78.87   3
  -9  -1   6 1709.52   75.11   2
  -9   1   6 1599.08   75.96   2
   9   1  -6 1657.13   70.36   4
   9   1  -6 1518.41   77.89   3
  -7  -1   6 1212.26   55.37   2
   7  -1  -6 1243.88   57.38   4
   7  -1  -6 1281.23   61.81   3
  -7   1   6 1223.03   59.16   2
   7   1  -6 1203.54   61.02   3
   7   1  -6 1160.16   54.67   4
   5  -1  -6 3116.98  107.35   4
  -5  -1   6 3193.41  103.07   2
   5  -1  -6 3116.54  110.21   3
   5   1  -6 3212.74   99.23   1
   5   1  -6 3113.70  106.27   4
   5   1  -6 2893.64  111.09   3
  -5   1   6 3135.96  108.77   2
   3  -1  -6 2544.76   90.68   4
   3  -1  -6 2615.49   81.80   1
  -3  -1   6 2597.64   83.57   2
  -3   1   6 2604.60   92.95   3
   3   1  -6 2695.96   88.34   1
   3   1  -6 2604.11   90.62   4
  -3   1   6 2743.59   92.13   2
   1  -1  -6 4007.46  121.12   1
  -1  -1   6 3800.42  111.81   2
  -1  -1   6 3637.19  128.51   3
   1  -1  -6 3883.68  119.36   4
  -1   1   6 3613.72  122.39   2
   1   1  -6 3800.31  123.20   1
  -1   1   6 3766.09  124.27   3
   1   1  -6 3540.79  118.08   4
  -1  -1  -6 3596.65  119.13   1
   1  -1   6 3575.90  103.61   2
   1  -1   6 3590.55  125.30   3
  -1  -1  -6 3440.97  108.13   4
  -1   1  -6 3442.36  109.37   4
   1   1   6 3478.76  119.35   3
   1   1   6 3581.74  117.35   2
  -1   1  -6 3184.16  117.55   1
   3  -1   6 2172.95   73.15   2
   3  -1   6 2209.45   90.92   3
  -3  -1  -6 2256.52   87.30   1
  -3  -1  -6 2128.55   69.74   4
   3   1   6 2218.06   86.51   3
  -3   1  -6 2103.05   86.03   1
   3   1   6 2143.50   82.17   2
  -3   1  -6 2139.93   72.73   4
   5  -1   6 1902.58   87.63   3
  -5  -1  -6 1798.55   83.02   1
   5  -1   6 1902.81   72.13   2
   5   1   6 1906.97   78.94   2
  -5   1  -6 1968.79   85.48   1
   5   1   6 1954.33   83.87   3
  -7  -1  -6 881.761  55.771   1
   7  -1   6 829.101  46.040   2
   7  -1   6 789.189  56.184   3
  -7   1  -6 826.923  54.007   1
   7   1   6 838.537  54.048   3
   7   1   6 835.561  50.921   2
   9  -1   6 1449.14   84.55   3
  -9  -1  -6 1497.20   82.16   1
   9   1   6 1531.00   82.57   3
   9   1   6 1605.66   79.63   2
  -9   1  -6 1396.76   73.23   2
  -9   1  -6 1513.66   82.13   1
 -11  -1  -6 647.884  59.659   1
  11  -1   6 600.159  61.999   3
  11   1   6 852.035  68.001   3
 -11   1  -6 808.172  61.045   1
  11   1   6 767.203  57.979   2
 -14  -2   6 846.829  65.223   2
  14  -2  -6 958.139  72.609   3
 -12  -2   6 818.552  55.508   2
  12  -2  -6 573.135  54.397   3
  12   2  -6 662.941  57.236   3
 -12   2   6 599.421  53.963   2
  10  -2  -6 676.261  49.992   3
 -10  -2   6 708.911  47.401   2
  10  -2  -6 698.058  45.188   4
 -10   2   6 649.738  48.392   2
  10   2  -6 690.050  43.176   4
  10   2  -6 769.505  52.420   3
   8  -2  -6 1410.38   65.46   4
   8  -2  -6 1391.03   68.98   3
  -8  -2   6 1388.18   63.74   2
  -8   2   6 1390.87   69.74   2
   8   2  -6 1410.81   63.70   4
   8   2  -6 1512.92   72.13   3
   6  -2  -6 1495.14   65.08   3
   6  -2  -6 1457.28   64.21   4
  -6  -2   6 1412.63   58.51   2
   6   2  -6 1474.29   63.67   4
   6   2  -6 1453.13   58.78   1
   6   2  -6 1536.81   69.14   3
  -6   2   6 1454.85   67.08   2
   4  -2  -6 3631.81  100.50   1
  -4  -2   6 3201.30  103.07   2
   4  -2  -6 3586.86  113.52   3
  -4  -2   6 3392.48  118.94   3
   4  -2  -6 3267.36  113.23   4
   4   2  -6 2998.95  110.24   1
   4   2  -6 3298.18  112.77   4
  -4   2   6 3249.80  115.68   2
   2  -2  -6 4581.12  140.32   1
  -2  -2   6 4458.25  127.98   2
  -2  -2   6 4521.04  151.54   3
   2  -2  -6 4472.09  142.47   4
  -2   2   6 4612.71  142.44   3
   2   2  -6 4543.30  147.69   1
   2   2  -6 4518.18  142.83   4
  -2   2   6 4537.01  148.43   2
   0  -2  -6 4627.33  147.00   1
   0  -2   6 4474.54  153.48   3
   0  -2  -6 4469.29  139.70   4
   0   2  -6 4583.89  141.40   4
   0   2  -6 4664.74  150.47   1
   0   2   6 4548.84  143.67   3
   0   2   6 4386.09  149.72   2
  -2  -2  -6 1370.14   50.90   4
   2  -2   6 1229.00   64.09   3
  -2  -2  -6 1179.17   58.35   1
   2   2   6 1379.34   58.11   3
  -2   2  -6 1363.94   61.29   1
   2   2   6 1341.54   62.46   2
  -2   2  -6 1360.52   54.71   4
  -2   2  -6 1389.01   44.36   2
  -4  -2  -6 1764.73   78.57   1
   4  -2   6 1868.79   66.70   4
   4  -2   6 1634.79   80.92   3
   4   2   6 1723.93   76.88   2
   4   2   6 1761.24   74.08   3
  -4   2  -6 1770.12   63.43   2
  -4   2  -6 1776.06   78.97   1
   6  -2   6 713.368  53.343   3
  -6  -2  -6 844.163  52.884   1
  -6   2  -6 866.337  53.269   1
   6   2   6 790.357  50.205   2
  -6   2  -6 845.397  42.591   2
   6   2   6 790.835  49.512   3
   8  -2   6 972.985  66.516   3
  -8  -2  -6 914.233  60.764   1
  -8   2  -6 903.111  59.991   1
   8   2   6 920.377  59.832   2
   8   2   6 984.575  59.378   3
  10  -2   6 764.010  66.644   3
 -10  -2  -6 713.167  57.775   1
  10   2   6 692.874  57.882   3
 -10   2  -6 712.009  57.386   1
  10   2   6 822.932  59.751   2
 -12  -2  -6 879.529  69.939   1
 -12   2  -6 914.724  69.032   1
  12   2   6 1053.74   74.77   3
  12   2   6 805.530  68.346   2
  13  -3  -6 537.482  55.658   3
 -13  -3   6 540.881  51.710   2
  13   3  -6 633.747  57.231   3
 -13   3   6 564.099  56.357   2
  11  -3  -6 1269.93   74.28   3
 -11  -3   6 1439.74   72.81   2
  11  -3  -6 1341.30   69.50   4
 -11   3   6 1252.20   74.52   2
  11   3  -6 1199.63   72.40   3
   9  -3  -6 636.651  45.650   3
  -9  -3   6 615.253  41.745   2
   9  -3  -6 618.630  43.857   4
   9   3  -6 718.101  43.320   4
   9   3  -6 759.136  50.742   3
  -9   3   6 660.632  48.176   2
   7  -3  -6 4045.67  142.63   3
  -7  -3   6 3927.86  135.46   2
   7  -3  -6 4203.21  144.66   4
   7   3  -6 4265.91  142.70   1
   7   3  -6 4409.55  150.50   3
  -7   3   6 4165.21  149.97   2
   7   3  -6 4072.56  139.78   4
  -5  -3   6 1615.66   71.71   3
   5  -3  -6 1486.79   67.60   4
  -5  -3   6 1572.97   58.11   2
   5  -3  -6 1469.36   63.35   3
   5   3  -6 1671.75   68.17   4
   5   3  -6 1559.61   66.32   1
  -5   3   6 1601.82   72.13   2
  -3  -3   6 2147.40   89.14   3
   3  -3  -6 2275.93   77.41   1
   3  -3  -6 2193.17   85.48   4
   3   3  -6 2285.28   86.42   1
   3   3  -6 2290.97   85.92   4
  -3   3   6 2245.14   79.58   3
  -1  -3   6 1298.35   63.78   3
   1  -3  -6 1334.53   57.21   4
   1  -3  -6 1313.90   55.55   1
  -1   3   6 1415.25   54.10   3
   1   3  -6 1362.72   58.90   4
   1   3  -6 1329.93   61.21   1
  -1   3   6 1278.77   63.61   2
  -1  -3  -6 1906.21   70.36   4
   1  -3   6 1888.78   83.17   3
  -1  -3  -6 1938.43   77.76   1
   1   3   6 1832.06   68.27   3
  -1   3  -6 1793.07   72.60   4
   1   3   6 1960.21   82.57   2
  -1   3  -6 1859.73   79.24   1
   3  -3   6 2535.77   91.03   4
  -3  -3  -6 2597.26   85.01   4
  -3  -3  -6 2598.67  101.38   1
   3   3   6 2452.55  102.71   2
  -3   3  -6 2362.48   99.72   1
   3   3   6 2450.34   89.48   3
  -5  -3  -6 1024.03   59.33   1
   5  -3   6 1037.11   63.66   3
   5   3   6 1088.54   53.82   3
  -5   3  -6 1018.30   59.44   1
   5   3   6 1026.28   60.57   2
  -7  -3  -6 1946.92   98.02   1
   7  -3   6 2068.37  103.45   3
  -7   3  -6 2012.15   97.68   1
   7   3   6 2403.96   94.11   3
   7   3   6 2177.43  100.71   2
   9  -3   6 684.052  60.591   3
  -9  -3  -6 563.687  53.792   1
   9   3   6 636.468  56.532   2
  -9   3  -6 602.452  52.792   1
  11  -3   6 749.295  71.378   3
 -11  -3  -6 903.343  69.272   1
 -11   3  -6 895.041  67.789   1
  11   3   6 729.397  65.525   2
 -12  -4   6 798.726  57.005   2
  12  -4  -6 829.979  61.592   3
 -12   4   6 657.524  60.444   2
  12   4  -6 772.573  59.152   3
  10  -4  -6 1509.10   79.31   3
 -10  -4   6 1508.82   75.82   2
  10  -4  -6 1725.92   81.48   4
  10   4  -6 1664.00   84.11   3
   8  -4  -6 2984.67  113.04   3
   8  -4  -6 2828.06  114.70   4
  -8  -4   6 2834.71  106.96   2
   8   4  -6 2899.01  111.25   4
   8   4  -6 2967.90  119.22   3
  -8   4   6 2944.27  121.06   2
   6  -4  -6 1600.27   68.32   3
  -6  -4   6 1816.33   78.63   3
   6  -4  -6 1604.28   75.94   4
   6   4  -6 1600.01   74.44   1
  -6   4   6 1594.93   78.56   2
   6   4  -6 1720.39   74.69   4
  -4  -4   6 1263.47   62.70   3
   4  -4  -6 1225.81   52.13   3
   4  -4  -6 1214.06   60.98   4
   4   4  -6 1185.82   59.97   1
  -4   4   6 1271.19   65.77   2
   4   4  -6 1288.23   61.24   4
   2  -4  -6 817.710  42.304   1
   2  -4  -6 816.818  46.607   4
  -2  -4   6 860.691  49.959   3
  -2   4   6 897.749  53.255   2
   2   4  -6 868.211  47.401   4
   2   4  -6 844.343  48.272   1
   0  -4  -6 1245.13   57.71   4
   0  -4   6 1218.88   64.37   3
   0  -4  -6 1356.21   60.99   1
   0   4   6 1219.89   65.78   2
   0   4  -6 1294.64   64.19   1
   0   4  -6 1327.65   61.73   4
   2  -4   6 748.224  43.648   4
  -2  -4  -6 710.564  39.289   4
   2  -4   6 756.093  49.226   3
  -2  -4  -6 684.466  44.797   1
  -2   4  -6 817.850  48.987   1
   2   4   6 741.580  50.783   2
  -4  -4  -6 3307.25  133.56   1
   4  -4   6 3535.33  122.90   4
   4  -4   6 3376.30  135.45   3
   4   4   6 3286.07  134.52   2
  -4   4  -6 3571.05  135.04   1
  -6  -4  -6 2000.90   99.76   1
   6  -4   6 2092.77  103.24   3
   6   4   6 2338.16  106.96   2
  -6   4  -6 2274.73  101.63   1
  -8  -4  -6 1298.22   79.41   1
   8  -4   6 1234.83   80.37   3
  -8   4  -6 1411.20   78.62   1
   8   4   6 1254.23   79.28   2
 -10  -4  -6 535.282  56.467   1
  10  -4   6 819.880  71.075   3
  10   4   6 588.321  61.485   2
 -10   4  -6 712.468  61.226   1
  11  -5  -6 858.487  60.582   4
  11   5  -6 834.600  60.540   3
 -11   5   6 807.859  62.060   2
   9  -5  -6 1236.95   70.74   4
  -9  -5   6 1418.35   74.28   3
   9   5  -6 1163.27   64.88   4
  -9   5   6 1091.56   70.72   2
  -7  -5   6 647.200  46.720   3
   7  -5  -6 629.668  47.920   4
  -7   5   6 758.728  54.675   2
   7   5  -6 886.498  52.032   4
   7   5  -6 835.359  52.723   1
   5  -5  -6 2057.67   93.68   4
  -5  -5   6 2188.41   92.75   3
   5   5  -6 2229.21   93.34   4
  -5   5   6 2241.42  100.59   2
   5   5  -6 2200.83   95.89   1
  -3  -5   6 1038.32   58.16   3
   3  -5  -6 1131.02   60.28   4
   3   5  -6 1057.68   59.62   1
   3   5  -6 1112.38   59.39   4
  -3   5   6 1117.97   52.99   1
  -3   5   6 1055.30   63.15   2
  -1  -5   6 1044.61   57.07   4
   1  -5  -6 1148.31   57.87   4
  -1  -5   6 1006.60   57.40   3
   1  -5  -6 1040.28   55.23   1
  -1   5   6 1092.76   64.09   2
   1   5  -6 1085.86   57.58   4
   1   5  -6 1012.57   59.02   1
  -1  -5  -6 2407.49   92.68   4
   1  -5   6 2475.66   97.17   4
  -1  -5  -6 2337.71   98.66   1
   1  -5   6 2363.03  100.09   3
   1   5   6 2224.81  102.71   2
  -1   5  -6 2229.72  100.89   1
  -3  -5  -6 1598.40   83.61   1
   3  -5   6 1863.86   81.68   4
  -3  -5  -6 1950.31   75.60   4
   3  -5   6 1822.19   87.49   3
   3   5   6 1857.52   92.45   2
  -3   5  -6 1522.89   82.85   1
  -5  -5  -6 1067.14   67.66   1
   5  -5   6 1138.43   69.54   3
   5  -5   6 1124.89   60.93   4
   5   5   6 985.245  67.335   2
  -5   5  -6 995.968  64.072   1
  -7  -5  -6 748.912  59.699   1
   7  -5   6 930.437  65.921   3
   7   5   6 847.820  65.205   2
  -7   5  -6 813.696  59.433   1
   9  -5   6 970.474  72.809   3
  -9  -5  -6 924.153  70.973   1
   9   5   6 855.836  73.828   2
  -9   5  -6 849.825  65.243   1
  10  -6  -6 630.392  56.722   4
 -10   6   6 809.990  65.800   2
   8  -6  -6 303.745  40.053   4
   8   6  -6 407.051  43.109   1
  -8   6   6 343.295  44.537   2
   8   6  -6 453.962  42.384   4
   6  -6  -6 849.356  58.969   4
   6   6  -6 875.881  59.565   1
  -6   6   6 923.495  63.008   2
   6   6  -6 939.971  57.453   4
  -4  -6   6 1009.78   60.62   4
   4  -6  -6 1103.90   65.03   4
  -4   6   6 1103.13   68.67   2
   4   6  -6 1122.59   65.71   1
  -2  -6   6 3255.33  124.49   3
   2  -6  -6 3289.65  127.88   4
  -2  -6   6 3211.16  126.76   4
  -2   6   6 3446.32  125.78   1
  -2   6   6 3261.70  137.14   2
   2   6  -6 3175.51  132.71   1
   0  -6   6 1269.02   68.76   4
   0  -6  -6 1343.78   68.13   4
   0  -6   6 1310.84   68.79   3
   0  -6  -6 1327.95   69.92   1
   0   6   6 1225.10   74.04   2
   0   6  -6 1446.17   75.65   1
   2  -6   6 1905.13   89.92   4
  -2  -6  -6 2200.14   88.41   4
   2  -6   6 2049.09   92.58   3
  -2  -6  -6 1922.62   93.60   1
  -2   6  -6 1929.15   96.29   1
   2   6   6 1877.16   98.14   2
   4  -6   6 477.687  47.318   3
   4  -6   6 524.153  45.923   4
  -4  -6  -6 550.615  51.090   1
   4   6   6 550.542  53.588   2
  -4   6  -6 467.212  46.473   1
  -6  -6  -6 647.747  58.848   1
   6  -6   6 821.679  60.847   3
  -6   6  -6 611.317  56.061   1
   6   6   6 771.081  66.162   2
  -8  -6  -6 203.270  39.171   1
   8  -6   6 208.913  39.131   3
   8   6   6 173.051  38.258   2
  -8   6  -6 271.687  42.198   1
   9  -7  -6 878.587  65.564   4
  -9   7   6 801.290  68.592   2
  -7  -7   6 527.399  49.357   4
   7  -7  -6 431.619  49.248   4
  -7   7   6 606.684  58.248   2
   7   7  -6 534.411  52.080   1
   5  -7  -6 1206.30   74.82   4
  -5  -7   6 1330.64   74.12   4
   5   7  -6 1366.47   79.58   1
  -5   7   6 1273.03   80.10   2
   3  -7  -6 866.044  59.110   4
  -3  -7   6 833.947  57.469   4
  -3   7   6 940.563  66.050   2
   3   7  -6 772.666  58.502   1
  -1  -7   6 1195.36   70.05   4
   1  -7  -6 1219.46   68.53   1
   1  -7  -6 1124.61   67.64   4
  -1   7   6 1227.30   75.65   2
   1   7  -6 1205.41   73.57   1
   1  -7   6 1242.29   71.16   4
  -1  -7  -6 1209.03   71.97   1
  -1  -7  -6 1310.09   69.88   4
  -1   7  -6 1212.58   74.70   1
   1   7   6 1038.36   72.81   2
   3  -7   6 697.211  56.685   4
  -3  -7  -6 703.567  55.865   1
   3   7   6 723.418  63.673   2
  -3   7  -6 823.217  60.300   1
  -5  -7  -6 663.186  61.075   1
   5  -7   6 756.909  59.883   4
  -5   7  -6 942.862  66.572   1
   5   7   6 756.786  67.902   2
  -7  -7  -6 410.924  53.461   1
  -7   7  -6 463.337  52.537   1
   7   7   6 311.540  50.352   2
  -8  -8   6 1131.07   74.46   4
   8  -8  -6 1139.00   79.92   4
   8   8  -6 1176.00   80.72   1
  -8   8   6 1049.95   79.25   2
   6  -8  -6 708.791  63.372   4
  -6  -8   6 646.361  58.144   4
   6   8  -6 680.400  62.566   1
  -6   8   6 725.625  66.751   2
  -4  -8   6 653.068  58.308   4
   4  -8  -6 799.891  63.984   4
   4   8  -6 662.284  60.992   1
  -4   8   6 784.373  67.972   2
  -2  -8   6 434.424  47.375   4
   2  -8  -6 560.417  52.264   4
  -2   8   6 413.192  51.096   2
   2   8  -6 503.865  52.879   1
   0  -8  -6 548.902  51.181   1
   0  -8   6 580.284  54.048   4
   0  -8  -6 587.666  53.131   4
   0   8   6 626.703  59.357   2
   0   8  -6 517.388  53.163   1
   2  -8   6 515.157  52.288   4
  -2  -8  -6 455.546  49.262   1
  -2  -8  -6 360.199  42.114   4
  -2   8  -6 469.736  53.002   1
   2   8   6 344.781  48.844   2
   4  -8   6 787.766  64.957   4
  -4  -8  -6 804.729  65.338   1
   4   8   6 952.359  72.847   2
  -4   8  -6 997.651  71.665   1
  -5   9   6 363.678  54.186   2
   5   9  -6 394.208  53.403   1
  -3  -9   6 637.008  60.536   4
   3  -9  -6 754.881  65.299   4
  -3   9   6 654.711  65.826   2
   3   9  -6 709.713  66.398   1
  -1  -9   6 720.037  63.399   4
   1  -9  -6 580.570  57.594   4
  -1   9   6 618.733  62.326   2
   1   9  -6 579.439  61.894   1
  -1  -9  -6 428.004  50.843   1
   1  -9   6 434.952  52.710   4
  -1  -9  -6 480.339  52.259   4
   1   9   6 405.822  54.406   2
  -1   9  -6 382.316  52.315   1
   3  -9   6 540.210  57.808   4
  14   0  -7 -19.560  14.357   3
 -14   0   7  2.4788 16.0314   2
  12   0  -7  4.9721 14.5635   3
 -12   0   7 -3.2872 13.0373   2
  10   0  -7  2.4701 10.1740   4
  10   0  -7  4.8190 10.9188   3
 -10   0   7  8.3170 10.2844   2
   8   0  -7 3.53850 7.95633   4
  -8   0   7 1.63327 7.66295   2
   8   0  -7 -1.2334  8.0549   3
   6   0  -7 -2.4282  6.6104   3
   6   0  -7 -8.3213  5.4372   4
  -6   0   7 9.50760 6.97379   2
   4   0  -7 1.62689 4.24226   1
  -4   0   7 3.71677 5.58275   2
  -4   0   7 2.46996 6.63135   3
   4   0  -7 -2.9930  5.4711   4
  -2   0   7 5.83053 7.32890   3
   2   0  -7 -0.5399  4.7533   1
   2   0  -7 8.29628 6.30776   4
  -2   0   7 -2.2158  4.9515   2
   0   0  -7 7.40566 6.24048   1
   0   0  -7 -2.1044  5.0373   4
   0   0   7 3.39363 5.68148   2
   0   0   7 2.18306 7.94294   3
  -2   0  -7 5.18846 7.15497   1
   2   0   7 2.99485 8.42112   3
   2   0   7 1.72535 5.93941   2
  -2   0  -7 4.86437 5.30513   4
  -4   0  -7 1.63420 8.24730   1
   4   0   7 -4.4143  7.5116   3
   4   0   7 -3.8093  6.0402   2
  -6   0  -7  4.7569 10.3620   1
   6   0   7  8.2979 11.5952   3
   6   0   7 -3.4517  7.5935   2
   8   0   7  3.4080 10.2613   2
  -8   0  -7 -12.060   9.697   1
   8   0   7 -9.4354 12.8772   3
 -10   0  -7 16.6091 19.1237   1
  10   0   7 -15.237  14.585   3
  10   0   7  1.2623 14.8367   2
 -13  -1   7 145.574  30.692   2
  13  -1  -7 140.243  32.772   3
  13   1  -7 134.408  30.360   3
 -13   1   7 121.436  28.475   2
 -11  -1   7 -3.9222 10.2425   2
  11  -1  -7 -3.5690 12.1358   3
  11  -1  -7  3.7699 11.0846   4
 -11   1   7 -8.3258  9.6578   2
  11   1  -7 -3.0805 10.9277   3
  -9  -1   7 10.3165 10.4953   2
   9  -1  -7 14.7369 11.6970   4
   9  -1  -7 12.6865 10.9783   3
  -9   1   7 28.1104 13.7775   2
   9   1  -7 21.1453 10.6164   4
   9   1  -7 25.7095 13.4458   3
   7  -1  -7 211.629  26.805   3
  -7  -1   7 220.548  22.965   2
   7  -1  -7 193.034  24.639   4
  -7   1   7 220.267  25.994   2
   7   1  -7 190.095  26.889   3
   7   1  -7 184.847  23.263   4
  -5  -1   7 15.3137  8.2654   2
   5  -1  -7 32.2319 12.1641   3
  -5  -1   7 36.0835 12.8349   3
   5  -1  -7 36.7401 11.3385   4
   5   1  -7 52.1606 12.8429   4
   5   1  -7 17.7171  6.5815   1
  -5   1   7 61.1256 14.3396   2
   3  -1  -7 500.869  31.689   4
  -3  -1   7 458.155  33.703   3
  -3  -1   7 536.765  26.521   2
   3  -1  -7 514.037  24.490   1
   3   1  -7 469.687  27.402   1
  -3   1   7 567.260  32.959   2
  -3   1   7 508.476  33.478   3
   3   1  -7 518.826  32.002   4
   1  -1  -7 548.737  31.468   4
  -1  -1   7 486.200  35.748   3
  -1  -1   7 581.344  26.610   2
   1  -1  -7 534.792  29.679   1
   1   1  -7 610.588  32.606   1
  -1   1   7 544.583  34.798   3
   1   1  -7 522.503  31.541   4
  -1   1   7 456.263  31.638   2
   1  -1   7 223.204  15.009   2
   1  -1   7 228.623  28.049   3
  -1  -1  -7 206.036  21.732   1
  -1  -1  -7 184.449  18.037   4
  -1   1  -7 257.706  21.134   4
  -1   1  -7 220.053  22.608   1
   1   1   7 254.717  24.097   2
   1   1   7 243.756  26.132   3
  -3  -1  -7 13.1387  6.6054   4
  -3  -1  -7 21.1532 10.4990   1
   3  -1   7 18.4136 11.2518   3
   3  -1   7 23.4506  8.0463   2
   3   1   7 10.5022  8.9841   3
   3   1   7 32.9238 11.7120   2
  -3   1  -7 -6.3002  6.4720   1
  -3   1  -7 33.7767  9.2560   4
   5  -1   7 126.402  25.222   3
   5  -1   7 130.975  17.387   2
  -5  -1  -7 79.8966 19.3741   1
   5   1   7 142.644  25.445   3
   5   1   7 169.884  23.729   2
  -5   1  -7 107.979  21.793   1
   7  -1   7 13.7161 12.9587   3
  -7  -1  -7 12.0075 12.6412   1
   7   1   7 16.3104 13.1969   3
   7   1   7  4.0242 11.5687   2
  -7   1  -7 -1.5577 11.6667   1
  -9  -1  -7 34.2233 17.3867   1
   9  -1   7 12.7574 15.7910   3
   9   1   7 67.3766 22.7873   3
   9   1   7 14.4333 15.5841   2
  -9   1  -7 63.3705 22.5113   1
 -11  -1  -7 69.9900 26.3663   1
  11  -1   7 48.2902 24.6077   3
 -11   1  -7 43.6661 25.0130   1
  11   1   7 110.375  29.009   2
  11   1   7 90.8956 29.0720   3
  14  -2  -7 19.4732 20.4614   3
 -14  -2   7  0.4787 17.2988   2
  12  -2  -7 13.3724 16.6716   3
 -12  -2   7 20.9712 15.9504   2
  12   2  -7 -0.9697 14.3754   3
 -12   2   7 13.5064 17.5074   2
  10  -2  -7 -6.1369 11.3403   3
 -10  -2   7  9.2562 10.9412   2
  10  -2  -7 16.3131 11.9235   4
  10   2  -7  3.8020 11.1784   4
  10   2  -7  0.3871 10.9894   3
 -10   2   7 -13.595  10.284   2
   8  -2  -7 25.8947 11.8693   4
   8  -2  -7 46.0882 15.2167   3
  -8  -2   7 41.3609 12.4076   2
  -8   2   7 52.6195 16.1659   2
   8   2  -7 24.4216 12.5333   3
   8   2  -7 26.2435 12.1398   4
   6  -2  -7 24.5567 11.1999   3
  -6  -2   7 34.8112 10.0553   2
   6  -2  -7 21.2529  9.5649   4
  -6  -2   7 24.7628 12.7129   3
   6   2  -7 6.74425 8.50096   4
  -6   2   7 37.3009 13.3909   2
  -4  -2   7 36.5041  8.4681   2
  -4  -2   7 37.7602 13.3279   3
   4  -2  -7 41.6212 12.2447   4
   4   2  -7 14.7210  7.4289   1
  -4   2   7 20.7789 10.8934   2
  -4   2   7 34.6594 11.2829   3
   4   2  -7 47.9236 13.3144   4
   2  -2  -7 117.882  13.419   1
   2  -2  -7 131.856  18.108   4
  -2  -2   7 107.008  20.026   3
   2   2  -7 114.135  17.624   4
  -2   2   7 116.725  17.294   3
   2   2  -7 132.046  17.561   1
  -2   2   7 149.401  21.074   2
   0  -2   7 73.3789 17.6530   3
   0  -2  -7 43.5375 10.8791   1
   0  -2  -7 45.9389 11.4852   4
   0   2  -7 32.7322 10.3829   4
   0   2   7 27.1764 10.9907   2
   0   2   7 38.7476 11.7955   3
   0   2  -7 34.2847 11.3944   1
   2  -2   7 167.646  27.063   3
  -2  -2  -7 173.061  16.938   4
  -2  -2  -7 167.459  21.329   1
  -2   2  -7 138.782  20.852   1
  -2   2  -7 145.919  18.001   4
   2   2   7 169.063  21.650   3
   2   2   7 142.098  22.322   2
   4  -2   7 62.5412 19.1845   3
  -4  -2  -7 65.9565 16.8852   1
   4   2   7 61.2024 16.5422   2
  -4   2  -7 83.0084 18.4629   1
   4   2   7 38.7296 13.6777   3
   6  -2   7 215.183  34.467   3
  -6  -2  -7 248.746  33.176   1
   6   2   7 211.681  29.145   3
   6   2   7 193.094  29.251   2
  -6   2  -7 193.423  29.796   1
   8  -2   7  3.6996 12.9041   3
  -8  -2  -7  3.4187 11.9281   1
  -8   2  -7 -5.9192 11.6228   1
   8   2   7 15.4931 15.2156   2
   8   2   7  3.1757 12.5563   3
  10  -2   7  8.6292 18.1162   3
 -10  -2  -7  5.5283 18.6229   1
 -10   2  -7  9.1129 18.8278   1
  10   2   7 16.8165 18.1375   2
  10   2   7  9.8255 16.0320   3
 -13  -3   7  0.4190 17.5617   2
  13  -3  -7 -8.9944 16.0145   3
  13   3  -7 -0.1186 16.7176   3
 -13   3   7 -2.1894 16.3609   2
  11  -3  -7 -5.8249 12.8792   3
  11  -3  -7 10.0289 13.9310   4
 -11  -3   7 -0.8088 12.2219   2
 -11   3   7 -0.3921 12.9791   2
  11   3  -7  7.8012 13.2969   3
  -9  -3   7 42.4929 14.4497   2
   9  -3  -7 18.2517 13.0756   4
   9  -3  -7 17.3097 13.1749   3
  -9   3   7  9.0334 12.8025   2
   9   3  -7 20.5546 13.6902   3
   9   3  -7  8.7604 10.5154   4
   7  -3  -7 351.925  34.188   4
  -7  -3   7 420.319  28.909   2
  -7  -3   7 390.334  38.777   3
   7  -3  -7 442.722  33.895   3
  -7   3   7 395.690  37.963   2
   7   3  -7 323.084  31.922   4
   5  -3  -7 495.984  32.883   3
  -5  -3   7 551.765  39.505   3
   5  -3  -7 383.159  34.391   4
   5   3  -7 469.518  32.283   1
  -5   3   7 506.246  38.322   2
   5   3  -7 478.894  34.738   4
  -3  -3   7 42.5472 14.9636   3
   3  -3  -7 71.5113 15.5997   4
   3  -3  -7 72.8097 11.6929   1
  -3   3   7 56.5990 12.6252   3
   3   3  -7 57.9552 14.1766   1
   3   3  -7 94.5300 17.2669   4
  -3   3   7 80.1329 17.9351   2
   1  -3  -7 -2.1348  6.0334   1
   1  -3  -7 15.4177  8.9728   4
  -1  -3   7 4.69267 9.80825   3
  -1   3   7 8.42013 7.62969   3
  -1   3   7 7.84565 9.73065   2
   1   3  -7 6.62298 7.76958   1
   1   3  -7 2.45126 6.46341   4
  -1  -3  -7 51.9135 13.6259   1
  -1  -3  -7 62.4960 13.2847   4
   1  -3   7 76.8016 19.9587   3
   1   3   7 64.4448 17.0382   2
  -1   3  -7 62.4142 13.9213   4
   1   3   7 61.3053 13.5410   3
  -1   3  -7 67.4196 15.9413   1
   3  -3   7 89.8632 22.1898   3
  -3  -3  -7 60.4102 16.2621   1
   3   3   7 53.4516 17.2941   2
  -3   3  -7 86.6778 16.7748   4
   3   3   7 43.3081 13.1744   3
  -3   3  -7 80.2044 18.0005   1
  -5  -3  -7 17.6768 12.3734   1
   5  -3   7 41.2565 18.5930   3
  -5   3  -7 35.7411 14.9813   1
   5   3   7 54.0001 19.3192   2
   5   3   7 38.3295 14.1214   3
  -7  -3  -7 109.318  25.035   1
   7  -3   7 41.5009 19.2689   3
   7   3   7 101.786  25.521   2
  -7   3  -7 86.6463 22.6490   1
  -9  -3  -7 174.464  34.254   1
   9  -3   7 192.805  37.786   3
  -9   3  -7 133.019  30.813   1
   9   3   7 106.616  28.376   2
 -11   3  -7 83.3191 28.0386   1
  11   3   7 54.7985 27.6887   2
  12  -4  -7 -2.0045 16.8485   3
 -12   4   7 -7.1037 15.2263   2
  12   4  -7 -10.995  13.262   3
  10  -4  -7 195.428  31.278   4
  10  -4  -7 139.483  26.822   3
  10   4  -7 136.384  29.283   3
  10   4  -7 93.0628 21.4742   4
 -10   4   7 186.755  32.609   2
   8  -4  -7 60.1169 16.9225   3
  -8  -4   7 73.0947 20.7332   3
   8  -4  -7 53.6127 17.6898   4
  -8   4   7 45.4535 18.2130   2
   8   4  -7 45.6601 15.2811   4
   6  -4  -7 1.51915 9.63601   4
   6  -4  -7 9.17462 9.40179   3
  -6  -4   7 36.2997 15.3639   3
  -6   4   7 16.4028 14.5191   2
   6   4  -7 27.5438 12.9954   4
   6   4  -7 20.7105 12.2088   1
   4  -4  -7 185.710  25.976   4
  -4  -4   7 280.924  32.031   3
   4   4  -7 217.869  25.517   1
   4   4  -7 149.611  23.683   4
  -4   4   7 184.926  28.697   2
   2  -4  -7 9.69704 8.34357   1
   2  -4  -7 14.7318  9.5473   4
  -2  -4   7 37.7740 15.1208   3
  -2   4   7 0.66476 9.89691   2
   2   4  -7 12.9248  9.9564   1
   2   4  -7 12.4279  8.9772   4
   0  -4   7 10.9676 12.5988   3
   0  -4  -7 16.0430 10.2921   4
   0  -4  -7 12.5613  9.4960   1
   0   4   7 15.6781 12.6159   2
   0   4  -7 31.9584 12.4988   4
   0   4  -7 0.59799 8.51164   1
  -2  -4  -7 -2.3188  8.2677   1
  -2  -4  -7 0.91288 7.83059   4
   2  -4   7  1.6107 10.2276   3
   2  -4   7 2.48370 8.50534   4
  -2   4  -7 2.18442 7.73798   1
   2   4   7 -10.653   8.929   2
  -2   4  -7 2.64010 9.06676   4
   4  -4   7 494.328  47.393   3
   4  -4   7 425.330  35.053   4
  -4  -4  -7 383.241  39.041   1
   4   4   7 409.817  43.241   2
  -4   4  -7 407.573  40.137   1
   6  -4   7  2.4013 14.1331   3
  -6  -4  -7 30.2831 16.7032   1
  -6   4  -7 18.3687 13.0949   1
   6   4   7 15.3531 15.2739   2
  -8  -4  -7 174.253  35.007   1
   8  -4   7 106.793  32.085   3
   8   4   7 171.589  34.952   2
  -8   4  -7 150.117  31.580   1
 -10  -4  -7  8.2604 18.4466   1
  10  -4   7 -10.807  20.024   3
  10   4   7  9.0733 23.0269   2
 -10   4  -7 29.3539 22.0120   1
  11  -5  -7 196.500  34.462   4
 -11  -5   7 352.264  45.369   3
 -11   5   7 258.663  42.055   2
  -9  -5   7 17.4737 16.3857   3
   9  -5  -7 -7.5567 12.6533   4
   9   5  -7 -7.1667 11.4172   4
  -9   5   7 -20.114  11.051   2
   7  -5  -7 118.115  24.913   4
  -7  -5   7 49.2173 19.3525   3
   7   5  -7 75.5123 20.1723   4
   7   5  -7 57.5584 18.8022   1
  -7   5   7 78.4157 23.5931   2
   5  -5  -7 203.045  30.017   4
  -5  -5   7 187.771  29.474   3
   5   5  -7 179.379  26.959   4
  -5   5   7 141.967  29.293   2
   5   5  -7 204.404  28.234   1
   3  -5  -7 129.713  25.060   4
  -3  -5   7 181.477  28.524   3
   3   5  -7 106.933  21.660   4
  -3   5   7 125.451  26.860   2
   3   5  -7 161.411  25.773   1
  -1  -5   7 -2.0720 11.0705   3
   1  -5  -7 20.8560 11.6905   4
   1  -5  -7 15.4288  9.9315   1
   1   5  -7 -3.3423  8.1213   4
   1   5  -7 10.1690 10.7312   1
  -1   5   7  5.6912 11.5630   2
  -1  -5  -7 522.734  36.632   4
   1  -5   7 443.201  38.507   4
   1  -5   7 436.076  42.131   3
  -1  -5  -7 395.595  37.232   1
  -1   5  -7 408.983  40.608   1
   1   5   7 506.867  46.337   2
   3  -5   7 600.793  42.822   4
  -3  -5  -7 426.041  42.297   1
   3  -5   7 546.844  48.979   3
  -3   5  -7 470.670  44.468   1
   3   5   7 507.654  49.637   2
  -5  -5  -7 41.8081 17.7852   1
   5  -5   7 81.2361 24.8664   3
  -5   5  -7 33.7037 17.2123   1
   5   5   7 54.2844 21.1791   2
  -7  -5  -7 23.7086 18.4684   1
   7  -5   7 45.1305 23.0196   3
   7   5   7 51.7909 23.6444   2
  -7   5  -7 32.8423 19.6037   1
   9  -5   7 -4.7956 18.7193   3
  -9  -5  -7  1.5420 17.6799   1
   9   5   7  9.6024 23.0044   2
  -9   5  -7 -3.5219 16.8705   1
  10  -6  -7 50.9467 24.1714   4
 -10   6   7 95.4924 28.9947   2
   8  -6  -7 10.6249 15.0385   4
  -8   6   7 63.4352 22.7548   2
   8   6  -7 18.7958 14.9098   4
   6  -6  -7 41.6424 17.5525   4
   6   6  -7 41.3386 17.1755   4
   6   6  -7 66.7025 21.6158   1
  -6   6   7 47.8536 20.4902   2
   4  -6  -7 43.0900 18.2711   4
  -4  -6   7 29.4651 16.4755   3
   4   6  -7 101.887  23.228   1
  -4   6   7 69.1256 21.6820   2
   4   6  -7 38.5201 15.9238   4
  -2  -6   7 162.803  28.243   3
   2  -6  -7 136.510  23.473   1
   2  -6  -7 156.397  28.232   4
  -2  -6   7 180.115  28.414   4
  -2   6   7 115.454  28.080   2
   2   6  -7 184.068  30.388   1
   0  -6   7 352.201  38.077   4
   0  -6  -7 338.396  36.257   4
   0  -6   7 328.795  37.519   3
   0  -6  -7 350.241  36.114   1
   0   6  -7 351.764  39.475   1
   0   6   7 293.856  40.187   2
   2  -6   7 70.5627 22.2255   3
  -2  -6  -7 38.0082 16.3917   1
  -2  -6  -7 28.6716 15.8703   4
   2  -6   7 68.1190 19.7886   4
   2   6   7 73.9076 23.8409   2
  -2   6  -7 68.8303 20.6794   1
   4  -6   7 65.5887 21.4029   4
   4  -6   7 109.302  27.298   3
  -4  -6  -7 53.2334 21.1735   1
  -4   6  -7 44.2338 19.6152   1
   4   6   7 16.7354 15.1999   2
  -6  -6  -7 60.1356 23.1362   1
   6  -6   7 68.4401 26.3473   3
  -6   6  -7 75.9160 25.2714   1
   6   6   7 67.1122 27.1260   2
   8  -6   7 33.7923 24.4199   3
  -8  -6  -7  7.4221 18.6186   1
  -8   6  -7 29.4495 21.4287   1
   8   6   7 -1.9867 17.2282   2
   9  -7  -7 176.667  36.266   4
  -9  -7   7 193.627  35.754   4
  -9   7   7 146.289  34.610   2
   7  -7  -7 68.3923 23.6822   4
  -7  -7   7 37.7819 19.7312   4
   7   7  -7 42.7536 21.8082   1
  -7   7   7 48.4920 23.5822   2
   5  -7  -7 682.183  58.634   4
  -5  -7   7 591.259  52.577   4
  -5   7   7 630.878  60.617   2
   5   7  -7 676.957  57.706   1
  -3  -7   7 78.6129 23.6121   4
   3  -7  -7 92.7496 25.3284   4
  -3   7   7 44.3225 22.1175   2
   3   7  -7 112.754  26.607   1
   1  -7  -7 254.577  33.745   1
   1  -7  -7 326.480  39.025   4
  -1  -7   7 298.084  38.683   4
   1   7  -7 246.066  37.361   1
  -1   7   7 233.677  38.504   2
   1  -7   7 18.2654 15.8853   4
  -1  -7  -7 34.5763 17.2064   4
  -1  -7  -7 23.0516 15.2051   1
  -1   7  -7 10.2332 14.9252   1
   1   7   7 29.5652 19.4011   2
   3  -7   7 13.8027 15.1448   4
  -3  -7  -7 -0.1250 12.0450   1
  -3   7  -7 11.4534 15.3998   1
   3   7   7  7.0353 17.4640   2
  -5  -7  -7 -12.216  13.763   1
   5   7   7  4.5812 17.5454   2
  -5   7  -7  6.0948 15.8099   1
  -8  -8   7 71.8200 26.1593   4
   6  -8  -7 123.959  32.846   4
  -6  -8   7 147.235  32.453   4
   6   8  -7 87.5775 27.8678   1
  -6   8   7 90.1390 32.0428   2
  -4  -8   7 24.1301 18.8521   4
   4  -8  -7 39.7217 21.0625   4
   4   8  -7 28.2594 21.3200   1
  -4   8   7 45.3655 21.9028   2
   2  -8  -7 274.149  40.495   4
  -2  -8   7 268.091  39.920   4
   2   8  -7 266.481  41.870   1
  -2   8   7 293.581  44.556   2
   0  -8  -7 59.2225 21.4779   4
   0  -8  -7 91.0073 26.4297   1
   0  -8   7 42.8114 20.7617   4
   0   8   7 50.9420 22.9944   2
   0   8  -7 41.7428 19.9975   1
  -2  -8  -7 151.019  33.169   1
   2  -8   7 194.769  36.415   4
  -2   8  -7 192.589  37.518   1
   2   8   7 188.969  38.819   2
   4  -8   7 14.7968 20.1423   4
  -4  -8  -7 -9.8376 15.6431   1
   4   8   7 12.4162 18.8653   2
  -4   8  -7 -9.7298 17.3129   1
   3   9  -7 -8.3462 15.8364   1
  -3   9   7 53.3627 25.9188   2
   1  -9  -7 60.8532 25.6615   4
  -1   9   7 95.6213 30.7788   2
  -1  -9  -7 281.373  42.585   4
  -1  -9  -7 196.327  37.746   1
 -14   0   8 278.879  41.774   2
  12   0  -8 1178.10   75.86   3
 -12   0   8 1236.69   71.93   2
  10   0  -8 500.504  40.980   4
 -10   0   8 501.656  41.854   2
  10   0  -8 520.756  47.212   3
   8   0  -8 1148.23   63.42   3
  -8   0   8 971.839  55.217   2
   8   0  -8 1095.91   57.55   4
  -6   0   8 895.831  54.579   3
  -6   0   8 1040.42   50.44   2
   6   0  -8 949.882  51.359   4
   4   0  -8 4190.95  138.55   4
  -4   0   8 4164.29  133.28   2
  -4   0   8 3952.96  143.60   3
   2   0  -8 4333.15  142.17   4
  -2   0   8 4447.07  151.97   3
  -2   0   8 4563.22  140.39   2
   2   0  -8 4260.29  141.25   1
   0   0  -8 2652.29   90.62   4
   0   0   8 2672.04   90.38   2
   0   0  -8 2442.32   94.84   1
   0   0   8 2539.14  102.05   3
  -2   0  -8 3092.17  115.18   1
   2   0   8 3090.90  118.71   3
  -2   0  -8 2974.08   99.90   4
   2   0   8 2941.22  101.87   2
   4   0   8 612.469  36.110   2
   4   0   8 586.372  44.868   3
  -4   0  -8 553.807  41.665   1
   6   0   8 1045.86   54.90   2
  -6   0  -8 1120.16   65.88   1
   6   0   8 1071.42   67.26   3
  -8   0  -8 309.910  41.107   1
   8   0   8 335.489  44.008   3
 -10   0  -8 1411.91   86.66   1
 -13  -1   8 794.832  58.811   2
  13  -1  -8 659.471  61.348   3
 -13   1   8 779.601  63.049   2
  13   1  -8 669.999  61.784   3
  11  -1  -8 1160.95   64.77   4
 -11  -1   8 1111.12   64.99   2
  11   1  -8 1083.17   69.99   3
  11   1  -8 1162.54   63.17   4
 -11   1   8 1250.16   71.22   2
  -9  -1   8 1247.27   64.32   2
   9  -1  -8 1326.26   67.45   4
   9  -1  -8 1401.87   73.09   3
  -9   1   8 1342.30   69.58   2
   9   1  -8 1393.14   74.64   3
   9   1  -8 1295.80   65.66   4
   7  -1  -8 1116.27   59.10   4
  -7  -1   8 1060.08   53.67   2
  -7  -1   8 1194.41   65.49   3
   7  -1  -8 1198.04   62.94   3
  -7   1   8 1211.86   61.06   2
   7   1  -8 1246.49   60.65   4
   7   1  -8 1232.88   66.64   3
  -5  -1   8 3369.84  114.37   2
   5  -1  -8 3364.62  122.03   4
  -5  -1   8 3442.61  128.97   3
   5   1  -8 3679.00  123.89   4
  -5   1   8 3569.72  127.64   3
  -5   1   8 3460.14  122.33   2
  -3  -1   8 1071.08   43.89   2
   3  -1  -8 1012.62   50.66   4
   3  -1  -8 1128.46   43.52   1
  -3  -1   8 1014.04   56.50   3
  -3   1   8 1062.53   54.46   3
   3   1  -8 971.563  46.144   1
   3   1  -8 1062.23   51.59   4
  -3   1   8 1061.92   51.26   2
  -1  -1   8 2449.05   79.55   2
   1  -1  -8 2412.36   88.32   4
  -1  -1   8 2524.39  100.35   3
   1  -1  -8 2384.81   88.39   1
   1   1  -8 2472.87   89.24   4
  -1   1   8 2356.96   90.84   2
  -1   1   8 2495.83   95.90   3
   1   1  -8 2319.81   89.74   1
  -1  -1  -8 3079.34  112.02   1
   1  -1   8 3067.24  120.55   3
  -1  -1  -8 3140.09  102.42   4
  -1   1  -8 2915.80  102.19   4
   1   1   8 2985.40  114.24   3
  -1   1  -8 2832.75  111.04   1
   1   1   8 3154.57  109.78   2
   3  -1   8 1927.06   92.92   3
  -3  -1  -8 1970.16   88.05   1
  -3   1  -8 1916.65   73.43   4
   3   1   8 2238.09   84.62   2
   3   1   8 2088.73   89.23   3
  -3   1  -8 2105.59   88.96   1
  -5  -1  -8 798.561  53.783   1
   5  -1   8 909.773  60.939   3
   5   1   8 906.335  51.527   2
   5   1   8 898.339  56.664   3
  -5   1  -8 882.712  55.577   1
  -7  -1  -8 1353.17   76.61   1
   7  -1   8 1461.38   83.54   3
   7   1   8 1337.23   69.96   2
  -7   1  -8 1237.91   74.29   1
   7   1   8 1288.79   76.04   3
   9  -1   8 869.152  71.862   3
  -9  -1  -8 964.683  69.500   1
   9   1   8 1007.70   68.54   3
   9   1   8 933.212  61.466   2
  -9   1  -8 999.603  68.183   1
  11   1   8 472.916  56.616   3
 -14  -2   8 762.945  63.303   2
 -12  -2   8 778.061  56.223   2
  12  -2  -8 883.515  63.909   3
 -12   2   8 759.611  58.909   2
  10  -2  -8 2189.78  103.21   3
 -10  -2   8 2410.74   99.45   2
  10  -2  -8 2206.08   98.64   4
  10   2  -8 2241.84  106.97   3
  10   2  -8 2432.31   99.38   4
 -10   2   8 2442.65  106.95   2
  -8  -2   8 2211.97   89.91   2
   8  -2  -8 2410.01   98.04   4
   8  -2  -8 2383.06  100.31   3
   8   2  -8 2207.70  102.84   3
  -8   2   8 2338.72  100.87   2
   8   2  -8 2459.95   97.44   4
  -6  -2   8 1540.11   76.54   3
   6  -2  -8 1571.30   71.79   4
  -6  -2   8 1645.39   63.18   2
   6  -2  -8 1542.61   72.12   3
   6   2  -8 1507.70   70.78   4
  -6   2   8 1550.06   73.55   2
   4  -2  -8 897.454  49.021   4
  -4  -2   8 936.965  54.290   3
   4   2  -8 1001.76   46.27   1
   4   2  -8 921.592  49.500   4
  -4   2   8 885.806  48.769   3
  -4   2   8 853.800  49.612   2
  -2  -2   8 1641.00   77.11   3
   2  -2  -8 1396.90   64.35   4
   2  -2  -8 1570.11   61.58   1
   2   2  -8 1524.45   66.49   4
  -2   2   8 1658.11   69.27   3
   2   2  -8 1659.50   68.34   1
  -2   2   8 1474.58   69.85   2
   0  -2   8 1190.26   64.34   3
   0  -2  -8 1259.91   53.71   4
   0  -2  -8 1042.59   53.48   1
   0   2   8 1152.47   58.96   2
   0   2  -8 1257.12   59.09   1
   0   2   8 1124.44   56.27   3
   0   2  -8 1203.93   55.09   4
  -2  -2  -8 1107.90   59.76   1
   2  -2   8 1245.94   68.85   3
  -2  -2  -8 1205.80   51.81   4
  -2   2  -8 1190.37   54.31   4
   2   2   8 1258.31   63.59   2
   2   2   8 1272.98   61.18   3
  -2   2  -8 1276.86   63.28   1
  -4  -2  -8 3490.92  134.03   1
   4  -2   8 3249.09  137.90   3
   4   2   8 3512.00  130.09   2
   4   2   8 3424.40  128.43   3
  -6  -2  -8 1818.97   90.08   1
   6  -2   8 1657.86   92.99   3
   6   2   8 1704.91   84.78   2
  -6   2  -8 1843.68   91.53   1
   6   2   8 1904.56   88.11   3
   8  -2   8 1293.59   83.66   3
  -8  -2  -8 1146.68   75.77   1
  -8   2  -8 1290.58   78.64   1
   8   2   8 1285.56   74.71   2
   8   2   8 1267.94   73.35   3
  10  -2   8 610.684  63.400   3
 -10  -2  -8 454.338  52.757   1
  10   2   8 493.393  52.875   3
  10   2   8 488.356  52.065   2
  13  -3  -8 782.471  68.160   3
  13   3  -8 989.731  71.317   3
 -13   3   8 880.401  68.024   2
  11  -3  -8 705.957  54.003   3
  11  -3  -8 736.624  53.237   4
  11   3  -8 743.101  60.948   3
  11   3  -8 787.174  51.312   4
 -11   3   8 643.974  56.624   2
   9  -3  -8 1021.70   60.08   3
  -9  -3   8 986.748  63.765   3
   9  -3  -8 938.335  57.570   4
  -9   3   8 1025.64   63.74   2
   9   3  -8 941.724  62.171   3
   9   3  -8 860.655  54.885   4
   7  -3  -8 3029.80  117.18   3
   7  -3  -8 3273.58  121.50   4
  -7  -3   8 2943.80  123.57   3
   7   3  -8 3182.95  118.91   4
  -7   3   8 3054.80  123.48   2
   5  -3  -8 515.547  37.513   4
  -5  -3   8 493.696  42.157   3
  -5   3   8 475.027  34.621   3
   5   3  -8 554.845  35.341   1
  -5   3   8 504.676  42.010   2
   5   3  -8 516.479  37.402   4
  -3  -3   8 2441.87  105.93   3
   3  -3  -8 2610.27   99.81   4
   3   3  -8 2624.92   99.85   4
  -3   3   8 2553.33   96.53   3
  -3   3   8 2572.92  105.77   2
   3   3  -8 2766.40  102.69   1
  -1  -3   8 1294.81   68.28   3
   1  -3  -8 1245.96   56.79   1
   1  -3  -8 1203.33   57.61   4
  -1   3   8 1320.91   58.04   3
   1   3  -8 1173.51   61.25   1
   1   3  -8 1194.24   58.94   4
  -1   3   8 1300.68   66.90   2
   1  -3   8 2190.47   98.26   3
  -1  -3  -8 2167.99   81.12   4
  -1  -3  -8 1968.89   86.59   1
  -1   3  -8 2113.25   84.86   4
   1   3   8 2225.95   94.56   2
  -1   3  -8 2038.11   90.60   1
   1   3   8 2152.48   83.35   3
   3  -3   8 1156.50   70.29   3
  -3  -3  -8 1222.07   65.15   1
  -3   3  -8 1159.33   65.40   1
  -3   3  -8 1231.67   58.29   4
   3   3   8 1218.43   67.35   2
   3   3   8 1218.66   59.30   3
   5  -3   8 1693.25   93.18   3
  -5  -3  -8 1763.93   87.35   1
  -5   3  -8 1753.92   89.47   1
   5   3   8 1905.01   90.41   2
  -7  -3  -8 868.955  63.794   1
   7  -3   8 982.185  71.223   3
  -7   3  -8 1001.88   67.53   1
   7   3   8 1008.55   66.49   2
  -9  -3  -8 706.529  63.564   1
   9  -3   8 669.499  68.567   3
   9   3   8 774.799  64.465   2
  -9   3  -8 808.279  66.808   1
  12  -4  -8 358.879  43.534   4
  12  -4  -8 334.511  44.386   3
 -12   4   8 300.896  45.451   2
  12   4  -8 317.074  45.825   3
  10  -4  -8 762.788  54.582   4
  10  -4  -8 725.305  52.716   3
 -10  -4   8 706.443  59.992   3
  10   4  -8 745.065  50.934   4
 -10   4   8 765.720  58.379   2
   8  -4  -8 516.104  45.566   4
  -8  -4   8 446.960  44.900   3
   8  -4  -8 535.633  40.728   3
  -8   4   8 521.621  48.479   2
   8   4  -8 503.657  42.473   4
  -6  -4   8 1651.10   81.38   3
   6  -4  -8 1729.68   80.67   4
   6   4  -8 1528.36   73.36   1
  -6   4   8 1628.26   82.39   2
   6   4  -8 1447.49   73.64   4
   4  -4  -8 2379.10   97.39   4
  -4  -4   8 2282.82  101.61   3
   4   4  -8 2390.91   96.89   4
  -4   4   8 2298.44  102.98   2
   4   4  -8 2276.80   97.48   1
   2  -4  -8 2673.85  101.77   4
  -2  -4   8 2449.04  108.21   3
   2  -4  -8 2682.17   97.83   1
  -2   4   8 2509.97  109.78   2
   2   4  -8 2541.80  102.45   4
   2   4  -8 2501.59  105.47   1
   0  -4   8 2165.11  100.69   3
   0  -4  -8 2209.11   92.24   1
   0  -4  -8 2240.14   88.93   4
   0   4  -8 2377.24   93.71   4
   0   4   8 2238.81  100.21   2
   0   4  -8 2176.65   97.62   1
   2  -4   8 950.611  62.122   3
  -2  -4  -8 888.158  54.437   1
  -2  -4  -8 918.912  48.004   4
  -2   4  -8 946.918  52.781   4
   2   4   8 980.834  61.497   2
  -2   4  -8 883.365  57.013   1
   4  -4   8 1136.74   72.24   3
  -4  -4  -8 922.115  61.714   1
  -4   4  -8 1086.14   65.48   1
   4   4   8 1106.63   68.36   2
  -6  -4  -8 447.145  47.329   1
   6  -4   8 512.601  54.686   3
   6   4   8 413.801  48.184   2
  -6   4  -8 414.404  45.882   1
  -8  -4  -8 851.131  66.130   1
   8  -4   8 905.602  76.271   3
   8   4   8 828.425  69.003   2
  -8   4  -8 940.104  67.723   1
 -11  -5   8 571.233  56.494   3
  11  -5  -8 498.767  51.607   4
 -11   5   8 508.716  55.356   2
   9  -5  -8 809.944  59.840   4
  -9  -5   8 942.883  62.810   3
  -9   5   8 751.598  63.796   2
   9   5  -8 923.730  59.020   4
  -7  -5   8 966.346  61.874   3
   7  -5  -8 983.759  62.198   4
  -7   5   8 914.852  63.750   2
   7   5  -8 859.314  57.121   4
  -5  -5   8 2059.03   96.53   3
   5  -5  -8 1902.96   92.40   4
   5   5  -8 1995.05   91.72   4
   5   5  -8 2307.25   96.98   1
  -5   5   8 1933.41   98.61   2
  -3  -5   8 1163.29   67.95   3
   3  -5  -8 1276.15   67.31   4
  -3   5   8 1282.71   74.63   2
   3   5  -8 1260.34   67.04   4
   3   5  -8 1200.71   68.21   1
   1  -5  -8 1611.78   75.14   4
   1  -5  -8 1561.89   73.45   1
  -1  -5   8 1597.43   82.32   3
  -1   5   8 1538.18   83.98   2
   1   5  -8 1587.21   77.62   4
   1   5  -8 1510.84   79.86   1
   1  -5   8 1022.80   64.19   3
  -1  -5  -8 994.279  54.353   4
   1  -5   8 1012.93   57.50   4
  -1  -5  -8 964.448  58.383   1
  -1   5  -8 874.162  59.055   1
   1   5   8 897.509  62.086   2
   3  -5   8 1236.66   74.40   3
  -3  -5  -8 1263.72   72.49   1
   3  -5   8 1169.15   65.30   4
  -3   5  -8 1164.41   71.21   1
   3   5   8 1209.65   75.59   2
   5  -5   8 623.273  59.266   3
  -5  -5  -8 728.219  56.225   1
  -5   5  -8 655.249  56.558   1
   5   5   8 659.489  59.354   2
  -7  -5  -8 807.549  65.263   1
   7  -5   8 838.752  72.741   3
   7   5   8 944.034  71.558   2
  -7   5  -8 739.948  64.720   1
  10  -6  -8 884.083  65.897   4
 -10   6   8 820.784  71.031   2
  10   6  -8 848.584  61.293   4
  -8   6   8 1262.79   81.03   2
   8   6  -8 1194.47   71.89   4
  -6  -6   8 920.767  61.284   3
   6  -6  -8 835.983  60.925   4
   6   6  -8 813.077  57.542   4
   6   6  -8 949.540  61.997   1
  -6   6   8 848.358  64.390   2
  -4  -6   8 1282.78   72.77   3
   4  -6  -8 1356.66   75.53   4
   4   6  -8 1283.52   72.64   4
   4   6  -8 1318.71   75.43   1
  -4   6   8 1344.83   81.93   2
  -2  -6   8 616.467  50.379   3
   2  -6  -8 571.267  47.629   4
  -2  -6   8 507.461  46.637   4
  -2   6   8 552.426  53.712   2
   2   6  -8 538.916  47.466   4
   2   6  -8 561.126  49.994   1
   0  -6   8 503.072  48.255   3
   0  -6  -8 553.393  45.126   4
   0  -6  -8 492.525  43.615   1
   0  -6   8 535.286  46.740   4
   0   6   8 551.994  52.963   2
   0   6  -8 472.345  46.924   1
   2  -6   8 1410.66   80.80   3
  -2  -6  -8 1343.61   77.38   1
   2  -6   8 1469.55   77.27   4
   2   6   8 1381.84   84.30   2
  -2   6  -8 1506.78   83.48   1
   4  -6   8 607.765  57.746   3
   4  -6   8 598.350  50.768   4
  -4  -6  -8 540.735  53.605   1
  -4   6  -8 555.678  54.203   1
   4   6   8 676.404  61.712   2
  -6  -6  -8 1652.61   97.50   1
   6  -6   8 1649.00   98.33   3
  -6   6  -8 1777.86   99.34   1
   6   6   8 1517.98   96.17   2
   8  -6   8 580.819  66.362   3
  -9  -7   8 777.430  63.815   4
   9  -7  -8 779.351  67.452   4
  -7  -7   8 483.963  51.162   4
   7  -7  -8 496.316  54.438   4
  -7   7   8 476.843  57.322   2
   7   7  -8 544.675  55.251   1
  -5  -7   8 1157.27   70.74   4
   5  -7  -8 971.357  68.697   4
  -5   7   8 1055.83   75.75   2
   5   7  -8 991.290  69.031   1
   3  -7  -8 520.686  50.588   4
  -3  -7   8 474.354  48.194   4
  -3   7   8 575.430  58.128   2
   3   7  -8 495.364  51.329   1
  -1  -7   8 1128.67   70.25   4
   1  -7  -8 1216.39   71.69   4
  -1   7   8 1199.70   78.75   2
   1   7  -8 1175.30   76.91   1
  -1  -7  -8 808.549  58.576   1
  -1  -7  -8 739.407  53.741   4
   1  -7   8 733.973  56.184   4
  -1   7  -8 757.460  59.792   1
   1   7   8 842.681  69.299   2
   3  -7   8 1003.27   66.25   4
  -3  -7  -8 871.274  65.672   1
   3   7   8 940.570  72.148   2
  -3   7  -8 735.052  65.349   1
  -5  -7  -8 447.183  55.082   1
   5   7   8 592.641  64.580   2
  -5   7  -8 531.085  57.135   1
   6  -8  -8 391.565  52.073   4
  -6  -8   8 495.255  54.014   4
   6   8  -8 418.518  52.698   1
  -6   8   8 508.757  61.440   2
  -4  -8   8 647.875  59.256   4
   4  -8  -8 491.472  54.893   4
   4   8  -8 656.829  61.658   1
  -4   8   8 496.533  60.551   2
  -2  -8   8 1307.47   81.79   4
   2  -8  -8 1399.66   83.96   4
   2   8  -8 1455.09   89.01   1
  -2   8   8 1208.74   84.88   2
   0  -8  -8 942.308  65.722   1
   0  -8   8 953.030  67.378   4
   0  -8  -8 925.873  64.739   4
   0   8  -8 779.612  68.561   1
   0   8   8 1012.63   75.73   2
   2  -8   8 581.367  56.842   4
  -2  -8  -8 514.320  54.965   1
   2   8   8 504.279  59.417   2
  -2   8  -8 441.342  53.200   1
  -1  -9  -8 921.158  70.329   1
 -12   0   9 -8.4812 12.1769   2
  12   0  -9 -7.1755 12.6830   4
  12   0  -9  9.4471 16.2056   3
 -10   0   9 -12.606   9.293   2
  10   0  -9 -1.8408  9.6887   4
  10   0  -9 -8.8581  9.9115   3
   8   0  -9 -5.8777 10.8088   3
  -8   0   9  7.8034 10.7703   2
   8   0  -9 -2.4439  9.2649   4
  -6   0   9 1.85942 8.61572   3
   6   0  -9 7.32599 9.09239   4
  -6   0   9 3.40844 8.67797   2
   4   0  -9 0.18954 7.02842   4
  -4   0   9 7.53548 9.11851   3
  -4   0   9 -8.0452  6.4432   2
  -2   0   9 5.94683 8.85226   3
   2   0  -9 -3.1949  6.8190   4
  -2   0   9 -0.1712  6.9558   2
   2   0  -9 0.07361 6.21689   1
   0   0   9  8.6913 10.0459   3
   0   0   9 2.45145 7.91298   2
   0   0  -9 -3.9448  5.8448   4
   0   0  -9 1.81150 7.63145   1
   2   0   9 -1.6071  6.5018   2
  -2   0  -9 -3.1167  6.5220   4
   2   0   9 -7.9394  8.2318   3
  -2   0  -9 -2.7198  7.4807   1
  -4   0  -9 -3.9679  8.6036   1
   4   0   9 20.4665 13.7374   3
   6   0   9 14.2826 14.4451   3
  -6   0  -9 -6.2547 10.2465   1
  -8   0  -9 -5.7167 13.2608   1
   8   0   9 -13.852  14.114   3
 -10   0  -9  7.2414 17.3316   1
  10   0   9  4.4456 19.3602   3
 -13  -1   9 179.652  34.094   2
  13  -1  -9 136.607  32.886   3
  13   1  -9 107.645  29.628   3
 -13   1   9 107.739  29.458   2
 -11  -1   9 10.6948 14.8976   2
  11  -1  -9 -5.2348 13.3711   3
  11  -1  -9 16.3701 14.6178   4
  11   1  -9 13.4231 15.6354   3
  11   1  -9 -8.5475 10.6780   4
 -11   1   9 -0.7607 13.4665   2
   9  -1  -9 38.8126 17.9365   3
  -9  -1   9 18.2787 12.2362   2
   9  -1  -9  8.8052 10.8161   4
   9   1  -9  8.4602 10.4115   4
  -9   1   9 28.7796 15.2364   2
   9   1  -9 36.3180 17.6120   3
   7  -1  -9 30.6392 13.9556   3
  -7  -1   9 27.1354 12.0949   2
   7  -1  -9 44.8944 14.8724   4
  -7  -1   9 10.3790 12.7730   3
   7   1  -9 12.1335 10.5322   4
  -7   1   9 43.6570 15.4896   3
  -7   1   9 33.7418 14.2393   2
  -5  -1   9 737.096  38.042   2
  -5  -1   9 651.715  46.700   3
   5  -1  -9 619.591  41.846   4
  -5   1   9 683.400  45.361   3
  -5   1   9 695.673  42.799   2
   5   1  -9 597.601  40.752   4
   3  -1  -9 15.3961  9.4949   4
  -3  -1   9 12.1485 11.1868   3
  -3   1   9 19.1070 10.8484   2
   3   1  -9 13.2349  8.3083   1
   3   1  -9 21.4275 10.4144   4
  -3   1   9 10.8726  8.7434   3
  -1  -1   9 24.2931 12.6703   3
   1  -1  -9 23.8192  9.8915   1
   1  -1  -9 21.5148 10.2909   4
   1   1  -9 31.6570 11.2881   1
   1   1  -9 12.7873  8.8281   4
  -1   1   9 22.9694 11.9379   3
  -1   1   9 42.3212 13.2330   2
  -1  -1  -9 649.641  40.801   1
   1  -1   9 560.369  47.919   3
  -1  -1  -9 612.671  35.609   4
  -1   1  -9 569.197  35.317   4
   1   1   9 564.988  37.779   2
  -1   1  -9 604.466  40.332   1
   1   1   9 640.967  44.553   3
  -3  -1  -9 31.5927 13.1413   1
   3  -1   9  2.8472 11.2929   3
   3   1   9 19.7674 13.2687   3
  -3   1  -9 12.3435 11.5564   1
   3   1   9 14.1445 10.3069   2
  -5  -1  -9 23.8239 14.4393   1
   5  -1   9 60.2537 20.7546   3
   5   1   9 71.8283 18.2562   2
   5   1   9 101.703  24.171   3
  -5   1  -9 78.9794 20.6711   1
  -7  -1  -9 186.150  32.843   1
   7  -1   9 189.381  35.657   3
   7   1   9 181.770  29.283   2
  -7   1  -9 161.418  30.921   1
   7   1   9 110.300  26.746   3
  -9  -1  -9 14.5275 18.7723   1
   9  -1   9 46.9175 25.8710   3
   9   1   9 64.0620 24.1146   3
  -9   1  -9 32.4675 21.2031   1
  12  -2  -9 21.0028 20.1761   3
  12  -2  -9 45.4160 20.4097   4
  12   2  -9 40.7400 20.7553   3
 -12   2   9 27.3478 19.6092   2
  10  -2  -9 53.8609 20.4259   3
  10  -2  -9 55.2923 19.8697   4
 -10   2   9 98.5708 24.6368   2
  10   2  -9 33.9743 18.4856   3
  10   2  -9 82.4194 20.9851   4
  -8  -2   9 134.284  27.740   3
   8  -2  -9 144.370  26.818   3
   8  -2  -9 118.407  24.286   4
   8   2  -9 171.183  27.442   4
  -8   2   9 209.037  30.536   2
   6  -2  -9 0.45874 7.58615   4
  -6  -2   9  9.4913 12.1993   3
   6   2  -9 -4.9530  8.4782   4
  -6   2   9  0.0295 10.4012   2
  -6   2   9 -1.7676  8.5654   3
  -4  -2   9 209.925  30.705   3
   4  -2  -9 200.736  26.195   4
   4   2  -9 162.161  20.245   1
   4   2  -9 225.082  26.996   4
  -4   2   9 231.587  27.719   2
  -4   2   9 213.815  25.845   3
   2  -2  -9 52.2588 12.5596   1
  -2  -2   9 32.1977 14.5900   3
   2  -2  -9 43.7406 13.5642   4
  -2   2   9 53.5190 16.3425   2
   2   2  -9 23.9687 10.4177   4
   2   2  -9 31.0898 11.9778   1
  -2   2   9 64.2853 16.1718   3
   0  -2  -9 28.1876 11.7557   1
   0  -2  -9 31.4094 11.3444   4
   0  -2   9 27.6135 14.7199   3
   0   2   9 35.4133 14.6401   2
   0   2  -9 28.8889 12.0784   4
   0   2   9 31.8902 14.1018   3
   0   2  -9 20.6096 11.2548   1
  -2  -2  -9 42.6234 15.0446   1
   2  -2   9 44.4306 18.0485   3
  -2  -2  -9 28.4671 10.0406   4
   2   2   9 56.7414 17.0106   3
   2   2   9  8.5364 11.0352   2
  -2   2  -9 26.3273 11.1185   4
  -2   2  -9 47.8586 15.7079   1
  -4  -2  -9 16.0475 12.8018   1
   4  -2   9 25.2622 15.1911   3
   4   2   9 14.0918 11.4231   2
  -4   2  -9 17.9890 11.9668   1
   4   2   9 10.4009 11.7235   3
   6  -2   9 176.019  34.203   3
  -6  -2  -9 118.726  27.233   1
  -6   2  -9 193.091  33.083   1
   6   2   9 183.079  30.649   2
   6   2   9 175.032  30.602   3
   8  -2   9  0.3175 16.0212   3
  -8  -2  -9 -13.955  13.396   1
   8   2   9 25.7040 17.5913   3
   8   2   9 18.6411 18.4075   2
  -8   2  -9  7.9458 15.8656   1
  10   2   9 82.8303 28.8777   2
  13  -3  -9 111.584  33.336   3
 -11  -3   9 40.7921 22.0314   3
  11  -3  -9 29.4721 17.7038   4
  11  -3  -9 93.9355 26.1899   3
  11   3  -9 29.6784 17.3101   4
 -11   3   9 70.6528 25.1612   2
  11   3  -9 42.3576 20.6487   3
   9  -3  -9  1.4462 11.5463   4
  -9  -3   9  2.4489 12.6679   3
   9  -3  -9 -1.4345 13.0472   3
   9   3  -9  6.2427 12.3598   4
  -9   3   9 -9.5512 12.1801   2
   7  -3  -9 91.9518 20.4520   3
   7  -3  -9 63.6834 18.6718   4
  -7  -3   9 56.3449 19.4233   3
   7   3  -9 22.3657 12.7725   4
  -7   3   9 25.3136 15.5849   2
  -7   3   9 45.1336 17.0004   3
  -5  -3   9 17.6668 12.3346   3
   5  -3  -9 4.64051 8.87616   4
   5   3  -9 9.17253 9.59221   4
  -5   3   9 30.2554 13.2336   3
  -5   3   9  6.8769 11.6406   2
   3  -3  -9 19.3828 11.4625   4
  -3  -3   9 17.1565 13.5822   3
   3   3  -9 45.7043 13.7895   4
  -3   3   9 26.0563 11.9603   3
  -3   3   9 11.6444 12.9325   2
   3   3  -9 31.0046 12.9608   1
   1  -3  -9 114.911  18.409   1
  -1  -3   9 112.614  24.769   3
   1  -3  -9 104.002  19.551   4
   1   3  -9 85.4238 18.9747   1
  -1   3   9 95.8149 21.8033   2
  -1   3   9 113.560  20.341   3
   1   3  -9 128.540  21.652   4
  -1  -3  -9 275.883  28.951   1
   1  -3   9 283.719  38.192   3
  -1  -3  -9 261.552  26.174   4
  -1   3  -9 286.572  32.482   1
   1   3   9 257.834  33.278   2
  -1   3  -9 258.848  28.397   4
   1   3   9 287.322  28.801   3
  -3  -3  -9 257.017  31.615   1
   3  -3   9 202.505  34.983   3
  -3   3  -9 241.201  32.705   1
   3   3   9 260.480  34.539   2
  -3   3  -9 253.519  28.611   4
   5  -3   9  5.4027 15.3876   3
  -5  -3  -9  4.2934 14.0099   1
   5   3   9  8.1350 13.9505   2
  -5   3  -9 16.8791 14.3275   1
  -7  -3  -9 -2.0150 13.6539   1
   7  -3   9 -3.4407 16.2759   3
   7   3   9 23.1659 17.2521   2
  -7   3  -9 11.5248 16.2821   1
  -9  -3  -9 -8.9587 17.6889   1
   9  -3   9  1.1787 20.1122   3
  -9   3  -9 -5.8597 18.1039   1
   9   3   9  9.7656 21.0005   2
  12  -4  -9  5.4990 17.9362   4
 -12  -4   9  1.4348 18.9567   3
 -12   4   9  1.0466 17.8597   2
 -10  -4   9 144.558  31.350   3
  10  -4  -9 94.0771 24.4696   4
 -10   4   9 112.466  28.384   2
  10   4  -9 72.2490 21.0882   4
  -8  -4   9 19.4647 16.8053   3
   8  -4  -9 15.9481 13.9813   4
   8   4  -9 -3.8791 10.3624   4
  -8   4   9 -0.6507 12.6233   2
  -6  -4   9 141.784  28.624   3
   6  -4  -9 114.742  23.235   4
  -6   4   9 147.357  28.810   2
   6   4  -9 142.582  25.263   4
   4  -4  -9  1.5543 10.5784   4
  -4  -4   9 21.4203 14.9759   3
   4   4  -9 -6.9949  8.6566   4
   4   4  -9 14.0726 11.5018   1
  -4   4   9 20.2340 14.6659   2
   2  -4  -9 150.675  24.801   4
  -2  -4   9 154.413  29.062   3
   2   4  -9 158.838  25.589   1
   2   4  -9 125.500  23.437   4
  -2   4   9 131.214  26.572   2
   0  -4  -9 81.7689 18.2540   4
   0  -4   9 113.034  26.180   3
   0  -4  -9 91.3890 19.1704   1
   0   4  -9 68.5290 17.8195   4
   0   4   9 98.4823 24.1261   2
   0   4  -9 59.7437 18.2439   1
  -2  -4  -9 51.3182 17.2311   1
   2  -4   9 65.2736 22.8896   3
  -2   4  -9 74.2875 19.1909   4
  -2   4  -9 51.9425 17.7779   1
   2   4   9 62.5640 20.7270   2
   4  -4   9 101.813  27.762   3
  -4  -4  -9 105.608  25.366   1
   4   4   9 116.859  27.068   2
  -4   4  -9 116.319  26.761   1
   6  -4   9  6.2265 15.7508   3
  -6  -4  -9 -4.2148 12.2624   1
  -6   4  -9 -2.9516 12.9743   1
   6   4   9  7.1902 16.9790   2
   8  -4   9 80.8863 29.9584   3
  -8  -4  -9 60.2243 25.2052   1
   8   4   9 77.8193 29.1820   2
  -8   4  -9 118.421  31.661   1
 -11  -5   9 -4.8887 18.4307   3
  11  -5  -9 -14.418  15.830   4
 -11   5   9 12.9732 21.9403   2
   9  -5  -9 32.6231 19.5374   4
  -9  -5   9 74.3707 24.9744   3
   9   5  -9 44.1178 20.1374   4
  -9   5   9 40.3153 22.9318   2
  -7  -5   9 411.075  45.610   3
   7  -5  -9 469.453  46.797   4
   7   5  -9 326.680  39.038   4
  -7   5   9 314.834  44.089   2
   5  -5  -9 78.8215 22.3854   4
  -5  -5   9 93.1988 24.3999   3
   5   5  -9 89.2598 22.0217   4
   5   5  -9 72.3944 20.6697   1
  -5   5   9 87.9846 25.7807   2
  -3  -5   9 226.833  34.957   3
   3  -5  -9 234.529  32.215   4
   3   5  -9 316.719  35.695   1
  -3   5   9 275.904  39.183   2
   3   5  -9 236.450  32.694   4
   1  -5  -9 20.8347 13.9523   4
   1  -5  -9 14.1083 12.0292   1
  -1  -5   9 28.1795 18.4146   3
  -1   5   9 14.4636 14.7609   2
   1   5  -9 37.9353 16.2762   1
   1   5  -9 23.7788 14.1337   4
   1  -5   9 116.194  28.117   3
  -1  -5  -9 155.817  26.910   1
  -1  -5  -9 156.687  25.664   4
   1  -5   9 118.028  23.594   4
  -1   5  -9 56.8539 18.9793   4
   1   5   9 104.844  26.919   2
  -1   5  -9 106.723  25.937   1
  -3  -5  -9  5.7939 13.7900   1
   3  -5   9 25.3750 15.5552   4
   3  -5   9 14.8939 14.9533   3
   3   5   9 -0.9968 13.5812   2
  -3   5  -9 29.5232 16.6358   1
   5  -5   9 85.6435 29.3614   3
  -5  -5  -9 99.8730 26.4969   1
  -5   5  -9 88.4847 25.3619   1
   5   5   9 92.1686 27.8099   2
   7  -5   9 52.4367 28.7021   3
  -7  -5  -9 45.4004 21.1663   1
   7   5   9 25.4307 22.7815   2
  -7   5  -9 77.4484 28.2607   1
  10  -6  -9 102.936  29.552   4
  10   6  -9 156.829  33.324   4
   8  -6  -9 24.9797 19.2185   4
   8   6  -9 82.6919 24.2483   4
  -8   6   9 84.1564 28.8258   2
   6  -6  -9 84.0810 24.0143   4
  -6  -6   9 72.7623 25.1969   3
   6   6  -9 41.2627 19.6653   1
  -6   6   9 95.6531 27.8476   2
   6   6  -9 81.1417 23.1840   4
  -4  -6   9 67.7212 22.6706   3
   4  -6  -9 107.011  25.791   4
  -4   6   9 58.4548 23.5496   2
   4   6  -9 103.464  23.560   4
   4   6  -9 53.1286 20.4443   1
   2  -6  -9 32.3930 18.1580   4
  -2  -6   9 56.9018 23.0954   3
  -2   6   9 72.8767 26.4468   2
   2   6  -9 84.1520 23.0034   1
   2   6  -9 41.7270 18.2059   4
   0  -6   9 46.9613 18.0780   4
   0  -6  -9 63.8377 20.8441   4
   0  -6   9 58.8903 23.3612   3
   0  -6  -9 27.6980 16.7083   1
   0   6   9 53.9965 22.8176   2
   0   6  -9 25.1906 16.3203   1
  -2  -6  -9 72.8756 23.7792   1
   2  -6   9 85.2380 21.9197   4
   2  -6   9 75.0398 26.5095   3
   2   6   9 69.2705 25.0310   2
  -2   6  -9 98.6463 26.2386   1
   4  -6   9 102.037  30.360   3
  -4  -6  -9 128.250  30.652   1
  -4   6  -9 99.7799 27.9415   1
   4   6   9 44.4082 23.8989   2
  -6  -6  -9 45.8138 23.4939   1
   6  -6   9 15.9233 23.2297   3
  -6   6  -9 44.1576 23.1351   1
   6   6   9 67.8574 27.2460   2
   9   7  -9 67.7616 26.8557   4
  -7  -7   9  8.9541 16.8941   4
   7  -7  -9 -2.6652 16.4888   4
   7   7  -9 -8.1401 13.1732   4
  -7   7   9 -8.7957 17.2419   2
  -5  -7   9 43.4702 21.1214   4
   5  -7  -9 56.9233 23.8312   4
   5   7  -9 32.1542 17.1161   4
  -5   7   9 38.4883 21.4512   2
   5   7  -9 16.0440 18.1108   1
  -3  -7   9 18.1468 15.1357   4
   3  -7  -9  7.9737 14.5826   4
  -3   7   9  5.7031 19.2072   2
   3   7  -9  2.5443 15.1578   1
   1  -7  -9 466.747  46.834   4
  -1  -7   9 304.307  41.746   4
   1   7  -9 489.099  52.115   1
  -1   7   9 333.163  47.948   2
  -1  -7  -9 97.0593 26.3529   1
   1  -7   9 134.822  30.034   4
   1   7   9 119.644  32.366   2
  -1   7  -9 67.1082 23.8781   1
  -3  -7  -9 380.274  48.647   1
   3  -7   9 284.815  42.331   4
  -3   7  -9 264.849  42.107   1
   3   7   9 347.152  51.456   2
   5  -7   9 57.0813 29.1977   3
   6   8  -9 -1.2996 19.9193   1
   4  -8  -9 231.785  41.363   4
  -4  -8   9 274.650  43.297   4
  -4   8   9 225.432  45.565   2
   4   8  -9 274.438  44.938   1
   2  -8  -9 34.7629 21.8304   4
  -2  -8   9 43.1970 22.2829   4
   2   8  -9  9.1510 17.9006   1
  -2   8   9 30.6883 21.8891   2
   0  -8   9 29.1601 19.4320   4
   0  -8  -9 72.7999 25.9579   4
   0   8   9 61.7053 27.5592   2
   0   8  -9 51.4333 23.5151   1
   2  -8   9 62.0603 27.5580   4
  -2  -8  -9 86.6823 28.4842   1
 -12   0  10 1444.70   83.42   2
  12   0 -10 1614.58   83.48   4
  12   0 -10 1610.41   93.69   3
  10   0 -10 1456.28   84.90   3
 -10   0  10 1561.24   78.65   2
  10   0 -10 1421.10   75.99   4
  -8   0  10 2390.89  101.10   2
   8   0 -10 2556.24  105.77   4
  -8   0  10 2558.58  113.56   3
  -6   0  10 1472.28   66.07   2
   6   0 -10 1318.91   68.23   4
  -6   0  10 1355.04   74.19   3
   4   0 -10 2094.31   87.78   4
  -4   0  10 1962.35   93.43   3
  -4   0  10 2158.05   83.19   2
   2   0 -10 62.7286 14.6312   1
   2   0 -10 66.0596 16.1958   4
  -2   0  10 71.7370 19.7971   3
   0   0 -10 1589.64   70.99   1
   0   0 -10 1490.45   66.16   4
   0   0  10 1519.85   78.42   3
   2   0  10 1397.93   76.56   3
  -2   0 -10 1430.78   72.44   1
  -4   0 -10 1935.07   90.97   1
   4   0  10 1582.50   88.63   3
   6   0  10 2611.93  123.90   3
  -6   0 -10 2655.58  121.31   1
   8   0  10 789.234  69.753   3
  -8   0 -10 866.061  66.910   1
  13  -1 -10 429.457  53.467   3
 -13  -1  10 443.588  48.175   2
 -13   1  10 347.144  46.698   2
 -11  -1  10 1039.04   64.04   2
  11  -1 -10 1027.38   69.78   3
  11  -1 -10 943.389  61.843   4
 -11   1  10 1120.61   68.80   2
  11   1 -10 1034.49   63.63   4
  11   1 -10 874.672  67.669   3
   9  -1 -10 1186.86   67.70   4
   9  -1 -10 1255.22   74.13   3
  -9  -1  10 1127.60   72.62   3
  -9   1  10 1198.30   67.95   2
   9   1 -10 1168.82   66.19   4
   7  -1 -10 1788.49   84.48   4
  -7  -1  10 1779.96   89.80   3
  -7   1  10 1817.93   83.68   2
   7   1 -10 1864.17   84.95   4
  -7   1  10 1936.87   90.59   3
   5  -1 -10 1923.01   84.93   4
  -5  -1  10 1866.17   90.69   3
   5   1 -10 1875.11   83.97   4
  -5   1  10 1979.50   89.47   3
  -5   1  10 1962.48   83.11   2
  -3  -1  10 1009.18   62.28   3
   3  -1 -10 1056.90   56.41   4
   3   1 -10 1125.74   53.23   1
  -3   1  10 1015.07   55.35   2
   3   1 -10 1168.50   58.62   4
  -3   1  10 1125.02   61.84   3
   1  -1 -10 1693.93   70.63   1
   1  -1 -10 1479.69   68.34   4
  -1  -1  10 1630.24   81.84   3
  -1   1  10 1466.26   75.39   3
  -1   1  10 1577.17   70.55   2
   1   1 -10 1641.20   70.96   4
   1   1 -10 1527.21   70.69   1
  -1  -1 -10 1140.92   62.31   1
   1  -1  10 1274.62   72.64   3
  -1  -1 -10 1183.35   56.23   4
   1   1  10 1366.57   70.57   3
   1   1  10 1201.86   60.41   2
  -1   1 -10 1195.52   57.42   4
  -1   1 -10 1283.03   65.45   1
  -3  -1 -10 1685.40   84.87   1
   3  -1  10 1670.34   90.88   3
   3   1  10 1844.03   79.03   2
  -3   1 -10 1762.96   86.51   1
   3   1  10 1813.20   88.26   3
  -5  -1 -10 962.141  63.434   1
   5  -1  10 762.019  64.494   3
   5   1  10 930.287  63.246   3
  -5   1 -10 913.437  61.929   1
  -7  -1 -10 1114.26   74.99   1
   7  -1  10 1297.66   83.55   3
  -7   1 -10 1022.62   72.38   1
   7   1  10 1332.93   80.06   3
   9  -1  10 689.400  69.958   3
   9   1  10 591.719  58.621   3
  -9   1 -10 505.172  57.211   1
  12  -2 -10 409.799  45.921   4
  12  -2 -10 415.085  51.104   3
  12   2 -10 421.559  43.956   4
  12   2 -10 403.176  51.409   3
 -12   2  10 485.331  51.840   2
  10  -2 -10 614.570  52.614   4
  10  -2 -10 578.541  52.863   3
 -10  -2  10 816.776  61.222   3
  10   2 -10 674.365  50.060   4
 -10   2  10 702.701  53.739   2
   8  -2 -10 608.776  48.785   4
  -8  -2  10 470.980  48.240   3
   8   2 -10 508.954  44.758   4
  -8   2  10 566.738  47.098   2
  -8   2  10 539.528  48.085   3
  -6  -2  10 1467.87   80.50   3
   6  -2 -10 1526.21   75.25   4
   6   2 -10 1513.21   75.24   4
  -6   2  10 1597.54   78.03   2
  -6   2  10 1516.86   76.04   3
  -4  -2  10 1866.04   93.84   3
   4  -2 -10 1934.58   86.09   4
   4   2 -10 1934.94   86.56   4
  -4   2  10 2191.41   91.37   2
  -4   2  10 1961.64   88.42   3
   2  -2 -10 3806.44  135.53   4
  -2  -2  10 3903.18  150.62   3
   2   2 -10 3924.65  137.45   4
  -2   2  10 3902.02  141.30   3
  -2   2  10 3755.54  140.76   2
   2   2 -10 3850.73  139.60   1
   0  -2 -10 1734.52   76.86   1
   0  -2  10 1784.69   89.00   3
   0  -2 -10 1719.84   73.24   4
   0   2 -10 1590.28   73.29   4
   0   2  10 1646.53   77.97   2
   0   2 -10 1657.30   78.58   1
   0   2  10 1640.07   78.97   3
   2  -2  10 1360.30   77.77   3
  -2   2 -10 1199.73   68.04   1
   2   2  10 1204.27   66.73   3
   2   2  10 1392.53   70.09   2
  -2   2 -10 1269.54   60.70   4
  -4  -2 -10 786.830  55.458   1
   4  -2  10 828.320  62.543   3
  -4   2 -10 814.796  56.698   1
   4   2  10 804.795  53.642   2
   4   2  10 849.582  56.214   3
   6  -2  10 387.262  50.745   3
  -6  -2 -10 386.097  44.781   1
   6   2  10 436.219  43.974   2
  -6   2 -10 479.753  49.099   1
   6   2  10 404.088  44.350   3
  -8  -2 -10 428.923  51.387   1
   8  -2  10 552.165  63.066   3
  -8   2 -10 565.386  57.110   1
 -11  -3  10 441.750  52.263   3
  11  -3 -10 393.247  47.105   3
  11  -3 -10 370.559  44.255   4
  11   3 -10 487.530  47.226   4
 -11   3  10 477.810  51.264   2
   9  -3 -10 1155.06   69.61   3
   9  -3 -10 1130.79   68.11   4
  -9  -3  10 1138.12   73.19   3
   9   3 -10 1116.30   66.52   4
  -9   3  10 1077.17   69.71   2
  -7  -3  10 1014.73   66.97   3
   7  -3 -10 921.210  59.403   4
  -7   3  10 1013.17   65.33   2
   7   3 -10 1012.96   60.53   4
  -7   3  10 1164.07   64.10   3
  -5  -3  10 888.353  60.239   3
   5  -3 -10 850.155  53.250   4
  -5   3  10 902.905  58.534   2
  -5   3  10 849.241  51.799   3
   5   3 -10 777.895  51.522   4
   3  -3 -10 2133.67   90.36   4
  -3  -3  10 1977.23   98.73   3
  -3   3  10 2063.43   89.04   3
   3   3 -10 2008.62   89.16   1
   3   3 -10 2158.35   91.44   4
  -3   3  10 2121.99   96.64   2
  -1  -3  10 1641.52   86.15   3
   1  -3 -10 1397.64   69.62   1
   1  -3 -10 1673.16   73.94   4
  -1   3  10 1687.72   81.90   2
   1   3 -10 1557.57   75.00   4
  -1   3  10 1681.86   75.45   3
   1   3 -10 1713.02   80.02   1
  -1  -3 -10 2153.23   93.11   1
   1  -3  10 2083.83  102.65   3
  -1  -3 -10 2126.58   84.12   4
  -1   3 -10 2090.03   88.08   4
   1   3  10 1989.93   94.87   2
  -1   3 -10 1826.54   91.76   1
  -3  -3 -10 559.690  44.909   1
   3  -3  10 541.860  54.848   3
  -3   3 -10 543.952  48.757   1
   3   3  10 640.567  48.840   2
   5  -3  10 1429.97   89.14   3
  -5  -3 -10 1310.94   78.62   1
  -5   3 -10 1291.46   80.02   1
   5   3  10 1386.69   78.30   2
   7  -3  10 323.246  51.467   3
  -7  -3 -10 375.632  47.536   1
   7   3  10 368.888  45.841   2
  -7   3 -10 416.091  51.042   1
   9   3  10 855.522  71.424   2
  12  -4 -10 718.415  63.611   4
  10  -4 -10 1424.07   83.26   4
 -10  -4  10 1629.06   91.98   3
 -10   4  10 1473.91   88.50   2
  10   4 -10 1504.07   82.06   4
  -8  -4  10 923.962  65.968   3
   8  -4 -10 976.122  63.123   4
   8   4 -10 786.171  56.580   4
  -8   4  10 986.716  66.607   2
  -6  -4  10 1038.43   68.79   3
   6  -4 -10 1024.36   62.74   4
   6   4 -10 1096.63   64.38   4
  -6   4  10 963.101  66.254   2
  -4  -4  10 608.248  54.709   3
   4  -4 -10 599.267  45.284   4
   4   4 -10 588.282  44.002   1
  -4   4  10 625.271  52.830   2
   4   4 -10 641.714  46.683   4
   2  -4 -10 1486.22   71.47   4
  -2  -4  10 1387.46   79.40   3
  -2   4  10 1388.44   77.80   2
   2   4 -10 1300.92   72.25   1
   2   4 -10 1408.95   72.39   4
   0  -4 -10 597.337  41.989   4
   0  -4  10 541.245  53.161   3
   0  -4 -10 604.586  43.529   1
   0   4 -10 653.689  46.097   4
   0   4 -10 664.178  48.904   1
   0   4  10 629.178  52.199   2
  -2  -4 -10 1417.76   74.49   1
   2  -4  10 1406.32   83.64   3
  -2   4 -10 1408.97   70.94   4
   2   4  10 1321.45   78.27   2
  -2   4 -10 1224.72   74.68   1
   4  -4  10 1640.91   95.72   3
  -4  -4 -10 1510.01   84.24   1
  -4   4 -10 1646.71   89.64   1
   4   4  10 1478.95   86.76   2
  -6  -4 -10 887.856  67.363   1
   6  -4  10 786.141  73.907   3
   6   4  10 980.174  70.254   2
  -6   4 -10 916.906  68.894   1
   8   4  10 872.010  73.776   2
 -11  -5  10 733.819  67.938   3
  11  -5 -10 859.781  68.790   4
  11   5 -10 729.927  61.267   4
   9  -5 -10 529.515  53.221   4
  -9  -5  10 629.739  59.321   3
  -9   5  10 593.708  59.996   2
   9   5 -10 629.851  54.800   4
  -7  -5  10 1091.50   72.86   3
  -7   5  10 1079.69   73.76   2
   7   5 -10 1006.70   65.46   4
   5  -5 -10 1401.96   77.54   4
  -5  -5  10 1413.00   82.26   3
  -5   5  10 1287.22   81.32   2
   5   5 -10 1369.33   76.18   4
  -3  -5  10 588.688  54.097   3
   3  -5 -10 712.905  51.102   4
  -3   5  10 814.007  60.396   2
   3   5 -10 648.938  49.510   4
   3   5 -10 604.881  48.091   1
   1  -5 -10 1176.64   65.40   4
  -1  -5  10 1213.45   75.56   3
   1   5 -10 1116.14   69.12   1
  -1   5  10 1106.91   72.19   2
   1   5 -10 1206.12   68.62   4
   1  -5  10 1243.17   78.63   3
  -1  -5 -10 1325.91   72.46   1
  -1   5 -10 1318.06   77.31   1
   1   5  10 1162.35   75.75   2
  -1   5 -10 1156.44   68.25   4
  -3  -5 -10 839.561  60.150   1
   3  -5  10 845.982  69.593   3
   3   5  10 828.639  67.347   2
  -3   5 -10 825.506  62.278   1
  -5  -5 -10 402.381  49.211   1
   5  -5  10 417.477  56.863   3
   5   5  10 534.395  56.538   2
  -5   5 -10 434.817  52.272   1
   7   5  10 932.058  77.617   2
  10   6 -10 237.815  40.674   4
  -8  -6  10 830.570  67.750   3
   8  -6 -10 682.024  61.906   4
   8   6 -10 682.215  58.772   4
  -8   6  10 669.899  67.345   2
   6  -6 -10 412.151  48.437   4
  -6  -6  10 519.165  54.054   3
   6   6 -10 437.433  47.335   4
  -6   6  10 517.900  57.131   2
  -4  -6  10 2288.38  108.06   3
   4  -6 -10 2029.90  101.31   4
   4   6 -10 2051.30  103.76   1
  -4   6  10 2112.48  112.58   2
   4   6 -10 2035.28  102.23   4
   2  -6 -10 705.095  53.567   4
  -2  -6  10 585.337  56.728   3
  -2   6  10 705.313  63.340   2
   2   6 -10 812.385  59.105   1
   2   6 -10 718.856  54.455   4
   0  -6  10 1336.79   77.36   4
   0  -6 -10 1466.37   77.28   4
   0  -6  10 1483.91   87.09   3
   0   6  10 1433.61   86.44   2
   0   6 -10 1368.51   84.02   1
  -2  -6 -10 622.974  54.457   1
   2  -6  10 655.214  54.538   4
   2  -6  10 549.881  57.418   3
  -2   6 -10 601.235  56.671   1
   2   6  10 589.894  60.423   2
  -4  -6 -10 608.189  58.801   1
   4  -6  10 520.328  59.645   3
  -4   6 -10 341.854  48.541   1
   4   6  10 452.845  55.382   2
   7   7 -10 786.031  65.198   4
   5  -7 -10 633.909  60.164   4
  -5   7  10 900.837  76.415   2
   5   7 -10 793.868  64.164   4
   5   7 -10 576.585  59.142   1
   3  -7 -10 485.157  51.022   4
  -3  -7  10 409.792  47.509   4
   3   7 -10 429.803  49.581   1
  -3   7  10 391.955  54.331   2
  -1  -7  10 824.676  62.774   4
   1  -7 -10 983.074  66.066   4
  -1   7  10 888.121  73.737   2
   1   7 -10 974.467  70.490   1
   1  -7  10 493.868  51.492   4
   1   7  10 558.282  61.020   2
  -1   7 -10 523.643  55.715   1
  -3  -7 -10 909.225  69.089   1
   3  -7  10 807.726  72.143   3
   4   8 -10 316.610  49.743   1
   2  -8 -10 412.737  51.695   4
   2   8 -10 487.980  56.753   1
  -2  -8 -10 580.142  60.629   1
  12   0 -11  5.0103 19.6074   3
  12   0 -11 35.5453 19.6932   4
 -12   0  11 -18.235  13.835   2
 -10   0  11 -2.5399 13.1109   2
  10   0 -11 -4.7391 11.2521   4
 -10   0  11 -9.5224 11.6776   3
   8   0 -11  4.1490 10.9686   4
  -8   0  11  6.8094 14.2303   3
   6   0 -11 1.72413 9.29690   4
  -6   0  11 -0.4706 11.5406   3
  -4   0  11  4.4087 11.3144   3
   4   0 -11 -1.3224  8.9821   4
   2   0 -11 12.8418 10.3773   4
  -2   0  11  8.7602 11.9245   3
   2   0 -11 1.54033 8.09950   1
   0   0 -11 10.3360  9.9615   4
   0   0  11 -6.2716  9.7669   3
   0   0 -11 -9.6011  7.3237   1
   2   0  11 -1.2121 12.0265   3
  -2   0 -11 -2.7446  9.0588   1
  -4   0 -11 12.7585 12.2931   1
   4   0  11  7.1635 15.2883   3
   6   0  11  9.6020 16.6766   3
  -6   0 -11 -1.3587 13.4524   1
   8   0  11  1.9886 20.8966   3
  -8   0 -11 -8.2424 15.1436   1
 -13   1  11 11.9191 20.4873   2
  11  -1 -11 202.679  34.312   4
 -11  -1  11 173.826  36.678   3
  11  -1 -11 198.386  36.766   3
 -11   1  11 277.923  39.406   2
 -11   1  11 163.146  35.602   3
  11   1 -11 266.459  37.531   4
   9  -1 -11  4.7198 13.5745   4
  -9  -1  11  7.5627 14.0116   3
  -9   1  11  1.0903 13.5510   3
   9   1 -11 16.4751 14.1284   4
  -9   1  11  3.5450 13.6916   2
   7  -1 -11 50.2443 17.2971   4
  -7  -1  11 52.7778 19.6913   3
   7   1 -11 44.7275 17.1180   4
  -7   1  11 36.8652 17.7768   2
  -7   1  11 78.3498 22.6335   3
   5  -1 -11 202.624  29.224   4
  -5  -1  11 192.307  33.310   3
  -5   1  11 195.498  31.755   3
  -5   1  11 173.902  26.462   2
   5   1 -11 146.859  25.673   4
  -3  -1  11 -6.7572 11.2549   3
   3  -1 -11 -3.7219  7.7677   4
  -3   1  11  4.2515 10.0860   2
   3   1 -11 22.0937 12.8217   4
  -3   1  11 -7.9783 10.2467   3
  -1  -1  11 78.1605 22.0571   3
   1  -1 -11 82.6097 18.9582   4
   1  -1 -11 123.118  20.825   1
   1   1 -11 90.8535 19.5417   4
  -1   1  11 86.3516 22.5749   3
   1   1 -11 81.1183 18.6621   1
  -1  -1 -11 99.4760 18.7809   4
  -1  -1 -11 60.3501 17.6650   1
   1  -1  11 80.0276 22.8513   3
  -1   1 -11 69.5206 19.1223   1
   1   1  11 74.4013 21.8395   3
  -1   1 -11 113.353  20.503   4
   3  -1  11 313.581  42.617   3
  -3  -1 -11 312.694  37.466   1
  -3   1 -11 329.588  38.312   1
   3   1  11 278.188  37.887   3
   5  -1  11  2.5234 16.8375   3
  -5  -1 -11 10.8752 14.3003   1
   5   1  11  3.8293 15.6841   3
  -5   1 -11  9.0490 13.5706   1
  -7  -1 -11 -7.8904 14.5579   1
   7  -1  11 -14.285  15.329   3
   7   1  11 32.9197 21.2868   3
  -7   1 -11 12.1522 16.7424   1
 -12  -2  11 19.4025 20.7798   3
  12  -2 -11 23.5722 18.6893   4
  12  -2 -11 18.6010 21.8854   3
  12   2 -11  8.7960 16.7712   4
 -12   2  11 24.0508 21.9987   2
  10  -2 -11 100.538  24.907   4
 -10  -2  11 58.9202 23.8095   3
 -10   2  11 67.5720 23.7732   2
 -10   2  11 71.0452 24.3992   3
  10   2 -11 66.1630 22.7840   4
  -8  -2  11 26.6878 16.3129   3
   8  -2 -11 39.2222 17.1797   4
  -8   2  11 28.7478 17.3691   2
   8   2 -11 42.9157 18.0503   4
  -8   2  11 40.0818 16.7457   3
  -6  -2  11 165.416  31.775   3
   6  -2 -11 61.6668 18.5338   4
  -6   2  11 156.763  28.028   2
   6   2 -11 146.085  26.761   4
  -6   2  11 88.6944 22.1852   3
  -4  -2  11 228.497  35.686   3
   4  -2 -11 189.307  28.257   4
   4   2 -11 181.607  28.274   4
  -4   2  11 198.184  30.537   3
  -4   2  11 196.711  29.275   2
   2  -2 -11 115.900  22.209   4
  -2  -2  11 81.7026 23.6161   3
  -2   2  11 94.3060 22.2405   2
   2   2 -11 121.050  22.631   4
   2   2 -11 117.307  22.349   1
  -2   2  11 109.762  24.067   3
   0  -2  11 123.162  27.901   3
   0  -2 -11 115.385  22.216   4
   0  -2 -11 102.660  21.494   1
   0   2 -11 148.441  24.678   4
   0   2  11 148.762  26.390   2
   0   2 -11 127.464  24.223   1
   0   2  11 160.664  28.019   3
   2  -2  11 20.8156 14.5086   3
  -2  -2 -11  6.7076 12.5206   1
   2   2  11 29.4321 14.8581   2
   2   2  11  2.8116 12.5767   3
  -2   2 -11  0.8134 10.6532   1
  -4  -2 -11 40.1656 18.3613   1
   4  -2  11 53.0399 21.2476   3
   4   2  11 33.5213 18.9907   3
  -4   2 -11 28.5854 16.5711   1
   6  -2  11 30.2468 21.3515   3
  -6  -2 -11 -7.1454 14.1435   1
  -6   2 -11  2.3834 13.7691   1
   6   2  11 12.5952 15.7569   3
  11  -3 -11 -13.422  16.825   3
 -11  -3  11 -3.0160 18.5565   3
  11  -3 -11  3.0665 15.3781   4
 -11   3  11  6.4481 17.0663   2
  11   3 -11 13.1889 15.4536   4
   9  -3 -11 73.8099 22.3690   4
  -9  -3  11 33.2122 20.9549   3
  -9   3  11 54.1283 22.9475   2
   9   3 -11 30.8230 16.8124   4
  -9   3  11 63.0683 22.7464   3
   7  -3 -11 254.476  35.403   4
  -7  -3  11 231.934  39.184   3
  -7   3  11 243.066  36.276   2
  -7   3  11 204.469  31.745   3
   7   3 -11 236.730  33.383   4
  -5  -3  11 106.178  27.048   3
   5  -3 -11 100.599  22.771   4
   5   3 -11 73.6251 20.0394   4
  -5   3  11 87.2658 24.7285   2
  -5   3  11 98.9474 23.5290   3
  -3  -3  11 10.0275 13.1934   3
   3  -3 -11 42.2906 15.8373   4
  -3   3  11 38.2623 17.2958   2
   3   3 -11 18.2719 12.7471   4
  -3   3  11 12.7297 13.1433   3
   3   3 -11 16.0942 12.9568   1
   1  -3 -11 23.7667 13.1691   4
  -1  -3  11  8.9217 15.7325   3
  -1   3  11  9.8495 14.3570   2
   1   3 -11 34.3977 14.7771   4
   1   3 -11 23.2179 13.2207   1
   1  -3  11  1.7003 14.4750   3
  -1  -3 -11  6.3278 11.1082   1
   1   3  11 27.8037 17.1169   2
  -1   3 -11 21.8180 12.9534   4
  -1   3 -11 11.6244 11.8798   1
  -3  -3 -11  2.2601 11.8107   1
   3  -3  11  2.2850 14.9595   3
   3   3  11 27.9909 17.7520   2
  -3   3 -11  3.4451 13.0894   1
  -5  -3 -11  4.5805 14.0059   1
   5  -3  11 -7.5257 16.8957   3
   5   3  11 20.7514 17.7839   2
  -5   3 -11 20.1175 17.0165   1
  -7  -3 -11 30.4039 21.1334   1
   7  -3  11 28.5085 23.9753   3
  -7   3 -11 26.4767 20.9389   1
   7   3  11 88.9145 28.0363   2
  10  -4 -11 -4.2776 14.4090   4
 -10  -4  11  0.9755 18.9911   3
 -10   4  11  4.4045 18.4015   2
  10   4 -11 21.7060 17.7694   4
  -8  -4  11 18.2289 18.6156   3
   8  -4 -11 -0.5653 14.6954   4
  -8   4  11 -7.7636 14.2321   2
   8   4 -11  4.4893 13.4726   4
  -6  -4  11 318.308  44.276   3
   6  -4 -11 132.574  27.314   4
   6   4 -11 190.058  31.481   4
  -6   4  11 307.018  41.226   2
   4  -4 -11 17.6696 14.4599   4
  -4  -4  11 -14.860  12.921   3
  -4   4  11  2.6508 14.8987   2
   4   4 -11 -11.180  10.165   4
  -2  -4  11 268.529  40.305   3
   2  -4 -11 262.896  33.630   4
   2   4 -11 226.156  32.794   4
  -2   4  11 240.558  37.330   2
   2   4 -11 255.739  34.274   1
   0  -4 -11 -0.8601 11.6980   1
   0  -4  11  7.0047 16.9179   3
   0  -4 -11 -9.3923 10.5682   4
   0   4  11 11.8701 12.9508   2
   0   4 -11 -3.3212 11.7677   4
   0   4 -11  3.8496 12.4742   1
  -2  -4 -11 76.3845 23.2421   1
   2  -4  11 111.443  30.112   3
  -2   4 -11 123.461  27.777   1
  -2   4 -11 86.7873 23.4202   4
   2   4  11 120.997  29.066   2
  -4  -4 -11  3.5533 16.4800   1
   4  -4  11 11.8969 18.3861   3
   4   4  11  3.4637 17.2505   2
  -4   4 -11 -4.1039 13.4134   1
  -6  -4 -11 -3.3189 16.0596   1
   6  -4  11 20.5717 23.9058   3
   6   4  11 71.6152 26.7709   2
  -6   4 -11 16.7366 18.9999   1
   9  -5 -11 54.3745 22.1542   4
  -9  -5  11 15.5295 22.0707   3
   9   5 -11 28.9842 18.9281   4
  -9   5  11 42.7415 24.5699   2
   7  -5 -11  4.4345 13.2231   4
  -7  -5  11 12.6513 18.8338   3
   7   5 -11 23.0213 16.3883   4
  -7   5  11 22.0118 20.4208   2
   5  -5 -11 14.5278 14.4831   4
  -5  -5  11 19.5448 19.5376   3
  -5   5  11 15.7383 18.4178   2
   5   5 -11 18.1771 15.8397   4
   3  -5 -11 54.5596 18.6040   4
  -3  -5  11 29.3345 18.9437   3
   3   5 -11 56.1857 21.1884   1
  -3   5  11 57.1873 22.5220   2
   3   5 -11 57.5845 19.7964   4
   1  -5 -11 134.843  26.572   4
  -1  -5  11 168.673  35.287   3
   1   5 -11 101.094  24.791   1
  -1   5  11 128.032  30.363   2
   1   5 -11 142.501  29.201   4
  -1  -5 -11 319.892  39.001   1
   1  -5  11 335.506  48.012   3
  -1   5 -11 341.290  40.400   4
   1   5  11 382.072  47.472   2
  -1   5 -11 304.727  41.811   1
   3  -5  11 17.8135 21.0606   3
  -3  -5 -11 11.1422 17.4702   1
   3   5  11  3.4484 16.8618   2
  -3   5 -11 32.8824 19.4161   1
   5  -5  11 116.077  36.119   3
  -5  -5 -11 71.6569 26.3886   1
   5   5  11 65.4220 26.4217   2
  -5   5 -11 113.905  31.073   1
  -8  -6  11 89.7554 32.8951   3
   8   6 -11 10.7405 18.8210   4
   6  -6 -11 65.4470 24.8168   4
  -6  -6  11 105.519  32.746   3
  -6   6  11 53.0186 26.8547   2
   6   6 -11 75.9533 24.8017   4
  -4  -6  11 32.0366 21.3707   3
   4  -6 -11 95.5426 26.4213   4
   4   6 -11 63.5968 24.0966   1
  -4   6  11 74.8577 27.1895   2
   4   6 -11 60.4012 22.6379   4
  -2  -6  11 100.546  29.080   3
   2  -6 -11 73.6566 23.2277   4
  -2   6  11 64.1248 26.4449   2
   2   6 -11 40.4403 21.1525   4
   2   6 -11 109.697  27.528   1
   0  -6  11 19.3923 19.2343   3
   0  -6  11 21.9237 17.6948   4
   0  -6 -11 31.5950 17.1922   4
   0   6  11  1.1579 17.5154   2
   0   6 -11 12.3386 16.6538   1
   2  -6  11 24.9861 21.6430   3
  -2  -6 -11 19.0775 20.0809   1
   2  -6  11 34.0089 19.2365   4
   2   6  11 37.2920 23.2824   2
  -2   6 -11 35.1353 21.5525   1
  -4  -6 -11 19.2330 21.3432   1
   4  -6  11 98.2818 32.6699   3
   4   6  11 91.6187 31.9555   2
   3  -7 -11 125.965  31.385   4
  -3  -7  11 105.623  28.478   4
  -3   7  11 71.0727 29.1613   2
   3   7 -11 81.3188 28.4797   1
  -1  -7  11  3.7805 16.1741   4
   1  -7 -11 -2.6412 16.3634   4
  -1   7  11 -5.6365 20.3595   2
   1   7 -11 -11.448  14.149   1
   1  -7  11 22.4989 22.3276   3
   1  -7  11 -6.6985 18.0618   4
  -1   7 -11  6.0426 17.7081   1
   3  -7  11 58.0657 29.6053   3
  12   0 -12 316.814  43.633   4
  10   0 -12 588.517  53.509   4
 -10   0  12 670.282  61.253   3
  -8   0  12 626.832  58.113   3
   8   0 -12 671.921  53.930   4
  -6   0  12 898.479  64.278   3
   6   0 -12 1002.61   60.33   4
   4   0 -12 2879.06  115.42   4
  -4   0  12 2831.34  125.24   3
   2   0 -12 1391.40   69.67   4
  -2   0  12 1309.24   76.57   3
   0   0 -12 2337.19   97.18   4
   0   0  12 2561.14  114.67   3
   0   0 -12 2306.10  102.14   1
   2   0  12 444.073  48.196   3
  -2   0 -12 559.060  47.160   1
  -4   0 -12 806.634  59.793   1
   4   0  12 800.976  66.413   3
  -6   0 -12 305.213  44.265   1
   6   0  12 329.776  49.014   3
  11  -1 -12 870.473  62.756   4
 -11  -1  12 915.577  74.385   3
 -11   1  12 906.421  73.367   3
 -11   1  12 907.672  64.926   2
  11   1 -12 908.929  63.950   4
  -9  -1  12 607.874  58.996   3
   9  -1 -12 665.217  54.940   4
  -9   1  12 624.039  52.226   2
  -9   1  12 616.254  56.883   3
   9   1 -12 644.640  55.301   4
  -7  -1  12 1823.24   93.66   3
   7  -1 -12 1441.14   79.47   4
   7   1 -12 1491.25   80.56   4
  -7   1  12 1513.46   85.26   3
  -5  -1  12 955.722  66.660   3
   5  -1 -12 1022.33   61.44   4
   5   1 -12 1012.80   62.09   4
  -5   1  12 1002.30   64.97   3
   3  -1 -12 1143.42   64.15   4
  -3  -1  12 1139.21   72.35   3
  -3   1  12 1222.73   71.47   3
   3   1 -12 1194.99   65.33   4
  -1  -1  12 1269.08   78.79   3
   1  -1 -12 1562.22   72.11   4
   1   1 -12 1495.78   72.50   4
   1   1 -12 1350.07   71.66   1
  -1   1  12 1525.75   80.64   3
   1  -1  12 1389.60   82.01   3
  -1  -1 -12 1414.47   73.54   1
  -1   1 -12 1375.80   67.13   4
  -1   1 -12 1210.67   70.65   1
   1   1  12 1356.64   77.36   3
   3  -1  12 778.544  66.230   3
  -3  -1 -12 738.562  55.860   1
   3   1  12 790.352  59.384   3
  -3   1 -12 800.226  58.586   1
  -5  -1 -12 660.247  58.630   1
   5  -1  12 729.064  66.994   3
  -5   1 -12 741.222  62.923   1
   5   1  12 699.943  62.374   3
   7  -1  12 1067.96   82.35   3
   7   1  12 1033.16   77.27   3
  12   2 -12 1107.32   72.75   4
 -12   2  12 1022.80   74.13   2
  10  -2 -12 1235.08   76.08   4
 -10  -2  12 1133.79   80.01   3
 -10   2  12 1186.57   76.25   2
  10   2 -12 1317.36   77.02   4
 -10   2  12 1227.32   78.58   3
  -8  -2  12 1278.02   80.48   3
   8  -2 -12 1197.75   71.86   4
  -8   2  12 1176.30   73.72   3
  -8   2  12 1110.17   70.82   2
   8   2 -12 1171.67   71.71   4
  -6  -2  12 1069.38   72.36   3
   6  -2 -12 1044.20   64.81   4
   6   2 -12 1000.40   63.85   4
  -6   2  12 991.053  64.028   2
  -6   2  12 1134.96   68.48   3
  -4  -2  12 730.109  61.655   3
   4  -2 -12 743.211  50.869   4
  -4   2  12 715.240  52.371   2
   4   2 -12 698.722  50.727   4
  -4   2  12 685.971  52.627   3
   2  -2 -12 985.701  58.162   4
  -2  -2  12 994.826  68.197   3
   2   2 -12 1116.21   61.97   1
  -2   2  12 925.401  61.132   3
   2   2 -12 959.231  58.542   4
  -2   2  12 1151.54   64.51   2
   0  -2 -12 532.354  41.569   4
   0  -2 -12 423.269  39.052   1
   0  -2  12 352.924  46.811   3
   0   2  12 484.633  45.284   3
   0   2 -12 427.868  38.837   4
   0   2 -12 432.825  41.953   1
   2  -2  12 1550.53   90.56   3
  -2  -2 -12 1491.11   80.92   1
  -2   2 -12 1451.15   83.03   1
   2   2  12 1600.84   84.73   3
   4  -2  12 1347.81   88.43   3
  -4  -2 -12 1218.52   77.46   1
  -4   2 -12 1340.82   81.48   1
   4   2  12 1415.88   81.33   3
  -6  -2 -12 1071.72   75.73   1
   6  -2  12 1085.99   82.71   3
  -6   2 -12 1000.89   73.98   1
  11  -3 -12 286.828  44.366   4
 -11   3  12 324.149  47.211   2
  11   3 -12 309.896  45.149   4
 -11   3  12 345.605  47.434   3
   9  -3 -12 1376.69   82.07   4
  -9  -3  12 1401.46   89.00   3
   9   3 -12 1606.49   86.20   4
  -9   3  12 1319.05   83.56   2
  -9   3  12 1569.46   86.23   3
  -7  -3  12 626.113  61.965   3
   7  -3 -12 678.497  55.876   4
  -7   3  12 729.641  59.897   2
   7   3 -12 595.039  52.260   4
  -7   3  12 666.114  51.481   3
   5  -3 -12 1354.13   75.88   4
  -5  -3  12 1574.62   89.98   3
   5   3 -12 1401.94   77.39   4
  -5   3  12 1392.45   80.37   2
   3  -3 -12 917.731  58.580   4
  -3  -3  12 1010.78   70.38   3
   3   3 -12 893.930  58.707   4
  -3   3  12 980.427  64.675   2
   1  -3 -12 1319.68   68.13   4
  -1  -3  12 1213.14   78.71   3
   1   3 -12 1215.78   67.94   4
  -1   3  12 1266.12   72.97   2
   1   3 -12 1127.89   68.35   1
  -1  -3 -12 809.188  55.991   1
   1  -3  12 934.166  68.880   3
   1   3  12 907.133  61.687   2
  -1   3 -12 815.535  58.688   1
  -1   3 -12 807.178  53.613   4
   3  -3  12 815.945  71.680   3
  -3  -3 -12 818.314  61.100   1
  -3   3 -12 974.302  66.754   1
   3   3  12 944.290  64.184   2
   5  -3  12 826.489  76.644   3
  -5  -3 -12 785.353  62.573   1
  -5   3 -12 994.319  71.991   1
 -10  -4  12 376.891  53.704   3
  10  -4 -12 442.839  51.659   4
  10   4 -12 403.717  48.131   4
 -10   4  12 459.190  54.995   2
  -8  -4  12 566.824  61.136   3
   8   4 -12 523.438  52.061   4
  -8   4  12 523.699  56.710   2
   6  -4 -12 1109.83   70.85   4
  -6  -4  12 1283.51   82.49   3
   6   4 -12 1138.13   71.48   4
  -6   4  12 1229.19   78.11   2
  -4  -4  12 1106.91   76.82   3
   4  -4 -12 1165.71   68.90   4
   4   4 -12 1172.79   70.69   4
  -4   4  12 1145.18   75.29   2
  -2  -4  12 1659.09   95.62   3
   2  -4 -12 1739.63   85.29   4
  -2   4  12 1656.47   90.60   2
   2   4 -12 1759.16   87.86   4
   2   4 -12 1776.24   90.16   1
   0  -4  12 793.622  68.229   3
   0   4  12 870.780  62.987   2
   0   4 -12 914.535  63.156   1
   0   4 -12 733.687  53.545   4
   2  -4  12 1094.16   78.07   3
  -2  -4 -12 980.541  65.200   1
  -2   4 -12 887.568  66.710   1
   2   4  12 974.199  69.119   2
   4  -4  12 370.650  54.310   3
  -4  -4 -12 395.288  47.589   1
  -4   4 -12 346.423  47.854   1
   4   4  12 339.219  46.945   2
   6   4  12 534.174  58.256   2
  -9  -5  12 729.483  71.520   3
  -7  -5  12 982.400  74.488   3
  -7   5  12 865.845  73.806   2
   7   5 -12 900.638  65.549   4
  -5  -5  12 536.057  58.758   3
   5  -5 -12 492.231  50.117   4
  -5   5  12 584.786  60.384   2
   5   5 -12 515.908  51.639   4
   3  -5 -12 843.300  58.638   4
  -3  -5  12 803.601  68.396   3
   3   5 -12 641.783  57.041   4
  -3   5  12 918.554  67.773   2
   3   5 -12 794.291  59.462   1
  -1  -5  12 710.868  67.207   3
   1  -5 -12 735.009  53.079   4
  -1   5  12 634.686  59.595   2
   1   5 -12 768.277  56.579   4
   1   5 -12 781.921  60.112   1
   1  -5  12 1068.64   77.35   3
   1   5  12 1235.75   79.12   2
  -1   5 -12 1027.69   66.76   4
  -1   5 -12 877.594  68.242   1
   3  -5  12 784.115  74.175   3
  -3  -5 -12 823.761  63.967   1
   3   5  12 931.996  69.642   2
  -3   5 -12 691.866  65.527   1
  -8  -6  12 760.313  71.516   3
   6  -6 -12 389.545  49.890   4
  -6  -6  12 456.925  57.727   3
  -6   6  12 435.908  58.197   2
   6   6 -12 490.462  53.102   4
  -4  -6  12 538.266  59.026   3
   4  -6 -12 492.117  52.615   4
  -4   6  12 611.696  63.922   2
   4   6 -12 505.725  53.556   4
  -2  -6  12 185.313  39.286   3
   2  -6 -12 151.943  32.737   4
   2   6 -12 72.6953 25.6296   4
   2   6 -12 125.648  31.438   1
  -2   6  12 159.299  36.873   2
   0  -6  12 1026.58   78.38   3
   0  -6  12 1168.91   73.87   4
   0   6 -12 1073.93   71.87   4
   0   6  12 1135.92   80.11   2
   0   6 -12 1081.74   76.06   1
   2  -6  12 537.214  61.954   3
  -2   6 -12 482.327  55.692   1
   2   6  12 425.716  56.141   2
   3   7 -12 587.370  60.277   1
  -1  -7  12 523.819  59.651   3
   1  -7 -12 591.551  56.250   4
 -10   0  13  6.9810 19.1536   3
  10   0 -13 12.2221 15.8733   4
   8   0 -13 -12.880  10.311   4
  -8   0  13  2.8134 14.8085   3
  -6   0  13 -7.8421 11.4331   3
   6   0 -13  1.2867 11.5949   4
   4   0 -13 -8.3721 10.4574   4
  -4   0  13 -0.1625 13.0288   3
   2   0 -13  5.5698 11.9827   4
  -2   0  13 -3.1239 13.3506   3
   0   0 -13  3.6008 11.5816   4
   0   0 -13 11.8418 13.3513   1
   0   0  13 -0.8697 13.7711   3
  -2   0 -13  1.6905 13.8590   1
   2   0  13 -2.8615 16.3904   3
  -4   0 -13 -4.5908 13.2308   1
   4   0  13  4.5286 16.3268   3
   6   0  13 -7.5680 21.1402   3
  11  -1 -13 65.8342 24.1618   4
 -11   1  13 57.6391 26.3758   3
  11   1 -13 49.8350 23.4007   4
  -9  -1  13 -11.285  14.924   3
   9  -1 -13 14.2712 15.9914   4
  -9   1  13  0.0139 17.3411   3
   9   1 -13  3.1540 13.9101   4
  -7  -1  13 216.275  40.277   3
   7  -1 -13 166.247  31.200   4
   7   1 -13 119.900  27.661   4
  -7   1  13 135.109  31.167   3
   5  -1 -13  5.7875 12.8651   4
  -5  -1  13 -5.1862 12.3753   3
  -5   1  13 35.8674 18.8505   3
   5   1 -13 10.6918 14.2528   4
   3  -1 -13 66.6250 19.9115   4
  -3  -1  13 81.8659 25.5640   3
   3   1 -13 83.5516 22.1593   4
  -3   1  13 62.2710 22.7743   3
  -1  -1  13 231.743  38.704   3
   1  -1 -13 248.392  31.230   4
  -1   1  13 193.574  35.459   3
   1   1 -13 178.232  29.506   4
  -1  -1 -13 -6.7420 11.9163   1
   1  -1  13 14.1282 17.3185   3
  -1   1 -13  5.7463 13.5762   1
   1   1  13 -1.5507 14.7189   3
   3  -1  13  6.6694 17.8014   3
  -3  -1 -13 23.4985 17.8578   1
   3   1  13  2.1266 15.1033   3
  -3   1 -13  7.7424 14.6683   1
  -5  -1 -13  1.1939 15.8272   1
   5  -1  13 -10.239  16.032   3
   5   1  13 -0.6747 19.0125   3
  -5   1 -13 16.9308 17.4857   1
 -10  -2  13 65.2093 27.1379   3
  10  -2 -13 112.785  29.362   4
  10   2 -13 130.127  29.781   4
 -10   2  13 117.751  31.351   2
 -10   2  13 139.667  33.152   3
   8  -2 -13 -18.541  12.029   4
  -8  -2  13 -9.7102 13.4419   3
  -8   2  13 -0.8047 14.3000   3
   8   2 -13  6.4759 13.4889   4
   6  -2 -13 14.5440 14.7743   4
  -6  -2  13  8.3433 15.6055   3
  -6   2  13 -4.8779 14.9102   3
   6   2 -13 -16.642  10.516   4
   4  -2 -13  1.9648 12.9502   4
  -4  -2  13 28.8155 19.8444   3
  -4   2  13 33.1186 19.0246   3
   4   2 -13 67.8176 19.9877   4
  -2  -2  13  7.4752 16.6949   3
   2  -2 -13  1.7374 12.7857   4
  -2   2  13  5.6201 14.7234   3
   2   2 -13 -5.0118 10.6041   4
   0  -2  13 49.6437 23.6410   3
   0   2 -13 72.5641 20.6926   4
   0   2 -13 66.4498 21.7288   1
   0   2  13 59.1105 21.1701   3
  -2  -2 -13 -8.5848 11.6973   1
   2  -2  13  9.3892 18.6163   3
   2   2  13 -15.940  13.447   3
  -2   2 -13 22.4536 15.8361   1
  -4  -2 -13 71.9767 26.2287   1
   4  -2  13 71.6914 29.1369   3
  -4   2 -13 98.2543 28.7996   1
   9  -3 -13 15.8790 17.4454   4
  -9  -3  13 -8.1426 17.8850   3
   9   3 -13 -1.5278 13.3361   4
  -9   3  13 -12.853  17.710   2
  -7  -3  13 -6.9583 16.2606   3
   7  -3 -13  2.9021 13.1142   4
   7   3 -13 -0.1672 12.3916   4
  -7   3  13 12.0877 20.1771   2
  -5  -3  13 -21.619  14.603   3
   5  -3 -13 14.1741 14.3045   4
   5   3 -13 12.6790 14.6280   4
  -5   3  13 -5.2448 16.8186   2
  -3  -3  13  9.3655 18.6653   3
   3  -3 -13  7.1444 13.5579   4
  -3   3  13 -3.0189 15.8498   2
   3   3 -13 -2.2866 12.1674   4
   1  -3 -13 55.9996 20.3928   4
  -1  -3  13 71.3636 25.8249   3
   1   3 -13 55.7077 19.9109   4
   1   3 -13 89.6377 24.2824   1
   1  -3  13 141.011  34.142   3
  -1   3 -13 167.633  32.949   1
   3  -3  13 25.0881 21.8008   3
  -3  -3 -13 102.006  28.204   1
  -3   3 -13 67.2487 24.0980   1
  -5  -3 -13 -11.967  17.074   1
  -8  -4  13 189.929  42.217   3
   8  -4 -13 180.548  34.877   4
   8   4 -13 104.315  28.263   4
  -8   4  13 128.117  34.235   2
   6  -4 -13 39.3320 21.7316   4
  -6  -4  13 46.2168 26.0775   3
  -6   4  13 31.4672 23.1786   2
   6   4 -13 46.4716 20.3926   4
   4  -4 -13 11.6421 15.0850   4
  -4  -4  13 -10.397  17.463   3
   4   4 -13 -7.2586 11.9107   4
  -4   4  13 14.7426 19.3239   2
   2  -4 -13 89.1628 23.8230   4
  -2  -4  13 87.4392 28.6598   3
   2   4 -13 93.6482 25.6040   4
  -2   4  13 98.9598 28.4532   2
   0  -4  13 -17.107  15.564   3
   0   4  13 -9.0675 16.4455   2
   0   4 -13 32.7843 18.9226   4
   0   4 -13 16.9451 15.8895   1
   2  -4  13 -5.5887 19.0690   3
  -2  -4 -13 46.0186 21.3309   1
   2   4  13 62.4938 26.8991   2
  -2   4 -13 49.3387 22.8332   1
  -4  -4 -13 -6.6409 18.2629   1
  -7  -5  13 107.728  35.397   3
  -7   5  13 124.661  36.109   2
  -5  -5  13 293.483  49.465   3
   5  -5 -13 270.504  41.383   4
  -5   5  13 355.510  51.252   2
   5   5 -13 275.883  42.507   4
  -3  -5  13  1.5324 20.4714   3
   3  -5 -13 -10.710  12.859   4
   3   5 -13 -0.4175 15.6272   4
  -3   5  13 10.5017 19.3122   2
  -1  -5  13 39.7158 26.4174   3
   1  -5 -13 95.8701 25.7284   4
   1   5 -13 45.6367 21.9333   1
   1   5 -13 41.0815 20.3157   4
  -1   5  13 24.9106 21.5417   2
   1  -5  13 53.3986 27.3497   3
   1   5  13 57.6122 26.5064   2
  -1   5 -13 81.2644 28.2776   1
  -3  -5 -13 26.0172 21.2756   1
   3   5  13 11.3811 22.0680   2
   4  -6 -13 92.1943 28.0409   4
  -4  -6  13 104.968  32.579   3
  -4   6  13 85.1267 30.6801   2
  -2  -6  13  7.0976 23.0549   3
   2  -6 -13 40.2931 22.5753   4
   2   6 -13 109.969  30.180   4
   2   6 -13 78.7028 28.0380   1
  -2   6  13 66.3132 27.9872   2
   0  -6  13 47.1143 22.9629   4
   0   6 -13 48.8747 24.0149   4
   0   6 -13 39.9471 23.9981   1
   8   0 -14 489.220  51.251   4
  -8   0  14 461.976  56.439   3
  -6   0  14 804.113  67.609   3
   6   0 -14 823.195  59.344   4
   4   0 -14 551.328  49.289   4
  -4   0  14 395.451  48.989   3
  -2   0  14 775.493  64.730   3
   2   0 -14 743.459  54.378   4
   0   0  14 1198.37   79.51   3
   2   0  14 852.107  69.557   3
  -2   0 -14 710.591  60.184   1
  -4   0 -14 1331.29   84.23   1
   4   0  14 1224.29   86.61   3
  -9  -1  14 674.450  67.980   3
   9  -1 -14 670.611  59.314   4
   9   1 -14 698.320  61.323   4
  -9   1  14 795.882  68.239   3
  -7  -1  14 925.473  75.505   3
   7  -1 -14 771.926  59.401   4
  -7   1  14 852.174  69.883   3
   7   1 -14 978.364  65.795   4
  -5  -1  14 598.949  60.717   3
   5  -1 -14 639.028  53.439   4
  -5   1  14 553.567  56.161   3
   5   1 -14 561.936  52.014   4
  -3  -1  14 1455.47   89.04   3
   3  -1 -14 1446.03   76.89   4
   3   1 -14 1380.95   78.10   4
  -3   1  14 1465.69   85.61   3
  -1  -1  14 776.742  68.372   3
   1  -1 -14 823.462  55.290   4
  -1   1  14 810.631  62.900   3
   1   1 -14 861.074  57.238   4
   1  -1  14 1059.09   77.19   3
   1   1  14 1241.10   78.08   3
  -1   1 -14 1210.23   74.96   1
  -3  -1 -14 487.869  52.242   1
   3  -1  14 486.679  58.663   3
  -3   1 -14 594.449  55.984   1
   3   1  14 613.548  59.272   3
   5   1  14 526.944  60.557   3
 -10   2  14 306.243  48.565   3
  -8  -2  14 748.081  70.628   3
   8  -2 -14 676.980  60.606   4
   8   2 -14 644.354  58.964   4
  -8   2  14 836.176  68.871   3
   6  -2 -14 1130.38   71.55   4
  -6  -2  14 1004.13   77.27   3
  -6   2  14 1119.56   74.63   3
   6   2 -14 1111.64   71.43   4
   4  -2 -14 1513.81   81.46   4
  -4  -2  14 1291.86   87.99   3
   4   2 -14 1428.29   80.77   4
  -4   2  14 1529.96   86.90   3
   2  -2 -14 1233.95   70.79   4
  -2  -2  14 1215.84   82.11   3
   2   2 -14 1257.14   73.38   4
  -2   2  14 1295.02   77.90   3
   0  -2  14 880.067  73.698   3
   0   2 -14 950.270  64.765   1
  -2  -2 -14 773.200  59.407   1
   2  -2  14 739.029  69.768   3
  -2   2 -14 714.589  62.054   1
  -4  -2 -14 383.872  48.858   1
  -4   2 -14 391.721  51.866   1
  -7  -3  14 718.593  70.087   3
   7  -3 -14 586.916  57.049   4
   7   3 -14 652.393  59.371   4
   5  -3 -14 1208.67   74.91   4
  -5  -3  14 1294.03   87.45   3
   5   3 -14 1169.09   75.50   4
  -3  -3  14 372.306  52.515   3
   3  -3 -14 308.782  40.659   4
   3   3 -14 389.374  44.535   4
  -1  -3  14 1137.75   82.79   3
   1   3 -14 1179.50   71.93   4
   1  -3  14 347.664  51.970   3
  -1   3 -14 500.008  52.845   1
  -3  -3 -14 1025.53   72.98   1
  -3   3 -14 942.319  72.809   1
  -8   4  14 926.521  76.942   2
  -6  -4  14 671.592  69.405   3
   6  -4 -14 458.855  51.720   4
  -6   4  14 508.966  57.951   2
   6   4 -14 476.739  53.321   4
  -4  -4  14 505.726  61.169   3
   4  -4 -14 526.529  52.038   4
  -4   4  14 455.537  54.717   2
   4   4 -14 523.740  53.301   4
  -2  -4  14 353.703  53.888   3
   2  -4 -14 335.535  42.820   4
  -2   4  14 428.520  50.002   2
   2   4 -14 380.864  46.558   4
   0  -4  14 445.791  58.652   3
   0   4 -14 397.797  48.421   1
   0   4 -14 311.085  41.594   4
  -2   4 -14 1042.56   77.64   1
  -5   5  14 521.347  60.668   2
  -3  -5  14 678.308  71.568   3
   3  -5 -14 757.655  63.469   4
  -3   5  14 877.094  72.384   2
   3   5 -14 923.378  67.856   4
   1   5 -14 602.990  57.692   4
   1   5 -14 677.536  62.684   1
  -1   5  14 612.574  62.384   2
   1   5  14 714.227  68.600   2
  -8   0  15 -5.2942 20.6372   3
  -6   0  15 -10.937  17.900   3
   6   0 -15 21.5432 16.6483   4
   4   0 -15 12.4300 17.5878   4
  -4   0  15 -8.1768 18.6172   3
   2   0 -15  3.2321 14.4618   4
  -2   0  15 13.8551 19.0492   3
   0   0  15  0.3648 19.3243   3
  -2   0 -15  4.0507 16.0982   1
   2   0  15 -16.363  18.804   3
   7  -1 -15 28.4453 18.6162   4
  -7  -1  15  6.7404 20.6522   3
  -7   1  15 74.0310 27.8052   3
   7   1 -15  9.3421 16.9125   4
  -5  -1  15 14.8380 18.5923   3
   5  -1 -15  8.2225 14.9290   4
  -5   1  15  1.2208 19.6170   3
   5   1 -15  1.0639 14.7879   4
  -3  -1  15 127.097  33.064   3
   3  -1 -15 76.3010 24.0788   4
   3   1 -15 96.0760 26.5716   4
  -3   1  15 103.740  30.004   3
  -1  -1  15  3.4055 17.3308   3
   1   1 -15 -13.277  14.479   4
  -1   1  15 15.1274 20.1684   3
   1  -1  15 136.498  34.247   3
   1   1  15 119.551  32.097   3
  -3  -1 -15  5.3248 18.7223   1
  -3   1 -15 35.9632 21.9183   1
   3   1  15 -13.745  19.245   3
  -8   2  15 35.3499 26.9761   3
  -6  -2  15 140.505  36.562   3
   6  -2 -15 237.806  40.341   4
   6   2 -15 187.021  36.197   4
  -6   2  15 177.328  37.639   3
  -4  -2  15 16.5480 19.4211   3
   4  -2 -15 -4.2289 14.3498   4
   4   2 -15 24.8407 18.7146   4
  -4   2  15 -11.698  14.855   3
  -2  -2  15 -6.3451 15.5782   3
   2  -2 -15 -1.5682 14.9146   4
   2   2 -15  6.6538 16.0959   4
   0  -2  15  9.6115 22.2747   3
  -2   2 -15  1.6666 19.2328   1
  -5  -3  15 16.3338 23.6765   3
   5  -3 -15 61.8016 23.6869   4
   5   3 -15 54.6989 24.0157   4
   3  -3 -15 -3.0068 15.0170   4
  -3  -3  15 -1.3512 20.0017   3
   3   3 -15 57.2958 23.4912   4
  -1  -3  15  8.8012 19.7369   3
   1   3 -15  7.5000 18.4144   4
  -1   3 -15 31.4420 21.4689   1
   4  -4 -15 39.8103 22.7887   4
   2   4 -15 10.2606 18.1043   4
   4   0 -16 767.869  63.379   4
  -4   0  16 880.774  75.894   3
  -2   0  16 1157.20   84.37   3
   2   0 -16 1124.22   73.26   4
   0   0  16 277.997  48.320   3
   5  -1 -16 590.450  57.833   4
  -5   1  16 717.281  67.806   3
  -3  -1  16 752.631  70.650   3
   3  -1 -16 596.112  56.893   4
   3   1 -16 696.589  60.020   4
  -3   1  16 707.214  65.728   3
  -1   1  16 575.663  61.091   3
   1   1  16 682.909  66.659   3
   4  -2 -16 481.845  51.506   4
   2   2 -16 336.926  45.367   4
   3  -3 -16 586.548  57.081   4
   0   0   0    0.00    0.00   0
;
loop_
_symmetry_equiv_pos_as_xyz
'x, y, z'
'-x, y, -z+1/2'
'x+1/2, y+1/2, z'
'-x+1/2, y+1/2, -z+1/2'
'-x, -y, -z'
'x, -y, z-1/2'
'-x+1/2, -y+1/2, -z'
'x+1/2, -y+1/2, z-1/2'
loop_
_atom_site_label
_atom_site_type_symbol
_atom_site_fract_x
_atom_site_fract_y
_atom_site_fract_z
_atom_site_U_iso_or_equiv
_atom_site_adp_type
_atom_site_occupancy
_atom_site_symmetry_multiplicity
_atom_site_calc_flag
_atom_site_refinement_flags
_atom_site_disorder_assembly
_atom_site_disorder_group
U1 U 0.0000 0.50733(3) 0.2500 0.00929(8) Uani 1 2 d S . .
P1 P 0.06545(12) 0.25087(15) 0.01524(10) 0.0127(3) Uani 1 1 d . . .
P2 P 0.22608(11) 0.16314(16) 0.33550(10) 0.0136(3) Uani 1 1 d . . .
O1 O 0.0793(3) 0.3760(4) 0.1093(3) 0.0191(8) Uani 1 1 d . . .
O2 O 0.1357(4) 0.0140(4) 0.2940(4) 0.0299(10) Uani 1 1 d . . .
O3 O 0.1522(3) 0.3238(4) 0.3363(3) 0.0181(8) Uani 1 1 d . . .
O4 O 0.1637(3) 0.1055(5) 0.0431(3) 0.0233(8) Uani 1 1 d . . .
O5 O 0.3214(3) 0.1773(4) 0.2671(3) 0.0226(8) Uani 1 1 d . . .
O6 O 0.4295(4) 0.1728(5) 0.0945(3) 0.0264(9) Uani 1 1 d . . .
loop_
_atom_site_aniso_label
_atom_site_aniso_U_11
_atom_site_aniso_U_22
_atom_site_aniso_U_33
_atom_site_aniso_U_23
_atom_site_aniso_U_13
_atom_site_aniso_U_12
U1 0.00936(13) 0.00957(13) 0.00913(13) 0.000 0.00238(9) 0.000
P1 0.0155(7) 0.0117(6) 0.0110(6) 0.0004(5) 0.0033(5) 0.0002(5)
P2 0.0138(6) 0.0141(6) 0.0141(6) 0.0029(5) 0.0059(5) 0.0038(5)
O1 0.021(2) 0.0202(19) 0.0165(19) -0.0046(15) 0.0062(15) -0.0018(15)
O2 0.025(2) 0.023(2) 0.043(3) -0.0026(18) 0.0086(19) -0.0045(17)
O3 0.0186(19) 0.0180(19) 0.019(2) 0.0015(15) 0.0071(15) 0.0076(15)
O4 0.030(2) 0.0169(19) 0.021(2) -0.0001(16) 0.0014(17) 0.0119(16)
O5 0.025(2) 0.0189(19) 0.029(2) 0.0061(16) 0.0174(17) 0.0092(16)
O6 0.047(3) 0.021(2) 0.0143(19) 0.0060(16) 0.0149(18) 0.0133(18)
loop_
_atom_type_symbol
_atom_type_description
_atom_type_scat_dispersion_real
_atom_type_scat_dispersion_imag
_atom_type_scat_source
O O 0.0106 0.0060 'International Tables Vol C Tables 4.2.6.8 and 6.1.1.4'
H H 0.0000 0.0000 'International Tables Vol C Tables 4.2.6.8 and 6.1.1.4'
P P 0.1023 0.0942 'International Tables Vol C Tables 4.2.6.8 and 6.1.1.4'
U U -9.6767 9.6646 'International Tables Vol C Tables 4.2.6.8 and 6.1.1.4'
loop_
_geom_angle_atom_site_label_1
_geom_angle_atom_site_label_2
_geom_angle_atom_site_label_3
_geom_angle
_geom_angle_site_symmetry_1
_geom_angle_site_symmetry_3
O3 U1 O3 103.98(17) . 2
O3 U1 O6 82.27(13) . 4
O3 U1 O6 144.89(12) 2 4
O3 U1 O6 144.89(12) . 3_455
O3 U1 O6 82.27(13) 2 3_455
O6 U1 O6 112.59(18) 4 3_455
O3 U1 O1 73.39(12) . .
O3 U1 O1 75.73(12) 2 .
O6 U1 O1 137.73(12) 4 .
O6 U1 O1 74.91(12) 3_455 .
O3 U1 O1 75.73(12) . 2
O3 U1 O1 73.39(12) 2 2
O6 U1 O1 74.91(12) 4 2
O6 U1 O1 137.73(12) 3_455 2
O1 U1 O1 128.78(17) . 2
O3 U1 O5 80.03(12) . 4
O3 U1 O5 146.48(12) 2 4
O6 U1 O5 68.37(12) 4 4
O6 U1 O5 76.91(13) 3_455 4
O1 U1 O5 73.67(11) . 4
O1 U1 O5 138.15(12) 2 4
O3 U1 O5 146.48(12) . 3_455
O3 U1 O5 80.03(12) 2 3_455
O6 U1 O5 76.91(13) 4 3_455
O6 U1 O5 68.37(12) 3_455 3_455
O1 U1 O5 138.15(12) . 3_455
O1 U1 O5 73.67(11) 2 3_455
O5 U1 O5 115.13(17) 4 3_455
O6 P1 O1 115.7(2) 7 .
O6 P1 O4 108.8(2) 7 .
O1 P1 O4 110.0(2) . .
O3 P2 O5 114.1(2) . .
O3 P2 O2 107.0(2) . .
O5 P2 O2 111.4(2) . .
P1 O1 U1 149.6(2) . .
P2 O3 U1 150.2(2) . .
P2 O5 U1 135.0(2) . 3_545
P1 O6 U1 154.8(2) 7 3_545
loop_
_geom_bond_atom_site_label_1
_geom_bond_atom_site_label_2
_geom_bond_distance
_geom_bond_site_symmetry_2
U1 O3 2.314(3) .
U1 O3 2.314(3) 2
U1 O6 2.314(3) 4
U1 O6 2.314(3) 3_455
U1 O1 2.359(3) .
U1 O1 2.359(3) 2
U1 O5 2.460(3) 4
U1 O5 2.460(3) 3_455
P1 O6 1.498(4) 7
P1 O1 1.501(3) .
P1 O4 1.570(4) .
P2 O3 1.502(3) .
P2 O5 1.512(3) .
P2 O2 1.557(4) .
O5 U1 2.460(3) 3_545
O6 P1 1.499(4) 7
O6 U1 2.314(3) 3_545
