#------------------------------------------------------------------------------
#$Date: 2021-05-27 11:56:58 +0300 (Thu, 27 May 2021) $
#$Revision: 265549 $
#$URL: file:///home/coder/svn-repositories/cod/cif/1/56/29/1562921.cif $
#------------------------------------------------------------------------------
#
# This file is available in the Crystallography Open Database (COD),
# http://www.crystallography.net/
#
# All data on this site have been placed in the public domain by the
# contributors.
#
data_1562921
loop_
_publ_author_name
'Chinthaka Silva, G.W.'
'Kercher, Andrew A.'
'Hunn, John D.'
'Martin, Rodger C.'
'Jellison, Gerald E.'
'Meyer, Harry M.'
_publ_section_title
;
 Characterization of zirconium carbides using electron microscopy, optical
 anisotropy, Auger depth profiles, X-ray diffraction, and electron density
 calculated by charge flipping method
;
_journal_name_full               'Journal of Solid State Chemistry'
_journal_page_first              91
_journal_page_last               99
_journal_paper_doi               10.1016/j.jssc.2012.04.047
_journal_volume                  194
_journal_year                    2012
_chemical_compound_source        Syn
_chemical_formula_analytical     'C Zr'
_chemical_formula_moiety         'C Zr'
_chemical_formula_structural     'C Zr'
_chemical_formula_sum            'C Zr'
_chemical_formula_weight         103.23
_chemical_name_common            'Zirconium carbide'
_space_group_IT_number           225
_space_group_name_Hall           '-F 4 2 3'
_space_group_name_H-M_alt        'F m -3 m'
_symmetry_cell_setting           cubic
_symmetry_space_group_name_H-M   'F m -3 m'
_cell_angle_alpha                90.0
_cell_angle_beta                 90.0
_cell_angle_gamma                90.0
_cell_formula_units_Z            4
_cell_length_a                   4.700422(26)
_cell_length_b                   4.700422
_cell_length_c                   4.700422
_cell_measurement_temperature    298
_cell_volume                     103.8510(6)
_computing_data_collection       'PANalytical X'Pert HighScore Plus'
_computing_structure_refinement  GSAS
_computing_structure_solution    GSAS
_diffrn_ambient_temperature      298
_diffrn_measurement_device_type  'PANalytical X'Pert PRO MPD Diffractometer'
_diffrn_radiation_polarisn_ratio 0.7
_diffrn_radiation_probe          x-ray
_diffrn_radiation_type           'Cu K\a'
_diffrn_radiation_wavelength     1.54180
_diffrn_source                   'Sealed tube'
_diffrn_source_target            Cu
_diffrn_source_type              K\a
_exptl_absorpt_correction_T_max  1.00000
_exptl_absorpt_correction_T_min  1.00000
_exptl_absorpt_process_details
;   GSAS Absorption/surface roughness correction: function number 0
 No correction is applied.
;
_exptl_crystal_density_diffrn    6.603
_pd_calc_method                  'Rietveld Refinement'
_pd_instr_location               ' ?'
_pd_meas_2theta_range_inc        0.017
_pd_meas_2theta_range_max        149.94136
_pd_meas_2theta_range_min        25.00836
_pd_meas_number_of_points        7350
_pd_meas_scan_method             Step
_pd_phase_name                   ZrC0.84
_pd_prep_pressure                101.3
_pd_prep_temperature             298
_pd_proc_2theta_range_inc        0.017
_pd_proc_2theta_range_max        149.94136
_pd_proc_2theta_range_min        25.00836
_pd_proc_info_datetime           2011-11-07T09:44:31
_pd_proc_info_excluded_regions   ' ?'
_pd_proc_ls_background_function
;   GSAS Background function number 2 with 10 terms.
 Cosine Fourier series
      1:    1520.66     2:    539.689     3:    597.969     4:    208.559    
      5:    200.635     6:    78.1477     7:    63.8243     8:    11.1242    
      9:    20.4996    10:   -2.63182    
;
_pd_proc_ls_prof_R_factor        0.0400
_pd_proc_ls_prof_wR_expected     0.0242
_pd_proc_ls_prof_wR_factor       0.0594
_pd_proc_number_of_points        7350
_refine_ls_goodness_of_fit_all   2.46
_refine_ls_matrix_type           full
_refine_ls_number_parameters     24
_refine_ls_number_restraints     0
_refine_ls_R_Fsqd_factor         0.11935
_refine_ls_shift/su_max          0.04
_refine_ls_shift/su_mean         0.01
_cod_data_source_file            JSSC-2012-194-91.cif
_cod_data_source_block           ZR
_cod_depositor_comments
;
The following automatic conversions were performed:

data item '_geom_angle_publ_flag' value 'N' was changed to 'n' in
accordance with the built-in table derived from the CIF Core
dictionary named 'cif_core.dic' version 2.4.5 last updated on
2014-11-21 (30 times).

data item '_geom_bond_publ_flag' value 'N' was changed to 'n' in
accordance with the built-in table derived from the CIF Core
dictionary named 'cif_core.dic' version 2.4.5 last updated on
2014-11-21 (24 times).

Automatic conversion script
Id: cif_fix_values 8369 2020-08-20 11:38:08Z andrius 
;
_cod_original_cell_volume        103.851(2)
_cod_database_code               1562921
loop_
_symmetry_equiv_pos_site_id
_symmetry_equiv_pos_as_xyz
1 +x,+y,+z
2 +z,+x,+y
3 +y,+z,+x
4 +x,+y,-z
5 -z,+x,+y
6 +y,-z,+x
7 -z,+x,-y
8 -y,-z,+x
9 +y,-z,-x
10 -x,+y,-z
11 -z,-x,+y
12 +x,-y,-z
13 +y,+x,+z
14 +z,+y,+x
15 +x,+z,+y
16 +y,+x,-z
17 -z,+y,+x
18 +x,-z,+y
19 -z,+y,-x
20 -x,-z,+y
21 +x,-z,-y
22 -y,+x,-z
23 -z,-y,+x
24 +y,-x,-z
-1 -x,-y,-z
-2 -z,-x,-y
-3 -y,-z,-x
-4 -x,-y,+z
-5 +z,-x,-y
-6 -y,+z,-x
-7 +z,-x,+y
-8 +y,+z,-x
-9 -y,+z,+x
-10 +x,-y,+z
-11 +z,+x,-y
-12 -x,+y,+z
-13 -y,-x,-z
-14 -z,-y,-x
-15 -x,-z,-y
-16 -y,-x,+z
-17 +z,-y,-x
-18 -x,+z,-y
-19 +z,-y,+x
-20 +x,+z,-y
-21 -x,+z,+y
-22 +y,-x,+z
-23 +z,+y,-x
-24 -y,+x,+z
101 +x,+y+1/2,+z+1/2
102 +z,+x+1/2,+y+1/2
103 +y,+z+1/2,+x+1/2
104 +x,+y+1/2,-z+1/2
105 -z,+x+1/2,+y+1/2
106 +y,-z+1/2,+x+1/2
107 -z,+x+1/2,-y+1/2
108 -y,-z+1/2,+x+1/2
109 +y,-z+1/2,-x+1/2
110 -x,+y+1/2,-z+1/2
111 -z,-x+1/2,+y+1/2
112 +x,-y+1/2,-z+1/2
113 +y,+x+1/2,+z+1/2
114 +z,+y+1/2,+x+1/2
115 +x,+z+1/2,+y+1/2
116 +y,+x+1/2,-z+1/2
117 -z,+y+1/2,+x+1/2
118 +x,-z+1/2,+y+1/2
119 -z,+y+1/2,-x+1/2
120 -x,-z+1/2,+y+1/2
121 +x,-z+1/2,-y+1/2
122 -y,+x+1/2,-z+1/2
123 -z,-y+1/2,+x+1/2
124 +y,-x+1/2,-z+1/2
-101 -x,-y+1/2,-z+1/2
-102 -z,-x+1/2,-y+1/2
-103 -y,-z+1/2,-x+1/2
-104 -x,-y+1/2,+z+1/2
-105 +z,-x+1/2,-y+1/2
-106 -y,+z+1/2,-x+1/2
-107 +z,-x+1/2,+y+1/2
-108 +y,+z+1/2,-x+1/2
-109 -y,+z+1/2,+x+1/2
-110 +x,-y+1/2,+z+1/2
-111 +z,+x+1/2,-y+1/2
-112 -x,+y+1/2,+z+1/2
-113 -y,-x+1/2,-z+1/2
-114 -z,-y+1/2,-x+1/2
-115 -x,-z+1/2,-y+1/2
-116 -y,-x+1/2,+z+1/2
-117 +z,-y+1/2,-x+1/2
-118 -x,+z+1/2,-y+1/2
-119 +z,-y+1/2,+x+1/2
-120 +x,+z+1/2,-y+1/2
-121 -x,+z+1/2,+y+1/2
-122 +y,-x+1/2,+z+1/2
-123 +z,+y+1/2,-x+1/2
-124 -y,+x+1/2,+z+1/2
201 +x+1/2,+y,+z+1/2
202 +z+1/2,+x,+y+1/2
203 +y+1/2,+z,+x+1/2
204 +x+1/2,+y,-z+1/2
205 -z+1/2,+x,+y+1/2
206 +y+1/2,-z,+x+1/2
207 -z+1/2,+x,-y+1/2
208 -y+1/2,-z,+x+1/2
209 +y+1/2,-z,-x+1/2
210 -x+1/2,+y,-z+1/2
211 -z+1/2,-x,+y+1/2
212 +x+1/2,-y,-z+1/2
213 +y+1/2,+x,+z+1/2
214 +z+1/2,+y,+x+1/2
215 +x+1/2,+z,+y+1/2
216 +y+1/2,+x,-z+1/2
217 -z+1/2,+y,+x+1/2
218 +x+1/2,-z,+y+1/2
219 -z+1/2,+y,-x+1/2
220 -x+1/2,-z,+y+1/2
221 +x+1/2,-z,-y+1/2
222 -y+1/2,+x,-z+1/2
223 -z+1/2,-y,+x+1/2
224 +y+1/2,-x,-z+1/2
-201 -x+1/2,-y,-z+1/2
-202 -z+1/2,-x,-y+1/2
-203 -y+1/2,-z,-x+1/2
-204 -x+1/2,-y,+z+1/2
-205 +z+1/2,-x,-y+1/2
-206 -y+1/2,+z,-x+1/2
-207 +z+1/2,-x,+y+1/2
-208 +y+1/2,+z,-x+1/2
-209 -y+1/2,+z,+x+1/2
-210 +x+1/2,-y,+z+1/2
-211 +z+1/2,+x,-y+1/2
-212 -x+1/2,+y,+z+1/2
-213 -y+1/2,-x,-z+1/2
-214 -z+1/2,-y,-x+1/2
-215 -x+1/2,-z,-y+1/2
-216 -y+1/2,-x,+z+1/2
-217 +z+1/2,-y,-x+1/2
-218 -x+1/2,+z,-y+1/2
-219 +z+1/2,-y,+x+1/2
-220 +x+1/2,+z,-y+1/2
-221 -x+1/2,+z,+y+1/2
-222 +y+1/2,-x,+z+1/2
-223 +z+1/2,+y,-x+1/2
-224 -y+1/2,+x,+z+1/2
301 +x+1/2,+y+1/2,+z
302 +z+1/2,+x+1/2,+y
303 +y+1/2,+z+1/2,+x
304 +x+1/2,+y+1/2,-z
305 -z+1/2,+x+1/2,+y
306 +y+1/2,-z+1/2,+x
307 -z+1/2,+x+1/2,-y
308 -y+1/2,-z+1/2,+x
309 +y+1/2,-z+1/2,-x
310 -x+1/2,+y+1/2,-z
311 -z+1/2,-x+1/2,+y
312 +x+1/2,-y+1/2,-z
313 +y+1/2,+x+1/2,+z
314 +z+1/2,+y+1/2,+x
315 +x+1/2,+z+1/2,+y
316 +y+1/2,+x+1/2,-z
317 -z+1/2,+y+1/2,+x
318 +x+1/2,-z+1/2,+y
319 -z+1/2,+y+1/2,-x
320 -x+1/2,-z+1/2,+y
321 +x+1/2,-z+1/2,-y
322 -y+1/2,+x+1/2,-z
323 -z+1/2,-y+1/2,+x
324 +y+1/2,-x+1/2,-z
-301 -x+1/2,-y+1/2,-z
-302 -z+1/2,-x+1/2,-y
-303 -y+1/2,-z+1/2,-x
-304 -x+1/2,-y+1/2,+z
-305 +z+1/2,-x+1/2,-y
-306 -y+1/2,+z+1/2,-x
-307 +z+1/2,-x+1/2,+y
-308 +y+1/2,+z+1/2,-x
-309 -y+1/2,+z+1/2,+x
-310 +x+1/2,-y+1/2,+z
-311 +z+1/2,+x+1/2,-y
-312 -x+1/2,+y+1/2,+z
-313 -y+1/2,-x+1/2,-z
-314 -z+1/2,-y+1/2,-x
-315 -x+1/2,-z+1/2,-y
-316 -y+1/2,-x+1/2,+z
-317 +z+1/2,-y+1/2,-x
-318 -x+1/2,+z+1/2,-y
-319 +z+1/2,-y+1/2,+x
-320 +x+1/2,+z+1/2,-y
-321 -x+1/2,+z+1/2,+y
-322 +y+1/2,-x+1/2,+z
-323 +z+1/2,+y+1/2,-x
-324 -y+1/2,+x+1/2,+z
loop_
_atom_site_type_symbol
_atom_site_label
_atom_site_fract_x
_atom_site_fract_y
_atom_site_fract_z
_atom_site_occupancy
_atom_site_thermal_displace_type
_atom_site_U_iso_or_equiv
_atom_site_symmetry_multiplicity
C C1 0.0 0.0 0.0 1.0 Uiso 0.0192(13) 4
Zr ZR2 0.5 0.5 0.5 1.0 Uiso 0.00163(13) 4
loop_
_atom_type_symbol
_atom_type_scat_dispersion_real
_atom_type_scat_dispersion_imag
_atom_type_scat_Cromer_Mann_a1
_atom_type_scat_Cromer_Mann_a2
_atom_type_scat_Cromer_Mann_a3
_atom_type_scat_Cromer_Mann_a4
_atom_type_scat_Cromer_Mann_b1
_atom_type_scat_Cromer_Mann_b2
_atom_type_scat_Cromer_Mann_b3
_atom_type_scat_Cromer_Mann_b4
_atom_type_scat_Cromer_Mann_c
_atom_type_scat_source
C 0.000 0.000 2.31000 20.8439 1.02000 10.2075 1.58860 0.56870 0.86500 51.6512
0.21560 International_Tables_Vol_C
Zr 0.000 0.000 17.8765 1.27618 10.9480 11.9160 5.41732 0.11762 3.65721 87.6627
2.06929 International_Tables_Vol_C
loop_
_geom_angle_atom_site_label_1
_geom_angle_atom_site_label_2
_geom_angle_atom_site_label_3
_geom_angle
_geom_angle_site_symmetry_1
_geom_angle_site_symmetry_2
_geom_angle_site_symmetry_3
_geom_angle_publ_flag
ZR2 C1 ZR2 180.0 101_444 . 101_544 n
ZR2 C1 ZR2 90.0 101_444 . 201_444 n
ZR2 C1 ZR2 90.0 101_444 . 201_454 n
ZR2 C1 ZR2 90.0 101_444 . 301_444 n
ZR2 C1 ZR2 90.0 101_444 . 301_445 n
ZR2 C1 ZR2 90.0 101_544 . 201_444 n
ZR2 C1 ZR2 90.0 101_544 . 201_454 n
ZR2 C1 ZR2 90.0 101_544 . 301_444 n
ZR2 C1 ZR2 90.0 101_544 . 301_445 n
ZR2 C1 ZR2 180.0 201_444 . 201_454 n
ZR2 C1 ZR2 90.0 201_444 . 301_444 n
ZR2 C1 ZR2 90.0 201_444 . 301_445 n
ZR2 C1 ZR2 90.0 201_454 . 301_444 n
ZR2 C1 ZR2 90.0 201_454 . 301_445 n
ZR2 C1 ZR2 180.0 301_444 . 301_445 n
C1 ZR2 C1 180.0 101_555 . 101_655 n
C1 ZR2 C1 90.0 101_555 . 201_555 n
C1 ZR2 C1 90.0 101_555 . 201_565 n
C1 ZR2 C1 90.0 101_555 . 301_555 n
C1 ZR2 C1 90.0 101_555 . 301_556 n
C1 ZR2 C1 90.0 101_655 . 201_555 n
C1 ZR2 C1 90.0 101_655 . 201_565 n
C1 ZR2 C1 90.0 101_655 . 301_555 n
C1 ZR2 C1 90.0 101_655 . 301_556 n
C1 ZR2 C1 180.0 201_555 . 201_565 n
C1 ZR2 C1 90.0 201_555 . 301_555 n
C1 ZR2 C1 90.0 201_555 . 301_556 n
C1 ZR2 C1 90.0 201_565 . 301_555 n
C1 ZR2 C1 90.0 201_565 . 301_556 n
C1 ZR2 C1 180.0 301_555 . 301_556 n
loop_
_geom_bond_atom_site_label_1
_geom_bond_atom_site_label_2
_geom_bond_distance
_geom_bond_site_symmetry_1
_geom_bond_site_symmetry_2
_geom_bond_publ_flag
C1 ZR2 2.35021(10) . 101_444 n
C1 ZR2 2.35021(10) . 101_544 n
C1 ZR2 2.35021(10) . 201_444 n
C1 ZR2 2.35021(10) . 201_454 n
C1 ZR2 2.35021(10) . 301_444 n
C1 ZR2 2.35021(10) . 301_445 n
ZR2 C1 2.35021(10) . 101_555 n
ZR2 C1 2.35021(10) . 101_655 n
ZR2 C1 2.35021(10) . 201_555 n
ZR2 C1 2.35021(10) . 201_565 n
ZR2 C1 2.35021(10) . 301_555 n
ZR2 C1 2.35021(10) . 301_556 n
ZR2 ZR2 3.32370(10) . 101_544 n
ZR2 ZR2 3.32370(10) . 101_545 n
ZR2 ZR2 3.32370(10) . 101_554 n
ZR2 ZR2 3.32370(10) . 101_555 n
ZR2 ZR2 3.32370(10) . 201_454 n
ZR2 ZR2 3.32370(10) . 201_455 n
ZR2 ZR2 3.32370(10) . 201_554 n
ZR2 ZR2 3.32370(10) . 201_555 n
ZR2 ZR2 3.32370(20) . 301_445 n
ZR2 ZR2 3.32370(20) . 301_455 n
ZR2 ZR2 3.32370(20) . 301_545 n
ZR2 ZR2 3.32370(20) . 301_555 n
loop_
_pd_meas_counts_total
_pd_proc_ls_weight
_pd_proc_intensity_bkg_calc
_pd_calc_intensity_total
2260.0 0.000442 2284.26880 2284.26709
2317.0 0.000432 2283.37378 2283.37207
2307.0 0.000433 2282.47876 2282.47705
2343.0 0.000427 2281.58374 2281.58252
2324.0 0.000430 2280.68970 2280.68774
2287.0 0.000437 2279.79541 2279.79346
2331.0 0.000429 2278.90112 2278.89966
2243.0 0.000446 2278.00781 2278.00586
2287.0 0.000437 2277.11475 2277.11279
2297.0 0.000435 2276.22095 2276.21948
2211.0 0.000452 2275.32764 2275.32642
2391.0 0.000418 2274.43530 2274.43384
2285.0 0.000438 2273.54297 2273.54126
2265.0 0.000442 2272.65088 2272.64917
2284.0 0.000438 2271.75903 2271.75708
2273.0 0.000440 2270.86694 2270.86548
2317.0 0.000432 2269.97583 2269.97412
2365.0 0.000423 2269.08423 2269.08276
2300.0 0.000435 2268.19385 2268.19214
2253.0 0.000444 2267.30298 2267.30151
2251.0 0.000444 2266.41260 2266.41089
2235.0 0.000447 2265.52271 2265.52100
2227.0 0.000449 2264.63281 2264.63110
2242.0 0.000446 2263.74365 2263.74170
2199.0 0.000455 2262.85352 2262.85229
2248.0 0.000445 2261.96436 2261.96313
2290.0 0.000437 2261.07642 2261.07446
2291.0 0.000436 2260.18774 2260.18579
2292.0 0.000436 2259.29980 2261.63208
2269.0 0.000441 2258.41138 2260.77051
2295.0 0.000436 2257.52368 2259.90991
2308.0 0.000433 2256.63599 2259.05005
2239.0 0.000447 2255.74902 2259.35132
2208.0 0.000453 2254.86206 2258.50635
2267.0 0.000441 2253.97559 2257.66187
2257.0 0.000443 2253.08936 2256.81860
2301.0 0.000435 2252.20361 2255.97681
2322.0 0.000431 2251.31763 2255.13574
2285.0 0.000438 2250.43213 2254.29590
2315.0 0.000432 2249.54712 2253.45703
2313.0 0.000432 2248.66187 2252.61938
2348.0 0.000426 2247.77710 2251.78296
2322.0 0.000431 2246.89258 2250.94727
2240.0 0.000446 2246.00903 2250.11328
2265.0 0.000442 2245.12476 2249.27979
2250.0 0.000444 2244.24146 2248.44800
2302.0 0.000434 2243.35815 2247.61768
2308.0 0.000433 2242.47510 2246.78833
2296.0 0.000436 2241.59277 2245.96045
2278.0 0.000439 2240.71021 2245.13379
2229.0 0.000449 2239.82837 2244.30835
2266.0 0.000441 2238.94604 2243.48462
2242.0 0.000446 2238.06543 2242.66211
2248.0 0.000445 2237.18384 2241.84106
2244.0 0.000446 2236.30298 2241.02148
2262.0 0.000442 2235.42236 2240.20361
2165.0 0.000462 2234.54175 2239.38696
2209.0 0.000453 2233.66187 2238.57202
2080.0 0.000481 2232.78198 2237.75928
2183.0 0.000458 2231.90259 2236.94727
2133.0 0.000469 2231.02344 2236.13745
2170.0 0.000461 2230.14453 2235.32935
2203.0 0.000454 2229.26611 2234.52271
2156.0 0.000464 2228.38770 2233.71826
2253.0 0.000444 2227.51001 2232.91553
2216.0 0.000451 2226.63184 2232.11450
2149.0 0.000465 2225.75488 2231.31592
2184.0 0.000458 2224.87793 2230.51904
2194.0 0.000456 2224.00073 2229.72437
2177.0 0.000459 2223.12402 2228.93164
2237.0 0.000447 2222.24829 2228.14087
2266.0 0.000441 2221.37280 2227.35278
2256.0 0.000443 2220.49731 2226.56641
2169.0 0.000461 2219.62158 2225.78271
2113.0 0.000473 2218.74707 2225.00122
2210.0 0.000452 2217.87183 2224.22241
2260.0 0.000442 2216.99805 2223.44604
2212.0 0.000452 2216.12402 2222.67212
2261.0 0.000442 2215.25049 2221.90112
2229.0 0.000449 2214.37671 2221.13281
2198.0 0.000455 2213.50391 2220.36694
2192.0 0.000456 2212.63086 2219.60425
2151.0 0.000465 2211.75854 2218.84473
2212.0 0.000452 2210.88623 2218.08813
2246.0 0.000445 2210.01440 2217.33447
2212.0 0.000452 2209.14331 2216.58423
2210.0 0.000452 2208.27173 2215.83740
2241.0 0.000446 2207.40112 2215.09399
2263.0 0.000442 2206.53076 2214.35425
2287.0 0.000437 2205.66064 2213.61816
2245.0 0.000445 2204.79028 2212.88574
2225.0 0.000449 2203.92114 2212.15747
2211.0 0.000452 2203.05176 2211.43311
2199.0 0.000455 2202.18262 2210.71289
2205.0 0.000454 2201.31421 2209.99683
2170.0 0.000461 2200.44531 2209.28540
2148.0 0.000466 2199.57788 2208.57861
2225.0 0.000449 2198.71021 2207.87646
2217.0 0.000451 2197.84326 2207.17969
2220.0 0.000450 2196.97632 2206.48755
2192.0 0.000456 2196.10913 2205.80078
2161.0 0.000463 2195.24316 2205.11963
2206.0 0.000453 2194.37720 2204.44409
2235.0 0.000447 2193.51123 2203.77441
2180.0 0.000459 2192.64600 2203.11108
2137.0 0.000468 2191.78101 2202.45361
2121.0 0.000471 2190.91675 2201.80322
2137.0 0.000468 2190.05249 2201.15918
2171.0 0.000461 2189.18823 2200.52295
2196.0 0.000455 2188.32446 2199.89355
2094.0 0.000478 2187.46094 2199.27173
2073.0 0.000482 2186.59814 2198.65820
2201.0 0.000454 2185.73584 2198.05298
2181.0 0.000459 2184.87305 2197.45630
2147.0 0.000466 2184.01147 2196.86890
2136.0 0.000468 2183.14941 2196.29053
2107.0 0.000475 2182.28833 2195.72241
2234.0 0.000448 2181.42725 2195.16431
2239.0 0.000447 2180.56689 2194.61670
2199.0 0.000455 2179.70679 2194.08057
2161.0 0.000463 2178.84668 2193.55615
2201.0 0.000454 2177.98730 2193.04370
2197.0 0.000455 2177.12769 2192.54419
2083.0 0.000480 2176.26880 2192.05835
2136.0 0.000468 2175.41040 2191.58594
2135.0 0.000468 2174.55200 2191.12866
2156.0 0.000464 2173.69458 2190.68652
2090.0 0.000478 2172.83691 2190.26099
2235.0 0.000447 2171.97949 2189.85229
2175.0 0.000460 2171.12305 2189.46143
2155.0 0.000464 2170.26636 2189.08936
2136.0 0.000468 2169.41040 2188.73730
2132.0 0.000469 2168.55444 2188.40601
2087.0 0.000479 2167.69922 2188.09668
2100.0 0.000476 2166.84399 2187.81030
2099.0 0.000476 2165.98926 2187.54883
2190.0 0.000457 2165.13550 2187.31323
2132.0 0.000469 2164.28076 2187.10474
2132.0 0.000469 2163.42749 2186.92529
2166.0 0.000462 2162.57422 2186.77661
2182.0 0.000458 2161.72168 2186.66016
2171.0 0.000461 2160.86865 2186.57861
2161.0 0.000463 2160.01636 2186.53394
2153.0 0.000464 2159.16479 2186.52759
2128.0 0.000470 2158.31274 2186.56323
2122.0 0.000471 2157.46191 2186.64307
2158.0 0.000463 2156.61108 2186.76953
2219.0 0.000451 2155.76123 2186.94702
2175.0 0.000460 2154.91138 2187.17822
2145.0 0.000466 2154.06177 2187.46680
2210.0 0.000452 2153.21167 2187.81689
2270.0 0.000441 2152.36328 2188.23340
2204.0 0.000454 2151.51392 2188.72119
2147.0 0.000466 2150.66675 2189.28516
2209.0 0.000453 2149.81836 2189.93164
2198.0 0.000455 2148.97070 2190.66724
2191.0 0.000456 2148.12402 2191.49854
2227.0 0.000449 2147.27661 2192.43408
2190.0 0.000457 2146.43066 2193.48145
2195.0 0.000456 2145.58447 2194.65161
2160.0 0.000463 2144.73877 2195.95459
2147.0 0.000466 2143.89355 2197.40161
2127.0 0.000470 2143.04883 2199.00732
2172.0 0.000460 2142.20435 2200.78540
2184.0 0.000458 2141.36035 2202.75317
2182.0 0.000458 2140.51611 2204.92896
2124.0 0.000471 2139.67310 2207.33301
2143.0 0.000467 2138.83008 2209.99023
2105.0 0.000475 2137.98755 2212.92627
2116.0 0.000473 2137.14526 2216.17285
2182.0 0.000458 2136.30298 2219.76465
2087.0 0.000479 2135.46191 2223.73950
2197.0 0.000455 2134.62061 2228.14600
2234.0 0.000448 2133.78052 2233.03394
2240.0 0.000446 2132.93921 2238.46802
2210.0 0.000452 2132.09985 2244.51709
2183.0 0.000458 2131.26025 2251.26294
2269.0 0.000441 2130.42090 2258.80737
2187.0 0.000457 2129.58228 2267.26050
2104.0 0.000475 2128.74365 2276.76538
2260.0 0.000442 2127.90552 2287.48389
2275.0 0.000440 2127.06812 2299.60962
2235.0 0.000447 2126.23022 2313.38892
2234.0 0.000448 2125.39355 2329.10645
2324.0 0.000430 2124.55713 2347.13257
2314.0 0.000432 2123.72095 2367.91016
2343.0 0.000427 2122.88574 2391.99634
2402.0 0.000416 2122.04956 2420.11914
2420.0 0.000413 2121.21484 2453.18115
2524.0 0.000396 2120.38013 2492.39746
2641.0 0.000379 2119.54565 2539.34033
2645.0 0.000378 2118.71240 2596.11426
2762.0 0.000362 2117.87866 2665.65576
2889.0 0.0003461 2117.04614 2751.97510
3120.0 0.0003205 2116.21313 2860.91406
3413.0 0.0002930 2115.38110 3000.96387
3740.0 0.0002674 2114.54907 3185.10327
4310.0 0.0002320 2113.71777 3435.29614
5060.0 0.0001976 2112.88672 3795.91479
5995.0 0.0001668 2112.05615 4380.47119
7356.0 0.0001359 2111.22583 5486.41064
9529.0 0.0001049 2110.39600 7748.72656
13002.0 0.0000769 2109.56616 12073.13379
18747.0 0.0000533 2108.73730 18944.00977
26857.0 0.0000372 2107.90869 26998.71289
33007.0 0.0000303 2107.08008 31412.57617
32096.0 0.0000312 2106.25244 28905.69922
26256.0 0.0000381 2105.42480 24413.79102
21571.0 0.0000464 2104.59790 21936.55273
19837.0 0.0000504 2103.77100 20185.44336
17858.0 0.0000560 2102.94482 16386.65430
13437.0 0.0000744 2102.11890 11672.90625
8661.0 0.0001155 2101.29395 7941.53760
5624.0 0.0001778 2100.46899 5620.62891
4195.0 0.0002384 2099.64404 4374.05127
3553.0 0.0002815 2098.81934 3726.43164
3246.0 0.0003081 2097.99609 3356.17578
3051.0 0.0003278 2097.17212 3112.65967
2870.0 0.0003484 2096.34937 2936.72388
2715.0 0.000368 2095.52661 2803.26099
2550.0 0.000392 2094.70459 2699.19238
2472.0 0.000405 2093.88306 2616.37061
2459.0 0.000407 2093.06128 2549.27344
2372.0 0.000422 2092.24048 2494.13110
2320.0 0.000431 2091.42017 2448.19287
2265.0 0.000442 2090.59961 2409.49121
2215.0 0.000451 2089.77979 2376.55957
2175.0 0.000460 2088.96045 2348.26147
2269.0 0.000441 2088.14160 2323.75684
2245.0 0.000445 2087.32324 2302.36426
2218.0 0.000451 2086.50513 2283.56396
2125.0 0.000471 2085.68726 2266.94165
2203.0 0.000454 2084.87012 2252.15015
2248.0 0.000445 2084.05347 2238.92358
2220.0 0.000450 2083.23657 2227.02954
2066.0 0.000484 2082.42065 2216.28711
2174.0 0.000460 2081.60498 2206.54370
2106.0 0.000475 2080.78979 2197.66406
2068.0 0.000484 2079.97510 2189.54541
2103.0 0.000476 2079.16089 2182.09082
2125.0 0.000471 2078.34619 2175.22339
2075.0 0.000482 2077.53320 2168.87793
2055.0 0.000487 2076.71997 2162.99268
2115.0 0.000473 2075.90771 2157.52100
2073.0 0.000482 2075.09497 2152.41675
2140.0 0.000467 2074.28369 2147.64307
2138.0 0.000468 2073.47217 2143.16846
2131.0 0.000469 2072.66113 2138.96118
2101.0 0.000476 2071.85059 2134.99805
2070.0 0.000483 2071.04053 2131.25415
2096.0 0.000477 2070.23047 2127.71045
2059.0 0.000486 2069.42090 2124.35083
2086.0 0.000479 2068.61230 2121.15674
2107.0 0.000475 2067.80396 2118.11597
2078.0 0.000481 2066.99585 2115.21460
2021.0 0.000495 2066.18799 2112.44141
2022.0 0.000495 2065.38110 2109.78760
2085.0 0.000480 2064.57446 2107.24194
2049.0 0.000488 2063.76807 2104.79761
2028.0 0.000493 2062.96216 2102.44556
2034.0 0.000492 2062.15698 2100.17993
2046.0 0.000489 2061.35156 2097.99487
2036.0 0.000491 2060.54712 2095.88330
2010.0 0.000498 2059.74316 2093.84180
2066.0 0.000484 2058.93896 2091.86377
2120.0 0.000472 2058.13574 2089.94604
2093.0 0.000478 2057.33325 2088.08472
2063.0 0.000485 2056.53052 2086.27563
2077.0 0.000481 2055.72876 2084.51611
2109.0 0.000474 2054.92700 2082.80176
2088.0 0.000479 2054.12573 2081.13086
2067.0 0.000484 2053.32544 2079.50073
2020.0 0.000495 2052.52466 2077.90845
2062.0 0.000485 2051.72510 2076.35229
2100.0 0.000476 2050.92578 2074.82959
2099.0 0.000476 2050.12622 2073.33838
2187.0 0.000457 2049.32788 2071.87817
2123.0 0.000471 2048.53027 2070.44580
2108.0 0.000474 2047.73230 2069.04053
2176.0 0.000460 2046.93506 2067.66040
2180.0 0.000459 2046.13855 2066.30420
2203.0 0.000454 2045.34204 2064.97119
2229.0 0.000449 2044.54614 2063.65918
2120.0 0.000472 2043.75085 2062.36816
2120.0 0.000472 2042.95569 2061.09668
2124.0 0.000471 2042.16101 2059.84326
2142.0 0.000467 2041.36743 2058.60815
2154.0 0.000464 2040.57324 2057.38916
2016.0 0.000496 2039.78040 2056.18652
2015.0 0.000496 2038.98706 2054.99878
2068.0 0.000484 2038.19458 2053.82544
2094.0 0.000478 2037.40308 2052.66675
2024.0 0.000494 2036.61145 2051.52051
2007.0 0.000498 2035.82056 2050.38745
2067.0 0.000484 2035.02979 2049.26611
1985.0 0.000504 2034.23950 2048.15625
2033.0 0.000492 2033.45007 2047.05798
2012.0 0.000497 2032.66064 2045.96997
2012.0 0.000497 2031.87219 2044.89233
2057.0 0.000486 2031.08374 2043.82422
2056.0 0.000486 2030.29553 2042.76550
1990.0 0.000503 2029.50830 2041.71606
1970.0 0.000508 2028.72107 2040.67493
1903.0 0.000525 2027.93481 2039.64233
1876.0 0.000533 2027.14868 2038.61755
1955.0 0.000512 2026.36279 2037.60022
2063.0 0.000485 2025.57764 2036.59082
2038.0 0.000491 2024.79321 2035.58801
2006.0 0.000499 2024.00891 2034.59265
1980.0 0.000505 2023.22498 2033.60327
1984.0 0.000504 2022.44141 2032.62048
1973.0 0.000507 2021.65857 2031.64404
1984.0 0.000504 2020.87561 2030.67322
1981.0 0.000505 2020.09387 2029.70825
2024.0 0.000494 2019.31213 2028.74890
2016.0 0.000496 2018.53101 2027.79468
2029.0 0.000493 2017.75049 2026.84583
2020.0 0.000495 2016.97034 2030.54846
2014.0 0.000497 2016.19055 2029.67004
2041.0 0.000490 2015.41089 2028.79736
2067.0 0.000484 2014.63220 2027.93030
2038.0 0.000491 2013.85364 2027.06921
1997.0 0.000501 2013.07593 2028.53369
1986.0 0.000504 2012.29858 2027.71399
2032.0 0.000492 2011.52148 2026.89978
2047.0 0.000489 2010.74463 2026.09180
2017.0 0.000496 2009.96826 2025.28955
1965.0 0.000509 2009.19287 2024.49292
1900.0 0.000526 2008.41809 2023.70239
1904.0 0.000525 2007.64307 2022.91736
1963.0 0.000509 2006.86890 2022.13782
1955.0 0.000512 2006.09497 2021.36414
1940.0 0.000515 2005.32166 2020.59583
2054.0 0.000487 2004.54858 2019.83362
2057.0 0.000486 2003.77625 2019.07666
2049.0 0.000488 2003.00403 2018.32520
2022.0 0.000495 2002.23279 2017.57935
1982.0 0.000505 2001.46179 2016.83923
2016.0 0.000496 2000.69116 2016.10486
1958.0 0.000511 1999.92126 2015.37573
1928.0 0.000519 1999.15112 2014.65247
2050.0 0.000488 1998.38257 2013.93518
1972.0 0.000507 1997.61365 2013.22314
2051.0 0.000488 1996.84546 2012.51709
2009.0 0.000498 1996.07764 2011.81677
1946.0 0.000514 1995.31030 2011.12231
1988.0 0.000503 1994.54333 2010.43384
1947.0 0.000514 1993.77686 2009.75134
1955.0 0.000512 1993.01135 2009.07495
1967.0 0.000508 1992.24573 2008.40466
1911.0 0.000523 1991.48059 2007.74060
2015.0 0.000496 1990.71582 2007.08301
1977.0 0.000506 1989.95190 2006.43176
1969.0 0.000508 1989.18848 2005.78687
1916.0 0.000522 1988.42529 2005.14880
1911.0 0.000523 1987.66235 2004.51758
1961.0 0.000510 1986.90063 2003.89319
2045.0 0.000489 1986.13855 2003.27588
2013.0 0.000497 1985.37732 2002.66602
2037.0 0.000491 1984.61658 2002.06287
1951.0 0.000513 1983.85620 2001.46765
1934.0 0.000517 1983.09668 2000.88025
1950.0 0.000513 1982.33704 2000.30066
1921.0 0.000521 1981.57849 1999.72925
1959.0 0.000510 1980.81946 1999.16577
2018.0 0.000496 1980.06201 1998.61133
2008.0 0.000498 1979.30444 1998.06543
1957.0 0.000511 1978.54736 1997.52832
1968.0 0.000508 1977.79102 1997.00073
1954.0 0.000512 1977.03479 1996.48267
1937.0 0.000516 1976.27917 1995.97449
1988.0 0.000503 1975.52441 1995.47656
1976.0 0.000506 1974.76929 1994.98914
1964.0 0.000509 1974.01538 1994.51233
1967.0 0.000508 1973.26135 1994.04675
1974.0 0.000507 1972.50854 1993.59290
1931.0 0.000518 1971.75598 1993.15088
1934.0 0.000517 1971.00354 1992.72119
1985.0 0.000504 1970.25159 1992.30457
1949.0 0.000513 1969.50061 1991.90137
1933.0 0.000517 1968.74951 1991.51184
1957.0 0.000511 1967.99915 1991.13684
1972.0 0.000507 1967.24951 1988.44629
1983.0 0.000504 1966.50012 1988.12769
1980.0 0.000505 1965.75085 1987.82483
1971.0 0.000507 1965.00256 1987.53845
1889.0 0.000529 1964.25488 1986.10803
1914.0 0.000522 1963.50720 1985.86963
1942.0 0.000515 1962.76025 1985.64990
1932.0 0.000518 1962.01392 1985.44934
1911.0 0.000523 1961.26794 1985.26917
1925.0 0.000519 1960.52222 1985.11011
2027.0 0.000493 1959.77698 1984.97339
1975.0 0.000506 1959.03271 1984.86011
1951.0 0.000513 1958.28857 1984.77112
2024.0 0.000494 1957.54480 1984.70801
1921.0 0.000521 1956.80164 1984.67188
2001.0 0.000500 1956.05920 1984.66431
1985.0 0.000504 1955.31677 1984.68677
1960.0 0.000510 1954.57532 1984.74060
1970.0 0.000508 1953.83398 1984.82764
2012.0 0.000497 1953.09351 1984.94995
1945.0 0.000514 1952.35291 1985.10938
2018.0 0.000496 1951.61340 1985.30786
2063.0 0.000485 1950.87366 1985.54773
2043.0 0.000489 1950.13538 1985.83142
2097.0 0.000477 1949.39673 1986.16138
2063.0 0.000485 1948.65918 1986.54102
2021.0 0.000495 1947.92163 1986.97229
2025.0 0.000494 1947.18494 1987.45947
2008.0 0.000498 1946.44824 1988.00549
2000.0 0.000500 1945.71301 1988.61426
2050.0 0.000488 1944.97729 1989.28992
2025.0 0.000494 1944.24243 1990.03674
2053.0 0.000487 1943.50781 1990.85999
2099.0 0.000476 1942.77405 1991.76465
2045.0 0.000489 1942.04077 1992.75623
2071.0 0.000483 1941.30774 1993.84131
2019.0 0.000495 1940.57520 1995.02600
2107.0 0.000475 1939.84314 1996.31873
2052.0 0.000487 1939.11145 1997.72705
2106.0 0.000475 1938.38074 1999.25964
2125.0 0.000471 1937.65015 2000.92700
2061.0 0.000485 1936.92004 2002.73877
2041.0 0.000490 1936.19067 2004.70850
2080.0 0.000481 1935.46167 2006.84802
2140.0 0.000467 1934.73315 2009.17175
2088.0 0.000479 1934.00500 2011.69702
2052.0 0.000487 1933.27747 2014.44031
2092.0 0.000478 1932.55042 2017.42310
2032.0 0.000492 1931.82373 2020.66724
1993.0 0.000502 1931.09753 2024.19653
2081.0 0.000481 1930.37183 2028.04114
2077.0 0.000481 1929.64685 2032.23035
2038.0 0.000491 1928.92200 2036.80273
2021.0 0.000495 1928.19800 2041.79761
1991.0 0.000502 1927.47461 2047.25928
1994.0 0.000502 1926.75122 2053.24365
2024.0 0.000494 1926.02844 2059.80713
2071.0 0.000483 1925.30640 2067.02295
2062.0 0.000485 1924.58472 2074.96924
2091.0 0.000478 1923.86389 2083.73535
2139.0 0.000468 1923.14258 2093.43433
2147.0 0.000466 1922.42297 2104.18628
2143.0 0.000467 1921.70313 2116.14502
2099.0 0.000476 1920.98352 2129.48291
2082.0 0.000480 1920.26514 2144.40283
2069.0 0.000483 1919.54700 2161.16235
2120.0 0.000472 1918.82959 2180.05127
2126.0 0.000470 1918.11206 2201.44312
2253.0 0.000444 1917.39502 2225.77734
2291.0 0.000436 1916.67896 2253.59302
2323.0 0.000430 1915.96301 2285.58813
2442.0 0.000410 1915.24805 2322.60034
2445.0 0.000409 1914.53320 2365.74170
2598.0 0.000385 1913.81885 2416.40405
2633.0 0.000380 1913.10559 2476.39844
2862.0 0.0003494 1912.39197 2548.18140
2986.0 0.0003349 1911.67932 2634.97241
3048.0 0.0003281 1910.96692 2741.29639
3312.0 0.0003019 1910.25500 2873.40430
3745.0 0.0002670 1909.54407 3040.24902
4173.0 0.0002396 1908.83313 3255.22534
4882.0 0.0002048 1908.12317 3538.61255
5535.0 0.0001807 1907.41284 3924.49219
6558.0 0.0001525 1906.70349 4481.25781
8403.0 0.0001190 1905.99487 5389.81836
10495.0 0.0000953 1905.28638 7171.25977
14223.0 0.0000703 1904.57886 11047.67285
19433.0 0.0000515 1903.87158 18893.92969
28370.0 0.0000352 1903.16492 31729.25977
40871.0 0.0000245 1902.45850 46444.00781
50005.0 0.0000200 1901.75244 53065.17969
46158.0 0.0000217 1901.04736 46273.17188
35111.0 0.0000285 1900.34253 36174.53516
27296.0 0.0000366 1899.63831 31461.17773
27075.0 0.0000369 1898.93445 31646.88672
27763.0 0.0000360 1898.23120 29813.23242
23654.0 0.0000423 1897.52844 22888.65430
16458.0 0.0000608 1896.82617 15086.51660
10288.0 0.0000972 1896.12415 9486.23730
7187.0 0.0001391 1895.42310 6359.60400
5704.0 0.0001753 1894.72217 4825.28955
4738.0 0.0002111 1894.02222 4049.55591
4251.0 0.0002352 1893.32214 3590.82837
3804.0 0.0002629 1892.62280 3277.46680
3475.0 0.0002878 1891.92383 3046.47656
3263.0 0.0003065 1891.22571 2869.54272
3014.0 0.0003318 1890.52795 2730.71851
2836.0 0.000353 1889.83057 2619.57568
2683.0 0.000373 1889.13367 2529.13477
2572.0 0.000389 1888.43762 2454.49780
2461.0 0.000406 1887.74158 2392.09326
2337.0 0.000428 1887.04663 2339.36987
2258.0 0.000443 1886.35193 2294.36206
2189.0 0.000457 1885.65759 2255.61621
2197.0 0.000455 1884.96387 2222.00586
2212.0 0.000452 1884.27051 2192.62500
2170.0 0.000461 1883.57764 2166.78833
2163.0 0.000462 1882.88525 2143.91968
2177.0 0.000459 1882.19336 2123.57251
2123.0 0.000471 1881.50244 2105.38208
2074.0 0.000482 1880.81152 2089.03320
2033.0 0.000492 1880.12122 2074.28345
2067.0 0.000484 1879.43152 2060.91406
2095.0 0.000477 1878.74255 2048.75317
2044.0 0.000489 1878.05371 2037.65393
2034.0 0.000492 1877.36523 2027.48389
2040.0 0.000490 1876.67773 2018.14026
2012.0 0.000497 1875.99036 2009.52478
1987.0 0.000503 1875.30322 2001.55994
2033.0 0.000492 1874.61743 1994.17859
1984.0 0.000504 1873.93164 1987.31628
1929.0 0.000518 1873.24634 1980.92395
1976.0 0.000506 1872.56165 1974.95178
1886.0 0.000530 1871.87708 1969.36108
1913.0 0.000523 1871.19385 1964.11755
1981.0 0.000505 1870.51025 1959.18640
2019.0 0.000495 1869.82788 1954.54236
1936.0 0.000517 1869.14563 1950.15784
1909.0 0.000524 1868.46362 1946.01184
1977.0 0.000506 1867.78284 1942.08533
1970.0 0.000508 1867.10193 1938.35815
1975.0 0.000506 1866.42188 1934.81641
1915.0 0.000522 1865.74219 1931.44336
1916.0 0.000522 1865.06299 1928.22705
1925.0 0.000519 1864.38416 1925.15662
1910.0 0.000524 1863.70642 1922.21936
1899.0 0.000527 1863.02856 1919.40710
1897.0 0.000527 1862.35144 1916.70947
1880.0 0.000532 1861.67456 1914.11938
1940.0 0.000515 1860.99890 1911.62964
1918.0 0.000521 1860.32324 1909.23242
1925.0 0.000519 1859.64795 1906.92285
1948.0 0.000513 1858.97339 1904.69385
1946.0 0.000514 1858.29932 1902.54065
1970.0 0.000508 1857.62561 1900.45947
1904.0 0.000525 1856.95239 1898.44421
1931.0 0.000518 1856.28003 1896.49231
1965.0 0.000509 1855.60803 1894.59875
1922.0 0.000520 1854.93604 1892.76038
1908.0 0.000524 1854.26526 1890.97485
1900.0 0.000526 1853.59497 1889.23779
1858.0 0.000538 1852.92517 1887.54761
1842.0 0.000543 1852.25537 1885.90063
1874.0 0.000534 1851.58606 1884.29504
1883.0 0.000531 1850.91760 1882.72913
1893.0 0.000528 1850.24951 1881.19958
1925.0 0.000519 1849.58228 1879.70557
1945.0 0.000514 1848.91528 1878.24438
1956.0 0.000511 1848.24866 1876.81458
1974.0 0.000507 1847.58264 1875.41516
1901.0 0.000526 1846.91711 1874.04370
1859.0 0.000538 1846.25256 1872.69995
1928.0 0.000519 1845.58813 1871.38135
1963.0 0.000509 1844.92395 1870.08716
2001.0 0.000500 1844.26038 1868.81665
2048.0 0.000488 1843.59717 1873.29675
2079.0 0.000481 1842.93506 1872.12073
2117.0 0.000472 1842.27283 1870.96533
1997.0 0.000501 1841.61145 1869.82996
1971.0 0.000507 1840.95081 1868.71436
1959.0 0.000510 1840.29016 1867.61670
1920.0 0.000521 1839.63037 1869.39856
1910.0 0.000524 1838.97095 1868.36121
1883.0 0.000531 1838.31165 1867.34009
1852.0 0.000540 1837.65369 1866.33545
1804.0 0.000554 1836.99585 1865.34583
1821.0 0.000549 1836.33875 1864.37134
1874.0 0.000534 1835.68176 1863.41077
1820.0 0.000549 1835.02515 1862.46411
1817.0 0.000550 1834.36987 1861.53101
1874.0 0.000534 1833.71399 1860.61060
1853.0 0.000540 1833.05933 1859.70300
1857.0 0.000539 1832.40503 1858.80701
1790.0 0.000559 1831.75122 1857.92297
1823.0 0.000549 1831.09790 1857.05005
1798.0 0.000556 1830.44519 1856.18835
1827.0 0.000547 1829.79297 1855.33740
1862.0 0.000537 1829.14111 1854.49646
1867.0 0.000536 1828.48975 1853.66577
1812.0 0.000552 1827.83911 1852.84509
1849.0 0.000541 1827.18896 1852.03369
1795.0 0.000557 1826.53931 1851.23206
1774.0 0.000564 1825.88977 1850.43896
1844.0 0.000542 1825.24097 1849.65491
1780.0 0.000562 1824.59326 1848.87976
1785.0 0.000560 1823.94543 1848.11279
1805.0 0.000554 1823.29822 1847.35425
1845.0 0.000542 1822.65161 1846.60376
1835.0 0.000545 1822.00525 1845.86108
1841.0 0.000543 1821.35986 1845.12622
1888.0 0.000530 1820.71448 1844.39917
1816.0 0.000551 1820.06995 1843.67969
1822.0 0.000549 1819.42566 1842.96729
1792.0 0.000558 1818.78198 1842.26233
1804.0 0.000554 1818.13892 1841.56470
1873.0 0.000534 1817.49622 1840.87378
1843.0 0.000543 1816.85400 1840.18982
1860.0 0.000538 1816.21265 1839.51306
1930.0 0.000518 1815.57153 1838.84253
1878.0 0.000532 1814.93115 1838.17920
1923.0 0.000520 1814.29089 1837.52209
1918.0 0.000521 1813.65149 1836.87170
1884.0 0.000531 1813.01208 1836.22791
1854.0 0.000539 1812.37341 1835.59033
1846.0 0.000542 1811.73572 1834.95947
1810.0 0.000552 1811.09802 1834.33459
1807.0 0.000553 1810.46118 1833.71631
1817.0 0.000550 1809.82458 1833.10400
1853.0 0.000540 1809.18835 1832.49792
1865.0 0.000536 1808.55298 1831.89832
1845.0 0.000542 1807.91785 1831.30481
1837.0 0.000544 1807.28357 1830.71765
1814.0 0.000551 1806.64966 1830.13647
1814.0 0.000551 1806.01599 1829.56152
1811.0 0.000552 1805.38330 1828.99292
1802.0 0.000555 1804.75085 1828.43018
1786.0 0.000560 1804.11877 1827.87415
1812.0 0.000552 1803.48730 1827.32397
1783.0 0.000561 1802.85620 1826.77991
1786.0 0.000560 1802.22595 1826.24231
1832.0 0.000546 1801.59607 1825.71094
1815.0 0.000551 1800.96667 1825.18616
1781.0 0.000561 1800.33789 1824.66724
1765.0 0.000567 1799.70923 1824.15479
1827.0 0.000547 1799.08154 1823.64941
1798.0 0.000556 1798.45398 1818.51794
1783.0 0.000561 1797.82703 1818.08459
1823.0 0.000549 1797.20081 1817.65637
1762.0 0.000568 1796.57483 1817.23376
1744.0 0.000573 1795.94946 1816.81702
1786.0 0.000560 1795.32483 1814.10535
1769.0 0.000565 1794.70044 1813.72998
1787.0 0.000560 1794.07629 1813.35962
1855.0 0.000539 1793.45288 1812.99500
1849.0 0.000541 1792.83032 1812.63611
1787.0 0.000560 1792.20801 1812.28308
1693.0 0.000591 1791.58655 1811.93628
1763.0 0.000567 1790.96509 1811.59558
1714.0 0.000583 1790.34424 1811.26111
1680.0 0.000595 1789.72412 1810.93335
1762.0 0.000568 1789.10425 1810.61218
1738.0 0.000575 1788.48511 1810.29773
1834.0 0.000545 1787.86621 1809.99048
1772.0 0.000564 1787.24792 1809.69043
1791.0 0.000558 1786.63025 1809.39783
1756.0 0.000569 1786.01294 1809.11279
1732.0 0.000577 1785.39636 1808.83557
1752.0 0.000571 1784.78003 1808.56628
1707.0 0.000586 1784.16406 1808.30554
1677.0 0.000596 1783.54895 1808.05310
1769.0 0.000565 1782.93433 1807.80969
1781.0 0.000561 1782.32031 1807.57507
1817.0 0.000550 1781.70642 1807.34973
1786.0 0.000560 1781.09314 1807.13379
1778.0 0.000562 1780.48047 1806.92786
1825.0 0.000548 1779.86816 1806.73193
1775.0 0.000563 1779.25684 1806.54663
1731.0 0.000578 1778.64563 1806.37183
1764.0 0.000567 1778.03467 1806.20813
1723.0 0.000580 1777.42468 1806.05579
1729.0 0.000578 1776.81482 1805.91528
1774.0 0.000564 1776.20593 1805.78687
1766.0 0.000566 1775.59717 1805.67114
1745.0 0.000573 1774.98865 1805.56812
1742.0 0.000574 1774.38135 1805.47864
1742.0 0.000574 1773.77429 1805.40283
1682.0 0.000595 1773.16748 1805.34131
1702.0 0.000588 1772.56152 1805.29443
1726.0 0.000579 1771.95569 1805.26282
1717.0 0.000582 1771.35095 1805.24707
1683.0 0.000594 1770.74634 1805.24744
1678.0 0.000596 1770.14209 1805.26453
1707.0 0.000586 1769.53845 1805.29932
1738.0 0.000575 1768.93555 1805.35217
1700.0 0.000588 1768.33289 1805.42358
1684.0 0.000594 1767.73035 1805.51453
1729.0 0.000578 1767.12927 1805.62549
1775.0 0.000563 1766.52783 1805.75745
1767.0 0.000566 1765.92725 1805.91101
1753.0 0.000570 1765.32739 1806.08679
1746.0 0.000573 1764.72754 1806.28625
1753.0 0.000570 1764.12854 1806.50964
1740.0 0.000575 1763.52991 1806.75842
1771.0 0.000565 1762.93188 1807.03333
1748.0 0.000572 1762.33423 1807.33545
1732.0 0.000577 1761.73706 1807.66589
1722.0 0.000581 1761.14075 1808.02588
1724.0 0.000580 1760.54468 1808.41650
1693.0 0.000591 1759.94897 1808.83923
1769.0 0.000565 1759.35413 1809.29517
1717.0 0.000582 1758.75964 1809.78613
1623.0 0.000616 1758.16541 1810.31287
1796.0 0.000557 1757.57190 1810.87805
1722.0 0.000581 1756.97852 1811.48254
1692.0 0.000591 1756.38611 1812.12817
1738.0 0.000575 1755.79419 1812.81726
1735.0 0.000576 1755.20288 1813.55151
1691.0 0.000591 1754.61157 1814.33301
1737.0 0.000576 1754.02075 1815.16431
1836.0 0.000545 1753.43103 1816.04712
1860.0 0.000538 1752.84119 1816.98462
1884.0 0.000531 1752.25232 1817.97888
1918.0 0.000521 1751.66370 1819.03333
2044.0 0.000489 1751.07568 1820.15100
1973.0 0.000507 1750.48828 1821.33398
1912.0 0.000523 1749.90112 1822.58704
1929.0 0.000518 1749.31458 1823.91296
1906.0 0.000525 1748.72852 1825.31628
1881.0 0.000532 1748.14282 1826.80090
1884.0 0.000531 1747.55811 1828.37073
1947.0 0.000514 1746.97351 1830.03125
1991.0 0.000502 1746.38940 1831.78674
1929.0 0.000518 1745.80579 1833.64368
1895.0 0.000528 1745.22241 1835.60730
1926.0 0.000519 1744.64014 1837.68311
1927.0 0.000519 1744.05811 1839.87927
1903.0 0.000525 1743.47644 1842.20178
1880.0 0.000532 1742.89551 1844.65967
1933.0 0.000517 1742.31506 1847.26062
1943.0 0.000515 1741.73474 1850.01318
1903.0 0.000525 1741.15527 1852.92834
1889.0 0.000529 1740.57629 1856.01514
1919.0 0.000521 1739.99780 1859.28735
1905.0 0.000525 1739.41943 1862.75586
1881.0 0.000532 1738.84229 1866.43347
1889.0 0.000529 1738.26477 1870.33728
1964.0 0.000509 1737.68823 1874.48083
1988.0 0.000503 1737.11194 1878.88403
1952.0 0.000512 1736.53662 1883.56506
1920.0 0.000521 1735.96167 1888.54333
1962.0 0.000510 1735.38708 1893.84485
1991.0 0.000502 1734.81299 1899.49182
1913.0 0.000523 1734.23938 1905.51501
1896.0 0.000527 1733.66589 1911.94409
1961.0 0.000510 1733.09338 1918.81042
1951.0 0.000513 1732.52136 1926.15588
1918.0 0.000521 1731.94983 1934.01782
1958.0 0.000511 1731.37842 1942.44666
2004.0 0.000499 1730.80774 1951.49219
1901.0 0.000526 1730.23779 1961.20898
1983.0 0.000504 1729.66797 1971.66724
2008.0 0.000498 1729.09900 1982.93359
2021.0 0.000495 1728.53027 1995.09558
2002.0 0.000500 1727.96216 2008.24255
1969.0 0.000508 1727.39453 2022.47461
1985.0 0.000504 1726.82715 2037.91870
2058.0 0.000486 1726.26050 2054.70093
2074.0 0.000482 1725.69434 2072.98584
2026.0 0.000494 1725.12842 2092.94629
2071.0 0.000483 1724.56360 2114.78125
2016.0 0.000496 1723.99878 2138.73999
2170.0 0.000461 1723.43445 2165.08545
2028.0 0.000493 1722.87073 2194.15527
2031.0 0.000492 1722.30725 2226.32153
2151.0 0.000465 1721.74451 2262.02148
2161.0 0.000463 1721.18225 2301.80762
2239.0 0.000447 1720.62073 2346.29346
2265.0 0.000442 1720.05945 2396.26953
2293.0 0.000436 1719.49878 2452.65234
2357.0 0.000424 1718.93835 2516.55566
2443.0 0.000409 1718.37817 2589.41309
2542.0 0.000393 1717.81909 2672.91748
2734.0 0.000366 1717.26062 2769.29663
2891.0 0.0003459 1716.70178 2881.29468
3161.0 0.0003164 1716.14417 3012.42603
3424.0 0.0002921 1715.58667 3167.38989
3668.0 0.0002726 1715.02991 3352.20288
3982.0 0.0002511 1714.47339 3575.16821
4364.0 0.0002291 1713.91760 3847.43970
4846.0 0.0002064 1713.36218 4184.53711
5392.0 0.0001855 1712.80725 4609.00537
6097.0 0.0001640 1712.25293 5153.86084
7091.0 0.0001410 1711.69873 5872.98096
8267.0 0.0001210 1711.14514 6865.44287
9832.0 0.0001017 1710.59229 8343.66211
12386.0 0.0000807 1710.03992 10781.63184
16425.0 0.0000609 1709.48779 15110.21777
22788.0 0.0000439 1708.93640 22758.51172
33646.0 0.0000297 1708.38562 35123.76563
52436.0 0.0000191 1707.83496 52136.89063
74490.0 0.0000134 1707.28467 69339.73438
83431.0 0.0000120 1706.73535 76017.57813
72454.0 0.0000138 1706.18616 67719.84375
53501.0 0.0000187 1705.63770 54835.14063
40800.0 0.0000245 1705.08972 46750.78516
39437.0 0.0000254 1704.54199 45239.00000
44294.0 0.0000226 1703.99451 46008.55469
44242.0 0.0000226 1703.44824 42068.52344
35695.0 0.0000280 1702.90186 32844.28125
24207.0 0.0000413 1702.35657 23196.71289
15172.0 0.0000659 1701.81091 15857.81250
9920.0 0.0001008 1701.26611 11111.19434
7590.0 0.0001318 1700.72217 8303.51074
6273.0 0.0001594 1700.17834 6660.25293
5362.0 0.0001865 1699.63525 5635.67920
4721.0 0.0002118 1699.09216 4934.00830
4141.0 0.0002415 1698.54993 4416.63867
3787.0 0.0002641 1698.00830 4018.15210
3416.0 0.0002927 1697.46680 3702.68555
3290.0 0.0003040 1696.92578 3448.30151
3082.0 0.0003245 1696.38586 3239.89038
2815.0 0.000355 1695.84546 3066.85156
2640.0 0.000379 1695.30640 2921.61133
2457.0 0.000407 1694.76746 2798.36108
2396.0 0.000417 1694.22900 2692.87744
2339.0 0.000428 1693.69116 2601.82178
2258.0 0.000443 1693.15344 2522.63281
2293.0 0.000436 1692.61633 2453.35425
2202.0 0.000454 1692.07983 2392.33423
2150.0 0.000465 1691.54431 2338.32129
2147.0 0.000466 1691.00854 2290.24609
2174.0 0.000460 1690.47302 2247.25000
2156.0 0.000464 1689.93848 2208.65674
2122.0 0.000471 1689.40466 2173.85034
2026.0 0.000494 1688.87109 2142.35986
1951.0 0.000513 1688.33789 2113.75659
1987.0 0.000503 1687.80493 2087.68726
1998.0 0.000501 1687.27283 2063.87109
1965.0 0.000509 1686.74121 2042.03418
1904.0 0.000525 1686.20959 2021.96875
1902.0 0.000526 1685.67908 2003.47571
1904.0 0.000525 1685.14868 1986.38733
1936.0 0.000517 1684.61877 1970.57202
1922.0 0.000520 1684.08923 1955.89148
1906.0 0.000525 1683.56055 1942.24341
1854.0 0.000539 1683.03235 1929.52466
1874.0 0.000534 1682.50427 1917.64734
1929.0 0.000518 1681.97693 1906.54346
1888.0 0.000530 1681.44983 1896.13708
1819.0 0.000550 1680.92358 1886.37317
1792.0 0.000558 1680.39734 1877.19360
1830.0 0.000546 1679.87134 1868.54895
1892.0 0.000529 1679.34644 1860.40137
1862.0 0.000537 1678.82190 1852.70593
1856.0 0.000539 1678.29785 1845.43176
1862.0 0.000537 1677.77417 1838.54321
1837.0 0.000544 1677.25073 1832.01099
1798.0 0.000556 1676.72815 1825.81287
1785.0 0.000560 1676.20618 1819.92078
1790.0 0.000559 1675.68396 1814.31628
1813.0 0.000552 1675.16284 1808.97693
1812.0 0.000552 1674.64185 1803.88391
1799.0 0.000556 1674.12170 1799.02417
1792.0 0.000558 1673.60181 1794.37878
1774.0 0.000564 1673.08240 1789.93640
1793.0 0.000558 1672.56360 1785.68237
1797.0 0.000556 1672.04456 1781.60400
1801.0 0.000555 1671.52698 1777.69360
1812.0 0.000552 1671.00916 1773.93774
1778.0 0.000562 1670.49243 1770.32959
1737.0 0.000576 1669.97583 1766.85876
1740.0 0.000575 1669.45947 1763.51697
1738.0 0.000575 1668.94385 1760.29871
1812.0 0.000552 1668.42871 1757.19507
1756.0 0.000569 1667.91418 1754.20142
1769.0 0.000565 1667.39966 1751.31018
1786.0 0.000560 1666.88562 1748.51587
1769.0 0.000565 1666.37244 1745.81470
1716.0 0.000583 1665.85962 1743.20032
1736.0 0.000576 1665.34729 1740.66931
1783.0 0.000561 1664.83533 1738.21680
1786.0 0.000560 1664.32373 1735.83801
1782.0 0.000561 1663.81287 1733.53113
1765.0 0.000567 1663.30237 1731.29089
1764.0 0.000567 1662.79211 1729.11523
1793.0 0.000558 1662.28259 1727.00049
1764.0 0.000567 1661.77332 1724.94312
1689.0 0.000592 1661.26489 1722.94214
1770.0 0.000565 1660.75671 1720.99329
1789.0 0.000559 1660.24878 1719.09521
1763.0 0.000567 1659.74146 1717.24524
1717.0 0.000582 1659.23462 1715.44043
1681.0 0.000595 1658.72815 1713.68042
1761.0 0.000568 1658.22241 1711.96179
1754.0 0.000570 1657.71704 1710.28406
1714.0 0.000583 1657.21204 1708.64429
1743.0 0.000574 1656.70740 1707.04102
1711.0 0.000584 1656.20337 1705.47375
1771.0 0.000565 1655.69971 1703.93970
1696.0 0.000590 1655.19678 1702.43872
1699.0 0.000589 1654.69409 1700.96863
1734.0 0.000577 1654.19177 1699.52808
1745.0 0.000573 1653.69006 1698.11670
1738.0 0.000575 1653.18872 1696.73254
1672.0 0.000598 1652.68787 1695.37537
1694.0 0.000590 1652.18762 1694.04333
1713.0 0.000584 1651.68750 1692.73572
1701.0 0.000588 1651.18811 1691.45203
1676.0 0.000597 1650.68921 1690.19092
1704.0 0.000587 1650.19080 1688.95178
1678.0 0.000596 1649.69263 1687.73389
1733.0 0.000577 1649.19482 1686.53577
1740.0 0.000575 1648.69739 1685.35791
1677.0 0.000596 1648.20068 1684.19849
1649.0 0.000606 1647.70496 1683.05786
1643.0 0.000609 1647.20898 1681.93457
1640.0 0.000610 1646.71350 1680.82800
1646.0 0.000608 1646.21863 1679.73828
1638.0 0.000611 1645.72388 1678.66431
1667.0 0.000600 1645.23010 1677.60583
1696.0 0.000590 1644.73657 1676.56201
1721.0 0.000581 1644.24341 1675.53247
1696.0 0.000590 1643.75098 1674.51709
1712.0 0.000584 1643.25879 1673.51514
1702.0 0.000588 1642.76709 1672.52625
1696.0 0.000590 1642.27588 1671.54980
1702.0 0.000588 1641.78491 1670.58533
1675.0 0.000597 1641.29480 1669.63330
1673.0 0.000598 1640.80481 1668.69226
1666.0 0.000600 1640.31506 1667.76270
1659.0 0.000603 1639.82654 1666.84387
1695.0 0.000590 1639.33752 1665.93518
1696.0 0.000590 1638.84937 1665.03699
1654.0 0.000605 1638.36157 1664.14856
1713.0 0.000584 1637.87476 1663.26990
1723.0 0.000580 1637.38794 1662.40039
1636.0 0.000611 1636.90149 1661.53967
1631.0 0.000613 1636.41589 1660.68811
1665.0 0.000601 1635.93030 1659.84485
1613.0 0.000620 1635.44543 1659.01038
1640.0 0.000610 1634.96082 1658.18347
1657.0 0.000604 1634.47681 1657.36438
1630.0 0.000613 1633.99316 1656.55310
1607.0 0.000622 1633.50989 1655.74927
1683.0 0.000594 1633.02734 1654.95264
1669.0 0.000599 1632.54504 1654.16309
1632.0 0.000613 1632.06299 1653.38013
1655.0 0.000604 1631.58179 1652.60425
1717.0 0.000582 1631.10059 1651.83484
1701.0 0.000588 1630.62012 1651.07166
1658.0 0.000603 1630.14014 1650.31482
1670.0 0.000599 1629.66040 1649.56348
1703.0 0.000587 1629.18115 1648.81848
1626.0 0.000615 1628.70264 1648.07910
1658.0 0.000603 1628.22461 1647.34558
1583.0 0.000632 1627.74646 1646.61731
1611.0 0.000621 1627.26904 1645.89429
1607.0 0.000622 1626.79248 1645.17676
1614.0 0.000620 1626.31567 1644.46411
1617.0 0.000618 1625.83972 1643.75635
1617.0 0.000618 1625.36401 1643.05334
1667.0 0.000600 1624.88892 1642.35535
1626.0 0.000615 1624.41406 1641.66199
1663.0 0.000601 1623.93970 1640.97290
1667.0 0.000600 1623.46582 1640.28833
1650.0 0.000606 1622.99219 1639.60803
1652.0 0.000605 1622.51965 1638.93213
1656.0 0.000604 1622.04712 1638.26050
1628.0 0.000614 1621.57495 1637.59265
1596.0 0.000627 1621.10327 1636.92859
1619.0 0.000618 1620.63171 1636.26855
1643.0 0.000609 1620.16101 1635.61243
1636.0 0.000611 1619.69080 1634.96021
1623.0 0.000616 1619.22095 1634.31140
1651.0 0.000606 1618.75110 1633.66602
1682.0 0.000595 1618.28210 1633.02405
1648.0 0.000607 1617.81348 1632.38586
1620.0 0.000617 1617.34558 1631.75110
1611.0 0.000621 1616.87756 1631.11914
1608.0 0.000622 1616.41040 1630.49060
1609.0 0.000622 1615.94324 1629.86523
1619.0 0.000618 1615.47705 1629.24304
1603.0 0.000624 1615.01086 1628.62390
1575.0 0.000635 1614.54529 1628.00757
1524.0 0.000656 1614.08008 1627.39417
1548.0 0.000646 1613.61523 1626.78357
1643.0 0.000609 1613.15100 1626.17615
1636.0 0.000611 1612.68726 1625.57141
1577.0 0.000634 1612.22400 1624.96912
1551.0 0.000645 1611.76086 1624.36963
1592.0 0.000628 1611.29822 1623.77258
1660.0 0.000602 1610.83594 1623.17834
1652.0 0.000605 1610.37451 1622.58667
1620.0 0.000617 1609.91345 1621.99731
1636.0 0.000611 1609.45227 1621.41028
1584.0 0.000631 1608.99194 1620.82568
1612.0 0.000620 1608.53223 1620.24353
1692.0 0.000591 1608.07263 1619.66394
1689.0 0.000592 1607.61328 1619.08630
1581.0 0.000633 1607.15454 1618.51086
1578.0 0.000634 1606.69641 1617.93762
1563.0 0.000640 1606.23853 1617.36670
1645.0 0.000608 1605.78101 1616.79785
1603.0 0.000624 1605.32410 1616.23108
1631.0 0.000613 1604.86755 1615.66614
1642.0 0.000609 1604.41125 1615.10352
1618.0 0.000618 1603.95557 1614.54297
1675.0 0.000597 1603.50037 1613.98438
1720.0 0.000581 1603.04553 1613.42749
1684.0 0.000594 1602.59094 1612.87244
1613.0 0.000620 1602.13696 1612.31946
1606.0 0.000623 1601.68347 1611.76843
1625.0 0.000615 1601.23022 1611.21899
1660.0 0.000602 1600.77759 1610.67151
1607.0 0.000622 1600.32507 1610.12561
1580.0 0.000633 1599.87317 1609.58154
1574.0 0.000635 1599.42175 1609.03918
1570.0 0.000637 1598.97083 1608.49878
1543.0 0.000648 1598.52014 1607.95959
1590.0 0.000629 1598.06958 1607.42224
1585.0 0.000631 1597.61987 1606.88647
1631.0 0.000613 1597.17053 1606.35229
1653.0 0.000605 1596.72180 1605.81995
1645.0 0.000608 1596.27307 1605.28894
1606.0 0.000623 1595.82495 1604.75940
1574.0 0.000635 1595.37732 1604.23132
1562.0 0.000640 1594.93018 1597.94458
1588.0 0.000630 1594.48328 1597.47058
1611.0 0.000621 1594.03650 1596.99707
1599.0 0.000625 1593.59058 1596.52454
1583.0 0.000632 1593.14490 1596.05261
1545.0 0.000647 1592.69995 1595.58167
1583.0 0.000632 1592.25488 1592.25293
1620.0 0.000617 1591.81067 1591.80859
1642.0 0.000609 1591.36682 1591.36450
1627.0 0.000615 1590.92297 1590.92090
1604.0 0.000623 1590.47998 1590.47778
1584.0 0.000631 1590.03723 1590.03528
1547.0 0.000646 1589.59497 1589.59290
1514.0 0.000661 1589.15308 1589.15100
1534.0 0.000652 1588.71155 1588.70947
1573.0 0.000636 1588.27039 1588.26843
1604.0 0.000623 1587.83008 1587.82776
1628.0 0.000614 1587.38965 1587.38745
1570.0 0.000637 1586.94958 1586.94763
1566.0 0.000639 1586.51025 1586.50818
1567.0 0.000638 1586.07129 1586.06921
1635.0 0.000612 1585.63269 1585.63074
1575.0 0.000635 1585.19434 1585.19238
1603.0 0.000624 1584.75671 1584.75464
1672.0 0.000598 1584.31921 1584.31714
1648.0 0.000607 1583.88232 1583.88037
1656.0 0.000604 1583.44580 1583.44385
1640.0 0.000610 1583.00977 1583.00769
1617.0 0.000618 1582.57385 1582.57178
1552.0 0.000644 1582.13855 1582.13647
1576.0 0.000635 1581.70349 1581.70154
1567.0 0.000638 1581.26917 1581.26721
1589.0 0.000629 1580.83496 1580.83301
1597.0 0.000626 1580.40125 1580.39917
1577.0 0.000634 1579.96790 1579.96582
1552.0 0.000644 1579.53479 1579.53296
1563.0 0.000640 1579.10278 1579.10059
1671.0 0.000598 1578.67029 1578.66846
1623.0 0.000616 1578.23865 1578.23669
1606.0 0.000623 1577.80750 1577.80542
1592.0 0.000628 1577.37659 1577.37451
1558.0 0.000642 1576.94604 1576.94409
1555.0 0.000643 1576.51587 1576.51404
1567.0 0.000638 1576.08618 1576.08423
1643.0 0.000609 1575.65686 1575.65491
1611.0 0.000621 1575.22827 1575.22620
1563.0 0.000640 1574.79956 1574.79773
1597.0 0.000626 1574.37158 1574.36963
1594.0 0.000627 1573.94373 1573.94189
1559.0 0.000641 1573.51660 1573.51453
1616.0 0.000619 1573.08960 1573.08777
1602.0 0.000624 1572.66333 1572.66138
1477.0 0.000677 1572.23718 1572.23523
1482.0 0.000675 1571.81140 1571.80957
1524.0 0.000656 1571.38611 1571.38416
1528.0 0.000654 1570.96118 1570.95935
1566.0 0.000639 1570.53674 1570.53491
1560.0 0.000641 1570.11267 1570.11084
1541.0 0.000649 1569.68884 1569.68701
1579.0 0.000633 1569.26563 1569.26367
1593.0 0.000628 1568.84277 1568.84082
1521.0 0.000657 1568.42029 1568.41833
1479.0 0.000676 1567.99805 1567.99622
1500.0 0.000667 1567.57629 1567.57434
1558.0 0.000642 1567.15479 1567.15295
1569.0 0.000637 1566.73425 1566.73218
1517.0 0.000659 1566.31360 1566.31165
1506.0 0.000664 1565.89343 1565.89148
1509.0 0.000663 1565.47339 1565.47168
1561.0 0.000641 1565.05408 1565.05225
1619.0 0.000618 1564.63525 1564.63330
1594.0 0.000627 1564.21667 1564.21484
1573.0 0.000636 1563.79846 1563.79651
1546.0 0.000647 1563.38037 1563.37866
1604.0 0.000623 1562.96326 1562.96118
1616.0 0.000619 1562.54602 1562.54419
1548.0 0.000646 1562.12952 1562.12769
1529.0 0.000654 1561.71313 1561.71143
1542.0 0.000649 1561.29736 1561.29553
1533.0 0.000652 1560.88184 1560.88000
1529.0 0.000654 1560.46680 1560.46484
1539.0 0.000650 1560.05225 1560.05029
1572.0 0.000636 1559.63782 1559.63586
1464.0 0.000683 1559.22375 1559.22180
1525.0 0.000656 1558.80981 1558.80823
1537.0 0.000651 1558.39709 1558.39526
1513.0 0.000661 1557.98413 1557.98242
1510.0 0.000662 1557.57190 1557.57007
1561.0 0.000641 1557.15979 1557.15796
1552.0 0.000644 1556.74805 1556.74634
1498.0 0.000668 1556.33704 1556.33508
1582.0 0.000632 1555.92615 1555.92432
1628.0 0.000614 1555.51575 1555.51379
1583.0 0.000632 1555.10522 1555.10364
1519.0 0.000658 1554.69568 1554.69397
1551.0 0.000645 1554.28625 1554.28467
1516.0 0.000660 1553.87769 1553.87573
1504.0 0.000665 1553.46887 1553.46716
1578.0 0.000634 1553.06067 1553.05884
1566.0 0.000639 1552.65283 1552.65100
1577.0 0.000634 1552.24524 1552.24365
1569.0 0.000637 1551.83838 1551.83667
1550.0 0.000645 1551.43176 1551.42993
1560.0 0.000641 1551.02515 1551.02356
1549.0 0.000646 1550.61926 1550.61755
1538.0 0.000650 1550.21399 1550.21216
1528.0 0.000654 1549.80884 1549.80701
1555.0 0.000643 1549.40417 1549.40222
1514.0 0.000661 1548.99951 1548.99768
1567.0 0.000638 1548.59534 1548.59363
1564.0 0.000639 1548.19189 1548.19006
1529.0 0.000654 1547.78857 1547.78687
1571.0 0.000637 1547.38538 1547.38391
1572.0 0.000636 1546.98328 1546.98120
1582.0 0.000632 1546.58069 1546.57910
1560.0 0.000641 1546.17920 1546.17725
1530.0 0.000654 1545.77771 1545.77600
1528.0 0.000654 1545.37646 1545.37488
1534.0 0.000652 1544.97595 1544.97412
1459.0 0.000685 1544.57544 1544.57385
1446.0 0.000692 1544.17566 1544.17395
1526.0 0.000655 1543.77600 1543.77441
1551.0 0.000645 1543.37695 1543.37512
1533.0 0.000652 1542.97803 1542.97632
1511.0 0.000662 1542.57947 1542.57776
1529.0 0.000654 1542.18140 1542.17981
1531.0 0.000653 1541.78381 1541.78210
1521.0 0.000657 1541.38635 1541.38477
1493.0 0.000670 1540.98950 1540.98767
1511.0 0.000662 1540.59265 1540.59106
1544.0 0.000648 1540.19641 1541.74585
1571.0 0.000637 1539.80066 1541.36768
1534.0 0.000652 1539.40527 1540.99023
1511.0 0.000662 1539.00989 1540.61328
1467.0 0.000682 1538.61511 1540.23706
1467.0 0.000682 1538.22070 1539.86169
1512.0 0.000661 1537.82678 1539.48706
1561.0 0.000641 1537.43323 1539.88403
1549.0 0.000646 1537.03979 1539.51953
1567.0 0.000638 1536.64685 1539.15576
1564.0 0.000639 1536.25415 1538.79297
1570.0 0.000637 1535.86182 1538.43115
1579.0 0.000633 1535.47009 1538.07019
1465.0 0.000683 1535.07849 1537.70996
1509.0 0.000663 1534.68750 1537.35083
1535.0 0.000651 1534.29651 1536.99280
1531.0 0.000653 1533.90613 1536.63550
1579.0 0.000633 1533.51611 1536.27930
1502.0 0.000666 1533.12634 1535.92407
1544.0 0.000648 1532.73682 1535.56970
1451.0 0.000689 1532.34814 1535.21655
1499.0 0.000667 1531.95947 1534.86438
1529.0 0.000654 1531.57129 1534.51331
1545.0 0.000647 1531.18347 1534.16309
1475.0 0.000678 1530.79565 1533.81421
1515.0 0.000660 1530.40845 1533.46631
1511.0 0.000662 1530.02148 1533.11975
1508.0 0.000663 1529.63525 1532.77417
1552.0 0.000644 1529.24890 1532.42957
1525.0 0.000656 1528.86316 1532.08655
1554.0 0.000644 1528.47803 1531.74451
1565.0 0.000639 1528.09265 1531.40381
1553.0 0.000644 1527.70776 1531.06421
1511.0 0.000662 1527.32361 1530.72607
1492.0 0.000670 1526.93958 1530.38916
1512.0 0.000661 1526.55591 1530.05359
1543.0 0.000648 1526.17285 1529.71960
1542.0 0.000649 1525.78955 1529.38660
1516.0 0.000660 1525.40698 1529.05518
1501.0 0.000666 1525.02478 1528.72534
1538.0 0.000650 1524.64307 1528.39697
1493.0 0.000670 1524.26135 1528.07007
1478.0 0.000677 1523.88025 1527.74475
1553.0 0.000644 1523.49951 1527.42102
1555.0 0.000643 1523.11890 1527.09875
1517.0 0.000659 1522.73840 1526.77832
1539.0 0.000650 1522.35913 1526.45959
1554.0 0.000644 1521.97949 1526.14246
1574.0 0.000635 1521.60022 1525.82715
1543.0 0.000648 1521.22156 1525.51367
1515.0 0.000660 1520.84302 1525.20215
1532.0 0.000653 1520.46521 1524.89270
1520.0 0.000658 1520.08728 1524.58508
1483.0 0.000674 1519.70996 1524.27930
1502.0 0.000666 1519.33276 1523.97571
1521.0 0.000657 1518.95642 1523.67419
1481.0 0.000675 1518.57996 1523.37500
1465.0 0.000683 1518.20410 1523.07800
1474.0 0.000678 1517.82813 1522.78333
1514.0 0.000661 1517.45276 1522.49097
1517.0 0.000659 1517.07788 1522.20117
1543.0 0.000648 1516.70337 1521.91370
1484.0 0.000674 1516.32910 1521.62903
1473.0 0.000679 1515.95508 1521.34692
1550.0 0.000645 1515.58142 1521.06763
1553.0 0.000644 1515.20825 1520.79102
1573.0 0.000636 1514.83545 1520.51746
1531.0 0.000653 1514.46289 1520.24707
1529.0 0.000654 1514.09058 1519.97949
1541.0 0.000649 1513.71863 1519.71521
1533.0 0.000652 1513.34705 1519.45435
1494.0 0.000669 1512.97607 1519.19690
1482.0 0.000675 1512.60498 1518.94299
1531.0 0.000653 1512.23450 1518.69263
1482.0 0.000675 1511.86414 1518.44617
1573.0 0.000636 1511.49438 1518.20361
1554.0 0.000644 1511.12500 1517.96509
1456.0 0.000687 1510.75549 1517.73083
1472.0 0.000679 1510.38684 1517.50085
1531.0 0.000653 1510.01831 1517.27563
1471.0 0.000680 1509.65027 1517.05505
1533.0 0.000652 1509.28223 1516.83911
1531.0 0.000653 1508.91467 1516.62842
1520.0 0.000658 1508.54749 1516.42297
1583.0 0.000632 1508.18066 1516.22302
1536.0 0.000651 1507.81384 1516.02881
1555.0 0.000643 1507.44788 1515.84045
1549.0 0.000646 1507.08191 1515.65845
1519.0 0.000658 1506.71643 1515.48267
1481.0 0.000675 1506.35132 1515.31360
1482.0 0.000675 1505.98645 1515.15161
1484.0 0.000674 1505.62195 1514.99683
1454.0 0.000688 1505.25769 1514.84973
1550.0 0.000645 1504.89380 1514.71057
1569.0 0.000637 1504.53015 1514.57983
1516.0 0.000660 1504.16699 1514.45789
1484.0 0.000674 1503.80420 1514.34473
1480.0 0.000676 1503.44141 1514.24133
1518.0 0.000659 1503.07886 1514.14795
1501.0 0.000666 1502.71716 1514.06506
1501.0 0.000666 1502.35583 1513.99329
1499.0 0.000667 1501.99438 1513.93298
1518.0 0.000659 1501.63330 1513.88501
1532.0 0.000653 1501.27295 1513.84961
1566.0 0.000639 1500.91260 1513.82788
1591.0 0.000629 1500.55273 1513.82031
1569.0 0.000637 1500.19324 1513.82751
1574.0 0.000635 1499.83374 1513.85059
1541.0 0.000649 1499.47485 1513.89038
1518.0 0.000659 1499.11597 1513.94775
1537.0 0.000651 1498.75793 1514.02368
1485.0 0.000673 1498.39978 1514.11951
1500.0 0.000667 1498.04199 1514.23608
1486.0 0.000673 1497.68457 1514.37488
1488.0 0.000672 1497.32751 1514.53723
1507.0 0.000664 1496.97083 1514.72437
1543.0 0.000648 1496.61414 1514.93811
1502.0 0.000666 1496.25818 1515.18030
1531.0 0.000653 1495.90247 1515.45264
1547.0 0.000646 1495.54675 1515.75720
1549.0 0.000646 1495.19202 1516.09607
1470.0 0.000680 1494.83716 1516.47156
1444.0 0.000693 1494.48254 1516.88672
1521.0 0.000657 1494.12830 1517.34387
1532.0 0.000653 1493.77441 1517.84656
1518.0 0.000659 1493.42090 1518.39771
1506.0 0.000664 1493.06763 1519.00122
1518.0 0.000659 1492.71484 1519.66162
1541.0 0.000649 1492.36218 1520.38306
1585.0 0.000631 1492.00977 1521.17017
1547.0 0.000646 1491.65784 1522.02881
1545.0 0.000647 1491.30615 1522.96497
1533.0 0.000652 1490.95471 1523.98560
1507.0 0.000664 1490.60376 1525.09802
1558.0 0.000642 1490.25305 1526.31055
1473.0 0.000679 1489.90234 1527.63208
1508.0 0.000663 1489.55273 1529.07349
1513.0 0.000661 1489.20264 1530.64685
1421.0 0.000704 1488.85303 1532.36487
1472.0 0.000679 1488.50403 1534.24268
1562.0 0.000640 1488.15515 1536.29626
1529.0 0.000654 1487.80652 1538.54541
1513.0 0.000661 1487.45837 1541.01270
1580.0 0.000633 1487.11060 1543.72266
1476.0 0.000678 1486.76245 1546.70374
1537.0 0.000651 1486.41528 1549.98816
1508.0 0.000663 1486.06873 1553.61523
1502.0 0.000666 1485.72168 1557.63049
1523.0 0.000657 1485.37524 1562.08545
1491.0 0.000671 1485.02917 1567.04126
1543.0 0.000648 1484.68335 1572.56873
1569.0 0.000637 1484.33801 1578.75549
1583.0 0.000632 1483.99280 1585.70642
1573.0 0.000636 1483.64795 1593.54395
1557.0 0.000642 1483.30334 1602.41858
1591.0 0.000629 1482.95886 1612.51135
1592.0 0.000628 1482.61511 1624.05139
1615.0 0.000619 1482.27148 1637.32520
1683.0 0.000594 1481.92834 1652.68469
1686.0 0.000593 1481.58508 1670.58203
1630.0 0.000613 1481.24219 1691.59192
1697.0 0.000589 1480.90002 1716.47766
1796.0 0.000557 1480.55786 1746.25305
1914.0 0.000522 1480.21570 1782.26550
1948.0 0.000513 1479.87415 1826.37415
1945.0 0.000514 1479.53296 1881.16675
1955.0 0.000512 1479.19214 1950.39343
1981.0 0.000505 1478.85156 2039.61389
2048.0 0.000488 1478.51111 2157.40820
2244.0 0.000446 1478.17090 2318.67139
2516.0 0.000397 1477.83118 2555.04883
2925.0 0.0003419 1477.49207 2947.59229
3802.0 0.0002630 1477.15283 3698.54395
5084.0 0.0001967 1476.81396 5205.26416
7445.0 0.0001343 1476.47534 7971.48633
11455.0 0.0000873 1476.13708 12154.04395
16009.0 0.0000625 1475.79907 16654.65234
17661.0 0.0000566 1475.46155 18267.64844
14906.0 0.0000671 1475.12427 15368.01465
10390.0 0.0000962 1474.78699 11124.46582
7268.0 0.0001376 1474.45020 8184.65674
6201.0 0.0001613 1474.11365 7277.45361
6973.0 0.0001434 1473.77759 8143.88281
8801.0 0.0001136 1473.44153 9828.15723
10054.0 0.0000995 1473.10583 10487.79102
9115.0 0.0001097 1472.77051 8939.51953
6905.0 0.0001448 1472.43567 6530.26758
4746.0 0.0002107 1472.10095 4563.93701
3315.0 0.0003017 1471.76636 3336.08496
2579.0 0.000388 1471.43213 2678.03174
2189.0 0.000457 1471.09839 2337.55542
2053.0 0.000487 1470.76501 2143.95776
1889.0 0.000529 1470.43152 2017.17822
1945.0 0.000514 1470.09851 1925.61072
1736.0 0.000576 1469.76575 1856.02515
1750.0 0.000571 1469.43335 1801.59509
1693.0 0.000591 1469.10132 1758.09167
1782.0 0.000561 1468.76953 1722.69690
1681.0 0.000595 1468.43787 1693.47290
1620.0 0.000617 1468.10645 1669.02722
1587.0 0.000630 1467.77563 1648.34912
1640.0 0.000610 1467.44495 1630.67480
1627.0 0.000615 1467.11450 1615.42773
1549.0 0.000646 1466.78442 1602.17188
1518.0 0.000659 1466.45435 1590.56323
1591.0 0.000629 1466.12512 1580.33215
1501.0 0.000666 1465.79578 1571.25757
1516.0 0.000660 1465.46655 1563.16211
1479.0 0.000676 1465.13794 1555.90503
1471.0 0.000680 1464.80945 1549.36853
1438.0 0.000695 1464.48132 1543.45691
1478.0 0.000677 1464.15344 1538.08679
1514.0 0.000661 1463.82593 1533.18823
1530.0 0.000654 1463.49866 1528.70508
1542.0 0.000649 1463.17163 1524.58789
1471.0 0.000680 1462.84473 1520.79614
1429.0 0.000700 1462.51843 1517.29211
1456.0 0.000687 1462.19226 1514.04370
1506.0 0.000664 1461.86633 1511.02502
1507.0 0.000664 1461.54053 1508.21240
1469.0 0.000681 1461.21533 1505.58618
1455.0 0.000687 1460.89038 1503.12708
1481.0 0.000675 1460.56543 1500.81897
1522.0 0.000657 1460.24097 1498.64856
1522.0 0.000657 1459.91663 1496.60303
1524.0 0.000656 1459.59290 1494.67224
1536.0 0.000651 1459.26917 1492.84546
1507.0 0.000664 1458.94580 1491.11340
1508.0 0.000663 1458.62256 1489.46899
1475.0 0.000678 1458.29968 1487.90479
1402.0 0.000713 1457.97717 1486.41516
1458.0 0.000686 1457.65503 1484.99377
1567.0 0.000638 1457.33276 1483.63501
1527.0 0.000655 1457.01111 1482.33447
1431.0 0.000699 1456.68958 1481.08826
1479.0 0.000676 1456.36829 1479.89233
1528.0 0.000654 1456.04773 1478.74316
1498.0 0.000668 1455.72681 1477.63708
1422.0 0.000703 1455.40649 1476.57153
1509.0 0.000663 1455.08630 1475.54358
1463.0 0.000684 1454.76648 1474.55127
1479.0 0.000676 1454.44678 1473.59192
1493.0 0.000670 1454.12756 1472.66321
1484.0 0.000674 1453.80859 1471.76343
1499.0 0.000667 1453.48962 1470.89111
1475.0 0.000678 1453.17126 1470.04419
1429.0 0.000700 1452.85291 1469.22168
1459.0 0.000685 1452.53491 1468.42126
1529.0 0.000654 1452.21729 1467.64221
1464.0 0.000683 1451.89978 1466.88342
1493.0 0.000670 1451.58252 1466.14380
1544.0 0.000648 1451.26575 1465.42188
1438.0 0.000695 1450.94910 1464.71704
1427.0 0.000701 1450.63281 1464.02808
1401.0 0.000714 1450.31653 1463.35425
1466.0 0.000682 1450.00098 1462.69507
1423.0 0.000703 1449.68530 1462.04968
1525.0 0.000656 1449.36975 1461.41699
1420.0 0.000704 1449.05505 1460.79675
1419.0 0.000705 1448.74011 1460.18823
1441.0 0.000694 1448.42566 1459.59094
1456.0 0.000687 1448.11133 1459.00439
1448.0 0.000691 1447.79749 1458.42749
1394.0 0.000717 1447.48328 1457.86060
1408.0 0.000710 1447.17004 1457.30286
1487.0 0.000672 1446.85693 1456.75415
1505.0 0.000664 1446.54395 1456.21362
1503.0 0.000665 1446.23120 1455.68115
1490.0 0.000671 1445.91907 1455.15625
1489.0 0.000672 1445.60657 1454.63867
1475.0 0.000678 1445.29492 1454.12842
1505.0 0.000664 1444.98328 1453.62476
1449.0 0.000690 1444.67200 1453.12756
1403.0 0.000713 1444.36072 1452.63647
1408.0 0.000710 1444.04980 1452.15137
1429.0 0.000700 1443.73926 1451.67212
1463.0 0.000684 1443.42871 1451.19824
1470.0 0.000680 1443.11853 1450.72961
1497.0 0.000668 1442.80884 1450.26599
1490.0 0.000671 1442.49902 1449.80725
1465.0 0.000683 1442.18970 1449.35339
1477.0 0.000677 1441.88074 1448.90381
1503.0 0.000665 1441.57202 1448.45862
1516.0 0.000660 1441.26367 1448.01758
1477.0 0.000677 1440.95508 1447.58069
1482.0 0.000675 1440.64722 1447.14771
1450.0 0.000690 1440.33911 1446.71863
1406.0 0.000711 1440.03186 1446.29297
1441.0 0.000694 1439.72449 1445.87073
1444.0 0.000693 1439.41711 1445.45190
1470.0 0.000680 1439.11035 1445.03650
1450.0 0.000690 1438.80420 1444.62439
1438.0 0.000695 1438.49780 1444.21497
1433.0 0.000698 1438.19165 1443.80872
1459.0 0.000685 1437.88574 1443.40515
1385.0 0.000722 1437.58044 1443.00464
1359.0 0.000736 1437.27527 1442.60681
1417.0 0.000706 1436.97009 1442.21130
1442.0 0.000693 1436.66528 1441.81848
1461.0 0.000684 1436.36084 1441.42810
1504.0 0.000665 1436.05652 1441.04016
1481.0 0.000675 1435.75256 1440.65454
1552.0 0.000644 1435.44861 1440.27100
1453.0 0.000688 1435.14514 1439.88977
1452.0 0.000689 1434.84155 1439.51050
1467.0 0.000682 1434.53857 1439.13342
1522.0 0.000657 1434.23572 1438.75830
1478.0 0.000677 1433.93323 1438.38513
1437.0 0.000696 1433.63098 1438.01379
1497.0 0.000668 1433.32886 1437.64417
1513.0 0.000661 1433.02710 1437.27673
1524.0 0.000656 1432.72559 1436.91077
1477.0 0.000677 1432.42419 1436.54651
1464.0 0.000683 1432.12305 1436.18384
1472.0 0.000679 1431.82227 1435.82288
1418.0 0.000705 1431.52148 1435.46350
1456.0 0.000687 1431.22131 1435.10583
1468.0 0.000681 1430.92126 1434.74939
1470.0 0.000680 1430.62122 1434.39441
1524.0 0.000656 1430.32153 1434.04089
1451.0 0.000689 1430.02234 1433.68872
1421.0 0.000704 1429.72302 1433.33801
1441.0 0.000694 1429.42407 1432.98865
1434.0 0.000697 1429.12561 1432.64050
1451.0 0.000689 1428.82703 1432.29346
1406.0 0.000711 1428.52869 1431.94788
1476.0 0.000678 1428.23083 1431.60339
1460.0 0.000685 1427.93298 1431.26025
1438.0 0.000695 1427.63550 1430.91797
1396.0 0.000716 1427.33838 1430.57703
1418.0 0.000705 1427.04126 1430.23730
1424.0 0.000702 1426.74463 1429.89844
1401.0 0.000714 1426.44812 1429.56079
1453.0 0.000688 1426.15173 1429.22400
1418.0 0.000705 1425.85571 1428.88831
1407.0 0.000711 1425.55981 1428.55359
1441.0 0.000694 1425.26428 1428.22009
1467.0 0.000682 1424.96887 1427.88733
1410.0 0.000709 1424.67383 1427.55542
1405.0 0.000712 1424.37891 1427.22449
1417.0 0.000706 1424.08411 1426.89453
1434.0 0.000697 1423.79004 1426.56555
1449.0 0.000690 1423.49561 1426.23730
1375.0 0.000727 1423.20178 1425.90991
1392.0 0.000718 1422.90808 1425.58337
1423.0 0.000703 1422.61462 1425.25769
1444.0 0.000693 1422.32129 1424.93298
1449.0 0.000690 1422.02844 1424.60876
1479.0 0.000676 1421.73535 1424.28540
1441.0 0.000694 1421.44287 1423.96289
1400.0 0.000714 1421.15051 1423.64124
1431.0 0.000699 1420.85864 1423.32019
1423.0 0.000703 1420.56665 1422.99976
1479.0 0.000676 1420.27502 1422.68030
1447.0 0.000691 1419.98352 1420.81714
1430.0 0.000699 1419.69250 1420.51624
1426.0 0.000701 1419.40149 1420.21582
1490.0 0.000671 1419.11072 1419.91565
1455.0 0.000687 1418.82043 1419.61584
1411.0 0.000709 1418.53003 1419.31653
1385.0 0.000722 1418.23987 1419.01758
1477.0 0.000677 1417.95032 1417.94958
1465.0 0.000683 1417.66040 1417.65991
1458.0 0.000686 1417.37109 1417.37061
1463.0 0.000684 1417.08215 1417.08142
1381.0 0.000724 1416.79333 1416.79248
1402.0 0.000713 1416.50452 1416.50391
1456.0 0.000687 1416.21606 1416.21533
1426.0 0.000701 1415.92786 1415.92712
1459.0 0.000685 1415.63965 1415.63904
1477.0 0.000677 1415.35205 1415.35144
1431.0 0.000699 1415.06445 1415.06384
1363.0 0.000734 1414.77722 1414.77649
1407.0 0.000711 1414.49011 1414.48938
1430.0 0.000699 1414.20300 1414.20239
1450.0 0.000690 1413.91675 1413.91589
1379.0 0.000725 1413.63000 1413.62939
1331.0 0.000751 1413.34387 1413.34326
1388.0 0.000720 1413.05774 1413.05713
1439.0 0.000695 1412.77185 1412.77136
1499.0 0.000667 1412.48633 1412.48584
1407.0 0.000711 1412.20105 1412.20056
1380.0 0.000725 1411.91614 1411.91541
1401.0 0.000714 1411.63110 1411.63049
1453.0 0.000688 1411.34644 1411.34570
1421.0 0.000704 1411.06189 1411.06128
1460.0 0.000685 1410.77783 1410.77710
1475.0 0.000678 1410.49353 1410.49304
1438.0 0.000695 1410.20984 1410.20923
1445.0 0.000692 1409.92615 1409.92566
1442.0 0.000693 1409.64294 1409.64233
1415.0 0.000707 1409.35974 1409.35925
1399.0 0.000715 1409.07690 1409.07629
1431.0 0.000699 1408.79407 1408.79346
1435.0 0.000697 1408.51160 1408.51099
1409.0 0.000710 1408.22961 1408.22876
1432.0 0.000698 1407.94739 1407.94678
1422.0 0.000703 1407.66541 1407.66479
1378.0 0.000726 1407.38391 1407.38318
1356.0 0.000737 1407.10229 1407.10168
1338.0 0.000747 1406.82092 1406.82043
1363.0 0.000734 1406.54028 1406.53955
1380.0 0.000725 1406.25928 1406.25879
1383.0 0.000723 1405.97876 1405.97815
1409.0 0.000710 1405.69836 1405.69775
1391.0 0.000719 1405.41821 1405.41760
1442.0 0.000693 1405.13831 1405.13770
1400.0 0.000714 1404.85876 1404.85803
1378.0 0.000726 1404.57898 1404.57849
1420.0 0.000704 1404.29932 1404.29919
1423.0 0.000703 1404.02075 1404.02002
1404.0 0.000712 1403.74158 1403.74121
1373.0 0.000728 1403.46301 1403.46252
1378.0 0.000726 1403.18481 1403.18408
1412.0 0.000708 1402.90649 1402.90576
1361.0 0.000735 1402.62842 1402.62781
1370.0 0.000730 1402.35059 1402.34998
1383.0 0.000723 1402.07275 1402.07239
1387.0 0.000721 1401.79553 1401.79492
1397.0 0.000716 1401.51807 1401.51770
1493.0 0.000670 1401.24121 1401.24072
1401.0 0.000714 1400.96448 1400.96399
1388.0 0.000720 1400.68799 1400.68738
1418.0 0.000705 1400.41150 1400.41101
1364.0 0.000733 1400.13538 1400.13477
1355.0 0.000738 1399.85938 1399.85876
1427.0 0.000701 1399.58374 1399.58313
1393.0 0.000718 1399.30823 1399.30762
1390.0 0.000719 1399.03271 1399.03223
1368.0 0.000731 1398.75757 1398.75708
1279.0 0.000782 1398.48291 1398.48218
1371.0 0.000729 1398.20789 1398.20740
1396.0 0.000716 1397.93335 1397.93286
1424.0 0.000702 1397.65906 1397.65845
1445.0 0.000692 1397.38501 1397.38440
1394.0 0.000717 1397.11096 1397.11047
1394.0 0.000717 1396.83740 1396.83679
1366.0 0.000732 1396.56372 1396.56323
1355.0 0.000738 1396.29053 1396.28992
1394.0 0.000717 1396.01709 1396.01685
1402.0 0.000713 1395.74438 1395.74390
1344.0 0.000744 1395.47180 1395.47131
1353.0 0.000739 1395.19934 1397.38965
1391.0 0.000719 1394.92688 1397.13940
1411.0 0.000709 1394.65479 1396.88965
1416.0 0.000706 1394.38293 1396.64038
1389.0 0.000720 1394.11133 1396.39185
1393.0 0.000718 1393.83972 1396.14355
1415.0 0.000707 1393.56848 1395.89612
1402.0 0.000713 1393.29712 1395.64893
1395.0 0.000717 1393.02637 1396.48926
1401.0 0.000714 1392.75562 1396.25439
1452.0 0.000689 1392.48523 1396.02026
1447.0 0.000691 1392.21484 1395.78662
1397.0 0.000716 1391.94470 1395.55408
1375.0 0.000727 1391.67505 1395.32214
1391.0 0.000719 1391.40515 1395.09119
1446.0 0.000692 1391.13562 1394.86084
1493.0 0.000670 1390.86609 1394.63123
1458.0 0.000686 1390.59692 1394.40271
1406.0 0.000711 1390.32813 1394.17517
1359.0 0.000736 1390.05945 1393.94824
1356.0 0.000737 1389.79089 1393.72217
1370.0 0.000730 1389.52246 1393.49707
1406.0 0.000711 1389.25439 1393.27283
1369.0 0.000730 1388.98645 1393.04968
1396.0 0.000716 1388.71875 1392.82739
1414.0 0.000707 1388.45117 1392.60608
1398.0 0.000715 1388.18359 1392.38562
1437.0 0.000696 1387.91650 1392.16626
1370.0 0.000730 1387.64954 1392.61975
1319.0 0.000758 1387.38257 1392.40845
1386.0 0.000722 1387.11621 1392.19812
1429.0 0.000700 1386.84961 1391.98901
1441.0 0.000694 1386.58337 1391.78113
1355.0 0.000738 1386.31750 1391.57471
1419.0 0.000705 1386.05151 1391.36902
1360.0 0.000735 1385.78577 1391.16492
1394.0 0.000717 1385.52051 1390.96191
1444.0 0.000693 1385.25513 1391.09583
1392.0 0.000718 1384.99036 1390.89856
1391.0 0.000719 1384.72534 1390.70264
1386.0 0.000722 1384.46045 1390.50818
1436.0 0.000696 1384.19617 1390.31506
1371.0 0.000729 1383.93176 1390.12329
1379.0 0.000725 1383.66748 1389.93323
1412.0 0.000708 1383.40356 1389.74475
1386.0 0.000722 1383.14001 1389.55762
1370.0 0.000730 1382.87622 1389.37219
1371.0 0.000729 1382.61279 1389.18860
1342.0 0.000745 1382.34961 1389.00659
1432.0 0.000698 1382.08667 1388.82605
1398.0 0.000715 1381.82373 1388.64758
1387.0 0.000721 1381.56104 1388.47070
1367.0 0.000732 1381.29871 1388.29578
1363.0 0.000734 1381.03674 1388.12280
1382.0 0.000724 1380.77417 1387.95154
1416.0 0.000706 1380.51233 1387.78223
1404.0 0.000712 1380.25061 1387.61499
1396.0 0.000716 1379.98914 1387.44983
1420.0 0.000704 1379.72803 1387.28699
1437.0 0.000696 1379.46680 1387.12610
1405.0 0.000712 1379.20605 1386.96729
1423.0 0.000703 1378.94482 1386.81104
1431.0 0.000699 1378.68433 1386.65698
1354.0 0.000739 1378.42395 1386.50525
1318.0 0.000759 1378.16370 1386.35632
1358.0 0.000736 1377.90369 1386.20935
1368.0 0.000731 1377.64392 1386.06543
1425.0 0.000702 1377.38379 1385.92395
1417.0 0.000706 1377.12463 1385.78516
1342.0 0.000745 1376.86511 1385.64929
1373.0 0.000728 1376.60596 1385.51624
1391.0 0.000719 1376.34705 1385.38611
1396.0 0.000716 1376.08826 1385.25891
1386.0 0.000722 1375.82983 1385.13501
1373.0 0.000728 1375.57129 1385.01440
1375.0 0.000727 1375.31311 1384.89709
1385.0 0.000722 1375.05481 1384.78284
1434.0 0.000697 1374.79675 1384.67236
1404.0 0.000712 1374.53931 1384.56543
1379.0 0.000725 1374.28186 1384.46216
1439.0 0.000695 1374.02454 1384.36279
1444.0 0.000693 1373.76721 1384.26733
1437.0 0.000696 1373.51013 1384.17578
1428.0 0.000700 1373.25330 1384.08850
1452.0 0.000689 1372.99670 1384.00574
1477.0 0.000677 1372.74036 1383.92737
1488.0 0.000672 1372.48413 1383.85339
1470.0 0.000680 1372.22803 1383.78406
1388.0 0.000720 1371.97205 1383.71997
1430.0 0.000699 1371.71606 1383.66089
1406.0 0.000711 1371.46057 1383.60681
1378.0 0.000726 1371.20520 1383.55835
1446.0 0.000692 1370.94983 1383.51550
1490.0 0.000671 1370.69470 1383.47815
1472.0 0.000679 1370.44006 1383.44702
1471.0 0.000680 1370.18518 1383.42200
1390.0 0.000719 1369.93091 1383.40344
1436.0 0.000696 1369.67627 1383.39148
1515.0 0.000660 1369.42224 1383.38647
1425.0 0.000702 1369.16821 1383.38867
1453.0 0.000688 1368.91443 1383.39819
1429.0 0.000700 1368.66077 1383.41553
1441.0 0.000694 1368.40735 1383.44055
1420.0 0.000704 1368.15393 1383.47388
1423.0 0.000703 1367.90076 1383.51599
1482.0 0.000675 1367.64771 1383.56714
1447.0 0.000691 1367.39514 1383.62744
1387.0 0.000721 1367.14221 1383.69751
1424.0 0.000702 1366.88989 1383.77759
1522.0 0.000657 1366.63770 1383.86816
1433.0 0.000698 1366.38538 1383.96948
1408.0 0.000710 1366.13342 1384.08240
1432.0 0.000698 1365.88171 1384.20703
1430.0 0.000699 1365.63013 1384.34412
1401.0 0.000714 1365.37866 1384.49390
1399.0 0.000715 1365.12744 1384.65771
1433.0 0.000698 1364.87622 1384.83521
1405.0 0.000712 1364.62549 1385.02759
1377.0 0.000726 1364.37463 1385.23511
1365.0 0.000733 1364.12415 1385.45886
1411.0 0.000709 1363.87366 1385.69971
1420.0 0.000704 1363.62329 1385.95801
1382.0 0.000724 1363.37317 1386.23499
1408.0 0.000710 1363.12329 1386.53113
1430.0 0.000699 1362.87354 1386.84802
1430.0 0.000699 1362.62390 1387.18628
1413.0 0.000708 1362.37463 1387.54712
1424.0 0.000702 1362.12537 1387.93164
1426.0 0.000701 1361.87610 1388.34082
1448.0 0.000691 1361.62744 1388.77649
1414.0 0.000707 1361.37866 1389.23987
1406.0 0.000711 1361.12988 1389.73267
1449.0 0.000690 1360.88135 1390.25598
1454.0 0.000688 1360.63330 1390.81189
1428.0 0.000700 1360.38538 1391.40210
1420.0 0.000704 1360.13733 1392.02905
1432.0 0.000698 1359.88953 1392.69458
1443.0 0.000693 1359.64160 1393.40100
1428.0 0.000700 1359.39453 1394.15088
1457.0 0.000686 1359.14734 1394.94666
1460.0 0.000685 1358.90015 1395.79163
1453.0 0.000688 1358.65320 1396.68909
1390.0 0.000719 1358.40625 1397.64185
1421.0 0.000704 1358.15979 1398.65369
1448.0 0.000691 1357.91345 1399.72888
1427.0 0.000701 1357.66711 1400.87207
1458.0 0.000686 1357.42090 1402.08765
1453.0 0.000688 1357.17480 1403.38098
1422.0 0.000703 1356.92908 1404.75708
1437.0 0.000696 1356.68359 1406.22266
1435.0 0.000697 1356.43799 1407.78479
1479.0 0.000676 1356.19275 1409.45068
1429.0 0.000700 1355.94739 1411.22852
1447.0 0.000691 1355.70239 1413.12659
1399.0 0.000715 1355.45789 1415.15540
1388.0 0.000720 1355.21301 1417.32678
1533.0 0.000652 1354.96838 1419.65234
1414.0 0.000707 1354.72424 1422.14551
1469.0 0.000681 1354.47998 1424.82080
1442.0 0.000693 1354.23596 1427.69543
1445.0 0.000692 1353.99194 1430.78992
1463.0 0.000684 1353.74829 1434.12378
1461.0 0.000684 1353.50476 1437.72168
1413.0 0.000708 1353.26160 1441.60889
1456.0 0.000687 1353.01819 1445.81714
1469.0 0.000681 1352.77515 1450.38257
1481.0 0.000675 1352.53223 1455.34326
1466.0 0.000682 1352.28931 1460.74451
1498.0 0.000668 1352.04688 1466.63696
1521.0 0.000657 1351.80420 1473.08179
1520.0 0.000658 1351.56201 1480.15015
1583.0 0.000632 1351.31995 1487.92163
1593.0 0.000628 1351.07788 1496.49048
1558.0 0.000642 1350.83606 1505.96497
1562.0 0.000640 1350.59436 1516.48157
1547.0 0.000646 1350.35266 1528.19104
1564.0 0.000639 1350.11145 1541.28638
1594.0 0.000627 1349.87024 1555.98975
1640.0 0.000610 1349.62903 1572.56921
1665.0 0.000601 1349.38831 1591.36902
1752.0 0.000571 1349.14771 1612.79089
1837.0 0.000544 1348.90698 1637.36182
1923.0 0.000520 1348.66663 1665.72339
1999.0 0.000500 1348.42639 1698.69031
2093.0 0.000478 1348.18591 1737.34485
2219.0 0.000451 1347.94617 1783.05371
2290.0 0.000437 1347.70642 1837.68689
2397.0 0.000417 1347.46655 1903.72168
2533.0 0.000395 1347.22729 1984.55554
2610.0 0.000383 1346.98792 2085.04395
2692.0 0.000371 1346.74878 2212.05322
2850.0 0.000351 1346.50964 2375.97900
3179.0 0.0003146 1346.27063 2593.20996
3506.0 0.0002852 1346.03210 2893.61865
4090.0 0.0002445 1345.79333 3343.86328
5179.0 0.0001931 1345.55493 4106.58398
6604.0 0.0001514 1345.31665 5544.98389
9334.0 0.0001071 1345.07849 8276.93164
13954.0 0.0000717 1344.84070 12952.92285
21303.0 0.0000469 1344.60266 19559.92578
28670.0 0.0000349 1344.36499 26032.61133
30006.0 0.0000333 1344.12756 27522.72070
23827.0 0.0000420 1343.89001 22594.34570
16413.0 0.0000609 1343.65295 15981.66602
11178.0 0.0000895 1343.41577 11070.18555
8922.0 0.0001121 1343.17871 8701.66211
8679.0 0.0001152 1342.94214 8708.33887
10595.0 0.0000944 1342.70532 10620.92969
13816.0 0.0000724 1342.46887 13540.65820
16697.0 0.0000599 1342.23242 15382.43750
16156.0 0.0000619 1341.99670 13956.49707
12561.0 0.0000796 1341.76050 10478.92480
8612.0 0.0001161 1341.52441 7217.10059
5907.0 0.0001693 1341.28894 4977.52051
4467.0 0.0002239 1341.05298 3679.25513
3639.0 0.0002748 1340.81787 2983.48608
3050.0 0.0003279 1340.58252 2597.33081
2806.0 0.000356 1340.34741 2356.87207
2568.0 0.000389 1340.11243 2189.55664
2404.0 0.000416 1339.87756 2065.07104
2226.0 0.000449 1339.64270 1969.18555
2229.0 0.000449 1339.40820 1893.64734
2059.0 0.000486 1339.17383 1833.18762
2010.0 0.000498 1338.93958 1784.19739
1920.0 0.000521 1338.70557 1744.09961
1867.0 0.000536 1338.47168 1711.08459
1765.0 0.000567 1338.23755 1683.79248
1737.0 0.000576 1338.00415 1661.24121
1724.0 0.000580 1337.77051 1642.69641
1733.0 0.000577 1337.53699 1627.59827
1663.0 0.000601 1337.30383 1615.55286
1676.0 0.000597 1337.07056 1606.26758
1691.0 0.000591 1336.83752 1599.56006
1673.0 0.000598 1336.60486 1595.33276
1677.0 0.000596 1336.37207 1593.56909
1647.0 0.000607 1336.13977 1594.34216
1609.0 0.000622 1335.90735 1597.81982
1620.0 0.000617 1335.67529 1604.28259
1627.0 0.000615 1335.44299 1614.14771
1672.0 0.000598 1335.21106 1628.02734
1711.0 0.000584 1334.97913 1646.77051
1686.0 0.000593 1334.74756 1671.60205
1673.0 0.000598 1334.51599 1704.25073
1735.0 0.000576 1334.28491 1747.22522
1770.0 0.000565 1334.05347 1804.35437
1803.0 0.000555 1333.82239 1881.81909
1859.0 0.000538 1333.59143 1991.36475
1985.0 0.000504 1333.36047 2158.39819
2250.0 0.000444 1333.13025 2439.44238
2722.0 0.000367 1332.89954 2945.37476
3510.0 0.0002849 1332.66919 3842.24072
4957.0 0.0002017 1332.43896 5286.87451
7373.0 0.0001356 1332.20874 7251.64941
9572.0 0.0001045 1331.97876 9164.12012
9898.0 0.0001010 1331.74890 9693.93945
7977.0 0.0001254 1331.51929 8354.72070
5575.0 0.0001794 1331.28979 6409.45410
3962.0 0.0002524 1331.06030 4876.73682
3185.0 0.0003140 1330.83118 4051.68408
3186.0 0.0003139 1330.60193 3922.57568
3663.0 0.0002730 1330.37305 4372.08984
4709.0 0.0002124 1330.14417 5174.79053
5733.0 0.0001744 1329.91553 5811.81592
5819.0 0.0001719 1329.68701 5591.12744
4759.0 0.0002101 1329.45850 4628.86621
3607.0 0.0002772 1329.23035 3593.83643
2583.0 0.000387 1329.00208 2811.20728
2128.0 0.000470 1328.77405 2311.89233
1821.0 0.000549 1328.54626 2021.53455
1749.0 0.000572 1328.31860 1854.34009
1642.0 0.000609 1328.09119 1751.13940
1599.0 0.000625 1327.86353 1680.65698
1479.0 0.000676 1327.63623 1628.62256
1459.0 0.000685 1327.40906 1588.39014
1535.0 0.000651 1327.18201 1556.37720
1480.0 0.000676 1326.95520 1530.39954
1514.0 0.000661 1326.72839 1508.95544
1514.0 0.000661 1326.50171 1491.00732
1396.0 0.000716 1326.27539 1475.80151
1388.0 0.000720 1326.04895 1462.77075
1379.0 0.000725 1325.82275 1451.50159
1379.0 0.000725 1325.59656 1441.66553
1383.0 0.000723 1325.37061 1433.01624
1405.0 0.000712 1325.14502 1425.35889
1447.0 0.000691 1324.91943 1418.53210
1322.0 0.000756 1324.69385 1412.41443
1348.0 0.000742 1324.46826 1406.89917
1387.0 0.000721 1324.24304 1401.90442
1401.0 0.000714 1324.01807 1397.36145
1382.0 0.000724 1323.79297 1393.20984
1387.0 0.000721 1323.56824 1389.40308
1381.0 0.000724 1323.34351 1385.89783
1388.0 0.000720 1323.11914 1382.66040
1411.0 0.000709 1322.89441 1379.66113
1449.0 0.000690 1322.67004 1376.87317
1383.0 0.000723 1322.44580 1374.27539
1317.0 0.000759 1322.22192 1371.84729
1283.0 0.000779 1321.99780 1369.57251
1318.0 0.000759 1321.77441 1367.43701
1328.0 0.000753 1321.55054 1365.42676
1363.0 0.000734 1321.32690 1363.53113
1370.0 0.000730 1321.10352 1361.73926
1314.0 0.000761 1320.88037 1360.04260
1296.0 0.000772 1320.65735 1358.43372
1328.0 0.000753 1320.43457 1356.90417
1344.0 0.000744 1320.21130 1355.44873
1327.0 0.000754 1319.98877 1354.06091
1319.0 0.000758 1319.76624 1352.73584
1322.0 0.000756 1319.54407 1351.46912
1345.0 0.000743 1319.32166 1350.25574
1329.0 0.000752 1319.09912 1349.09241
1302.0 0.000768 1318.87720 1347.97546
1326.0 0.000754 1318.65540 1346.90198
1301.0 0.000769 1318.43372 1345.86890
1329.0 0.000752 1318.21191 1344.87341
1350.0 0.000741 1317.99060 1343.91345
1311.0 0.000763 1317.76917 1342.98633
1302.0 0.000768 1317.54773 1342.09009
1312.0 0.000762 1317.32678 1341.22327
1268.0 0.000789 1317.10571 1340.38379
1310.0 0.000763 1316.88477 1339.57031
1337.0 0.000748 1316.66406 1338.78076
1354.0 0.000739 1316.44348 1338.01404
1318.0 0.000759 1316.22302 1337.26965
1368.0 0.000731 1316.00269 1336.54517
1282.0 0.000780 1315.78247 1335.84033
1288.0 0.000776 1315.56262 1335.15369
1352.0 0.000740 1315.34241 1334.48438
1339.0 0.000747 1315.12280 1333.83203
1274.0 0.000785 1314.90295 1333.19495
1310.0 0.000763 1314.68347 1332.57288
1353.0 0.000739 1314.46387 1331.96509
1355.0 0.000738 1314.24463 1331.37048
1384.0 0.000723 1314.02551 1330.78906
1300.0 0.000769 1313.80640 1330.21985
1361.0 0.000735 1313.58777 1329.66223
1386.0 0.000722 1313.36865 1329.11597
1346.0 0.000743 1313.15002 1328.58008
1394.0 0.000717 1312.93152 1328.05457
1353.0 0.000739 1312.71313 1327.53882
1347.0 0.000742 1312.49475 1327.03247
1373.0 0.000728 1312.27649 1326.53479
1299.0 0.000770 1312.05872 1326.04578
1296.0 0.000772 1311.84070 1325.56519
1347.0 0.000742 1311.62317 1325.09216
1351.0 0.000740 1311.40552 1324.62695
1350.0 0.000741 1311.18799 1324.16882
1320.0 0.000758 1310.97034 1323.71777
1343.0 0.000745 1310.75330 1323.27356
1292.0 0.000774 1310.53613 1322.83557
1327.0 0.000754 1310.31921 1322.40417
1339.0 0.000747 1310.10229 1321.97815
1307.0 0.000765 1309.88550 1321.55835
1264.0 0.000791 1309.66882 1321.14392
1243.0 0.000805 1309.45239 1320.73486
1250.0 0.000800 1309.23596 1320.33105
1303.0 0.000767 1309.02002 1319.93213
1306.0 0.000766 1308.80371 1319.53796
1277.0 0.000783 1308.58777 1319.14844
1287.0 0.000777 1308.37170 1318.76355
1287.0 0.000777 1308.15588 1318.38293
1304.0 0.000767 1307.94043 1318.00647
1305.0 0.000766 1307.72510 1317.63403
1279.0 0.000782 1307.50977 1317.26563
1260.0 0.000794 1307.29443 1316.90088
1262.0 0.000792 1307.07935 1316.53992
1329.0 0.000752 1306.86414 1316.18237
1312.0 0.000762 1306.64929 1315.82825
1286.0 0.000778 1306.43469 1315.47791
1289.0 0.000776 1306.22021 1315.13037
1291.0 0.000775 1306.00574 1314.78625
1297.0 0.000771 1305.79114 1314.44482
1309.0 0.000764 1305.57715 1314.10632
1301.0 0.000769 1305.36279 1313.77100
1335.0 0.000749 1305.14893 1313.43848
1317.0 0.000759 1304.93494 1313.10852
1303.0 0.000767 1304.72131 1312.78125
1323.0 0.000756 1304.50769 1312.45642
1346.0 0.000743 1304.29431 1312.13416
1340.0 0.000746 1304.08093 1311.81445
1292.0 0.000774 1303.86768 1311.49695
1312.0 0.000762 1303.65442 1311.18176
1283.0 0.000779 1303.44153 1310.86877
1365.0 0.000733 1303.22852 1310.55786
1351.0 0.000740 1303.01563 1310.24915
1262.0 0.000792 1302.80334 1309.94238
1307.0 0.000765 1302.59058 1309.63782
1271.0 0.000787 1302.37805 1309.33496
1301.0 0.000769 1302.16614 1309.03442
1298.0 0.000770 1301.95386 1308.73523
1315.0 0.000760 1301.74194 1308.43823
1315.0 0.000760 1301.52991 1308.14270
1314.0 0.000761 1301.31824 1307.84888
1358.0 0.000736 1301.10657 1307.55713
1304.0 0.000767 1300.89490 1307.26672
1203.0 0.000831 1300.68396 1306.97791
1254.0 0.000797 1300.47241 1306.69092
1272.0 0.000786 1300.26111 1306.40503
1349.0 0.000741 1300.05017 1306.12073
1290.0 0.000775 1299.83923 1305.83801
1284.0 0.000779 1299.62842 1305.55688
1247.0 0.000802 1299.41785 1303.07764
1243.0 0.000805 1299.20740 1302.82080
1190.0 0.000840 1298.99670 1302.56506
1256.0 0.000796 1298.78650 1302.31030
1285.0 0.000778 1298.57654 1302.05627
1335.0 0.000749 1298.36633 1301.80347
1313.0 0.000762 1298.15625 1301.55151
1296.0 0.000772 1297.94653 1301.30042
1333.0 0.000750 1297.73657 1301.05017
1349.0 0.000741 1297.52722 1299.71069
1359.0 0.000736 1297.31738 1299.47290
1400.0 0.000714 1297.10828 1299.23584
1423.0 0.000703 1296.89917 1298.99939
1411.0 0.000709 1296.68994 1298.76367
1366.0 0.000732 1296.48108 1298.52869
1298.0 0.000770 1296.27222 1298.29395
1309.0 0.000764 1296.06311 1298.06006
1341.0 0.000746 1295.85474 1297.82678
1350.0 0.000741 1295.64636 1297.59399
1340.0 0.000746 1295.43799 1297.36182
1293.0 0.000773 1295.22961 1297.13013
1268.0 0.000789 1295.02124 1296.89905
1298.0 0.000770 1294.81323 1296.66846
1297.0 0.000771 1294.60559 1296.43835
1280.0 0.000781 1294.39758 1296.20898
1277.0 0.000783 1294.19006 1295.97974
1280.0 0.000781 1293.98242 1295.75122
1265.0 0.000791 1293.77502 1295.52319
1277.0 0.000783 1293.56763 1295.29565
1269.0 0.000788 1293.36035 1295.06860
1296.0 0.000772 1293.15356 1294.84204
1265.0 0.000791 1292.94641 1294.61572
1244.0 0.000804 1292.73950 1294.39001
1302.0 0.000768 1292.53296 1294.16467
1284.0 0.000779 1292.32629 1293.93982
1275.0 0.000784 1292.11975 1293.71533
1302.0 0.000768 1291.91345 1293.49121
1308.0 0.000765 1291.70715 1293.26770
1220.0 0.000820 1291.50098 1293.04443
1250.0 0.000800 1291.29517 1292.82166
1285.0 0.000778 1291.08911 1292.59924
1261.0 0.000793 1290.88318 1292.37708
1228.0 0.000814 1290.67749 1292.15540
1280.0 0.000781 1290.47205 1291.93408
1263.0 0.000792 1290.26685 1291.71313
1289.0 0.000776 1290.06152 1291.49268
1271.0 0.000787 1289.85608 1291.27234
1331.0 0.000751 1289.65112 1291.05261
1279.0 0.000782 1289.44592 1290.83301
1258.0 0.000795 1289.24121 1290.61389
1243.0 0.000805 1289.03638 1290.39502
1276.0 0.000784 1288.83203 1290.17639
1289.0 0.000776 1288.62744 1289.95837
1287.0 0.000777 1288.42285 1289.74048
1281.0 0.000781 1288.21887 1289.52295
1277.0 0.000783 1288.01477 1289.30579
1195.0 0.000837 1287.81055 1289.08887
1141.0 0.000876 1287.60645 1288.87231
1187.0 0.000842 1287.40283 1288.65588
1250.0 0.000800 1287.19910 1288.44006
1285.0 0.000778 1286.99548 1288.22424
1246.0 0.000803 1286.79224 1288.00891
1263.0 0.000792 1286.58887 1287.79382
1255.0 0.000797 1286.38550 1287.57886
1231.0 0.000812 1286.18237 1287.36450
1252.0 0.000799 1285.97961 1287.15002
1243.0 0.000805 1285.77649 1286.93604
1261.0 0.000793 1285.57385 1286.72241
1255.0 0.000797 1285.37134 1286.50891
1212.0 0.000825 1285.16882 1286.29578
1258.0 0.000795 1284.96631 1286.08289
1280.0 0.000781 1284.76392 1285.87012
1256.0 0.000796 1284.56189 1285.65784
1259.0 0.000794 1284.35962 1285.44580
1265.0 0.000791 1284.15771 1285.23389
1251.0 0.000799 1283.95581 1285.02222
1247.0 0.000802 1283.75439 1284.81079
1245.0 0.000803 1283.55273 1284.59961
1233.0 0.000811 1283.35120 1283.71399
1270.0 0.000787 1283.14978 1283.50940
1234.0 0.000810 1282.94849 1283.30493
1236.0 0.000809 1282.74744 1283.10059
1274.0 0.000785 1282.54639 1282.89624
1267.0 0.000789 1282.34534 1282.69226
1264.0 0.000791 1282.14465 1282.48828
1251.0 0.000799 1281.94385 1282.28455
1244.0 0.000804 1281.74341 1282.08093
1258.0 0.000795 1281.54297 1281.54272
1281.0 0.000781 1281.34265 1281.34229
1281.0 0.000781 1281.14221 1281.14209
1263.0 0.000792 1280.94226 1280.94202
1273.0 0.000786 1280.74231 1280.74194
1242.0 0.000805 1280.54236 1280.54211
1256.0 0.000796 1280.34265 1280.34241
1257.0 0.000796 1280.14307 1280.14270
1234.0 0.000810 1279.94336 1279.94312
1219.0 0.000820 1279.74390 1279.74365
1254.0 0.000797 1279.54456 1279.54431
1281.0 0.000781 1279.34570 1279.34521
1229.0 0.000814 1279.14624 1279.14612
1224.0 0.000817 1278.94739 1278.94714
1262.0 0.000792 1278.74866 1278.74817
1250.0 0.000800 1278.54968 1278.54944
1262.0 0.000792 1278.35107 1278.35083
1255.0 0.000797 1278.15271 1278.15234
1272.0 0.000786 1277.95422 1277.95398
1228.0 0.000814 1277.75598 1277.75549
1236.0 0.000809 1277.55750 1277.55737
1203.0 0.000831 1277.35974 1277.35925
1208.0 0.000828 1277.16162 1277.16138
1222.0 0.000818 1276.96375 1276.96350
1273.0 0.000786 1276.76599 1276.76575
1266.0 0.000790 1276.56860 1276.56824
1218.0 0.000821 1276.37097 1276.37061
1249.0 0.000801 1276.17358 1276.17322
1235.0 0.000810 1275.97632 1275.97595
1292.0 0.000774 1275.77893 1275.77869
1297.0 0.000771 1275.58203 1275.58167
1312.0 0.000762 1275.38501 1275.38477
1310.0 0.000763 1275.18835 1275.18799
1273.0 0.000786 1274.99158 1274.99121
1201.0 0.000833 1274.79480 1274.79468
1189.0 0.000841 1274.59851 1274.59814
1243.0 0.000805 1274.40198 1274.40173
1248.0 0.000801 1274.20581 1274.20557
1209.0 0.000827 1274.00940 1274.00928
1245.0 0.000803 1273.81360 1273.81323
1270.0 0.000787 1273.61768 1273.61731
1250.0 0.000800 1273.42175 1273.42151
1225.0 0.000816 1273.22607 1273.22583
1242.0 0.000805 1273.03052 1273.03015
1223.0 0.000818 1272.83484 1272.83459
1185.0 0.000844 1272.63965 1272.63928
1224.0 0.000817 1272.44434 1272.44397
1247.0 0.000802 1272.24915 1272.24890
1252.0 0.000799 1272.05420 1272.05383
1252.0 0.000799 1271.85913 1271.85889
1211.0 0.000826 1271.66455 1271.66406
1189.0 0.000841 1271.46960 1271.46936
1244.0 0.000804 1271.27502 1271.27478
1271.0 0.000787 1271.08057 1271.08032
1266.0 0.000790 1270.88611 1270.88586
1266.0 0.000790 1270.69189 1270.69165
1223.0 0.000818 1270.49780 1270.49744
1204.0 0.000831 1270.30383 1270.30347
1244.0 0.000804 1270.10986 1270.10950
1215.0 0.000823 1269.91589 1269.91565
1232.0 0.000812 1269.72229 1269.72205
1232.0 0.000812 1269.52869 1269.52832
1187.0 0.000842 1269.33508 1269.33484
1216.0 0.000822 1269.14185 1269.14148
1244.0 0.000804 1268.94861 1268.94824
1217.0 0.000822 1268.75549 1268.75513
1240.0 0.000806 1268.56238 1268.56201
1291.0 0.000775 1268.36938 1268.36914
1201.0 0.000833 1268.17651 1268.17627
1221.0 0.000819 1267.98389 1267.98352
1214.0 0.000824 1267.79138 1267.79102
1223.0 0.000818 1267.59875 1267.59851
1239.0 0.000807 1267.40637 1267.40613
1227.0 0.000815 1267.21423 1267.21387
1172.0 0.000853 1267.02185 1267.02161
1238.0 0.000808 1266.82971 1266.82959
1214.0 0.000824 1266.63818 1266.63770
1238.0 0.000808 1266.44629 1266.44592
1232.0 0.000812 1266.25464 1266.25415
1260.0 0.000794 1266.06274 1266.06250
1221.0 0.000819 1265.87134 1265.87097
1267.0 0.000789 1265.67981 1265.67969
1210.0 0.000826 1265.48853 1265.48840
1227.0 0.000815 1265.29749 1265.29724
1234.0 0.000810 1265.10632 1265.10608
1199.0 0.000834 1264.91565 1264.91528
1222.0 0.000818 1264.72473 1264.72437
1232.0 0.000812 1264.53418 1264.53357
1229.0 0.000814 1264.34326 1264.34302
1236.0 0.000809 1264.15271 1264.15247
1230.0 0.000813 1263.96228 1263.96216
1261.0 0.000793 1263.77234 1263.77185
1251.0 0.000799 1263.58191 1263.58167
1237.0 0.000808 1263.39185 1263.39160
1251.0 0.000799 1263.20215 1263.20154
1244.0 0.000804 1263.01196 1263.01172
1263.0 0.000792 1262.82239 1262.82190
1264.0 0.000791 1262.63269 1262.63245
1250.0 0.000800 1262.44336 1262.44287
1257.0 0.000796 1262.25378 1262.25342
1240.0 0.000806 1262.06458 1262.06421
1220.0 0.000820 1261.87524 1261.87488
1237.0 0.000808 1261.68628 1261.68591
1239.0 0.000807 1261.49707 1261.49695
1234.0 0.000810 1261.30835 1261.30811
1248.0 0.000801 1261.11938 1261.11926
1270.0 0.000787 1260.93091 1260.93066
1254.0 0.000797 1260.74255 1260.74207
1250.0 0.000800 1260.55383 1260.55359
1217.0 0.000822 1260.36572 1260.36536
1187.0 0.000842 1260.17749 1260.17712
1203.0 0.000831 1259.98950 1259.98901
1215.0 0.000823 1259.80139 1262.23340
1247.0 0.000802 1259.61340 1262.06726
1242.0 0.000805 1259.42566 1261.90149
1217.0 0.000822 1259.23792 1261.73621
1200.0 0.000833 1259.05042 1261.57129
1254.0 0.000797 1258.86304 1261.40674
1237.0 0.000808 1258.67590 1261.24268
1224.0 0.000817 1258.48853 1261.07898
1227.0 0.000815 1258.30139 1260.91577
1244.0 0.000804 1258.11450 1260.75293
1207.0 0.000829 1257.92773 1261.79822
1196.0 0.000836 1257.74084 1261.64722
1168.0 0.000856 1257.55396 1261.49670
1184.0 0.000845 1257.36755 1261.34680
1243.0 0.000805 1257.18091 1261.19751
1258.0 0.000795 1256.99451 1261.04883
1209.0 0.000827 1256.80823 1260.90088
1193.0 0.000838 1256.62219 1260.75354
1179.0 0.000848 1256.43628 1260.60693
1207.0 0.000829 1256.25024 1260.46082
1233.0 0.000811 1256.06458 1260.31555
1233.0 0.000811 1255.87878 1260.17090
1237.0 0.000808 1255.69336 1260.02710
1201.0 0.000833 1255.50757 1259.88379
1259.0 0.000794 1255.32227 1259.74121
1243.0 0.000805 1255.13708 1259.59961
1222.0 0.000818 1254.95178 1259.45862
1240.0 0.000806 1254.76685 1259.31836
1228.0 0.000814 1254.58203 1259.17896
1214.0 0.000824 1254.39709 1259.04041
1243.0 0.000805 1254.21240 1258.90259
1231.0 0.000812 1254.02783 1258.76563
1203.0 0.000831 1253.84326 1258.62952
1235.0 0.000810 1253.65894 1258.49414
1243.0 0.000805 1253.47449 1258.35962
1253.0 0.000798 1253.29041 1258.22607
1248.0 0.000801 1253.10645 1258.09351
1244.0 0.000804 1252.92224 1257.96167
1237.0 0.000808 1252.73853 1257.83093
1229.0 0.000814 1252.55481 1257.70105
1239.0 0.000807 1252.37122 1257.57227
1227.0 0.000815 1252.18750 1257.44434
1214.0 0.000824 1252.00391 1257.31738
1208.0 0.000828 1251.82080 1257.19165
1205.0 0.000830 1251.63745 1257.06677
1222.0 0.000818 1251.45435 1256.94299
1232.0 0.000812 1251.27136 1256.82031
1213.0 0.000824 1251.08862 1256.69885
1186.0 0.000843 1250.90601 1256.57837
1192.0 0.000839 1250.72290 1256.45911
1182.0 0.000846 1250.54065 1256.34106
1173.0 0.000853 1250.35803 1256.22424
1216.0 0.000822 1250.17578 1256.10852
1251.0 0.000799 1249.99365 1255.99414
1262.0 0.000792 1249.81165 1255.88086
1217.0 0.000822 1249.62952 1255.76917
1200.0 0.000833 1249.44739 1255.65857
1224.0 0.000817 1249.26550 1255.54956
1229.0 0.000814 1249.08411 1255.44189
1221.0 0.000819 1248.90247 1255.33545
1227.0 0.000815 1248.72083 1255.23071
1220.0 0.000820 1248.53955 1255.12732
1258.0 0.000795 1248.35828 1255.02527
1256.0 0.000796 1248.17712 1254.92505
1243.0 0.000805 1247.99597 1254.82629
1214.0 0.000824 1247.81506 1254.72925
1190.0 0.000840 1247.63428 1254.63391
1187.0 0.000842 1247.45361 1254.54016
1221.0 0.000819 1247.27307 1254.44812
1212.0 0.000825 1247.09241 1254.35803
1209.0 0.000827 1246.91211 1254.26953
1159.0 0.000863 1246.73181 1254.18298
1178.0 0.000849 1246.55139 1254.09851
1239.0 0.000807 1246.37158 1254.01587
1227.0 0.000815 1246.19141 1253.93518
1170.0 0.000855 1246.01172 1253.85657
1232.0 0.000812 1245.83191 1253.78015
1219.0 0.000820 1245.65210 1253.70581
1233.0 0.000811 1245.47241 1253.63379
1328.0 0.000753 1245.29309 1253.56409
1273.0 0.000786 1245.11377 1253.49658
1302.0 0.000768 1244.93481 1253.43152
1269.0 0.000788 1244.75562 1253.36890
1286.0 0.000778 1244.57654 1253.30884
1286.0 0.000778 1244.39758 1253.25122
1277.0 0.000783 1244.21899 1253.19641
1307.0 0.000765 1244.04028 1253.14429
1212.0 0.000825 1243.86157 1253.09509
1245.0 0.000803 1243.68323 1253.04871
1278.0 0.000782 1243.50488 1253.00513
1260.0 0.000794 1243.32654 1252.96472
1276.0 0.000784 1243.14844 1252.92761
1250.0 0.000800 1242.97046 1252.89355
1278.0 0.000782 1242.79248 1252.86267
1283.0 0.000779 1242.61462 1252.83533
1285.0 0.000778 1242.43677 1252.81165
1290.0 0.000775 1242.25940 1252.79138
1265.0 0.000791 1242.08179 1252.77478
1281.0 0.000781 1241.90442 1252.76221
1265.0 0.000791 1241.72717 1252.75342
1219.0 0.000820 1241.55005 1252.74890
1239.0 0.000807 1241.37292 1252.74841
1259.0 0.000794 1241.19580 1252.75220
1222.0 0.000818 1241.01904 1252.76062
1271.0 0.000787 1240.84241 1252.77356
1284.0 0.000779 1240.66565 1252.79114
1281.0 0.000781 1240.48926 1252.81384
1297.0 0.000771 1240.31287 1252.84143
1295.0 0.000772 1240.13647 1252.87427
1287.0 0.000777 1239.96008 1252.91260
1233.0 0.000811 1239.78406 1252.95642
1195.0 0.000837 1239.60815 1253.00610
1207.0 0.000829 1239.43250 1253.06165
1240.0 0.000806 1239.25647 1253.12329
1253.0 0.000798 1239.08081 1253.19141
1234.0 0.000810 1238.90515 1253.26611
1235.0 0.000810 1238.72974 1253.34778
1227.0 0.000815 1238.55444 1253.43640
1253.0 0.000798 1238.37915 1253.53235
1301.0 0.000769 1238.20422 1253.63599
1272.0 0.000786 1238.02881 1253.74731
1245.0 0.000803 1237.85400 1253.86707
1289.0 0.000776 1237.67920 1253.99512
1177.0 0.000850 1237.50476 1254.13196
1157.0 0.000864 1237.32996 1254.27808
1189.0 0.000841 1237.15540 1254.43359
1255.0 0.000797 1236.98120 1254.59900
1214.0 0.000824 1236.80701 1254.77466
1227.0 0.000815 1236.63257 1254.96082
1223.0 0.000818 1236.45850 1255.15820
1224.0 0.000817 1236.28467 1255.36707
1286.0 0.000778 1236.11096 1255.58789
1303.0 0.000767 1235.93701 1255.82153
1267.0 0.000789 1235.76355 1256.06787
1262.0 0.000792 1235.58984 1256.32800
1214.0 0.000824 1235.41650 1256.60205
1237.0 0.000808 1235.24304 1256.89111
1293.0 0.000773 1235.07007 1257.19580
1257.0 0.000796 1234.89697 1257.51611
1186.0 0.000843 1234.72363 1257.85364
1267.0 0.000789 1234.55115 1258.20862
1282.0 0.000780 1234.37805 1258.58228
1320.0 0.000758 1234.20557 1258.97510
1252.0 0.000799 1234.03308 1259.38806
1282.0 0.000780 1233.86047 1259.82214
1262.0 0.000792 1233.68835 1260.27844
1231.0 0.000812 1233.51587 1260.75818
1198.0 0.000835 1233.34387 1261.26233
1253.0 0.000798 1233.17175 1261.79187
1260.0 0.000794 1233.00000 1262.34875
1234.0 0.000810 1232.82813 1262.93384
1216.0 0.000822 1232.65637 1263.54883
1226.0 0.000816 1232.48474 1264.19519
1301.0 0.000769 1232.31348 1264.87463
1293.0 0.000773 1232.14197 1265.58923
1238.0 0.000808 1231.97058 1266.34045
1262.0 0.000792 1231.79956 1267.13086
1334.0 0.000750 1231.62854 1267.96228
1325.0 0.000755 1231.45740 1268.83716
1265.0 0.000791 1231.28674 1269.75818
1250.0 0.000800 1231.11584 1270.72803
1239.0 0.000807 1230.94531 1271.74988
1261.0 0.000793 1230.77502 1272.82666
1269.0 0.000788 1230.60461 1273.96155
1218.0 0.000821 1230.43408 1275.15869
1211.0 0.000826 1230.26379 1276.42175
1227.0 0.000815 1230.09387 1277.75549
1264.0 0.000791 1229.92358 1279.16443
1290.0 0.000775 1229.75403 1280.65332
1268.0 0.000789 1229.58423 1282.22827
1278.0 0.000782 1229.41467 1283.89478
1254.0 0.000797 1229.24487 1285.65979
1222.0 0.000818 1229.07544 1287.53052
1259.0 0.000794 1228.90625 1289.51404
1277.0 0.000783 1228.73718 1291.62000
1272.0 0.000786 1228.56787 1293.85681
1261.0 0.000793 1228.39880 1296.23572
1273.0 0.000786 1228.23010 1298.76807
1319.0 0.000758 1228.06116 1301.46509
1285.0 0.000778 1227.89233 1304.34241
1266.0 0.000790 1227.72388 1307.41382
1256.0 0.000796 1227.55530 1310.69812
1277.0 0.000783 1227.38672 1314.21326
1311.0 0.000763 1227.21851 1317.97974
1231.0 0.000812 1227.05066 1322.02283
1298.0 0.000770 1226.88269 1326.36719
1296.0 0.000772 1226.71460 1331.04492
1299.0 0.000770 1226.54663 1336.08850
1254.0 0.000797 1226.37903 1341.53430
1324.0 0.000755 1226.21130 1347.42847
1338.0 0.000747 1226.04395 1353.81677
1318.0 0.000759 1225.87659 1360.75879
1371.0 0.000729 1225.70911 1368.31677
1421.0 0.000704 1225.54187 1376.74097
1389.0 0.000720 1225.37476 1385.76587
1355.0 0.000738 1225.20789 1395.66199
1406.0 0.000711 1225.04077 1407.16992
1514.0 0.000661 1224.87427 1419.18933
1484.0 0.000674 1224.70764 1432.48914
1442.0 0.000693 1224.54089 1447.26575
1500.0 0.000667 1224.37463 1463.73596
1499.0 0.000667 1224.20825 1482.17883
1592.0 0.000628 1224.04199 1502.91602
1622.0 0.000617 1223.87585 1526.33777
1725.0 0.000580 1223.70984 1552.94519
1793.0 0.000558 1223.54407 1583.41541
1839.0 0.000544 1223.37817 1618.34204
1946.0 0.000514 1223.21252 1659.06836
1977.0 0.000506 1223.04700 1706.18408
2042.0 0.000490 1222.88159 1761.60022
2101.0 0.000476 1222.71631 1827.35486
2187.0 0.000457 1222.55090 1906.24695
2227.0 0.000449 1222.38574 2002.00354
2345.0 0.000426 1222.22058 2119.76416
2499.0 0.000400 1222.05554 2266.92114
2616.0 0.000382 1221.89099 2454.11548
2828.0 0.000354 1221.72607 2698.21362
3130.0 0.0003195 1221.56165 3028.62256
3639.0 0.0002748 1221.39685 3504.82007
4331.0 0.0002309 1221.23267 4256.01074
5446.0 0.0001836 1221.06836 5541.12939
7388.0 0.0001354 1220.90430 7789.85400
10834.0 0.0000923 1220.73999 11512.45605
16691.0 0.0000599 1220.57605 16972.82422
24367.0 0.0000410 1220.41248 23466.03906
29780.0 0.0000336 1220.24854 28055.36719
28359.0 0.0000353 1220.08484 26932.20898
21460.0 0.0000466 1219.92151 21296.07813
14368.0 0.0000696 1219.75818 15249.08008
9763.0 0.0001024 1219.59460 10781.88281
7362.0 0.0001358 1219.43152 8197.99316
6498.0 0.0001539 1219.26843 7251.36475
6829.0 0.0001464 1219.10522 7686.22461
8090.0 0.0001236 1218.94238 9357.43945
10832.0 0.0000923 1218.77966 12011.61914
14321.0 0.0000698 1218.61707 14702.98145
16139.0 0.0000620 1218.45435 15410.30273
14876.0 0.0000672 1218.29187 13232.45801
11222.0 0.0000891 1218.12964 9923.44629
7730.0 0.0001294 1217.96716 7054.99561
5369.0 0.0001863 1217.80530 5058.33887
4086.0 0.0002447 1217.64319 3825.99585
3207.0 0.0003118 1217.48120 3106.24316
2694.0 0.000371 1217.31934 2677.00757
2537.0 0.000394 1217.15759 2399.54688
2301.0 0.000435 1216.99622 2203.71094
2142.0 0.000467 1216.83472 2056.46240
2089.0 0.000479 1216.67310 1941.56104
1954.0 0.000512 1216.51196 1849.74768
1871.0 0.000534 1216.35095 1775.00684
1794.0 0.000557 1216.18970 1713.28247
1680.0 0.000595 1216.02881 1661.61560
1722.0 0.000581 1215.86792 1617.89026
1644.0 0.000608 1215.70703 1580.52490
1576.0 0.000635 1215.54639 1548.29248
1480.0 0.000676 1215.38611 1520.28394
1544.0 0.000648 1215.22571 1495.75867
1461.0 0.000684 1215.06519 1474.15271
1481.0 0.000675 1214.90527 1455.01196
1479.0 0.000676 1214.74500 1437.95642
1479.0 0.000676 1214.58508 1422.69385
1461.0 0.000684 1214.42517 1408.96716
1403.0 0.000713 1214.26526 1396.57446
1461.0 0.000684 1214.10583 1385.34729
1427.0 0.000701 1213.94617 1375.13354
1383.0 0.000723 1213.78674 1365.81763
1370.0 0.000730 1213.62744 1357.28870
1349.0 0.000741 1213.46802 1349.46082
1360.0 0.000735 1213.30896 1342.25903
1351.0 0.000740 1213.15002 1335.61267
1294.0 0.000773 1212.99133 1329.46777
1275.0 0.000784 1212.83228 1323.77051
1367.0 0.000732 1212.67371 1318.47876
1429.0 0.000700 1212.51514 1313.55481
1391.0 0.000719 1212.35645 1308.96191
1320.0 0.000758 1212.19824 1304.67273
1321.0 0.000757 1212.04004 1300.65796
1291.0 0.000775 1211.88196 1296.89465
1291.0 0.000775 1211.72388 1293.36267
1274.0 0.000785 1211.56580 1290.04102
1270.0 0.000787 1211.40796 1286.91455
1303.0 0.000767 1211.25037 1283.96619
1339.0 0.000747 1211.09253 1281.18250
1317.0 0.000759 1210.93494 1278.55225
1290.0 0.000775 1210.77771 1276.06238
1305.0 0.000766 1210.62036 1273.70410
1306.0 0.000766 1210.46326 1271.46692
1273.0 0.000786 1210.30627 1269.34253
1285.0 0.000778 1210.14929 1267.32397
1272.0 0.000786 1209.99231 1265.40320
1258.0 0.000795 1209.83569 1263.57471
1261.0 0.000793 1209.67920 1261.83142
1259.0 0.000794 1209.52234 1260.16870
1330.0 0.000752 1209.36609 1258.58154
1286.0 0.000778 1209.20984 1257.06470
1207.0 0.000829 1209.05347 1255.61487
1253.0 0.000798 1208.89758 1254.22729
1239.0 0.000807 1208.74133 1252.89856
1224.0 0.000817 1208.58557 1251.62585
1244.0 0.000804 1208.42981 1250.40527
1337.0 0.000748 1208.27417 1249.23462
1285.0 0.000778 1208.11853 1248.11072
1217.0 0.000822 1207.96301 1247.03137
1217.0 0.000822 1207.80774 1245.99451
1230.0 0.000813 1207.65259 1244.99719
1255.0 0.000797 1207.49756 1244.03882
1273.0 0.000786 1207.34253 1243.11609
1239.0 0.000807 1207.18738 1242.22791
1292.0 0.000774 1207.03259 1241.37280
1281.0 0.000781 1206.87805 1240.54944
1255.0 0.000797 1206.72351 1239.75598
1203.0 0.000831 1206.56885 1238.99133
1257.0 0.000796 1206.41431 1238.25403
1261.0 0.000793 1206.26038 1237.54321
1188.0 0.000842 1206.10608 1236.85767
1201.0 0.000833 1205.95203 1236.19690
1217.0 0.000822 1205.79822 1235.55920
1275.0 0.000784 1205.64417 1234.94397
1268.0 0.000789 1205.49048 1234.35120
1245.0 0.000803 1205.33691 1233.77905
1296.0 0.000772 1205.18323 1233.22754
1293.0 0.000773 1205.03003 1232.69568
1270.0 0.000787 1204.87671 1232.18298
1250.0 0.000800 1204.72375 1231.68896
1211.0 0.000826 1204.57056 1231.21289
1228.0 0.000814 1204.41772 1230.75476
1195.0 0.000837 1204.26465 1230.31360
1234.0 0.000810 1204.11169 1229.88953
1232.0 0.000812 1203.95935 1229.48169
1198.0 0.000835 1203.80676 1229.09021
1227.0 0.000815 1203.65405 1228.71448
1230.0 0.000813 1203.50220 1228.35449
1227.0 0.000815 1203.34973 1228.01013
1209.0 0.000827 1203.19763 1227.68066
1234.0 0.000810 1203.04590 1227.36658
1221.0 0.000819 1202.89380 1227.06738
1217.0 0.000822 1202.74182 1226.78284
1242.0 0.000805 1202.59033 1226.51355
1253.0 0.000798 1202.43872 1226.25879
1233.0 0.000811 1202.28723 1226.01892
1233.0 0.000811 1202.13611 1225.79407
1212.0 0.000825 1201.98462 1225.58386
1176.0 0.000850 1201.83374 1225.38879
1208.0 0.000828 1201.68262 1225.20911
1213.0 0.000824 1201.53174 1225.04443
1184.0 0.000845 1201.38098 1224.89539
1166.0 0.000858 1201.23022 1224.76233
1192.0 0.000839 1201.07959 1224.64514
1267.0 0.000789 1200.92920 1224.54443
1271.0 0.000787 1200.77881 1224.46069
1213.0 0.000824 1200.62866 1224.39417
1222.0 0.000818 1200.47839 1224.34521
1238.0 0.000808 1200.32813 1224.31470
1229.0 0.000814 1200.17847 1224.30286
1249.0 0.000801 1200.02869 1224.31067
1179.0 0.000848 1199.87891 1224.33875
1207.0 0.000829 1199.72937 1224.38770
1238.0 0.000808 1199.57971 1224.45862
1228.0 0.000814 1199.43042 1224.55225
1214.0 0.000824 1199.28113 1224.66992
1250.0 0.000800 1199.13184 1224.81226
1235.0 0.000810 1198.98279 1224.98108
1235.0 0.000810 1198.83374 1225.17761
1236.0 0.000809 1198.68506 1225.40320
1231.0 0.000812 1198.53613 1225.65967
1188.0 0.000842 1198.38757 1225.94849
1210.0 0.000826 1198.23926 1226.27209
1254.0 0.000797 1198.09070 1226.63220
1216.0 0.000822 1197.94214 1227.03125
1234.0 0.000810 1197.79431 1227.47241
1221.0 0.000819 1197.64624 1227.95764
1204.0 0.000831 1197.49829 1228.49109
1251.0 0.000799 1197.35010 1229.07556
1228.0 0.000814 1197.20239 1229.71484
1251.0 0.000799 1197.05469 1230.41394
1258.0 0.000795 1196.90735 1231.17700
1246.0 0.000803 1196.75989 1232.00940
1233.0 0.000811 1196.61255 1232.91736
1224.0 0.000817 1196.46497 1233.90674
1189.0 0.000841 1196.31824 1234.98572
1197.0 0.000835 1196.17102 1236.16174
1233.0 0.000811 1196.02417 1237.44495
1236.0 0.000809 1195.87720 1238.84509
1259.0 0.000794 1195.73059 1240.37354
1245.0 0.000803 1195.58398 1242.04492
1265.0 0.000791 1195.43774 1243.87341
1284.0 0.000779 1195.29138 1245.87720
1273.0 0.000786 1195.14478 1248.07581
1259.0 0.000794 1194.99878 1250.49146
1259.0 0.000794 1194.85254 1253.15161
1280.0 0.000781 1194.70703 1256.08569
1272.0 0.000786 1194.56104 1259.33118
1261.0 0.000793 1194.41541 1262.92896
1242.0 0.000805 1194.26978 1266.92712
1271.0 0.000787 1194.12439 1271.38562
1309.0 0.000764 1193.97876 1276.37170
1301.0 0.000769 1193.83362 1281.97192
1269.0 0.000788 1193.68835 1288.28430
1302.0 0.000768 1193.54333 1295.42944
1354.0 0.000739 1193.39819 1303.56030
1373.0 0.000728 1193.25354 1312.85840
1383.0 0.000723 1193.10901 1323.55945
1423.0 0.000703 1192.96411 1335.95325
1458.0 0.000686 1192.81970 1350.40881
1466.0 0.000682 1192.67505 1367.41626
1478.0 0.000677 1192.53101 1387.59900
1523.0 0.000657 1192.38672 1411.81299
1591.0 0.000629 1192.24255 1441.19763
1599.0 0.000625 1192.09863 1477.32898
1547.0 0.000646 1191.95483 1522.49463
1688.0 0.000592 1191.81091 1580.06873
1774.0 0.000564 1191.66736 1655.63879
1786.0 0.000560 1191.52380 1759.26685
1929.0 0.000518 1191.38037 1910.51978
2153.0 0.000464 1191.23694 2147.49927
2555.0 0.000391 1191.09375 2538.70923
3246.0 0.0003081 1190.95068 3194.37866
4399.0 0.0002273 1190.80762 4254.97168
5967.0 0.0001676 1190.66479 5801.83740
7608.0 0.0001314 1190.52209 7673.86328
9087.0 0.0001100 1190.37939 9451.71484
10183.0 0.0000982 1190.23694 10367.48926
9358.0 0.0001069 1190.09424 9470.94531
7011.0 0.0001426 1189.95203 7374.50635
4975.0 0.0002010 1189.80957 5378.84619
3709.0 0.0002696 1189.66785 4013.19189
3153.0 0.0003172 1189.52563 3293.43604
2960.0 0.0003378 1189.38367 3090.62939
3107.0 0.0003219 1189.24194 3297.82300
3675.0 0.0002721 1189.10010 3854.27832
4323.0 0.0002313 1188.95874 4648.06934
5035.0 0.0001986 1188.81714 5465.26025
5542.0 0.0001804 1188.67566 5957.73486
5637.0 0.0001774 1188.53442 5608.06592
4883.0 0.0002048 1188.39331 4558.05322
3781.0 0.0002645 1188.25232 3468.90405
2817.0 0.000355 1188.11121 2659.80859
2375.0 0.000421 1187.97046 2151.29175
2022.0 0.000495 1187.82971 1859.52698
1770.0 0.000565 1187.68896 1693.21204
1658.0 0.000603 1187.54834 1591.11584
1536.0 0.000651 1187.40820 1521.56750
1577.0 0.000634 1187.26782 1470.33777
1563.0 0.000640 1187.12756 1430.83789
1506.0 0.000664 1186.98743 1399.50854
1454.0 0.000688 1186.84766 1374.17212
1456.0 0.000687 1186.70752 1353.33276
1384.0 0.000723 1186.56787 1335.95520
1342.0 0.000745 1186.42859 1321.29041
1305.0 0.000766 1186.28882 1308.77393
1315.0 0.000760 1186.14929 1297.99536
1281.0 0.000781 1186.01001 1286.20544
1245.0 0.000803 1185.87085 1278.02856
1249.0 0.000801 1185.73157 1270.82642
1284.0 0.000779 1185.59253 1264.43945
1303.0 0.000767 1185.45386 1258.74719
1276.0 0.000784 1185.31506 1253.64441
1251.0 0.000799 1185.17627 1249.05005
1261.0 0.000793 1185.03784 1244.89612
1268.0 0.000789 1184.89917 1241.12366
1238.0 0.000808 1184.76099 1237.68591
1223.0 0.000818 1184.62256 1233.32666
1270.0 0.000787 1184.48450 1230.45093
1265.0 0.000791 1184.34631 1227.80566
1261.0 0.000793 1184.20862 1225.36328
1259.0 0.000794 1184.07080 1223.10376
1256.0 0.000796 1183.93298 1221.00623
1267.0 0.000789 1183.79541 1219.05554
1225.0 0.000816 1183.65808 1217.23755
1243.0 0.000805 1183.52063 1215.53821
1256.0 0.000796 1183.38330 1213.94763
1248.0 0.000801 1183.24634 1212.45483
1244.0 0.000804 1183.10913 1211.05188
1267.0 0.000789 1182.97217 1209.73071
1200.0 0.000833 1182.83533 1208.48389
1193.0 0.000838 1182.69861 1207.30640
1263.0 0.000792 1182.56189 1206.19116
1264.0 0.000791 1182.42529 1205.13403
1206.0 0.000829 1182.28894 1204.13062
1191.0 0.000840 1182.15259 1203.17627
1146.0 0.000873 1182.01648 1202.26794
1255.0 0.000797 1181.88049 1201.40161
1245.0 0.000803 1181.74451 1200.57471
1188.0 0.000842 1181.60852 1199.78430
1170.0 0.000855 1181.47278 1199.02759
1155.0 0.000866 1181.33704 1198.30286
1204.0 0.000831 1181.20178 1197.60742
1208.0 0.000828 1181.06604 1196.93945
1170.0 0.000855 1180.93091 1196.29773
1203.0 0.000831 1180.79553 1195.67957
1225.0 0.000816 1180.66052 1195.08447
1228.0 0.000814 1180.52539 1194.51050
1160.0 0.000862 1180.39063 1193.95667
1175.0 0.000851 1180.25574 1193.42151
1222.0 0.000818 1180.12122 1192.90405
1178.0 0.000849 1179.98669 1192.40332
1159.0 0.000863 1179.85205 1191.91809
1184.0 0.000845 1179.71765 1191.44763
1187.0 0.000842 1179.58337 1190.99170
1132.0 0.000883 1179.44922 1190.54858
1154.0 0.000867 1179.31531 1190.11816
1159.0 0.000863 1179.18127 1189.69958
1164.0 0.000859 1179.04749 1189.29224
1174.0 0.000852 1178.91370 1188.89563
1167.0 0.000857 1178.78003 1188.50928
1201.0 0.000833 1178.64636 1188.13232
1181.0 0.000847 1178.51318 1187.76465
1181.0 0.000847 1178.37988 1187.40576
1162.0 0.000861 1178.24646 1187.05518
1141.0 0.000876 1178.11365 1186.71240
1150.0 0.000870 1177.98083 1186.37720
1159.0 0.000863 1177.84778 1186.04907
1161.0 0.000861 1177.71521 1185.72803
1174.0 0.000852 1177.58240 1185.41345
1154.0 0.000867 1177.44983 1185.10498
1157.0 0.000864 1177.31763 1184.80273
1167.0 0.000857 1177.18518 1184.50586
1164.0 0.000859 1177.05286 1184.21484
1178.0 0.000849 1176.92090 1183.92908
1150.0 0.000870 1176.78882 1183.64795
1151.0 0.000869 1176.65698 1183.37207
1205.0 0.000830 1176.52515 1183.10034
1161.0 0.000861 1176.39355 1182.83350
1163.0 0.000860 1176.26208 1182.57068
1156.0 0.000865 1176.13025 1182.31189
1183.0 0.000845 1175.99902 1182.05725
1205.0 0.000830 1175.86780 1181.80627
1185.0 0.000844 1175.73657 1181.55884
1137.0 0.000880 1175.60547 1181.31519
1167.0 0.000857 1175.47449 1181.07446
1147.0 0.000872 1175.34375 1180.83716
1156.0 0.000865 1175.21326 1180.60315
1191.0 0.000840 1175.08240 1180.37183
1196.0 0.000836 1174.95190 1180.14380
1177.0 0.000850 1174.82178 1179.91821
1167.0 0.000857 1174.69128 1179.69556
1196.0 0.000836 1174.56116 1179.47534
1158.0 0.000864 1174.43115 1179.25769
1196.0 0.000836 1174.30115 1179.04260
1204.0 0.000831 1174.17126 1178.82983
1187.0 0.000842 1174.04138 1178.61926
1188.0 0.000842 1173.91174 1178.41089
1192.0 0.000839 1173.78223 1178.20459
1193.0 0.000838 1173.65283 1178.00037
1107.0 0.000903 1173.52356 1177.79822
1171.0 0.000854 1173.39429 1177.59802
1163.0 0.000860 1173.26526 1177.39954
1147.0 0.000872 1173.13623 1177.20288
1166.0 0.000858 1173.00720 1177.00818
1202.0 0.000832 1172.87842 1176.81494
1163.0 0.000860 1172.75000 1176.62354
1179.0 0.000848 1172.62134 1176.43347
1197.0 0.000835 1172.49268 1176.24512
1188.0 0.000842 1172.36450 1176.05835
1205.0 0.000830 1172.23621 1175.87292
1188.0 0.000842 1172.10815 1175.68909
1177.0 0.000850 1171.97998 1175.50659
1202.0 0.000832 1171.85193 1175.32520
1177.0 0.000850 1171.72424 1175.14526
1160.0 0.000862 1171.59656 1174.96667
1159.0 0.000863 1171.46899 1174.78931
1187.0 0.000842 1171.34143 1174.61316
1174.0 0.000852 1171.21399 1174.43799
1178.0 0.000849 1171.08655 1174.26416
1156.0 0.000865 1170.95959 1174.09131
1158.0 0.000864 1170.83228 1173.91968
1184.0 0.000845 1170.70508 1173.74902
1195.0 0.000837 1170.57837 1173.57922
1179.0 0.000848 1170.45154 1173.41064
1175.0 0.000851 1170.32507 1173.24304
1189.0 0.000841 1170.19849 1173.07642
1176.0 0.000850 1170.07202 1172.91052
1171.0 0.000854 1169.94556 1172.74585
1171.0 0.000854 1169.81958 1172.58179
1178.0 0.000849 1169.69324 1172.41870
1135.0 0.000881 1169.56702 1172.25647
1124.0 0.000890 1169.44128 1172.09509
1171.0 0.000854 1169.31543 1171.93433
1186.0 0.000843 1169.18970 1171.77454
1172.0 0.000853 1169.06409 1171.61536
1198.0 0.000835 1168.93860 1171.45703
1190.0 0.000840 1168.81323 1171.29956
1157.0 0.000864 1168.68811 1171.14246
1150.0 0.000870 1168.56274 1170.98645
1240.0 0.000806 1168.43774 1170.83105
1156.0 0.000865 1168.31274 1170.67615
1119.0 0.000894 1168.18774 1170.52197
1203.0 0.000831 1168.06299 1170.36841
1167.0 0.000857 1167.93848 1170.21558
1177.0 0.000850 1167.81396 1170.06335
1182.0 0.000846 1167.68945 1169.91174
1194.0 0.000838 1167.56494 1169.76062
1216.0 0.000822 1167.44080 1169.61023
1190.0 0.000840 1167.31665 1169.46033
1192.0 0.000839 1167.19263 1169.31104
1201.0 0.000833 1167.06873 1169.16235
1206.0 0.000829 1166.94495 1169.01416
1144.0 0.000874 1166.82129 1168.86633
1193.0 0.000838 1166.69751 1168.71912
1173.0 0.000853 1166.57410 1168.57239
1199.0 0.000834 1166.45068 1168.42639
1215.0 0.000823 1166.32739 1168.28064
1207.0 0.000829 1166.20435 1168.13538
1168.0 0.000856 1166.08105 1167.99072
1148.0 0.000871 1165.95813 1167.84644
1151.0 0.000869 1165.83533 1167.70251
1202.0 0.000832 1165.71252 1167.55933
1197.0 0.000835 1165.58972 1167.41638
1169.0 0.000855 1165.46753 1167.27405
1197.0 0.000835 1165.34497 1167.13184
1204.0 0.000831 1165.22266 1166.99023
1182.0 0.000846 1165.10022 1166.84900
1163.0 0.000860 1164.97815 1166.70813
1169.0 0.000855 1164.85608 1166.56799
1184.0 0.000845 1164.73413 1166.42786
1194.0 0.000838 1164.61230 1166.28821
1197.0 0.000835 1164.49072 1166.14917
1156.0 0.000865 1164.36914 1166.01013
1147.0 0.000872 1164.24756 1165.87183
1161.0 0.000861 1164.12610 1165.73376
1187.0 0.000842 1164.00488 1165.59583
1189.0 0.000841 1163.88367 1165.45850
1204.0 0.000831 1163.76233 1165.32141
1179.0 0.000848 1163.64148 1165.18469
1175.0 0.000851 1163.52063 1165.04858
1210.0 0.000826 1163.39978 1164.91235
1209.0 0.000827 1163.27917 1164.77673
1200.0 0.000833 1163.15857 1164.64148
1185.0 0.000844 1163.03821 1164.50623
1202.0 0.000832 1162.91785 1164.37146
1179.0 0.000848 1162.79773 1164.23706
1168.0 0.000856 1162.67737 1164.10291
1177.0 0.000850 1162.55737 1163.96936
1206.0 0.000829 1162.43738 1163.83594
1188.0 0.000842 1162.31763 1163.70251
1150.0 0.000870 1162.19788 1163.56970
1187.0 0.000842 1162.07837 1163.43713
1173.0 0.000853 1161.95874 1163.30457
1139.0 0.000878 1161.83923 1163.17261
1144.0 0.000874 1161.71997 1163.04089
1160.0 0.000862 1161.60071 1162.90942
1156.0 0.000865 1161.48181 1162.77820
1175.0 0.000851 1161.36255 1162.64746
1141.0 0.000876 1161.24365 1162.51660
1150.0 0.000870 1161.12488 1162.38623
1207.0 0.000829 1161.00623 1162.07788
1195.0 0.000837 1160.88745 1161.94934
1174.0 0.000852 1160.76917 1161.20483
1234.0 0.000810 1160.65076 1161.08240
1223.0 0.000818 1160.53210 1160.96008
1204.0 0.000831 1160.41418 1160.83801
1146.0 0.000873 1160.29614 1160.71606
1108.0 0.000903 1160.17810 1160.59424
1233.0 0.000811 1160.06018 1160.47253
1159.0 0.000863 1159.94250 1160.35120
1133.0 0.000883 1159.82471 1160.22974
1098.0 0.000911 1159.70715 1160.01965
1075.0 0.000930 1159.58960 1159.89929
1115.0 0.000897 1159.47229 1159.47107
1139.0 0.000878 1159.35498 1159.35388
1154.0 0.000867 1159.23804 1159.23669
1150.0 0.000870 1159.12097 1159.11963
1116.0 0.000896 1159.00403 1159.00269
1129.0 0.000886 1158.88696 1158.88586
1124.0 0.000890 1158.77051 1158.76917
1191.0 0.000840 1158.65381 1158.65247
1178.0 0.000849 1158.53723 1158.53589
1205.0 0.000830 1158.42078 1158.41943
1195.0 0.000837 1158.30444 1158.61816
1152.0 0.000868 1158.18811 1158.50549
1202.0 0.000832 1158.07202 1158.39307
1223.0 0.000818 1157.95581 1158.28064
1192.0 0.000839 1157.84021 1158.16846
1158.0 0.000864 1157.72424 1158.05664
1185.0 0.000844 1157.60852 1157.94482
1166.0 0.000858 1157.49280 1157.83313
1165.0 0.000858 1157.37744 1157.72156
1159.0 0.000863 1157.26196 1157.61035
1129.0 0.000886 1157.14661 1157.49915
1097.0 0.000912 1157.03137 1157.38818
1142.0 0.000876 1156.91650 1157.27747
1162.0 0.000861 1156.80127 1157.32446
1142.0 0.000876 1156.68640 1157.21582
1136.0 0.000880 1156.57141 1157.10754
1124.0 0.000890 1156.45679 1156.99927
1139.0 0.000878 1156.34216 1156.89148
1154.0 0.000867 1156.22766 1156.78357
1167.0 0.000857 1156.11340 1156.67603
1193.0 0.000838 1155.99902 1156.56897
1196.0 0.000836 1155.88477 1156.46179
1215.0 0.000823 1155.77051 1156.35498
1200.0 0.000833 1155.65674 1156.24854
1168.0 0.000856 1155.54297 1156.14209
1144.0 0.000874 1155.42908 1156.03613
1166.0 0.000858 1155.31531 1155.93030
1130.0 0.000885 1155.20166 1155.82458
1094.0 0.000914 1155.08813 1155.71936
1137.0 0.000880 1154.97473 1155.61438
1139.0 0.000878 1154.86182 1155.50964
1138.0 0.000879 1154.74829 1155.40503
1147.0 0.000872 1154.63525 1155.30090
1180.0 0.000847 1154.52234 1155.19690
1161.0 0.000861 1154.40930 1155.09326
1140.0 0.000877 1154.29639 1154.98999
1107.0 0.000903 1154.18372 1154.88696
1184.0 0.000845 1154.07129 1154.78418
1148.0 0.000871 1153.95886 1154.68164
1129.0 0.000886 1153.84644 1154.57959
1134.0 0.000882 1153.73425 1154.47778
1176.0 0.000850 1153.62170 1154.37622
1148.0 0.000871 1153.50977 1154.27515
1189.0 0.000841 1153.39807 1154.17419
1221.0 0.000819 1153.28613 1154.07373
1168.0 0.000856 1153.17407 1153.97375
1154.0 0.000867 1153.06262 1153.87390
1123.0 0.000890 1152.95081 1153.77454
1138.0 0.000879 1152.83936 1153.67542
1140.0 0.000877 1152.72815 1153.57690
1196.0 0.000836 1152.61670 1153.47864
1214.0 0.000824 1152.50549 1153.38086
1253.0 0.000798 1152.39453 1153.28333
1186.0 0.000843 1152.28345 1153.18640
1133.0 0.000883 1152.17261 1153.08972
1096.0 0.000912 1152.06177 1152.99377
1123.0 0.000890 1151.95105 1152.89807
1151.0 0.000869 1151.84058 1152.80286
1135.0 0.000881 1151.73010 1152.70813
1142.0 0.000876 1151.61963 1152.61377
1152.0 0.000868 1151.50928 1152.52014
1126.0 0.000888 1151.39917 1152.42688
1165.0 0.000858 1151.28906 1152.33423
1168.0 0.000856 1151.17896 1152.24207
1164.0 0.000859 1151.06909 1152.15051
1161.0 0.000861 1150.95947 1152.05957
1144.0 0.000874 1150.84949 1151.96924
1148.0 0.000871 1150.74023 1151.87939
1150.0 0.000870 1150.63049 1151.79028
1155.0 0.000866 1150.52112 1151.70166
1164.0 0.000859 1150.41187 1151.61377
1197.0 0.000835 1150.30261 1151.52673
1213.0 0.000824 1150.19360 1151.44031
1174.0 0.000852 1150.08447 1151.35461
1142.0 0.000876 1149.97546 1151.26953
1145.0 0.000873 1149.86682 1151.18542
1133.0 0.000883 1149.75806 1151.10205
1136.0 0.000880 1149.64954 1151.01953
1171.0 0.000854 1149.54077 1150.93787
1181.0 0.000847 1149.43250 1150.85718
1174.0 0.000852 1149.32410 1150.77722
1149.0 0.000870 1149.21594 1150.69849
1166.0 0.000858 1149.10791 1150.62061
1125.0 0.000889 1148.99976 1150.54382
1163.0 0.000860 1148.89160 1150.46802
1170.0 0.000855 1148.78381 1150.39331
1152.0 0.000868 1148.67627 1150.31995
1159.0 0.000863 1148.56860 1150.24768
1174.0 0.000852 1148.46106 1150.17676
1164.0 0.000859 1148.35364 1150.10693
1145.0 0.000873 1148.24634 1150.03857
1130.0 0.000885 1148.13904 1149.97180
1134.0 0.000882 1148.03174 1149.90637
1158.0 0.000864 1147.92493 1149.84229
1160.0 0.000862 1147.81787 1149.78003
1150.0 0.000870 1147.71082 1149.71948
1140.0 0.000877 1147.60413 1149.66064
1160.0 0.000862 1147.49756 1149.60364
1167.0 0.000857 1147.39075 1149.54846
1124.0 0.000890 1147.28442 1149.49548
1124.0 0.000890 1147.17810 1149.44446
1136.0 0.000880 1147.07166 1149.39563
1122.0 0.000891 1146.96545 1149.34937
1257.0 0.000796 1146.85950 1149.30518
1195.0 0.000837 1146.75342 1149.26379
1207.0 0.000829 1146.64746 1149.22522
1143.0 0.000875 1146.54163 1149.18921
1139.0 0.000878 1146.43591 1149.15625
1101.0 0.000908 1146.33032 1149.12659
1109.0 0.000902 1146.22485 1149.10010
1134.0 0.000882 1146.11951 1149.07727
1116.0 0.000896 1146.01404 1149.05811
1107.0 0.000903 1145.90881 1149.04272
1137.0 0.000880 1145.80371 1149.03174
1140.0 0.000877 1145.69836 1149.02515
1189.0 0.000841 1145.59363 1149.02319
1138.0 0.000879 1145.48889 1149.02600
1097.0 0.000912 1145.38403 1149.03442
1094.0 0.000914 1145.27954 1149.04834
1159.0 0.000863 1145.17480 1149.06836
1167.0 0.000857 1145.07031 1149.09448
1165.0 0.000858 1144.96619 1149.12769
1154.0 0.000867 1144.86182 1149.16833
1123.0 0.000890 1144.75757 1149.21667
1128.0 0.000887 1144.65344 1149.27344
1129.0 0.000886 1144.54932 1149.33911
1075.0 0.000930 1144.44568 1149.41467
1065.0 0.000939 1144.34180 1149.50037
1088.0 0.000919 1144.23792 1149.59753
1148.0 0.000871 1144.13428 1149.70691
1115.0 0.000897 1144.03088 1149.82922
1137.0 0.000880 1143.92725 1149.96594
1173.0 0.000853 1143.82397 1150.11816
1153.0 0.000867 1143.72070 1150.28699
1169.0 0.000855 1143.61780 1150.47424
1156.0 0.000865 1143.51440 1150.68140
1118.0 0.000894 1143.41162 1150.91052
1131.0 0.000884 1143.30884 1151.16333
1163.0 0.000860 1143.20593 1151.44287
1154.0 0.000867 1143.10327 1151.75122
1163.0 0.000860 1143.00037 1152.09143
1153.0 0.000867 1142.89832 1152.46729
1164.0 0.000859 1142.79578 1152.88220
1182.0 0.000846 1142.69360 1153.34106
1167.0 0.000857 1142.59106 1153.84900
1132.0 0.000883 1142.48926 1154.41125
1115.0 0.000897 1142.38696 1155.03540
1172.0 0.000853 1142.28528 1155.72888
1145.0 0.000873 1142.18323 1156.50134
1174.0 0.000852 1142.08142 1157.36316
1189.0 0.000841 1141.97998 1158.32715
1195.0 0.000837 1141.87842 1159.40906
1140.0 0.000877 1141.77686 1160.62622
1133.0 0.000883 1141.67542 1162.00110
1184.0 0.000845 1141.57410 1163.55994
1163.0 0.000860 1141.47302 1165.33447
1124.0 0.000890 1141.37195 1167.36499
1148.0 0.000871 1141.27087 1169.69983
1203.0 0.000831 1141.17004 1172.40198
1246.0 0.000803 1141.06897 1175.54932
1211.0 0.000826 1140.96851 1179.24121
1155.0 0.000866 1140.86768 1183.61072
1170.0 0.000855 1140.76709 1188.82813
1288.0 0.000776 1140.66663 1195.12781
1178.0 0.000849 1140.56628 1202.82495
1215.0 0.000823 1140.46619 1212.35803
1188.0 0.000842 1140.36584 1224.36133
1259.0 0.000794 1140.26575 1239.74963
1229.0 0.000814 1140.16565 1259.94031
1227.0 0.000815 1140.06567 1287.28052
1294.0 0.000773 1139.96594 1326.46167
1389.0 0.000720 1139.86633 1389.05286
1550.0 0.000645 1139.76672 1504.40283
1836.0 0.000545 1139.66711 1735.23206
2282.0 0.000438 1139.56763 2174.96436
3048.0 0.0003281 1139.46826 2889.28613
3828.0 0.0002612 1139.36902 3782.04907
4108.0 0.0002434 1139.26965 4386.35742
3611.0 0.0002769 1139.17078 4117.59326
2908.0 0.0003439 1139.07178 3271.17383
2248.0 0.000445 1138.97253 2465.28442
1842.0 0.000543 1138.87366 1926.47681
1593.0 0.000628 1138.77515 1636.85339
1505.0 0.000664 1138.67651 1505.98169
1487.0 0.000672 1138.57800 1463.22827
1476.0 0.000678 1138.47949 1485.24622
1526.0 0.000655 1138.38110 1590.85498
1752.0 0.000571 1138.28284 1820.26282
2092.0 0.000478 1138.18457 2190.40332
2388.0 0.000419 1138.08643 2614.05566
2573.0 0.000389 1137.98853 2807.67334
2481.0 0.000403 1137.89075 2557.16797
2136.0 0.000468 1137.79272 2110.06421
1767.0 0.000566 1137.69507 1729.98035
1576.0 0.000635 1137.59741 1487.05591
1392.0 0.000718 1137.49988 1355.87817
1288.0 0.000776 1137.40210 1289.25623
1236.0 0.000809 1137.30493 1253.00513
1233.0 0.000811 1137.20776 1230.24304
1209.0 0.000827 1137.11023 1214.22046
1193.0 0.000838 1137.01318 1202.22156
1237.0 0.000808 1136.91589 1192.91797
1201.0 0.000833 1136.81921 1185.53369
1176.0 0.000850 1136.72217 1179.55481
1168.0 0.000856 1136.62537 1174.63367
1140.0 0.000877 1136.52893 1170.52563
1174.0 0.000852 1136.43225 1167.05054
1166.0 0.000858 1136.33582 1164.07983
1168.0 0.000856 1136.23914 1161.51331
1169.0 0.000855 1136.14294 1159.27698
1119.0 0.000894 1136.04675 1157.31348
1114.0 0.000898 1135.95044 1155.57605
1157.0 0.000864 1135.85437 1154.02917
1137.0 0.000880 1135.75830 1152.64319
1155.0 0.000866 1135.66248 1151.39453
1140.0 0.000877 1135.56665 1150.26440
1137.0 0.000880 1135.47095 1149.23608
1171.0 0.000854 1135.37524 1148.29700
1144.0 0.000874 1135.27979 1147.43481
1151.0 0.000869 1135.18433 1146.64111
1157.0 0.000864 1135.08887 1145.90771
1144.0 0.000874 1134.99353 1145.22742
1154.0 0.000867 1134.89844 1145.18262
1138.0 0.000879 1134.80322 1144.59631
1151.0 0.000869 1134.70813 1144.04810
1118.0 0.000894 1134.61316 1143.53394
1076.0 0.000929 1134.51819 1143.05054
1123.0 0.000890 1134.42358 1142.59509
1159.0 0.000863 1134.32898 1142.16467
1169.0 0.000855 1134.23425 1141.75732
1136.0 0.000880 1134.13977 1141.37109
1146.0 0.000873 1134.04529 1141.00378
1124.0 0.000890 1133.95093 1140.65417
1127.0 0.000887 1133.85681 1140.32056
1125.0 0.000889 1133.76233 1140.00146
1129.0 0.000886 1133.66833 1139.69653
1134.0 0.000882 1133.57458 1139.40369
1158.0 0.000864 1133.48022 1139.41833
1184.0 0.000845 1133.38672 1139.15015
1194.0 0.000838 1133.29285 1138.89197
1185.0 0.000844 1133.19922 1138.64319
1159.0 0.000863 1133.10571 1138.40295
1157.0 0.000864 1133.01208 1138.17065
1115.0 0.000897 1132.91858 1137.94617
1108.0 0.000903 1132.82532 1137.72852
1107.0 0.000903 1132.73218 1137.51770
1115.0 0.000897 1132.63904 1137.31299
1150.0 0.000870 1132.54602 1137.11401
1135.0 0.000881 1132.45300 1136.92053
1124.0 0.000890 1132.35999 1136.73193
1154.0 0.000867 1132.26697 1136.54834
1136.0 0.000880 1132.17444 1136.36926
1134.0 0.000882 1132.08167 1136.19470
1112.0 0.000899 1131.98914 1136.02405
1077.0 0.000929 1131.89661 1135.85706
1141.0 0.000876 1131.80432 1135.69409
1220.0 0.000820 1131.71179 1135.53430
1140.0 0.000877 1131.61951 1135.37781
1096.0 0.000912 1131.52747 1135.22461
1144.0 0.000874 1131.43555 1135.07422
1169.0 0.000855 1131.34351 1134.92664
1131.0 0.000884 1131.25146 1134.78174
1130.0 0.000885 1131.15942 1134.63928
1104.0 0.000906 1131.06787 1134.49963
1141.0 0.000876 1130.97632 1134.36206
1103.0 0.000907 1130.88489 1134.22668
1127.0 0.000887 1130.79309 1134.09338
1155.0 0.000866 1130.70178 1133.96252
1124.0 0.000890 1130.61035 1133.83313
1141.0 0.000876 1130.51917 1133.70569
1107.0 0.000903 1130.42798 1133.58032
1113.0 0.000898 1130.33691 1133.45654
1073.0 0.000932 1130.24585 1133.33423
1009.0 0.000991 1130.15479 1133.21375
1118.0 0.000894 1130.06396 1133.09485
1200.0 0.000833 1129.97339 1132.97742
1192.0 0.000839 1129.88257 1132.86133
1171.0 0.000854 1129.79187 1132.74670
1117.0 0.000895 1129.70154 1132.63330
1105.0 0.000905 1129.61096 1132.52148
1113.0 0.000898 1129.52075 1132.41064
1071.0 0.000934 1129.43030 1132.30103
1130.0 0.000885 1129.34009 1132.19275
1126.0 0.000888 1129.24988 1132.08545
1171.0 0.000854 1129.16003 1131.97937
1168.0 0.000856 1129.07007 1131.87439
1145.0 0.000873 1128.98010 1131.77039
1147.0 0.000872 1128.89026 1131.66760
1131.0 0.000884 1128.80066 1131.56567
1101.0 0.000908 1128.71082 1131.46460
1119.0 0.000894 1128.62122 1131.36450
1132.0 0.000883 1128.53198 1131.26563
1106.0 0.000904 1128.44250 1131.16748
1099.0 0.000910 1128.35315 1131.07019
1140.0 0.000877 1128.26379 1130.97375
1179.0 0.000848 1128.17480 1130.87817
1141.0 0.000876 1128.08569 1130.78357
1109.0 0.000902 1127.99670 1130.68958
1143.0 0.000875 1127.90759 1130.59656
1150.0 0.000870 1127.81873 1130.50427
1138.0 0.000879 1127.73022 1130.41272
1110.0 0.000901 1127.64136 1130.32190
1162.0 0.000861 1127.55286 1130.23206
1177.0 0.000850 1127.46423 1130.14282
1145.0 0.000873 1127.37598 1130.05420
1161.0 0.000861 1127.28723 1129.96643
1182.0 0.000846 1127.19897 1129.87952
1181.0 0.000847 1127.11096 1129.79309
1176.0 0.000850 1127.02271 1129.70728
1170.0 0.000855 1126.93481 1129.62244
1132.0 0.000883 1126.84680 1129.53845
1112.0 0.000899 1126.75879 1129.45459
1107.0 0.000903 1126.67114 1129.37183
1142.0 0.000876 1126.58301 1129.28979
1158.0 0.000864 1126.49536 1129.20825
1175.0 0.000851 1126.40771 1129.12744
1133.0 0.000883 1126.32031 1129.04712
1138.0 0.000879 1126.23303 1128.96777
1093.0 0.000915 1126.14539 1128.88892
1140.0 0.000877 1126.05823 1128.81067
1157.0 0.000864 1125.97095 1128.73328
1149.0 0.000870 1125.88379 1128.65637
1204.0 0.000831 1125.79663 1128.58020
1153.0 0.000867 1125.70984 1128.50464
1140.0 0.000877 1125.62305 1128.42993
1177.0 0.000850 1125.53601 1128.35583
1155.0 0.000866 1125.44922 1128.28223
1122.0 0.000891 1125.36255 1128.20947
1144.0 0.000874 1125.27600 1128.13745
1092.0 0.000916 1125.18945 1128.06592
1124.0 0.000890 1125.10303 1127.99512
1160.0 0.000862 1125.01660 1127.92505
1111.0 0.000900 1124.93030 1127.85559
1157.0 0.000864 1124.84399 1127.78711
1102.0 0.000907 1124.75793 1127.71899
1134.0 0.000882 1124.67188 1127.65173
1175.0 0.000851 1124.58594 1127.58521
1134.0 0.000882 1124.50000 1127.51941
1172.0 0.000853 1124.41394 1127.45422
1100.0 0.000909 1124.32837 1127.39001
1109.0 0.000902 1124.24255 1127.32629
1144.0 0.000874 1124.15674 1127.26331
1202.0 0.000832 1124.07117 1127.20142
1146.0 0.000873 1123.98572 1127.14014
1136.0 0.000880 1123.90027 1127.07959
1095.0 0.000913 1123.81482 1127.01990
1085.0 0.000922 1123.72949 1126.96082
1077.0 0.000929 1123.64465 1126.90295
1103.0 0.000907 1123.55933 1126.84558
1112.0 0.000899 1123.47449 1126.78918
1161.0 0.000861 1123.38916 1126.73364
1174.0 0.000852 1123.30444 1126.67908
1162.0 0.000861 1123.21948 1126.62512
1135.0 0.000881 1123.13489 1126.57239
1144.0 0.000874 1123.05029 1126.20398
1111.0 0.000900 1122.96558 1126.15662
1123.0 0.000890 1122.88098 1126.10986
1129.0 0.000886 1122.79639 1126.06445
1107.0 0.000903 1122.71204 1126.01965
1123.0 0.000890 1122.62769 1125.97595
1129.0 0.000886 1122.54358 1125.93323
1106.0 0.000904 1122.45923 1125.89160
1102.0 0.000907 1122.37524 1125.85095
1089.0 0.000918 1122.29126 1125.81116
1098.0 0.000911 1122.20740 1125.77271
1119.0 0.000894 1122.12341 1125.73523
1153.0 0.000867 1122.03955 1125.69897
1183.0 0.000845 1121.95569 1125.50647
1167.0 0.000857 1121.87207 1125.47437
1134.0 0.000882 1121.78845 1125.44336
1163.0 0.000860 1121.70508 1125.41370
1184.0 0.000845 1121.62134 1125.38538
1150.0 0.000870 1121.53821 1125.35828
1109.0 0.000902 1121.45471 1125.33240
1095.0 0.000913 1121.37146 1125.30811
1145.0 0.000873 1121.28821 1125.28516
1175.0 0.000851 1121.20532 1125.26367
1157.0 0.000864 1121.12244 1125.24353
1135.0 0.000881 1121.03906 1125.22510
1182.0 0.000846 1120.95642 1125.20825
1186.0 0.000843 1120.87354 1125.19312
1161.0 0.000861 1120.79065 1125.17957
1154.0 0.000867 1120.70813 1125.16797
1174.0 0.000852 1120.62524 1125.15796
1208.0 0.000828 1120.54285 1125.15002
1182.0 0.000846 1120.46021 1125.14380
1097.0 0.000912 1120.37793 1125.13965
1167.0 0.000857 1120.29565 1125.13757
1155.0 0.000866 1120.21326 1125.13757
1144.0 0.000874 1120.13110 1125.13977
1161.0 0.000861 1120.04895 1125.14417
1133.0 0.000883 1119.96680 1125.15100
1137.0 0.000880 1119.88477 1125.16028
1190.0 0.000840 1119.80310 1125.17188
1187.0 0.000842 1119.72095 1125.18616
1134.0 0.000882 1119.63904 1125.20337
1135.0 0.000881 1119.55750 1125.22302
1084.0 0.000923 1119.47571 1125.24573
1094.0 0.000914 1119.39429 1125.27136
1112.0 0.000899 1119.31274 1125.30017
1152.0 0.000868 1119.23157 1125.33215
1112.0 0.000899 1119.14990 1125.36731
1124.0 0.000890 1119.06860 1125.40601
1104.0 0.000906 1118.98730 1125.44849
1155.0 0.000866 1118.90601 1125.49438
1102.0 0.000907 1118.82495 1125.54443
1153.0 0.000867 1118.74402 1125.59851
1126.0 0.000888 1118.66284 1125.65649
1121.0 0.000892 1118.58228 1125.71912
1120.0 0.000893 1118.50122 1125.78613
1098.0 0.000911 1118.42041 1125.85791
1129.0 0.000886 1118.33948 1125.93457
1142.0 0.000876 1118.25891 1126.01636
1167.0 0.000857 1118.17834 1126.10364
1160.0 0.000862 1118.09790 1126.19641
1141.0 0.000876 1118.01733 1126.29504
1150.0 0.000870 1117.93689 1126.39966
1135.0 0.000881 1117.85645 1126.51074
1130.0 0.000885 1117.77625 1126.62854
1150.0 0.000870 1117.69617 1126.75330
1137.0 0.000880 1117.61597 1126.88513
1158.0 0.000864 1117.53601 1127.02478
1137.0 0.000880 1117.45581 1127.17249
1089.0 0.000918 1117.37610 1127.32837
1104.0 0.000906 1117.29614 1127.49329
1106.0 0.000904 1117.21643 1127.66736
1133.0 0.000883 1117.13672 1127.85120
1149.0 0.000870 1117.05676 1128.04504
1145.0 0.000873 1116.97717 1128.24963
1168.0 0.000856 1116.89771 1128.46582
1169.0 0.000855 1116.81799 1128.69360
1143.0 0.000875 1116.73877 1128.93408
1145.0 0.000873 1116.65942 1129.18774
1137.0 0.000880 1116.58020 1129.45532
1108.0 0.000903 1116.50085 1129.73779
1145.0 0.000873 1116.42163 1130.03577
1154.0 0.000867 1116.34265 1130.35034
1161.0 0.000861 1116.26355 1130.68237
1136.0 0.000880 1116.18469 1131.03284
1135.0 0.000881 1116.10559 1131.40320
1155.0 0.000866 1116.02673 1131.79419
1198.0 0.000835 1115.94800 1132.20740
1163.0 0.000860 1115.86938 1132.64417
1182.0 0.000846 1115.79065 1133.10632
1159.0 0.000863 1115.71204 1133.59521
1166.0 0.000858 1115.63367 1134.11267
1179.0 0.000848 1115.55518 1134.66077
1128.0 0.000887 1115.47656 1135.24146
1135.0 0.000881 1115.39819 1135.85730
1145.0 0.000873 1115.31995 1136.51062
1094.0 0.000914 1115.24158 1137.20447
1093.0 0.000915 1115.16357 1137.94153
1135.0 0.000881 1115.08533 1138.72522
1093.0 0.000915 1115.00720 1139.55945
1111.0 0.000900 1114.92932 1140.44812
1138.0 0.000879 1114.85144 1141.39526
1150.0 0.000870 1114.77356 1142.40649
1131.0 0.000884 1114.69580 1143.48657
1185.0 0.000844 1114.61816 1144.64209
1193.0 0.000838 1114.54041 1145.87939
1188.0 0.000842 1114.46289 1147.20569
1196.0 0.000836 1114.38525 1148.62988
1179.0 0.000848 1114.30774 1150.16089
1206.0 0.000829 1114.23035 1151.80945
1148.0 0.000871 1114.15295 1153.58765
1172.0 0.000853 1114.07556 1155.50757
1201.0 0.000833 1113.99829 1157.58594
1187.0 0.000842 1113.92102 1159.83887
1141.0 0.000876 1113.84387 1162.28687
1148.0 0.000871 1113.76672 1164.95203
1167.0 0.000857 1113.68982 1167.85938
1186.0 0.000843 1113.61279 1171.04028
1213.0 0.000824 1113.53589 1174.52783
1189.0 0.000841 1113.45911 1178.36426
1211.0 0.000826 1113.38232 1182.59583
1225.0 0.000816 1113.30566 1187.27698
1213.0 0.000824 1113.22888 1192.47607
1181.0 0.000847 1113.15210 1198.26831
1186.0 0.000843 1113.07556 1204.75146
1227.0 0.000815 1112.99915 1212.03711
1244.0 0.000804 1112.92273 1220.26062
1280.0 0.000781 1112.84631 1229.59546
1275.0 0.000784 1112.77002 1240.24548
1223.0 0.000818 1112.69385 1252.47668
1293.0 0.000773 1112.61755 1266.61487
1364.0 0.000733 1112.54163 1283.07373
1323.0 0.000756 1112.46533 1302.40198
1358.0 0.000736 1112.38916 1325.29407
1392.0 0.000718 1112.31335 1352.69910
1392.0 0.000718 1112.23730 1385.87341
1425.0 0.000702 1112.16162 1426.54224
1515.0 0.000660 1112.08582 1477.19507
1567.0 0.000638 1112.00989 1541.49036
1597.0 0.000626 1111.93433 1625.47583
1682.0 0.000595 1111.85852 1739.97278
1797.0 0.000556 1111.78308 1905.67297
2062.0 0.000485 1111.70764 2161.37988
2325.0 0.000430 1111.63208 2571.41089
2856.0 0.0003501 1111.55676 3224.72778
3856.0 0.0002593 1111.48132 4210.85107
5410.0 0.0001848 1111.40625 5560.45361
7243.0 0.0001381 1111.33081 7105.76465
8307.0 0.0001204 1111.25562 8257.35156
7753.0 0.0001290 1111.18054 8205.27637
6084.0 0.0001644 1111.10535 7007.76367
4467.0 0.0002239 1111.03052 5496.19873
3362.0 0.0002974 1110.95557 4219.71045
2605.0 0.000384 1110.88049 3315.21265
2287.0 0.000437 1110.80554 2750.44702
2112.0 0.000473 1110.73083 2442.75854
2011.0 0.000497 1110.65601 2324.62036
2021.0 0.000495 1110.58154 2365.09473
2231.0 0.000448 1110.50684 2571.27319
2516.0 0.000397 1110.43225 2967.99805
3010.0 0.0003322 1110.35754 3564.01880
3789.0 0.0002639 1110.28308 4279.15088
4534.0 0.0002206 1110.20898 4830.01367
4597.0 0.0002175 1110.13452 4808.76172
4156.0 0.0002406 1110.06030 4205.38232
3422.0 0.0002922 1109.98596 3421.48828
2593.0 0.000386 1109.91162 2743.66382
2133.0 0.000469 1109.83752 2248.77979
1851.0 0.000540 1109.76343 1918.45642
1683.0 0.000594 1109.68921 1708.97388
1589.0 0.000629 1109.61523 1575.95715
1503.0 0.000665 1109.54138 1487.95850
1383.0 0.000723 1109.46765 1425.90247
1378.0 0.000726 1109.39355 1379.38440
1348.0 0.000742 1109.31982 1343.15698
1304.0 0.000767 1109.24622 1314.10437
1294.0 0.000773 1109.17249 1290.40173
1266.0 0.000790 1109.09888 1270.78052
1226.0 0.000816 1109.02515 1254.28479
1195.0 0.000837 1108.95166 1240.30310
1186.0 0.000843 1108.87817 1228.30774
1214.0 0.000824 1108.80469 1217.94470
1197.0 0.000835 1108.73157 1208.92505
1201.0 0.000833 1108.65796 1200.99658
1165.0 0.000858 1108.58484 1194.00293
1178.0 0.000849 1108.51135 1187.78369
1211.0 0.000826 1108.43860 1182.23328
1211.0 0.000826 1108.36548 1177.25818
1158.0 0.000864 1108.29224 1172.76563
1158.0 0.000864 1108.21948 1168.70435
1196.0 0.000836 1108.14636 1165.01001
1187.0 0.000842 1108.07336 1161.64380
1194.0 0.000838 1108.00049 1158.56738
1194.0 0.000838 1107.92786 1155.73950
1184.0 0.000845 1107.85498 1153.13977
1194.0 0.000838 1107.78223 1150.73816
1177.0 0.000850 1107.70972 1148.51733
1190.0 0.000840 1107.63708 1146.46021
1128.0 0.000887 1107.56445 1144.54456
1122.0 0.000891 1107.49194 1142.76208
1187.0 0.000842 1107.41956 1141.09631
1195.0 0.000837 1107.34705 1139.53918
1204.0 0.000831 1107.27466 1138.08191
1176.0 0.000850 1107.20239 1136.71155
1182.0 0.000846 1107.13013 1135.42444
1208.0 0.000828 1107.05786 1134.21094
1197.0 0.000835 1106.98560 1133.06702
1211.0 0.000826 1106.91357 1131.98767
1243.0 0.000805 1106.84155 1130.96472
1188.0 0.000842 1106.76941 1129.99695
1130.0 0.000885 1106.69751 1129.07788
1186.0 0.000843 1106.62561 1128.20544
1139.0 0.000878 1106.55359 1127.37683
1192.0 0.000839 1106.48181 1126.58667
1134.0 0.000882 1106.41016 1125.83423
1138.0 0.000879 1106.33850 1125.11548
1205.0 0.000830 1106.26685 1124.42969
1126.0 0.000888 1106.19507 1123.77441
1133.0 0.000883 1106.12329 1123.14600
1110.0 0.000901 1106.05200 1122.54480
1136.0 0.000880 1105.98047 1121.96777
1140.0 0.000877 1105.90881 1121.41394
1085.0 0.000922 1105.83777 1120.88269
1060.0 0.000943 1105.76624 1120.37073
1101.0 0.000908 1105.69495 1119.87878
1064.0 0.000940 1105.62354 1119.40454
1120.0 0.000893 1105.55225 1118.94763
1106.0 0.000904 1105.48145 1118.50720
1147.0 0.000872 1105.41016 1118.08154
1183.0 0.000845 1105.33911 1117.67065
1176.0 0.000850 1105.26794 1117.27295
1097.0 0.000912 1105.19702 1116.88843
1137.0 0.000880 1105.12610 1116.51648
1155.0 0.000866 1105.05518 1116.15588
1137.0 0.000880 1104.98438 1115.80640
1155.0 0.000866 1104.91333 1115.46716
1159.0 0.000863 1104.84265 1115.13806
1168.0 0.000856 1104.77222 1114.81873
1159.0 0.000863 1104.70129 1114.50793
1121.0 0.000892 1104.63086 1114.20605
1086.0 0.000921 1104.56006 1113.91199
1107.0 0.000903 1104.48962 1113.62598
1156.0 0.000865 1104.41931 1113.34778
1156.0 0.000865 1104.34875 1113.07617
1104.0 0.000906 1104.27844 1112.81152
1116.0 0.000896 1104.20801 1112.55334
1120.0 0.000893 1104.13770 1112.30127
1106.0 0.000904 1104.06750 1112.05542
1118.0 0.000894 1103.99719 1111.81506
1093.0 0.000915 1103.92676 1111.58020
1106.0 0.000904 1103.85681 1111.35059
1149.0 0.000870 1103.78674 1111.12573
1112.0 0.000899 1103.71667 1110.90625
1085.0 0.000922 1103.64661 1110.69080
1124.0 0.000890 1103.57666 1110.48010
1119.0 0.000894 1103.50671 1110.27332
1104.0 0.000906 1103.43689 1110.07068
1136.0 0.000880 1103.36719 1109.87244
1184.0 0.000845 1103.29712 1109.67749
1144.0 0.000874 1103.22754 1109.48645
1085.0 0.000922 1103.15771 1109.29846
1095.0 0.000913 1103.08826 1109.11426
1099.0 0.000910 1103.01868 1108.93323
1048.0 0.000954 1102.94885 1108.75513
1082.0 0.000924 1102.87939 1108.58020
1123.0 0.000890 1102.80981 1108.40808
1100.0 0.000909 1102.74048 1108.23877
1050.0 0.000952 1102.67102 1108.07239
1110.0 0.000901 1102.60144 1107.90833
1092.0 0.000916 1102.53235 1107.74695
1131.0 0.000884 1102.46301 1107.58777
1107.0 0.000903 1102.39368 1107.43115
1118.0 0.000894 1102.32471 1107.27673
1149.0 0.000870 1102.25537 1107.12439
1136.0 0.000880 1102.18640 1106.97449
1124.0 0.000890 1102.11731 1106.82617
1125.0 0.000889 1102.04785 1106.68005
1122.0 0.000891 1101.97925 1106.53613
1126.0 0.000888 1101.91003 1106.39368
1146.0 0.000873 1101.84143 1106.25330
1139.0 0.000878 1101.77234 1106.11438
1118.0 0.000894 1101.70361 1105.97754
1148.0 0.000871 1101.63489 1105.84216
1124.0 0.000890 1101.56616 1105.99573
1114.0 0.000898 1101.49731 1105.86609
1127.0 0.000887 1101.42847 1105.73779
1102.0 0.000907 1101.35999 1105.61084
1087.0 0.000920 1101.29163 1105.48584
1149.0 0.000870 1101.22302 1105.36194
1151.0 0.000869 1101.15430 1105.23950
1138.0 0.000879 1101.08582 1105.11841
1128.0 0.000887 1101.01733 1104.99841
1129.0 0.000886 1100.94897 1104.87988
1145.0 0.000873 1100.88049 1104.76233
1125.0 0.000889 1100.81226 1104.64624
1106.0 0.000904 1100.74390 1104.53113
1123.0 0.000890 1100.67554 1104.41711
1137.0 0.000880 1100.60754 1104.30444
1153.0 0.000867 1100.53943 1104.19263
1149.0 0.000870 1100.47131 1104.22620
1114.0 0.000898 1100.40308 1104.11768
1069.0 0.000935 1100.33496 1104.01050
1110.0 0.000901 1100.26697 1103.90417
1129.0 0.000886 1100.19910 1103.79871
1118.0 0.000894 1100.13110 1103.69434
1125.0 0.000889 1100.06299 1103.59045
1096.0 0.000912 1099.99524 1103.48816
1100.0 0.000909 1099.92761 1103.38635
1089.0 0.000918 1099.85950 1103.28540
1099.0 0.000910 1099.79199 1103.18542
1126.0 0.000888 1099.72424 1103.08606
1101.0 0.000908 1099.65674 1102.98779
1112.0 0.000899 1099.58899 1102.89026
1117.0 0.000895 1099.52124 1102.79333
1076.0 0.000929 1099.45386 1102.69739
1091.0 0.000917 1099.38599 1102.60205
1103.0 0.000907 1099.31873 1102.50769
1088.0 0.000919 1099.25122 1102.41370
1068.0 0.000936 1099.18372 1102.32056
1077.0 0.000929 1099.11646 1102.22827
1141.0 0.000876 1099.04907 1102.13635
1179.0 0.000848 1098.98193 1102.04529
1080.0 0.000926 1098.91443 1101.95520
1054.0 0.000949 1098.84717 1101.86536
1060.0 0.000943 1098.77991 1101.77637
1053.0 0.000950 1098.71289 1101.68774
1061.0 0.000943 1098.64551 1101.59973
1063.0 0.000941 1098.57861 1101.51270
1096.0 0.000912 1098.51147 1101.42603
1084.0 0.000923 1098.44446 1101.34021
1092.0 0.000916 1098.37744 1101.25464
1078.0 0.000928 1098.31055 1101.16980
1112.0 0.000899 1098.24353 1101.08569
1076.0 0.000929 1098.17664 1101.00195
1059.0 0.000944 1098.10999 1100.91870
1100.0 0.000909 1098.04272 1100.83630
1118.0 0.000894 1097.97607 1100.75427
1097.0 0.000912 1097.90930 1100.67285
1156.0 0.000865 1097.84277 1100.59180
1105.0 0.000905 1097.77600 1100.51147
1073.0 0.000932 1097.70935 1100.43152
1101.0 0.000908 1097.64270 1100.35205
1102.0 0.000907 1097.57605 1100.27344
1157.0 0.000864 1097.50964 1100.19507
1134.0 0.000882 1097.44312 1100.11731
1095.0 0.000913 1097.37659 1100.03992
1079.0 0.000927 1097.31018 1099.96326
1079.0 0.000927 1097.24390 1099.88696
1078.0 0.000928 1097.17737 1099.81116
1074.0 0.000931 1097.11096 1099.73608
1117.0 0.000895 1097.04456 1099.66113
1117.0 0.000895 1096.97839 1099.58691
1115.0 0.000897 1096.91223 1099.51331
1149.0 0.000870 1096.84607 1099.43994
1129.0 0.000886 1096.77966 1099.36719
1102.0 0.000907 1096.71362 1099.29480
1079.0 0.000927 1096.64746 1099.22290
1039.0 0.000962 1096.58142 1099.15186
1075.0 0.000930 1096.51538 1099.08118
1108.0 0.000903 1096.44922 1099.01074
1109.0 0.000902 1096.38318 1098.94104
1097.0 0.000912 1096.31714 1098.87170
1084.0 0.000923 1096.25146 1098.80310
1088.0 0.000919 1096.18555 1098.73486
1105.0 0.000905 1096.11963 1098.66699
1090.0 0.000917 1096.05371 1098.59961
1086.0 0.000921 1095.98804 1098.53296
1123.0 0.000890 1095.92236 1098.46680
1107.0 0.000903 1095.85645 1098.40112
1056.0 0.000947 1095.79065 1098.33582
1084.0 0.000923 1095.72510 1098.27124
1092.0 0.000916 1095.65930 1098.20715
1096.0 0.000912 1095.59375 1098.14355
1106.0 0.000904 1095.52820 1098.08069
1111.0 0.000900 1095.46277 1098.01819
1107.0 0.000903 1095.39722 1097.95618
1100.0 0.000909 1095.33154 1097.89502
1050.0 0.000952 1095.26611 1097.83411
1103.0 0.000907 1095.20081 1097.77393
1111.0 0.000900 1095.13513 1097.71448
1071.0 0.000934 1095.06995 1097.65540
1127.0 0.000887 1095.00464 1097.59692
1123.0 0.000890 1094.93933 1097.53931
1119.0 0.000894 1094.87402 1097.48206
1098.0 0.000911 1094.80859 1097.42578
1079.0 0.000927 1094.74353 1097.36975
1044.0 0.000958 1094.67810 1097.31470
1129.0 0.000886 1094.61304 1097.26013
1156.0 0.000865 1094.54810 1097.20654
1123.0 0.000890 1094.48291 1097.15332
1098.0 0.000911 1094.41785 1097.10107
1126.0 0.000888 1094.35291 1097.04956
1092.0 0.000916 1094.28772 1096.99866
1070.0 0.000935 1094.22290 1096.94861
1054.0 0.000949 1094.15759 1096.89917
1076.0 0.000929 1094.09277 1096.85083
1091.0 0.000917 1094.02795 1096.80298
1089.0 0.000918 1093.96301 1096.75647
1047.0 0.000955 1093.89807 1096.71057
1024.0 0.000977 1093.83362 1096.66565
1055.0 0.000948 1093.76843 1096.62122
1063.0 0.000941 1093.70374 1096.57825
1063.0 0.000941 1093.63916 1096.53613
1083.0 0.000923 1093.57422 1096.49500
1073.0 0.000932 1093.50952 1096.45483
1068.0 0.000936 1093.44507 1096.41589
1092.0 0.000916 1093.38037 1096.37805
1091.0 0.000917 1093.31592 1096.34131
1082.0 0.000924 1093.25122 1096.30566
1102.0 0.000907 1093.18665 1096.27148
1088.0 0.000919 1093.12231 1096.23828
1098.0 0.000911 1093.05762 1096.20642
1119.0 0.000894 1092.99329 1096.17615
1101.0 0.000908 1092.92871 1096.86829
1094.0 0.000914 1092.86438 1096.84595
1070.0 0.000935 1092.79993 1096.82520
1058.0 0.000945 1092.73572 1096.80591
1089.0 0.000918 1092.67139 1096.78857
1122.0 0.000891 1092.60706 1096.77258
1100.0 0.000909 1092.54272 1096.75854
1125.0 0.000889 1092.47864 1096.74646
1133.0 0.000883 1092.41418 1096.73657
1108.0 0.000903 1092.35022 1096.72852
1113.0 0.000898 1092.28601 1096.72253
1082.0 0.000924 1092.22180 1096.71863
1105.0 0.000905 1092.15771 1096.71741
1118.0 0.000894 1092.09351 1096.71851
1110.0 0.000901 1092.02942 1096.72180
1083.0 0.000923 1091.96558 1096.72803
1073.0 0.000932 1091.90149 1096.14966
1095.0 0.000913 1091.83728 1096.52783
1099.0 0.000910 1091.77356 1096.54944
1112.0 0.000899 1091.70959 1096.57410
1140.0 0.000877 1091.64575 1096.60205
1145.0 0.000873 1091.58191 1096.63330
1077.0 0.000929 1091.51807 1096.66846
1123.0 0.000890 1091.45422 1096.70728
1117.0 0.000895 1091.39026 1096.75037
1102.0 0.000907 1091.32654 1096.79724
1041.0 0.000961 1091.26294 1096.84912
1115.0 0.000897 1091.19910 1096.90540
1082.0 0.000924 1091.13525 1096.96667
1158.0 0.000864 1091.07166 1097.03308
1164.0 0.000859 1091.00793 1096.81152
1035.0 0.000966 1090.94446 1096.89172
1056.0 0.000947 1090.88074 1096.97815
1088.0 0.000919 1090.81726 1097.07104
1185.0 0.000844 1090.75354 1097.17078
1075.0 0.000930 1090.69019 1097.27832
1068.0 0.000936 1090.62671 1097.39343
1124.0 0.000890 1090.56311 1097.51733
1135.0 0.000881 1090.49939 1097.64990
1113.0 0.000898 1090.43604 1097.79199
1097.0 0.000912 1090.37268 1097.94470
1106.0 0.000904 1090.30933 1098.10815
1099.0 0.000910 1090.24585 1098.28345
1059.0 0.000944 1090.18250 1098.47144
1072.0 0.000933 1090.11951 1098.67261
1081.0 0.000925 1090.05591 1098.88892
1096.0 0.000912 1089.99268 1099.12061
1147.0 0.000872 1089.92944 1099.36951
1149.0 0.000870 1089.86609 1099.63672
1162.0 0.000861 1089.80310 1099.92322
1142.0 0.000876 1089.73987 1100.23206
1091.0 0.000917 1089.67676 1100.56372
1100.0 0.000909 1089.61340 1100.92102
1116.0 0.000896 1089.55029 1101.30603
1099.0 0.000910 1089.48755 1101.72107
1078.0 0.000928 1089.42419 1102.16980
1117.0 0.000895 1089.36121 1102.65454
1121.0 0.000892 1089.29822 1103.17993
1069.0 0.000935 1089.23523 1103.74927
1101.0 0.000908 1089.17236 1104.36682
1153.0 0.000867 1089.10925 1105.03955
1136.0 0.000880 1089.04614 1105.77173
1121.0 0.000892 1088.98340 1106.57202
1128.0 0.000887 1088.92053 1107.44702
1103.0 0.000907 1088.85791 1108.40552
1056.0 0.000947 1088.79492 1109.46045
1078.0 0.000928 1088.73206 1110.62183
1122.0 0.000891 1088.66919 1111.90686
1124.0 0.000890 1088.60632 1113.32959
1117.0 0.000895 1088.54370 1114.91394
1112.0 0.000899 1088.48108 1116.68030
1087.0 0.000920 1088.41797 1118.65942
1090.0 0.000917 1088.35535 1120.88904
1125.0 0.000889 1088.29285 1123.40686
1128.0 0.000887 1088.23035 1126.27087
1124.0 0.000890 1088.16772 1129.53967
1123.0 0.000890 1088.10498 1133.29663
1181.0 0.000847 1088.04248 1137.64941
1182.0 0.000846 1087.97974 1142.71826
1210.0 0.000826 1087.91724 1148.68372
1236.0 0.000809 1087.85474 1155.75256
1172.0 0.000853 1087.79224 1164.22498
1235.0 0.000810 1087.72974 1174.51050
1246.0 0.000803 1087.66711 1187.13367
1265.0 0.000791 1087.60498 1202.89600
1223.0 0.000818 1087.54248 1222.87939
1303.0 0.000767 1087.48010 1248.79883
1318.0 0.000759 1087.41760 1283.55627
1336.0 0.000749 1087.35535 1332.72107
1489.0 0.000672 1087.29309 1409.17920
1568.0 0.000638 1087.23047 1541.27893
1729.0 0.000578 1087.16846 1783.25012
2148.0 0.000466 1087.10596 2212.28003
2927.0 0.0003416 1087.04370 2889.01270
3952.0 0.0002530 1086.98157 3775.00269
4708.0 0.0002124 1086.91919 4565.03418
4527.0 0.0002209 1086.85706 4672.43750
3611.0 0.0002769 1086.79504 3992.94385
2799.0 0.000357 1086.73267 3096.98828
2239.0 0.000447 1086.67053 2370.56812
1876.0 0.000533 1086.60840 1898.76624
1625.0 0.000615 1086.54639 1633.18774
1540.0 0.000649 1086.48413 1496.76428
1471.0 0.000680 1086.42236 1431.05164
1405.0 0.000712 1086.36011 1405.89880
1414.0 0.000707 1086.29822 1414.43201
1473.0 0.000679 1086.23621 1468.03906
1565.0 0.000639 1086.17419 1595.21838
1736.0 0.000576 1086.11230 1832.34070
2063.0 0.000485 1086.05017 2198.08740
2463.0 0.000406 1085.98816 2636.71484
2777.0 0.000360 1085.92676 2934.81860
2745.0 0.000364 1085.86438 2825.42651
2472.0 0.000405 1085.80286 2409.25537
2115.0 0.000473 1085.74084 1972.67029
1757.0 0.000569 1085.67908 1647.31311
1502.0 0.000666 1085.61719 1443.54163
1375.0 0.000727 1085.55542 1328.28833
1332.0 0.000751 1085.49365 1264.48181
1308.0 0.000765 1085.43176 1226.51575
1274.0 0.000785 1085.37012 1201.38232
1257.0 0.000796 1085.30847 1183.20435
1249.0 0.000801 1085.24670 1169.35083
1225.0 0.000816 1085.18494 1158.49402
1169.0 0.000855 1085.12354 1149.78308
1162.0 0.000861 1085.06177 1142.68945
1153.0 0.000867 1085.00024 1136.81958
1142.0 0.000876 1084.93835 1131.89404
1140.0 0.000877 1084.87695 1127.72400
1137.0 0.000880 1084.81531 1124.14954
1136.0 0.000880 1084.75378 1121.06592
1092.0 0.000916 1084.69214 1118.38098
1067.0 0.000937 1084.63049 1116.02417
1105.0 0.000905 1084.56921 1113.94690
1079.0 0.000927 1084.50769 1112.10144
1062.0 0.000942 1084.44617 1110.45691
1144.0 0.000874 1084.38477 1108.98279
1126.0 0.000888 1084.32324 1107.65417
1113.0 0.000898 1084.26184 1106.45508
1066.0 0.000938 1084.20056 1105.36621
1080.0 0.000926 1084.13904 1104.37646
1095.0 0.000913 1084.07776 1103.47290
1039.0 0.000962 1084.01636 1102.64490
1081.0 0.000925 1083.95508 1101.88660
1052.0 0.000951 1083.89355 1101.18823
1068.0 0.000936 1083.83264 1100.54529
1129.0 0.000886 1083.77124 1099.95166
1108.0 0.000903 1083.70972 1099.40161
1091.0 0.000917 1083.64856 1098.89307
1111.0 0.000900 1083.58740 1098.42078
1042.0 0.000960 1083.52637 1097.98254
1010.0 0.000990 1083.46521 1097.57520
1064.0 0.000940 1083.40381 1098.19031
1080.0 0.000926 1083.34277 1097.84351
1075.0 0.000930 1083.28162 1097.52087
1097.0 0.000912 1083.22058 1097.22058
1082.0 0.000924 1083.15930 1096.94104
1075.0 0.000930 1083.09827 1096.68066
1076.0 0.000929 1083.03711 1096.43872
1059.0 0.000944 1082.97607 1096.21326
1046.0 0.000956 1082.91516 1096.00439
1078.0 0.000928 1082.85413 1095.81018
1079.0 0.000927 1082.79309 1095.63013
1064.0 0.000940 1082.73206 1095.46375
1072.0 0.000933 1082.67102 1095.30969
1059.0 0.000944 1082.61011 1095.16809
1061.0 0.000943 1082.54932 1095.03821
1093.0 0.000915 1082.48828 1094.91895
1106.0 0.000904 1082.42725 1094.81067
1040.0 0.000962 1082.36621 1095.20984
1048.0 0.000954 1082.30566 1095.12476
1058.0 0.000945 1082.24475 1095.04968
1081.0 0.000925 1082.18396 1094.98376
1083.0 0.000923 1082.12292 1094.92688
1075.0 0.000930 1082.06226 1094.87915
1053.0 0.000950 1082.00134 1094.83960
1046.0 0.000956 1081.94067 1094.80908
1058.0 0.000945 1081.87976 1094.78674
1073.0 0.000932 1081.81909 1094.77258
1081.0 0.000925 1081.75842 1094.76709
1091.0 0.000917 1081.69751 1094.76929
1072.0 0.000933 1081.63696 1094.78003
1076.0 0.000929 1081.57605 1094.79883
1086.0 0.000921 1081.51563 1094.82568
1090.0 0.000917 1081.45471 1094.86072
1152.0 0.000868 1081.39417 1094.90356
1122.0 0.000891 1081.33362 1094.95508
1076.0 0.000929 1081.27295 1095.01489
1063.0 0.000941 1081.21240 1095.08301
1077.0 0.000929 1081.15173 1095.15991
1148.0 0.000871 1081.09131 1095.24512
1097.0 0.000912 1081.03064 1095.33948
1086.0 0.000921 1080.97021 1095.44299
1076.0 0.000929 1080.90955 1095.55554
1099.0 0.000910 1080.84937 1095.67798
1144.0 0.000874 1080.78882 1095.80969
1060.0 0.000943 1080.72827 1095.95154
1033.0 0.000968 1080.66760 1096.10388
1081.0 0.000925 1080.60730 1096.26685
1100.0 0.000909 1080.54688 1096.44067
1178.0 0.000849 1080.48657 1096.62610
1107.0 0.000903 1080.42615 1096.82349
1102.0 0.000907 1080.36548 1097.03296
1093.0 0.000915 1080.30518 1097.25500
1050.0 0.000952 1080.24487 1097.49084
1049.0 0.000953 1080.18445 1097.74011
1103.0 0.000907 1080.12415 1098.00391
1115.0 0.000897 1080.06384 1098.28320
1135.0 0.000881 1080.00366 1098.57764
1107.0 0.000903 1079.94324 1098.88977
1087.0 0.000920 1079.88306 1099.21814
1107.0 0.000903 1079.82312 1099.56482
1089.0 0.000918 1079.76245 1099.93140
1102.0 0.000907 1079.70239 1100.31775
1103.0 0.000907 1079.64185 1100.72571
1093.0 0.000915 1079.58228 1101.15613
1073.0 0.000932 1079.52185 1101.60974
1076.0 0.000929 1079.46155 1102.08899
1103.0 0.000907 1079.40137 1102.59460
1110.0 0.000901 1079.34131 1103.12878
1117.0 0.000895 1079.28113 1103.69250
1098.0 0.000911 1079.22119 1104.28809
1106.0 0.000904 1079.16101 1104.91821
1093.0 0.000915 1079.10083 1105.58362
1078.0 0.000928 1079.04077 1106.28857
1098.0 0.000911 1078.98083 1107.03345
1072.0 0.000933 1078.92078 1107.82251
1046.0 0.000956 1078.86072 1108.65991
1056.0 0.000947 1078.80066 1109.54688
1084.0 0.000923 1078.74060 1110.48889
1059.0 0.000944 1078.68091 1111.48901
1096.0 0.000912 1078.62085 1112.55176
1123.0 0.000890 1078.56104 1113.68396
1113.0 0.000898 1078.50098 1114.88855
1110.0 0.000901 1078.44104 1116.17432
1082.0 0.000924 1078.38098 1117.54492
1114.0 0.000898 1078.32129 1119.01001
1139.0 0.000878 1078.26123 1120.57886
1123.0 0.000890 1078.20154 1122.25818
1145.0 0.000873 1078.14148 1124.06189
1168.0 0.000856 1078.08179 1125.99744
1152.0 0.000868 1078.02173 1128.08044
1186.0 0.000843 1077.96216 1130.32849
1189.0 0.000841 1077.90234 1132.75305
1180.0 0.000847 1077.84253 1135.37915
1166.0 0.000858 1077.78284 1138.22266
1161.0 0.000861 1077.72302 1141.31128
1173.0 0.000853 1077.66321 1144.67810
1175.0 0.000851 1077.60364 1148.34827
1255.0 0.000797 1077.54407 1152.36853
1221.0 0.000819 1077.48425 1156.77454
1200.0 0.000833 1077.42456 1161.72876
1186.0 0.000843 1077.36475 1167.08655
1158.0 0.000864 1077.30518 1173.01428
1244.0 0.000804 1077.24536 1179.61023
1252.0 0.000799 1077.18591 1186.96191
1265.0 0.000791 1077.12634 1195.19995
1235.0 0.000810 1077.06653 1204.48376
1246.0 0.000803 1077.00696 1214.97412
1284.0 0.000779 1076.94751 1226.91919
1287.0 0.000777 1076.88794 1240.56982
1326.0 0.000754 1076.82849 1256.28589
1331.0 0.000751 1076.76892 1274.53149
1330.0 0.000752 1076.70935 1295.82983
1410.0 0.000709 1076.64978 1320.96484
1528.0 0.000654 1076.59033 1350.84424
1592.0 0.000628 1076.53088 1386.78284
1543.0 0.000648 1076.47131 1430.59094
1597.0 0.000626 1076.41199 1484.67603
1730.0 0.000578 1076.35242 1552.65186
1779.0 0.000562 1076.29309 1640.07019
1885.0 0.000531 1076.23376 1756.80518
1969.0 0.000508 1076.17432 1921.40454
2215.0 0.000451 1076.11487 2167.82568
2483.0 0.000403 1076.05542 2555.91235
3055.0 0.0003273 1075.99622 3172.02319
3794.0 0.0002636 1075.93677 4117.61719
5149.0 0.0001942 1075.87756 5465.92236
7290.0 0.0001372 1075.81799 7157.79883
9259.0 0.0001080 1075.75903 8803.41992
9502.0 0.0001052 1075.69983 9535.12402
8145.0 0.0001228 1075.64050 8791.25000
6320.0 0.0001582 1075.58118 7159.31836
4736.0 0.0002111 1075.52185 5500.01855
3727.0 0.0002683 1075.46240 4192.16699
3039.0 0.0003291 1075.40344 3290.99438
2633.0 0.000380 1075.34424 2723.94287
2322.0 0.000431 1075.28503 2393.29590
2192.0 0.000456 1075.22607 2219.81543
2167.0 0.000461 1075.16663 2156.93848
2196.0 0.000455 1075.10742 2193.34766
2256.0 0.000443 1075.04834 2346.82007
2429.0 0.000412 1074.98926 2655.98950
2775.0 0.000360 1074.93018 3161.40015
3350.0 0.0002985 1074.87109 3875.15674
4270.0 0.0002342 1074.81201 4704.72070
5113.0 0.0001956 1074.75293 5339.22656
5300.0 0.0001887 1074.69373 5337.59229
4772.0 0.0002096 1074.63464 4681.02051
3926.0 0.0002547 1074.57593 3800.17529
3138.0 0.0003187 1074.51685 3021.13672
2584.0 0.000387 1074.45776 2440.19946
2175.0 0.000460 1074.39880 2045.70117
1852.0 0.000540 1074.33984 1792.17419
1670.0 0.000599 1074.28076 1630.53650
1618.0 0.000618 1074.22180 1524.28174
1514.0 0.000661 1074.16296 1450.08679
1488.0 0.000672 1074.10400 1395.06982
1446.0 0.000692 1074.04517 1352.52539
1357.0 0.000737 1073.98621 1318.56494
1357.0 0.000737 1073.92749 1290.96680
1326.0 0.000754 1073.86829 1268.16199
1332.0 0.000751 1073.80969 1249.05530
1265.0 0.000791 1073.75098 1232.90430
1247.0 0.000802 1073.69177 1219.08435
1235.0 0.000810 1073.63330 1207.18262
1229.0 0.000814 1073.57458 1196.83899
1278.0 0.000782 1073.51563 1187.77563
1215.0 0.000823 1073.45691 1179.80225
1163.0 0.000860 1073.39807 1172.73083
1207.0 0.000829 1073.33948 1166.46252
1191.0 0.000840 1073.28064 1160.54626
1095.0 0.000913 1073.22192 1155.48523
1107.0 0.000903 1073.16333 1150.92432
1147.0 0.000872 1073.10461 1146.78955
1107.0 0.000903 1073.04602 1143.03784
1162.0 0.000861 1072.98743 1139.61841
1136.0 0.000880 1072.92859 1136.48999
1195.0 0.000837 1072.86987 1133.62671
1229.0 0.000814 1072.81140 1130.99402
1129.0 0.000886 1072.75269 1128.57324
1116.0 0.000896 1072.69409 1126.34021
1093.0 0.000915 1072.63550 1124.27441
1168.0 0.000856 1072.57715 1122.36438
1146.0 0.000873 1072.51843 1120.59180
1105.0 0.000905 1072.45996 1118.94763
1115.0 0.000897 1072.40149 1117.41931
1107.0 0.000903 1072.34302 1115.85144
1152.0 0.000868 1072.28442 1114.52747
1194.0 0.000838 1072.22583 1113.29138
1147.0 0.000872 1072.16760 1112.13916
1106.0 0.000904 1072.10901 1111.06311
1080.0 0.000926 1072.05054 1110.05664
1084.0 0.000923 1071.99207 1109.11694
1110.0 0.000901 1071.93372 1108.23767
1087.0 0.000920 1071.87537 1107.41602
1076.0 0.000929 1071.81702 1106.64819
1062.0 0.000942 1071.75867 1105.92932
1089.0 0.000918 1071.70032 1105.25793
1091.0 0.000917 1071.64197 1104.63049
1060.0 0.000943 1071.58374 1104.04553
1062.0 0.000942 1071.52539 1103.50000
1069.0 0.000935 1071.46729 1102.99121
1096.0 0.000912 1071.40869 1102.51880
1125.0 0.000889 1071.35046 1102.07959
1098.0 0.000911 1071.29224 1101.67322
1135.0 0.000881 1071.23425 1101.29749
1122.0 0.000891 1071.17603 1100.95154
1088.0 0.000919 1071.11780 1100.63403
1147.0 0.000872 1071.05957 1100.34375
1147.0 0.000872 1071.00122 1100.08020
1118.0 0.000894 1070.94336 1099.84277
1143.0 0.000875 1070.88477 1099.62927
1092.0 0.000916 1070.82690 1099.44092
1072.0 0.000933 1070.76880 1099.27576
1063.0 0.000941 1070.71057 1099.13354
1077.0 0.000929 1070.65234 1099.01453
1113.0 0.000898 1070.59436 1098.91772
1056.0 0.000947 1070.53638 1098.84277
1086.0 0.000921 1070.47839 1098.78979
1080.0 0.000926 1070.42053 1098.75830
1052.0 0.000951 1070.36243 1098.74817
1169.0 0.000855 1070.30432 1098.75940
1132.0 0.000883 1070.24634 1098.79211
1102.0 0.000907 1070.18848 1098.84607
1157.0 0.000864 1070.13062 1098.92188
1053.0 0.000950 1070.07251 1099.01880
1075.0 0.000930 1070.01440 1099.13770
1085.0 0.000922 1069.95679 1099.27893
1088.0 0.000919 1069.89856 1099.44238
1092.0 0.000916 1069.84094 1099.62878
1065.0 0.000939 1069.78308 1099.83826
1086.0 0.000921 1069.72498 1100.07166
1160.0 0.000862 1069.66736 1100.32947
1120.0 0.000893 1069.60938 1100.61218
1139.0 0.000878 1069.55188 1100.92041
1161.0 0.000861 1069.49377 1101.25500
1148.0 0.000871 1069.43628 1101.61755
1097.0 0.000912 1069.37854 1102.00745
1112.0 0.000899 1069.32056 1102.42749
1139.0 0.000878 1069.26306 1102.87732
1143.0 0.000875 1069.20532 1103.35864
1108.0 0.000903 1069.14734 1103.87341
1102.0 0.000907 1069.08997 1104.42249
1134.0 0.000882 1069.03210 1105.00757
1090.0 0.000917 1068.97461 1105.63025
1050.0 0.000952 1068.91699 1106.29224
1075.0 0.000930 1068.85925 1106.99646
1113.0 0.000898 1068.80188 1107.74365
1121.0 0.000892 1068.74426 1108.53796
1131.0 0.000884 1068.68652 1109.37988
1118.0 0.000894 1068.62903 1110.27368
1115.0 0.000897 1068.57141 1111.22266
1136.0 0.000880 1068.51379 1112.22852
1149.0 0.000870 1068.45630 1113.29700
1147.0 0.000872 1068.39905 1114.42944
1139.0 0.000878 1068.34167 1115.63171
1156.0 0.000865 1068.28394 1116.90942
1183.0 0.000845 1068.22656 1118.26514
1157.0 0.000864 1068.16895 1119.70764
1098.0 0.000911 1068.11182 1121.23950
1097.0 0.000912 1068.05444 1122.86951
1173.0 0.000853 1067.99707 1124.60681
1210.0 0.000826 1067.93970 1126.45544
1207.0 0.000829 1067.88220 1128.42896
1163.0 0.000860 1067.82483 1130.53247
1161.0 0.000861 1067.76782 1132.77991
1172.0 0.000853 1067.71033 1135.18579
1142.0 0.000876 1067.65295 1137.75854
1148.0 0.000871 1067.59570 1140.51953
1192.0 0.000839 1067.53857 1143.47937
1209.0 0.000827 1067.48120 1146.66040
1192.0 0.000839 1067.42419 1150.08813
1183.0 0.000845 1067.36694 1153.77881
1163.0 0.000860 1067.30969 1157.76917
1218.0 0.000821 1067.25256 1162.08020
1219.0 0.000820 1067.19556 1166.75269
1245.0 0.000803 1067.13843 1171.83289
1272.0 0.000786 1067.08130 1177.35608
1240.0 0.000806 1067.02405 1183.38794
1368.0 0.000731 1066.96692 1189.97742
1315.0 0.000760 1066.91003 1197.20288
1285.0 0.000778 1066.85278 1205.15698
1283.0 0.000779 1066.79602 1213.92102
1277.0 0.000783 1066.73877 1223.63037
1244.0 0.000804 1066.68188 1234.40063
1359.0 0.000736 1066.62488 1246.40625
1319.0 0.000758 1066.56799 1259.86023
1356.0 0.000737 1066.51111 1274.96960
1389.0 0.000720 1066.45410 1292.05896
1302.0 0.000768 1066.39734 1311.44434
1374.0 0.000728 1066.34045 1333.58423
1367.0 0.000732 1066.28345 1359.06006
1502.0 0.000666 1066.22656 1388.50720
1531.0 0.000653 1066.16992 1422.88147
1626.0 0.000615 1066.11316 1463.24976
1707.0 0.000586 1066.05640 1511.14709
1727.0 0.000579 1065.99939 1568.63806
1803.0 0.000555 1065.94287 1638.29749
1891.0 0.000529 1065.88586 1724.07495
2047.0 0.000489 1065.82935 1831.33813
2066.0 0.000484 1065.77271 1968.97632
2254.0 0.000444 1065.71582 2152.33057
2481.0 0.000403 1065.65942 2408.11621
2824.0 0.000354 1065.60254 2784.80249
3196.0 0.0003129 1065.54602 3358.79663
3911.0 0.0002557 1065.48938 4238.36328
5090.0 0.0001965 1065.43262 5546.71338
6947.0 0.0001439 1065.37622 7367.94727
9744.0 0.0001026 1065.31970 9650.31836
12640.0 0.0000791 1065.26331 11952.73633
13586.0 0.0000736 1065.20667 13254.96289
12031.0 0.0000831 1065.15002 12660.65234
9533.0 0.0001049 1065.09351 10628.15625
7217.0 0.0001386 1065.03687 8291.67090
5468.0 0.0001829 1064.98071 6316.97217
4294.0 0.0002329 1064.92432 4866.91016
3544.0 0.0002822 1064.86780 3892.32544
3153.0 0.0003172 1064.81128 3282.84302
2916.0 0.0003429 1064.75488 2926.34521
2767.0 0.000361 1064.69885 2744.57959
2704.0 0.000370 1064.64270 2697.54053
2748.0 0.000364 1064.58618 2782.93335
2789.0 0.000359 1064.52979 3028.70117
3039.0 0.0003291 1064.47363 3483.56079
3607.0 0.0002772 1064.41748 4194.62305
4400.0 0.0002273 1064.36108 5171.72754
5576.0 0.0001793 1064.30493 6301.76270
6789.0 0.0001473 1064.24878 7202.70654
7135.0 0.0001402 1064.19250 7315.66260
6593.0 0.0001517 1064.13660 6529.26514
5508.0 0.0001816 1064.08032 5345.24121
4364.0 0.0002291 1064.02429 4226.50293
3474.0 0.0002879 1063.96802 3350.82886
2874.0 0.0003479 1063.91187 2727.06689
2414.0 0.000414 1063.85596 2308.56128
2106.0 0.000475 1063.80005 2034.41772
1959.0 0.000510 1063.74402 1853.15002
1845.0 0.000542 1063.68811 1729.32092
1731.0 0.000578 1063.63196 1640.82178
1597.0 0.000626 1063.57605 1575.68811
1612.0 0.000620 1063.52014 1527.22656
1530.0 0.000654 1063.46423 1491.87122
1496.0 0.000668 1063.40845 1467.99670
1524.0 0.000656 1063.35266 1455.38428
1515.0 0.000660 1063.29688 1456.06348
1451.0 0.000689 1063.24084 1476.10706
1596.0 0.000627 1063.18518 1529.22253
1624.0 0.000616 1063.12927 1639.59509
1771.0 0.000565 1063.07373 1839.73193
2172.0 0.000460 1063.01807 2153.03711
2634.0 0.000380 1062.96228 2558.70410
3061.0 0.0003267 1062.90637 2923.61963
3041.0 0.0003288 1062.85083 2989.66748
2634.0 0.000380 1062.79517 2687.61475
2122.0 0.000471 1062.73926 2256.92847
1832.0 0.000546 1062.68408 1886.99036
1649.0 0.000606 1062.62830 1629.83386
1525.0 0.000656 1062.57275 1472.68201
1393.0 0.000718 1062.51733 1382.94788
1342.0 0.000745 1062.46191 1332.56042
1313.0 0.000762 1062.40637 1303.94885
1323.0 0.000756 1062.35095 1288.83521
1341.0 0.000746 1062.29553 1284.98206
1370.0 0.000730 1062.23999 1294.75732
1378.0 0.000726 1062.18457 1325.73901
1376.0 0.000727 1062.12927 1391.20630
1446.0 0.000692 1062.07373 1506.87415
1568.0 0.000638 1062.01868 1679.29980
1774.0 0.000564 1061.96326 1884.21179
1950.0 0.000513 1061.90820 2029.40637
1967.0 0.000508 1061.85303 1994.63159
1879.0 0.000532 1061.79736 1807.17432
1690.0 0.000592 1061.74219 1595.10596
1489.0 0.000672 1061.68701 1426.95398
1394.0 0.000717 1061.63171 1314.80713
1366.0 0.000732 1061.57690 1246.91895
1271.0 0.000787 1061.52161 1207.02893
1174.0 0.000852 1061.46643 1182.63550
1144.0 0.000874 1061.41150 1166.30029
1198.0 0.000835 1061.35657 1154.39453
1188.0 0.000842 1061.30151 1145.16553
1147.0 0.000872 1061.24658 1137.73096
1176.0 0.000850 1061.19153 1131.60461
1146.0 0.000873 1061.13647 1126.44714
1119.0 0.000894 1061.08167 1122.04590
1107.0 0.000903 1061.02686 1118.23364
1150.0 0.000870 1060.97205 1114.88916
1195.0 0.000837 1060.91711 1111.93103
1139.0 0.000878 1060.86218 1109.28467
1119.0 0.000894 1060.80725 1106.90466
1084.0 0.000923 1060.75281 1104.74609
1118.0 0.000894 1060.69775 1102.77405
1118.0 0.000894 1060.64307 1100.96643
1061.0 0.000943 1060.58850 1099.29822
1078.0 0.000928 1060.53381 1097.75525
1087.0 0.000920 1060.47900 1096.32007
1033.0 0.000968 1060.42432 1094.97961
1117.0 0.000895 1060.36987 1093.72620
1077.0 0.000929 1060.31531 1092.54834
1075.0 0.000930 1060.26074 1091.44080
1089.0 0.000918 1060.20618 1090.39551
1088.0 0.000919 1060.15173 1089.40588
1134.0 0.000882 1060.09717 1088.46887
1112.0 0.000899 1060.04285 1087.57788
1089.0 0.000918 1059.98828 1086.73157
1128.0 0.000887 1059.93396 1085.92529
1104.0 0.000906 1059.87939 1085.15479
1063.0 0.000941 1059.82544 1084.41956
1067.0 0.000937 1059.77100 1083.71484
1093.0 0.000915 1059.71667 1082.31921
1075.0 0.000930 1059.66235 1081.67725
1098.0 0.000911 1059.60815 1081.06018
1118.0 0.000894 1059.55383 1080.46765
1059.0 0.000944 1059.49976 1079.89722
1062.0 0.000942 1059.44556 1079.34814
1061.0 0.000943 1059.39148 1078.81885
1040.0 0.000962 1059.33740 1078.30786
1047.0 0.000955 1059.28345 1077.81458
1085.0 0.000922 1059.22913 1077.33765
1082.0 0.000924 1059.17529 1076.87695
1059.0 0.000944 1059.12134 1076.43091
1029.0 0.000972 1059.06726 1075.99841
1039.0 0.000962 1059.01355 1075.58008
1072.0 0.000933 1058.95959 1075.17334
1070.0 0.000935 1058.90576 1074.77942
1061.0 0.000943 1058.85181 1074.39709
1031.0 0.000970 1058.79785 1073.66492
1055.0 0.000948 1058.74402 1073.30640
1090.0 0.000917 1058.69031 1072.95728
1070.0 0.000935 1058.63660 1072.61780
1072.0 0.000933 1058.58301 1072.28772
1097.0 0.000912 1058.52942 1071.96545
1062.0 0.000942 1058.47559 1071.65186
1015.0 0.000985 1058.42200 1071.34607
1021.0 0.000979 1058.36841 1071.04797
1073.0 0.000932 1058.31482 1070.75696
1081.0 0.000925 1058.26135 1070.47278
1032.0 0.000969 1058.20801 1070.19568
1030.0 0.000971 1058.15430 1069.92444
1085.0 0.000922 1058.10083 1069.65979
1078.0 0.000928 1058.04749 1069.40100
1044.0 0.000958 1057.99402 1069.14746
1064.0 0.000940 1057.94055 1068.89990
1059.0 0.000944 1057.88745 1068.65710
1077.0 0.000929 1057.83398 1068.41980
1057.0 0.000946 1057.78101 1068.18750
1054.0 0.000949 1057.72778 1067.95959
1088.0 0.000919 1057.67444 1067.73633
1027.0 0.000974 1057.62134 1067.51721
1077.0 0.000929 1057.56799 1067.30273
1055.0 0.000948 1057.51514 1067.09192
1049.0 0.000953 1057.46179 1066.88525
1068.0 0.000936 1057.40869 1066.68250
1066.0 0.000938 1057.35559 1066.48315
1053.0 0.000950 1057.30273 1066.28760
1074.0 0.000931 1057.24976 1066.09546
1057.0 0.000946 1057.19690 1065.90649
1058.0 0.000945 1057.14404 1065.72095
1023.0 0.000978 1057.09106 1065.53833
1063.0 0.000941 1057.03821 1065.35876
1111.0 0.000900 1056.98572 1065.18225
1009.0 0.000991 1056.93274 1065.00842
1024.0 0.000977 1056.88037 1064.83777
1058.0 0.000945 1056.82727 1064.66907
1027.0 0.000974 1056.77478 1064.50354
1082.0 0.000924 1056.72205 1064.34033
1047.0 0.000955 1056.66931 1064.17957
1026.0 0.000975 1056.61682 1064.02124
1077.0 0.000929 1056.56445 1063.86523
1020.0 0.000980 1056.51184 1063.71118
1029.0 0.000972 1056.45935 1063.55957
1075.0 0.000930 1056.40686 1063.41003
1082.0 0.000924 1056.35449 1063.26233
1046.0 0.000956 1056.30200 1063.11694
1032.0 0.000969 1056.24976 1062.97339
1054.0 0.000949 1056.19751 1062.83154
1078.0 0.000928 1056.14502 1062.69141
1040.0 0.000962 1056.09302 1062.55371
1057.0 0.000946 1056.04065 1062.41711
1042.0 0.000960 1055.98853 1062.28271
1048.0 0.000954 1055.93628 1062.14941
1088.0 0.000919 1055.88416 1062.01831
1052.0 0.000951 1055.83215 1061.88831
1092.0 0.000916 1055.78003 1061.76013
1104.0 0.000906 1055.72803 1061.63330
1031.0 0.000970 1055.67615 1061.50793
1007.0 0.000993 1055.62439 1061.38403
1025.0 0.000976 1055.57214 1061.26147
1036.0 0.000965 1055.52051 1061.14026
1035.0 0.000966 1055.46875 1061.02026
1037.0 0.000964 1055.41687 1060.90173
1038.0 0.000963 1055.36499 1060.78418
1032.0 0.000969 1055.31335 1060.66821
1028.0 0.000973 1055.26160 1060.55310
1056.0 0.000947 1055.21021 1060.43970
1093.0 0.000915 1055.15857 1060.32666
1106.0 0.000904 1055.10681 1060.21509
1065.0 0.000939 1055.05505 1060.10461
1060.0 0.000943 1055.00366 1059.99536
1057.0 0.000946 1054.95215 1059.88684
1002.0 0.000998 1054.90088 1059.77979
1042.0 0.000960 1054.84949 1059.67346
1085.0 0.000922 1054.79797 1059.56775
1097.0 0.000912 1054.74683 1059.46338
1074.0 0.000931 1054.69556 1059.35999
1017.0 0.000983 1054.64404 1059.25708
1054.0 0.000949 1054.59277 1059.15564
1052.0 0.000951 1054.54175 1059.05469
1113.0 0.000898 1054.49048 1058.95459
1067.0 0.000937 1054.43958 1058.85583
1016.0 0.000984 1054.38855 1058.75745
1034.0 0.000967 1054.33752 1058.65979
1019.0 0.000981 1054.28638 1058.56299
1040.0 0.000962 1054.23535 1058.46704
997.0 0.001003 1054.18433 1058.37183
1042.0 0.000960 1054.13379 1058.27734
1029.0 0.000972 1054.08276 1058.18359
1051.0 0.000951 1054.03198 1058.09021
1027.0 0.000974 1053.98120 1057.99805
1059.0 0.000944 1053.93054 1057.90637
1066.0 0.000938 1053.87964 1057.81543
1050.0 0.000952 1053.82922 1057.72498
1047.0 0.000955 1053.77844 1057.63550
1071.0 0.000934 1053.72815 1057.54614
1020.0 0.000980 1053.67737 1057.45776
1041.0 0.000961 1053.62683 1057.36987
1074.0 0.000931 1053.57654 1057.28259
1084.0 0.000923 1053.52600 1057.19604
1047.0 0.000955 1053.47559 1057.10962
1070.0 0.000935 1053.42517 1057.02405
1060.0 0.000943 1053.37500 1056.93933
1033.0 0.000968 1053.32471 1056.85461
1012.0 0.000988 1053.27466 1056.77100
1028.0 0.000973 1053.22437 1056.68738
1016.0 0.000984 1053.17419 1056.60461
1027.0 0.000974 1053.12402 1056.52209
1054.0 0.000949 1053.07410 1056.44019
1100.0 0.000909 1053.02417 1056.35889
1132.0 0.000883 1052.97424 1056.27795
1112.0 0.000899 1052.92432 1056.19763
1100.0 0.000909 1052.87439 1056.11755
1093.0 0.000915 1052.82458 1056.03809
1063.0 0.000941 1052.77454 1055.95898
1063.0 0.000941 1052.72510 1055.88049
1064.0 0.000940 1052.67517 1055.80225
1055.0 0.000948 1052.62561 1055.72449
1016.0 0.000984 1052.57581 1055.64709
1019.0 0.000981 1052.52637 1055.57019
1025.0 0.000976 1052.47656 1055.49365
1033.0 0.000968 1052.42749 1055.41772
1057.0 0.000946 1052.37781 1055.34204
1075.0 0.000930 1052.32813 1055.26648
1064.0 0.000940 1052.27881 1055.19165
1063.0 0.000941 1052.22949 1055.11707
1033.0 0.000968 1052.18030 1055.04272
1016.0 0.000984 1052.13098 1054.96887
1055.0 0.000948 1052.08179 1054.89551
1091.0 0.000917 1052.03271 1054.82239
1047.0 0.000955 1051.98352 1054.74963
1018.0 0.000982 1051.93457 1054.67725
1073.0 0.000932 1051.88550 1054.60510
1010.0 0.000990 1051.83655 1054.53345
1026.0 0.000975 1051.78748 1054.46204
1076.0 0.000929 1051.73853 1054.39063
1063.0 0.000941 1051.68982 1054.32031
1074.0 0.000931 1051.64099 1054.24951
1023.0 0.000978 1051.59192 1054.17932
1035.0 0.000966 1051.54333 1054.10950
1106.0 0.000904 1051.49475 1054.04004
1099.0 0.000910 1051.44617 1053.97095
1015.0 0.000985 1051.39771 1053.90210
991.0 0.001009 1051.34888 1053.83325
1006.0 0.000994 1051.30029 1053.76489
1039.0 0.000962 1051.25208 1053.69702
1054.0 0.000949 1051.20361 1053.62891
1058.0 0.000945 1051.15491 1053.56140
1021.0 0.000979 1051.10681 1053.49438
1036.0 0.000965 1051.05859 1053.42725
984.0 0.001016 1051.01013 1053.36035
1041.0 0.000961 1050.96228 1053.29431
1041.0 0.000961 1050.91406 1053.22791
1018.0 0.000982 1050.86621 1053.16211
1023.0 0.000978 1050.81799 1053.09644
1012.0 0.000988 1050.76990 1053.03101
1035.0 0.000966 1050.72180 1052.96545
1025.0 0.000976 1050.67407 1052.90088
1041.0 0.000961 1050.62622 1052.83594
1071.0 0.000934 1050.57849 1052.77173
1063.0 0.000941 1050.53076 1052.70764
1022.0 0.000978 1050.48303 1052.64343
967.0 0.001034 1050.43518 1052.57959
979.0 0.001021 1050.38770 1052.51611
1034.0 0.000967 1050.34009 1052.45288
1069.0 0.000935 1050.29260 1052.38989
1036.0 0.000965 1050.24524 1052.32703
1047.0 0.000955 1050.19788 1052.26428
1035.0 0.000966 1050.15051 1052.20203
996.0 0.001004 1050.10327 1052.13977
1035.0 0.000966 1050.05591 1052.07776
1026.0 0.000975 1050.00879 1052.01599
1035.0 0.000966 1049.96155 1051.95435
1041.0 0.000961 1049.91431 1051.89294
1027.0 0.000974 1049.86755 1051.83179
1019.0 0.000981 1049.82031 1051.77075
1027.0 0.000974 1049.77319 1051.71008
1039.0 0.000962 1049.72632 1051.64941
1035.0 0.000966 1049.67944 1051.58899
1034.0 0.000967 1049.63257 1051.52893
1039.0 0.000962 1049.58594 1051.46875
1040.0 0.000962 1049.53918 1051.40894
1026.0 0.000975 1049.49255 1051.34937
1020.0 0.000980 1049.44592 1051.29004
1040.0 0.000962 1049.39941 1051.23071
1056.0 0.000947 1049.35278 1051.17175
1071.0 0.000934 1049.30627 1051.11267
1081.0 0.000925 1049.26001 1051.05408
1049.0 0.000953 1049.21350 1050.99536
1027.0 0.000974 1049.16736 1050.93713
1009.0 0.000991 1049.12097 1050.87903
1042.0 0.000960 1049.07471 1050.82092
1006.0 0.000994 1049.02856 1049.77222
1006.0 0.000994 1048.98254 1049.72070
1004.0 0.000996 1048.93640 1049.66956
991.0 0.001009 1048.89050 1049.61841
1093.0 0.000915 1048.84436 1049.56738
1039.0 0.000962 1048.79871 1049.51685
1038.0 0.000963 1048.75293 1049.46570
1033.0 0.000968 1048.70691 1049.41528
1090.0 0.000917 1048.66138 1049.36475
1098.0 0.000911 1048.61572 1049.31409
1053.0 0.000950 1048.56995 1049.26367
1002.0 0.000998 1048.52441 1049.21350
1114.0 0.000898 1048.47888 1049.16321
994.0 0.001006 1048.43323 1049.11316
1014.0 0.000986 1048.38806 1049.06323
1031.0 0.000970 1048.34277 1049.01331
1076.0 0.000929 1048.29736 1048.96362
1029.0 0.000972 1048.25220 1048.25232
1074.0 0.000931 1048.20679 1048.20703
1043.0 0.000959 1048.16162 1048.16187
1053.0 0.000950 1048.11682 1048.11694
1038.0 0.000963 1048.07153 1048.07178
1070.0 0.000935 1048.02673 1048.02686
1081.0 0.000925 1047.98181 1047.98193
1057.0 0.000946 1047.93701 1047.93701
1055.0 0.000948 1047.89221 1047.89221
1068.0 0.000936 1047.84753 1047.84753
1028.0 0.000973 1047.80273 1047.80286
1048.0 0.000954 1047.75793 1047.75818
1035.0 0.000966 1047.71350 1047.71375
1034.0 0.000967 1047.66895 1047.66907
1050.0 0.000952 1047.62451 1047.62476
1048.0 0.000954 1047.58008 1047.58032
1067.0 0.000937 1047.53564 1047.53589
1052.0 0.000951 1047.49146 1047.49146
1054.0 0.000949 1047.44739 1047.44739
1054.0 0.000949 1047.40295 1047.40320
1042.0 0.000960 1047.35889 1047.35913
1047.0 0.000955 1047.31470 1047.31494
1020.0 0.000980 1047.27075 1047.27100
997.0 0.001003 1047.22681 1047.22693
973.0 0.001028 1047.18286 1047.18311
999.0 0.001001 1047.13928 1047.13928
1060.0 0.000943 1047.09546 1047.09558
1038.0 0.000963 1047.05164 1047.05188
1031.0 0.000970 1047.00793 1047.00818
1064.0 0.000940 1046.96460 1046.96460
1054.0 0.000949 1046.92078 1046.92102
1054.0 0.000949 1046.87732 1046.87769
1052.0 0.000951 1046.83398 1046.83423
1027.0 0.000974 1046.79065 1046.79077
1041.0 0.000961 1046.74731 1046.74744
1088.0 0.000919 1046.70410 1046.70435
1025.0 0.000976 1046.66089 1046.66101
1040.0 0.000962 1046.61780 1046.61804
1074.0 0.000931 1046.57495 1046.57495
1068.0 0.000936 1046.53149 1046.53186
1053.0 0.000950 1046.48865 1046.48889
1036.0 0.000965 1046.44592 1046.44604
1050.0 0.000952 1046.40295 1046.40320
1058.0 0.000945 1046.36011 1046.36047
1039.0 0.000962 1046.31738 1046.31775
1046.0 0.000956 1046.27490 1046.27515
1014.0 0.000986 1046.23254 1046.23267
1030.0 0.000971 1046.18982 1046.19006
1058.0 0.000945 1046.14746 1046.14771
1057.0 0.000946 1046.10498 1046.10522
1051.0 0.000951 1046.06274 1046.06299
1043.0 0.000959 1046.02026 1046.02063
1058.0 0.000945 1045.97839 1045.97852
1054.0 0.000949 1045.93628 1045.93640
1041.0 0.000961 1045.89392 1045.89417
1026.0 0.000975 1045.85193 1045.85217
1015.0 0.000985 1045.81006 1045.81030
1040.0 0.000962 1045.76819 1045.76831
1035.0 0.000966 1045.72644 1045.72668
1066.0 0.000938 1045.68457 1045.68481
1003.0 0.000997 1045.64294 1045.64307
1033.0 0.000968 1045.60144 1045.60144
1047.0 0.000955 1045.55981 1045.55994
1014.0 0.000986 1045.51819 1045.51843
1044.0 0.000958 1045.47681 1045.47705
1019.0 0.000981 1045.43542 1045.43555
1020.0 0.000980 1045.39380 1045.39417
1050.0 0.000952 1045.35278 1045.35303
1042.0 0.000960 1045.31152 1045.31189
1031.0 0.000970 1045.27063 1045.27087
1013.0 0.000987 1045.22961 1045.22974
1027.0 0.000974 1045.18835 1045.88892
1043.0 0.000959 1045.14746 1045.85205
1060.0 0.000943 1045.10669 1045.81555
1085.0 0.000922 1045.06580 1045.77869
1081.0 0.000925 1045.02539 1045.74243
1065.0 0.000939 1044.98462 1045.70593
1065.0 0.000939 1044.94397 1045.66968
1061.0 0.000943 1044.90320 1045.63342
1071.0 0.000934 1044.86279 1045.59753
1056.0 0.000947 1044.82251 1045.56152
1007.0 0.000993 1044.78235 1045.52576
995.0 0.001005 1044.74194 1045.48999
1020.0 0.000980 1044.70178 1045.45435
1033.0 0.000968 1044.66187 1045.41895
1033.0 0.000968 1044.62170 1045.38342
1028.0 0.000973 1044.58167 1045.34827
1078.0 0.000928 1044.54175 1045.31299
1060.0 0.000943 1044.50183 1045.27783
1077.0 0.000929 1044.46191 1045.24280
1072.0 0.000933 1044.42249 1045.20825
1027.0 0.000974 1044.38257 1045.17322
1038.0 0.000963 1044.34302 1045.48938
1057.0 0.000946 1044.30347 1045.45703
1046.0 0.000956 1044.26392 1045.42468
1031.0 0.000970 1044.22473 1045.39246
1077.0 0.000929 1044.18555 1045.36060
1092.0 0.000916 1044.14624 1045.32861
1016.0 0.000984 1044.10706 1045.29688
1037.0 0.000964 1044.06799 1045.26538
1021.0 0.000979 1044.02881 1045.23389
1060.0 0.000943 1043.98999 1045.20264
1045.0 0.000957 1043.95105 1045.17139
983.0 0.001017 1043.91223 1045.14038
966.0 0.001035 1043.87354 1045.10913
1036.0 0.000965 1043.83496 1045.07861
1050.0 0.000952 1043.79626 1045.04797
1083.0 0.000923 1043.75793 1045.01770
1040.0 0.000962 1043.71936 1044.98730
1075.0 0.000930 1043.68079 1044.95703
1051.0 0.000951 1043.64258 1044.92712
1009.0 0.000991 1043.60449 1044.89734
1082.0 0.000924 1043.56616 1044.86755
1085.0 0.000922 1043.52808 1044.83826
1013.0 0.000987 1043.48999 1044.80859
1035.0 0.000966 1043.45215 1044.77942
977.0 0.001024 1043.41418 1044.75037
1035.0 0.000966 1043.37634 1044.72144
1065.0 0.000939 1043.33850 1044.69275
1065.0 0.000939 1043.30103 1044.66431
1081.0 0.000925 1043.26331 1044.63574
1085.0 0.000922 1043.22571 1044.60730
1079.0 0.000927 1043.18848 1044.57947
1088.0 0.000919 1043.15112 1044.55151
1052.0 0.000951 1043.11401 1044.52380
1057.0 0.000946 1043.07642 1044.49634
1064.0 0.000940 1043.03918 1044.46887
1083.0 0.000923 1043.00220 1044.44153
1056.0 0.000947 1042.96533 1044.41467
1037.0 0.000964 1042.92822 1044.38757
1082.0 0.000924 1042.89148 1044.36096
1076.0 0.000929 1042.85461 1044.33447
1067.0 0.000937 1042.81787 1044.30811
1093.0 0.000915 1042.78113 1044.28198
1055.0 0.000948 1042.74475 1044.25610
1061.0 0.000943 1042.70813 1044.23035
1062.0 0.000942 1042.67188 1044.20483
1073.0 0.000932 1042.63538 1044.17944
1044.0 0.000958 1042.59924 1044.15417
1040.0 0.000962 1042.56311 1044.12939
1059.0 0.000944 1042.52686 1044.10449
1044.0 0.000958 1042.49072 1044.07983
1036.0 0.000965 1042.45496 1044.05554
1018.0 0.000982 1042.41919 1044.03137
1050.0 0.000952 1042.38306 1044.00720
1065.0 0.000939 1042.34753 1043.98364
1073.0 0.000932 1042.31189 1043.95996
1102.0 0.000907 1042.27612 1043.93665
1056.0 0.000947 1042.24060 1043.91357
1041.0 0.000961 1042.20532 1043.89063
1069.0 0.000935 1042.16992 1043.86780
1075.0 0.000930 1042.13489 1043.84546
1028.0 0.000973 1042.09949 1043.82312
998.0 0.001002 1042.06445 1043.80115
973.0 0.001028 1042.02942 1043.77930
1020.0 0.000980 1041.99451 1043.75781
1041.0 0.000961 1041.95947 1043.73657
1064.0 0.000940 1041.92493 1043.71533
1031.0 0.000970 1041.89014 1043.69446
1034.0 0.000967 1041.85535 1043.67371
1038.0 0.000963 1041.82092 1043.65344
1041.0 0.000961 1041.78638 1043.63330
1060.0 0.000943 1041.75232 1043.61340
1056.0 0.000947 1041.71777 1043.59375
1065.0 0.000939 1041.68347 1043.57434
999.0 0.001001 1041.64929 1043.55518
1001.0 0.000999 1041.61536 1043.53638
1053.0 0.000950 1041.58142 1043.51782
1058.0 0.000945 1041.54736 1043.49951
1040.0 0.000962 1041.51355 1043.48145
1034.0 0.000967 1041.47986 1043.46350
1053.0 0.000950 1041.44629 1043.44604
1046.0 0.000956 1041.41248 1043.42896
1041.0 0.000961 1041.37903 1043.41199
1034.0 0.000967 1041.34558 1043.39526
1046.0 0.000956 1041.31226 1043.37891
1074.0 0.000931 1041.27869 1043.36255
1069.0 0.000935 1041.24573 1043.34692
1033.0 0.000968 1041.21265 1043.33142
1088.0 0.000919 1041.17957 1043.31616
1051.0 0.000951 1041.14673 1043.39355
1051.0 0.000951 1041.11389 1043.37976
1053.0 0.000950 1041.08093 1043.36646
1026.0 0.000975 1041.04858 1043.35339
1068.0 0.000936 1041.01575 1043.34058
1054.0 0.000949 1040.98328 1043.32825
1022.0 0.000978 1040.95081 1043.31616
1033.0 0.000968 1040.91858 1043.30457
1018.0 0.000982 1040.88635 1043.29309
1033.0 0.000968 1040.85400 1043.28210
1016.0 0.000984 1040.82202 1043.27148
1034.0 0.000967 1040.78979 1043.26123
1034.0 0.000967 1040.75793 1043.25134
1026.0 0.000975 1040.72607 1043.24194
1037.0 0.000964 1040.69434 1043.23279
1043.0 0.000959 1040.66260 1043.22412
1075.0 0.000930 1040.63098 1043.21570
1093.0 0.000915 1040.59949 1043.20764
1083.0 0.000923 1040.56799 1043.20032
1068.0 0.000936 1040.53687 1043.19324
1067.0 0.000937 1040.50549 1043.18665
1042.0 0.000960 1040.47424 1043.18030
1004.0 0.000996 1040.44324 1043.22095
1010.0 0.000990 1040.41223 1043.21582
1043.0 0.000959 1040.38123 1043.21155
1015.0 0.000985 1040.35046 1043.20752
988.0 0.001012 1040.31970 1043.20398
1024.0 0.000977 1040.28918 1043.20093
1001.0 0.000999 1040.25842 1043.19836
979.0 0.001021 1040.22803 1043.19617
1027.0 0.000974 1040.19763 1043.19470
1054.0 0.000949 1040.16736 1043.19373
1056.0 0.000947 1040.13708 1043.19299
1029.0 0.000972 1040.10669 1043.19299
1049.0 0.000953 1040.07678 1043.19336
1014.0 0.000986 1040.04700 1043.19458
981.0 0.001019 1040.01697 1043.19604
984.0 0.001016 1039.98743 1043.19812
1038.0 0.000963 1039.95752 1043.20081
1062.0 0.000942 1039.92810 1043.20422
1061.0 0.000943 1039.89844 1043.20801
1009.0 0.000991 1039.86902 1043.21277
1036.0 0.000965 1039.83960 1043.21777
1046.0 0.000956 1039.81055 1043.22339
995.0 0.001005 1039.78113 1043.22986
1007.0 0.000993 1039.75220 1043.23706
1043.0 0.000959 1039.72314 1043.24475
1037.0 0.000964 1039.69434 1043.25317
995.0 0.001005 1039.66541 1043.26196
1040.0 0.000962 1039.63672 1043.27173
1036.0 0.000965 1039.60828 1043.28235
1080.0 0.000926 1039.57947 1043.29333
1043.0 0.000959 1039.55115 1043.30542
999.0 0.001001 1039.52258 1043.31812
1034.0 0.000967 1039.49438 1043.33154
1019.0 0.000981 1039.46606 1043.34570
1014.0 0.000986 1039.43823 1043.36072
1042.0 0.000960 1039.41016 1043.37659
1023.0 0.000978 1039.38220 1043.39355
1071.0 0.000934 1039.35449 1043.41089
1076.0 0.000929 1039.32666 1043.42932
1091.0 0.000917 1039.29907 1043.44873
1021.0 0.000979 1039.27148 1043.46875
1018.0 0.000982 1039.24402 1043.48987
1010.0 0.000990 1039.21680 1043.51196
1014.0 0.000986 1039.18958 1043.53503
1076.0 0.000929 1039.16211 1043.55896
1028.0 0.000973 1039.13538 1043.58411
1027.0 0.000974 1039.10828 1043.61011
1050.0 0.000952 1039.08167 1043.63721
1022.0 0.000978 1039.05444 1043.66541
1023.0 0.000978 1039.02783 1043.69458
1040.0 0.000962 1039.00122 1043.72485
1062.0 0.000942 1038.97498 1043.75647
1060.0 0.000943 1038.94836 1043.78906
1060.0 0.000943 1038.92212 1043.82300
1052.0 0.000951 1038.89563 1043.85828
1065.0 0.000939 1038.86963 1043.89453
1034.0 0.000967 1038.84351 1043.93213
1005.0 0.000995 1038.81750 1043.97107
1032.0 0.000969 1038.79163 1044.01147
1050.0 0.000952 1038.76611 1044.05334
1049.0 0.000953 1038.74036 1044.09644
1074.0 0.000931 1038.71472 1044.14099
1062.0 0.000942 1038.68921 1044.18689
1055.0 0.000948 1038.66394 1044.23462
1042.0 0.000960 1038.63843 1044.28369
1005.0 0.000995 1038.61340 1044.33447
1037.0 0.000964 1038.58826 1044.38696
1030.0 0.000971 1038.56323 1044.44104
995.0 0.001005 1038.53857 1044.49683
1007.0 0.000993 1038.51355 1044.55444
999.0 0.001001 1038.48877 1044.61389
1032.0 0.000969 1038.46411 1044.67517
1025.0 0.000976 1038.43970 1044.73840
1034.0 0.000967 1038.41528 1044.80347
1012.0 0.000988 1038.39087 1044.87097
1007.0 0.000993 1038.36670 1044.94006
992.0 0.001008 1038.34265 1045.01160
1034.0 0.000967 1038.31860 1045.08545
1020.0 0.000980 1038.29468 1045.16138
1045.0 0.000957 1038.27087 1045.23987
1095.0 0.000913 1038.24695 1045.32031
1037.0 0.000964 1038.22351 1045.40356
1017.0 0.000983 1038.19971 1045.48926
1042.0 0.000960 1038.17639 1045.57764
1023.0 0.000978 1038.15295 1045.66858
1009.0 0.000991 1038.12988 1045.76257
1020.0 0.000980 1038.10669 1045.85913
1054.0 0.000949 1038.08337 1045.95862
1048.0 0.000954 1038.06055 1046.06140
1057.0 0.000946 1038.03796 1046.16724
1023.0 0.000978 1038.01501 1046.27661
1043.0 0.000959 1037.99219 1046.38879
1063.0 0.000941 1037.96973 1046.50476
1026.0 0.000975 1037.94727 1046.62415
1033.0 0.000968 1037.92493 1046.74744
1068.0 0.000936 1037.90271 1046.87451
1081.0 0.000925 1037.88037 1047.00513
1040.0 0.000962 1037.85852 1047.14038
992.0 0.001008 1037.83630 1047.27930
1048.0 0.000954 1037.81458 1047.42297
1071.0 0.000934 1037.79272 1047.57129
1054.0 0.000949 1037.77100 1047.72363
1076.0 0.000929 1037.74951 1047.88147
1036.0 0.000965 1037.72815 1048.04382
1033.0 0.000968 1037.70667 1048.21179
1019.0 0.000981 1037.68518 1048.38464
1023.0 0.000978 1037.66455 1048.56360
1040.0 0.000962 1037.64331 1048.74805
1030.0 0.000971 1037.62231 1048.93848
1022.0 0.000978 1037.60156 1049.13550
1032.0 0.000969 1037.58093 1049.33875
1061.0 0.000943 1037.55994 1049.54858
1075.0 0.000930 1037.53955 1049.76575
1065.0 0.000939 1037.51892 1049.98999
1057.0 0.000946 1037.49866 1050.22192
1049.0 0.000953 1037.47852 1050.46155
1051.0 0.000951 1037.45862 1050.70935
1037.0 0.000964 1037.43835 1050.96619
1040.0 0.000962 1037.41846 1051.23157
1051.0 0.000951 1037.39856 1051.50635
1091.0 0.000917 1037.37878 1051.79041
1081.0 0.000925 1037.35925 1052.08521
1082.0 0.000924 1037.33984 1052.39038
1024.0 0.000977 1037.32031 1052.70654
1012.0 0.000988 1037.30090 1053.03442
1048.0 0.000954 1037.28186 1053.37402
1043.0 0.000959 1037.26282 1053.72620
1013.0 0.000987 1037.24365 1054.09229
1054.0 0.000949 1037.22498 1054.47168
1030.0 0.000971 1037.20593 1054.86609
1027.0 0.000974 1037.18726 1055.27515
1020.0 0.000980 1037.16895 1055.70032
1068.0 0.000936 1037.15039 1056.14282
1040.0 0.000962 1037.13196 1056.60242
1042.0 0.000960 1037.11377 1057.08118
1071.0 0.000934 1037.09558 1057.57898
1090.0 0.000917 1037.07751 1058.09717
1040.0 0.000962 1037.05933 1058.63757
1050.0 0.000952 1037.04187 1059.20068
1076.0 0.000929 1037.02393 1059.78809
1029.0 0.000972 1037.00635 1060.40063
1021.0 0.000979 1036.98877 1061.03992
1113.0 0.000898 1036.97144 1061.70862
1073.0 0.000932 1036.95410 1062.40674
1098.0 0.000911 1036.93701 1063.13757
1130.0 0.000885 1036.91992 1063.90149
1093.0 0.000915 1036.90283 1064.70154
1083.0 0.000923 1036.88611 1065.54077
1053.0 0.000950 1036.86926 1066.41980
1054.0 0.000949 1036.85278 1067.34338
1059.0 0.000944 1036.83606 1068.31177
1079.0 0.000927 1036.81958 1069.32947
1102.0 0.000907 1036.80310 1070.40125
1038.0 0.000963 1036.78699 1071.52820
1022.0 0.000978 1036.77075 1072.71692
1053.0 0.000950 1036.75488 1073.96887
1096.0 0.000912 1036.73901 1075.29028
1127.0 0.000887 1036.72314 1076.68774
1108.0 0.000903 1036.70740 1078.16418
1082.0 0.000924 1036.69189 1079.72949
1096.0 0.000912 1036.67651 1081.38623
1127.0 0.000887 1036.66113 1083.14417
1081.0 0.000925 1036.64575 1085.01379
1042.0 0.000960 1036.63062 1087.00049
1123.0 0.000890 1036.61572 1089.11877
1118.0 0.000894 1036.60059 1091.37549
1123.0 0.000890 1036.58557 1093.78601
1170.0 0.000855 1036.57117 1096.36755
1137.0 0.000880 1036.55664 1099.13025
1112.0 0.000899 1036.54175 1102.09851
1103.0 0.000907 1036.52783 1105.28613
1111.0 0.000900 1036.51343 1108.71924
1153.0 0.000867 1036.49939 1112.42834
1173.0 0.000853 1036.48511 1116.43494
1197.0 0.000835 1036.47107 1120.78186
1202.0 0.000832 1036.45728 1125.49841
1189.0 0.000841 1036.44360 1130.63440
1199.0 0.000834 1036.43018 1136.24756
1179.0 0.000848 1036.41675 1142.38599
1146.0 0.000873 1036.40332 1149.13367
1149.0 0.000870 1036.39001 1156.55750
1160.0 0.000862 1036.37671 1164.76160
1193.0 0.000838 1036.36377 1173.87207
1223.0 0.000818 1036.35071 1184.00525
1221.0 0.000819 1036.33789 1195.34924
1190.0 0.000840 1036.32532 1208.07727
1239.0 0.000807 1036.31262 1222.44434
1272.0 0.000786 1036.30017 1238.76880
1307.0 0.000765 1036.28796 1257.38354
1353.0 0.000739 1036.27563 1278.79651
1425.0 0.000702 1036.26318 1303.54651
1447.0 0.000691 1036.25146 1332.41077
1451.0 0.000689 1036.23950 1366.41309
1525.0 0.000656 1036.22766 1406.78064
1593.0 0.000628 1036.21594 1455.40112
1643.0 0.000609 1036.20435 1514.78113
1651.0 0.000606 1036.19287 1589.16541
1789.0 0.000559 1036.18152 1686.03052
1865.0 0.000536 1036.17017 1818.31445
2019.0 0.000495 1036.15918 2008.25842
2341.0 0.000427 1036.14807 2286.79395
2739.0 0.000365 1036.13733 2690.23633
3245.0 0.0003082 1036.12659 3247.21069
3908.0 0.0002559 1036.11560 3947.68384
4349.0 0.0002299 1036.10535 4726.12939
5070.0 0.0001972 1036.09497 5558.31885
6397.0 0.0001563 1036.08435 6541.27979
7863.0 0.0001272 1036.07410 7674.07813
8983.0 0.0001113 1036.06396 8660.66602
8814.0 0.0001135 1036.05408 8982.82617
7478.0 0.0001337 1036.04443 8373.13477
6224.0 0.0001607 1036.03442 7151.56689
4932.0 0.0002028 1036.02466 5817.10498
4014.0 0.0002491 1036.01526 4661.23535
3290.0 0.0003040 1036.00586 3765.38281
2890.0 0.0003460 1035.99658 3119.14233
2522.0 0.000397 1035.98743 2675.15845
2390.0 0.000418 1035.97827 2381.52246
2260.0 0.000442 1035.96924 2195.16724
2140.0 0.000467 1035.96057 2085.46851
2018.0 0.000496 1035.95178 2037.13147
2026.0 0.000494 1035.94324 2047.61267
2048.0 0.000488 1035.93469 2124.65381
2109.0 0.000474 1035.92651 2280.33740
2255.0 0.000443 1035.91797 2522.84106
2475.0 0.000404 1035.91003 2838.55493
2698.0 0.000371 1035.90198 3190.49414
3026.0 0.0003305 1035.89380 3580.72021
3533.0 0.0002830 1035.88635 4057.20435
4133.0 0.0002420 1035.87854 4597.76660
4666.0 0.0002143 1035.87085 5029.25000
5000.0 0.0002000 1035.86365 5095.86035
4739.0 0.0002110 1035.85632 4710.59277
4137.0 0.0002417 1035.84900 4064.59668
3489.0 0.0002866 1035.84192 3393.41748
2951.0 0.0003389 1035.83508 2821.60303
2504.0 0.000399 1035.82825 2379.24268
2130.0 0.000469 1035.82166 2055.72192
1902.0 0.000526 1035.81494 1827.51086
1774.0 0.000564 1035.80847 1668.07568
1602.0 0.000624 1035.80212 1555.76611
1529.0 0.000654 1035.79578 1474.22107
1471.0 0.000680 1035.78979 1412.68701
1438.0 0.000695 1035.78369 1364.66174
1375.0 0.000727 1035.77783 1325.99158
1322.0 0.000756 1035.77197 1294.25708
1332.0 0.000751 1035.76636 1267.76770
1322.0 0.000756 1035.76050 1245.35974
1267.0 0.000789 1035.75537 1226.25354
1299.0 0.000770 1035.75024 1209.77844
1239.0 0.000807 1035.74475 1195.49158
1183.0 0.000845 1035.73962 1182.99719
1194.0 0.000838 1035.73486 1171.98730
1148.0 0.000871 1035.72974 1162.24951
1147.0 0.000872 1035.72546 1153.57007
1195.0 0.000837 1035.72083 1145.81299
1179.0 0.000848 1035.71631 1138.83997
1164.0 0.000859 1035.71191 1132.53821
1164.0 0.000859 1035.70789 1126.83386
1180.0 0.000847 1035.70361 1121.64001
1127.0 0.000887 1035.69983 1116.90527
1152.0 0.000868 1035.69580 1112.57056
1127.0 0.000887 1035.69202 1108.58606
1156.0 0.000865 1035.68848 1104.92212
1087.0 0.000920 1035.68481 1101.53625
1076.0 0.000929 1035.68140 1098.40723
1109.0 0.000902 1035.67834 1095.50562
1114.0 0.000898 1035.67517 1092.80615
1109.0 0.000902 1035.67224 1090.29541
1102.0 0.000907 1035.66919 1087.95044
1069.0 0.000935 1035.66650 1085.76147
1110.0 0.000901 1035.66382 1083.71216
1092.0 0.000916 1035.66125 1081.78833
1135.0 0.000881 1035.65881 1079.98376
1132.0 0.000883 1035.65674 1078.28491
1167.0 0.000857 1035.65454 1076.68677
1077.0 0.000929 1035.65247 1075.17957
1045.0 0.000957 1035.65051 1073.75476
1101.0 0.000908 1035.64880 1072.40979
1097.0 0.000912 1035.64697 1071.13513
1112.0 0.000899 1035.64551 1069.92920
1081.0 0.000925 1035.64404 1068.78528
1051.0 0.000951 1035.64270 1067.69788
1058.0 0.000945 1035.64148 1066.66589
1065.0 0.000939 1035.64050 1065.68323
1052.0 0.000951 1035.63953 1064.74866
1063.0 0.000941 1035.63879 1063.85852
1080.0 0.000926 1035.63818 1063.00806
1076.0 0.000929 1035.63745 1062.19775
1069.0 0.000935 1035.63696 1061.42285
1068.0 0.000936 1035.63672 1060.68311
1059.0 0.000944 1035.63672 1059.97559
1074.0 0.000931 1035.63660 1059.29736
1082.0 0.000924 1035.63660 1058.64893
1078.0 0.000928 1035.63672 1058.02649
1058.0 0.000945 1035.63721 1057.43018
1010.0 0.000990 1035.63733 1056.85815
1054.0 0.000949 1035.63818 1056.30835
1119.0 0.000894 1035.63879 1055.78064
1146.0 0.000873 1035.63928 1055.27295
1122.0 0.000891 1035.64026 1054.78516
1071.0 0.000934 1035.64148 1054.31616
1053.0 0.000950 1035.64258 1053.86377
1032.0 0.000969 1035.64392 1053.42883
1075.0 0.000930 1035.64551 1053.00928
1044.0 0.000958 1035.64685 1052.60510
1051.0 0.000951 1035.64868 1052.21558
1045.0 0.000957 1035.65051 1051.83923
1047.0 0.000955 1035.65222 1051.47644
1032.0 0.000969 1035.65430 1051.12573
1126.0 0.000888 1035.65649 1050.78735
1045.0 0.000957 1035.65894 1050.46033
1089.0 0.000918 1035.66113 1050.14380
1058.0 0.000945 1035.66382 1049.83813
1070.0 0.000935 1035.66650 1049.54211
1006.0 0.000994 1035.66919 1049.25610
1090.0 0.000917 1035.67224 1048.97925
1051.0 0.000951 1035.67517 1048.71082
1045.0 0.000957 1035.67847 1048.45105
1054.0 0.000949 1035.68176 1048.19910
1040.0 0.000962 1035.68518 1047.95520
1032.0 0.000969 1035.68872 1047.71899
1017.0 0.000983 1035.69250 1047.48950
1041.0 0.000961 1035.69629 1047.26721
1076.0 0.000929 1035.70007 1047.05127
1015.0 0.000985 1035.70422 1046.84192
1027.0 0.000974 1035.70825 1046.63892
1032.0 0.000969 1035.71277 1046.44153
1030.0 0.000971 1035.71716 1046.25012
1041.0 0.000961 1035.72156 1046.06396
1044.0 0.000958 1035.72656 1045.88306
1076.0 0.000929 1035.73120 1045.70752
1089.0 0.000918 1035.73596 1045.53662
1067.0 0.000937 1035.74133 1045.37085
1036.0 0.000965 1035.74646 1045.20923
1048.0 0.000954 1035.75183 1045.05261
1045.0 0.000957 1035.75720 1044.89990
1064.0 0.000940 1035.76282 1044.75159
1031.0 0.000970 1035.76831 1044.60706
1021.0 0.000979 1035.77441 1044.46655
1021.0 0.000979 1035.78015 1044.32983
1024.0 0.000977 1035.78638 1044.19666
1015.0 0.000985 1035.79260 1044.06702
1039.0 0.000962 1035.79907 1043.94092
1064.0 0.000940 1035.80554 1043.81799
1047.0 0.000955 1035.81213 1043.69824
1047.0 0.000955 1035.81885 1043.58191
1056.0 0.000947 1035.82556 1043.46826
1061.0 0.000943 1035.83276 1043.35767
1041.0 0.000961 1035.83984 1043.24963
1036.0 0.000965 1035.84705 1043.14490
1076.0 0.000929 1035.85449 1043.04260
1080.0 0.000926 1035.86206 1042.94263
1053.0 0.000950 1035.86951 1042.84546
1052.0 0.000951 1035.87744 1042.75073
1033.0 0.000968 1035.88513 1042.65857
1005.0 0.000995 1035.89319 1042.56860
1015.0 0.000985 1035.90137 1042.48047
1015.0 0.000985 1035.90967 1042.51733
1035.0 0.000966 1035.91797 1042.43457
1027.0 0.000974 1035.92664 1042.35413
1007.0 0.000993 1035.93530 1042.27563
1011.0 0.000989 1035.94409 1042.19922
1037.0 0.000964 1035.95325 1042.12488
1028.0 0.000973 1035.96204 1042.05200
1006.0 0.000994 1035.97119 1041.98120
1042.0 0.000960 1035.98047 1041.91223
978.0 0.001022 1035.99011 1041.84473
992.0 0.001008 1035.99963 1041.77930
1034.0 0.000967 1036.00903 1041.71521
1014.0 0.000986 1036.01892 1041.65295
1068.0 0.000936 1036.02917 1041.59229
1028.0 0.000973 1036.03906 1041.53296
1010.0 0.000990 1036.04956 1041.47534
1068.0 0.000936 1036.05981 1041.41895
1043.0 0.000959 1036.07031 1041.36426
1066.0 0.000938 1036.08081 1041.31079
1027.0 0.000974 1036.09167 1041.25867
1085.0 0.000922 1036.10229 1041.20813
1028.0 0.000973 1036.11377 1041.15869
1050.0 0.000952 1036.12476 1041.11084
1055.0 0.000948 1036.13586 1041.06384
1038.0 0.000963 1036.14722 1041.01831
1035.0 0.000966 1036.15894 1041.03552
1053.0 0.000950 1036.17041 1040.99268
1014.0 0.000986 1036.18213 1040.95117
996.0 0.001004 1036.19421 1040.91052
1024.0 0.000977 1036.20618 1040.87134
1077.0 0.000929 1036.21851 1041.55090
1045.0 0.000957 1036.23059 1041.51709
1090.0 0.000917 1036.24316 1041.48450
1071.0 0.000934 1036.25574 1041.45276
1017.0 0.000983 1036.26843 1041.42261
1013.0 0.000987 1036.28125 1041.39282
1032.0 0.000969 1036.29407 1041.36438
1048.0 0.000954 1036.30750 1041.33679
1035.0 0.000966 1036.32056 1041.31030
1032.0 0.000969 1036.33411 1041.28467
1024.0 0.000977 1036.34741 1041.26001
1079.0 0.000927 1036.36096 1041.23621
1120.0 0.000893 1036.37488 1041.21338
1093.0 0.000915 1036.38855 1041.19116
1069.0 0.000935 1036.40259 1041.16980
1076.0 0.000929 1036.41687 1041.14978
1076.0 0.000929 1036.43115 1041.13013
1069.0 0.000935 1036.44556 1041.11169
1088.0 0.000919 1036.46021 1041.09387
1049.0 0.000953 1036.47485 1041.07666
1046.0 0.000956 1036.48950 1041.06055
1037.0 0.000964 1036.50464 1041.04504
1025.0 0.000976 1036.51953 1041.03040
989.0 0.001011 1036.53479 1041.01648
1003.0 0.000997 1036.55005 1041.00317
1032.0 0.000969 1036.56555 1040.99072
1051.0 0.000951 1036.58105 1041.34143
1065.0 0.000939 1036.59692 1041.33228
1026.0 0.000975 1036.61267 1041.32373
1046.0 0.000956 1036.62878 1041.31604
1006.0 0.000994 1036.64490 1041.30884
1032.0 0.000969 1036.66113 1041.30249
1010.0 0.000990 1036.67773 1041.29663
1038.0 0.000963 1036.69409 1041.29150
1031.0 0.000970 1036.71082 1041.43872
1043.0 0.000959 1036.72754 1041.43567
1052.0 0.000951 1036.74451 1041.43335
994.0 0.001006 1036.76135 1041.43188
1049.0 0.000953 1036.77869 1041.43079
1085.0 0.000922 1036.79602 1041.43042
1066.0 0.000938 1036.81335 1041.43103
1029.0 0.000972 1036.83105 1041.43176
998.0 0.001002 1036.84900 1041.43311
1037.0 0.000964 1036.86658 1041.43542
1083.0 0.000923 1036.88452 1041.43799
1007.0 0.000993 1036.90283 1041.44141
981.0 0.001019 1036.92114 1041.44556
1060.0 0.000943 1036.93933 1041.45007
1012.0 0.000988 1036.95801 1041.45532
1026.0 0.000975 1036.97681 1041.46069
1024.0 0.000977 1036.99548 1041.46729
1037.0 0.000964 1037.01428 1041.47388
1014.0 0.000986 1037.03345 1041.48145
1029.0 0.000972 1037.05249 1041.48962
1033.0 0.000968 1037.07178 1041.49805
1026.0 0.000975 1037.09143 1041.50708
1076.0 0.000929 1037.11084 1041.51685
1019.0 0.000981 1037.13074 1041.52710
1032.0 0.000969 1037.15051 1041.53784
1082.0 0.000924 1037.17041 1041.54919
1044.0 0.000958 1037.19067 1041.63757
1014.0 0.000986 1037.21094 1041.65051
1034.0 0.000967 1037.23132 1041.66370
1064.0 0.000940 1037.25171 1041.67761
1065.0 0.000939 1037.27246 1041.69214
1074.0 0.000931 1037.29333 1041.70703
1048.0 0.000954 1037.31421 1041.72290
1011.0 0.000989 1037.33533 1041.73853
1062.0 0.000942 1037.35620 1041.75513
1042.0 0.000960 1037.37769 1041.77209
1037.0 0.000964 1037.39905 1041.78979
1064.0 0.000940 1037.42065 1041.80798
1077.0 0.000929 1037.44250 1041.82666
1056.0 0.000947 1037.46423 1041.84595
1064.0 0.000940 1037.48621 1041.86548
1026.0 0.000975 1037.50854 1041.88574
1021.0 0.000979 1037.53076 1041.90637
1045.0 0.000957 1037.55322 1041.92749
1048.0 0.000954 1037.57568 1041.94946
1024.0 0.000977 1037.59827 1041.97180
1047.0 0.000955 1037.62122 1041.99463
1042.0 0.000960 1037.64429 1042.01807
998.0 0.001002 1037.66724 1042.04187
989.0 0.001011 1037.69031 1042.06604
968.0 0.001033 1037.71362 1042.09106
1040.0 0.000962 1037.73718 1042.11658
1033.0 0.000968 1037.76062 1042.14258
1032.0 0.000969 1037.78455 1042.16907
1004.0 0.000996 1037.80835 1042.19604
1015.0 0.000985 1037.83240 1042.22339
991.0 0.001009 1037.85657 1042.25146
1015.0 0.000985 1037.88098 1042.28015
1026.0 0.000975 1037.90527 1042.30896
1033.0 0.000968 1037.92969 1042.33875
1014.0 0.000986 1037.95447 1042.36890
1030.0 0.000971 1037.97913 1042.39978
1040.0 0.000962 1038.00427 1042.43091
1038.0 0.000963 1038.02930 1042.46265
1020.0 0.000980 1038.05432 1042.49500
991.0 0.001009 1038.07971 1042.52771
1058.0 0.000945 1038.10522 1042.56128
1044.0 0.000958 1038.13098 1042.59521
1054.0 0.000949 1038.15674 1042.62952
1075.0 0.000930 1038.18262 1042.66479
1056.0 0.000947 1038.20862 1042.70032
1114.0 0.000898 1038.23474 1042.73657
1078.0 0.000928 1038.26111 1042.77319
1092.0 0.000916 1038.28748 1042.81055
1064.0 0.000940 1038.31409 1042.84863
1028.0 0.000973 1038.34070 1042.88708
1036.0 0.000965 1038.36743 1042.92627
1029.0 0.000972 1038.39453 1042.96606
1058.0 0.000945 1038.42151 1043.00647
1072.0 0.000933 1038.44873 1043.04712
1127.0 0.000887 1038.47644 1043.08862
1097.0 0.000912 1038.50366 1043.13086
1083.0 0.000923 1038.53149 1043.17358
1030.0 0.000971 1038.55908 1043.21680
1089.0 0.000918 1038.58691 1043.26086
1044.0 0.000958 1038.61511 1043.30566
1069.0 0.000935 1038.64319 1043.35095
1072.0 0.000933 1038.67163 1043.39709
1059.0 0.000944 1038.70020 1043.44360
1041.0 0.000961 1038.72852 1043.49109
1014.0 0.000986 1038.75732 1043.53894
999.0 0.001001 1038.78613 1043.58777
1011.0 0.000989 1038.81519 1043.63708
1021.0 0.000979 1038.84436 1043.68750
1045.0 0.000957 1038.87341 1043.73828
1054.0 0.000949 1038.90295 1043.78992
1035.0 0.000966 1038.93237 1043.84229
1020.0 0.000980 1038.96204 1043.89526
998.0 0.001002 1038.99194 1043.94922
1014.0 0.000986 1039.02148 1044.00415
1035.0 0.000966 1039.05188 1044.05969
1042.0 0.000960 1039.08228 1044.11597
1017.0 0.000983 1039.11255 1044.17310
1007.0 0.000993 1039.14294 1044.23108
1072.0 0.000933 1039.17358 1044.29016
1075.0 0.000930 1039.20422 1044.34998
1037.0 0.000964 1039.23511 1044.41064
1041.0 0.000961 1039.26599 1044.47217
1027.0 0.000974 1039.29736 1044.53491
1035.0 0.000966 1039.32849 1044.59814
1040.0 0.000962 1039.35999 1044.66260
1041.0 0.000961 1039.39148 1044.72803
1064.0 0.000940 1039.42322 1044.79480
1062.0 0.000942 1039.45496 1044.86218
1021.0 0.000979 1039.48694 1044.93103
1069.0 0.000935 1039.51892 1045.00049
1016.0 0.000984 1039.55127 1045.07166
1007.0 0.000993 1039.58374 1045.14368
1009.0 0.000991 1039.61597 1045.21655
1012.0 0.000988 1039.64868 1045.29126
1024.0 0.000977 1039.68140 1045.36694
1054.0 0.000949 1039.71436 1045.44397
1011.0 0.000989 1039.74719 1045.52246
1034.0 0.000967 1039.78052 1045.60205
985.0 0.001015 1039.81384 1045.68311
978.0 0.001022 1039.84717 1045.76587
1049.0 0.000953 1039.88086 1045.84973
1040.0 0.000962 1039.91467 1045.23584
1034.0 0.000967 1039.94824 1045.32703
1002.0 0.000998 1039.98230 1045.41992
1056.0 0.000947 1040.01636 1045.51453
1015.0 0.000985 1040.05066 1045.61084
1048.0 0.000954 1040.08496 1045.70923
1049.0 0.000953 1040.11975 1045.80896
1009.0 0.000991 1040.15417 1045.91077
989.0 0.001011 1040.18896 1046.01465
1020.0 0.000980 1040.22400 1046.12048
1058.0 0.000945 1040.25891 1046.22839
1083.0 0.000923 1040.29419 1046.33887
1051.0 0.000951 1040.32910 1046.45129
1042.0 0.000960 1040.36499 1046.56677
1011.0 0.000989 1040.40051 1046.68433
1031.0 0.000970 1040.43616 1046.80444
1064.0 0.000940 1040.47205 1046.92749
1067.0 0.000937 1040.50793 1047.05334
1044.0 0.000958 1040.54407 1047.18225
1035.0 0.000966 1040.58044 1047.31433
1041.0 0.000961 1040.61682 1047.44995
1062.0 0.000942 1040.65320 1047.58899
1062.0 0.000942 1040.68994 1047.32458
1040.0 0.000962 1040.72668 1047.47363
1050.0 0.000952 1040.76355 1047.62622
1083.0 0.000923 1040.80078 1047.78369
1077.0 0.000929 1040.83801 1047.94507
1055.0 0.000948 1040.87512 1048.11108
1077.0 0.000929 1040.91272 1048.28271
1096.0 0.000912 1040.95032 1048.45898
1033.0 0.000968 1040.98816 1048.64136
1049.0 0.000953 1041.02576 1048.82935
1072.0 0.000933 1041.06384 1049.02344
1025.0 0.000976 1041.10193 1049.22473
1033.0 0.000968 1041.14038 1049.43298
1082.0 0.000924 1041.17847 1049.64905
1038.0 0.000963 1041.21716 1049.87305
1056.0 0.000947 1041.25574 1050.10559
1068.0 0.000936 1041.29468 1050.34790
1077.0 0.000929 1041.33350 1050.59998
1076.0 0.000929 1041.37268 1050.86328
1096.0 0.000912 1041.41187 1051.13745
1058.0 0.000945 1041.45093 1051.42419
1075.0 0.000930 1041.49072 1051.72510
1054.0 0.000949 1041.53015 1052.04016
1014.0 0.000986 1041.56982 1052.37122
1046.0 0.000956 1041.60974 1052.71936
984.0 0.001016 1041.64966 1053.08618
997.0 0.001003 1041.68994 1053.47412
1023.0 0.000978 1041.73035 1053.88391
1075.0 0.000930 1041.77039 1054.31873
1031.0 0.000970 1041.81104 1054.78027
1041.0 0.000961 1041.85181 1055.27161
1048.0 0.000954 1041.89246 1055.79639
1097.0 0.000912 1041.93347 1056.35730
1030.0 0.000971 1041.97449 1056.95959
1050.0 0.000952 1042.01550 1057.60645
1011.0 0.000989 1042.05713 1058.30444
1040.0 0.000962 1042.09863 1059.06018
1080.0 0.000926 1042.14001 1059.87964
1040.0 0.000962 1042.18201 1060.77356
1030.0 0.000971 1042.22375 1061.74927
1097.0 0.000912 1042.26587 1062.82031
1083.0 0.000923 1042.30798 1064.00183
1080.0 0.000926 1042.35010 1065.30847
1089.0 0.000918 1042.39258 1066.76367
1121.0 0.000892 1042.43506 1068.38831
1099.0 0.000910 1042.47754 1070.21448
1081.0 0.000925 1042.52063 1072.28210
1128.0 0.000887 1042.56323 1074.63293
1104.0 0.000906 1042.60645 1077.32983
1114.0 0.000898 1042.64978 1080.44092
1138.0 0.000879 1042.69299 1084.06409
1153.0 0.000867 1042.73657 1088.32654
1147.0 0.000872 1042.78003 1093.38074
1115.0 0.000897 1042.82385 1099.45520
1141.0 0.000876 1042.86755 1106.83264
1182.0 0.000846 1042.91138 1115.93823
1179.0 0.000848 1042.95557 1127.41760
1173.0 0.000853 1043.00000 1142.29358
1188.0 0.000842 1043.04431 1162.54089
1258.0 0.000795 1043.08875 1191.88416
1310.0 0.000763 1043.13354 1237.43152
1349.0 0.000741 1043.17822 1311.16809
1468.0 0.000681 1043.22327 1429.45923
1660.0 0.000602 1043.26819 1609.80298
1954.0 0.000512 1043.31335 1860.26062
2403.0 0.000416 1043.35864 2163.38623
2803.0 0.000357 1043.40405 2444.49805
2928.0 0.0003415 1043.44958 2559.84741
2730.0 0.000366 1043.49548 2425.71069
2428.0 0.000412 1043.54102 2139.41357
2129.0 0.000470 1043.58716 1840.52722
1855.0 0.000539 1043.63354 1597.39368
1590.0 0.000629 1043.67944 1424.93054
1465.0 0.000683 1043.72559 1312.98413
1390.0 0.000719 1043.77209 1244.42322
1331.0 0.000751 1043.81873 1202.93469
1247.0 0.000802 1043.86572 1177.12805
1244.0 0.000804 1043.91260 1160.40674
1228.0 0.000814 1043.95959 1149.27869
1198.0 0.000835 1044.00684 1142.08850
1184.0 0.000845 1044.05396 1138.03223
1215.0 0.000823 1044.10132 1136.81958
1190.0 0.000840 1044.14893 1138.57153
1182.0 0.000846 1044.19653 1143.97278
1164.0 0.000859 1044.24438 1154.67480
1185.0 0.000844 1044.29211 1174.03418
1175.0 0.000851 1044.34033 1207.84131
1292.0 0.000774 1044.38855 1264.06189
1291.0 0.000775 1044.43677 1351.23145
1384.0 0.000723 1044.48535 1473.32532
1471.0 0.000680 1044.53381 1621.95667
1734.0 0.000577 1044.58240 1760.95288
1872.0 0.000534 1044.63147 1819.81580
1932.0 0.000518 1044.68042 1755.26819
1805.0 0.000554 1044.72961 1613.13782
1671.0 0.000598 1044.77844 1462.88818
1575.0 0.000635 1044.82800 1339.50781
1487.0 0.000672 1044.87744 1251.09973
1352.0 0.000740 1044.92688 1192.97424
1319.0 0.000758 1044.97705 1156.74744
1232.0 0.000812 1045.02686 1134.25623
1132.0 0.000883 1045.07678 1119.70227
1137.0 0.000880 1045.12683 1109.66589
1151.0 0.000869 1045.17712 1102.28149
1155.0 0.000866 1045.22754 1096.61658
1115.0 0.000897 1045.27808 1092.14478
1129.0 0.000886 1045.32861 1088.54980
1078.0 0.000928 1045.37976 1085.63110
1110.0 0.000901 1045.43054 1083.23389
1106.0 0.000904 1045.48169 1081.25574
1088.0 0.000919 1045.53235 1079.61133
1091.0 0.000917 1045.58386 1078.23828
1093.0 0.000915 1045.63550 1077.09167
1087.0 0.000920 1045.68689 1076.13171
1091.0 0.000917 1045.73840 1075.33069
1077.0 0.000929 1045.79016 1074.66394
1082.0 0.000924 1045.84216 1074.11194
1106.0 0.000904 1045.89429 1073.66101
1093.0 0.000915 1045.94666 1073.29700
1072.0 0.000933 1045.99878 1073.01038
1047.0 0.000955 1046.05139 1072.79248
1040.0 0.000962 1046.10388 1072.63562
1078.0 0.000928 1046.15649 1072.53406
1114.0 0.000898 1046.20959 1072.48303
1087.0 0.000920 1046.26245 1072.47815
1083.0 0.000923 1046.31543 1072.51587
1075.0 0.000930 1046.36877 1072.59302
1040.0 0.000962 1046.42200 1072.70715
1067.0 0.000937 1046.47571 1072.85632
1063.0 0.000941 1046.52905 1073.03870
1038.0 0.000963 1046.58289 1073.25232
1059.0 0.000944 1046.63672 1073.49670
1077.0 0.000929 1046.69067 1073.77014
1062.0 0.000942 1046.74487 1074.07251
1047.0 0.000955 1046.79895 1074.40259
1052.0 0.000951 1046.85327 1074.76013
1035.0 0.000966 1046.90796 1075.14563
1067.0 0.000937 1046.96265 1075.55750
1122.0 0.000891 1047.01709 1075.99719
1125.0 0.000889 1047.07214 1076.46313
1111.0 0.000900 1047.12708 1076.95679
1062.0 0.000942 1047.18237 1077.47876
1161.0 0.000861 1047.23767 1078.02820
1064.0 0.000940 1047.29285 1078.60718
1013.0 0.000987 1047.34827 1079.21460
1025.0 0.000976 1047.40405 1079.85242
1123.0 0.000890 1047.45972 1080.52161
1108.0 0.000903 1047.51575 1081.22217
1066.0 0.000938 1047.57166 1081.95630
1048.0 0.000954 1047.62769 1082.72388
1074.0 0.000931 1047.68408 1083.52698
1089.0 0.000918 1047.74048 1084.36780
1126.0 0.000888 1047.79688 1085.24622
1047.0 0.000955 1047.85352 1086.16565
1117.0 0.000895 1047.91028 1087.12659
1081.0 0.000925 1047.96729 1088.13123
1106.0 0.000904 1048.02393 1089.18335
1153.0 0.000867 1048.08130 1090.28284
1097.0 0.000912 1048.13879 1091.43518
1112.0 0.000899 1048.19580 1092.63989
1067.0 0.000937 1048.25354 1093.90186
1024.0 0.000977 1048.31116 1095.22571
1069.0 0.000935 1048.36902 1096.61182
1126.0 0.000888 1048.42664 1098.06738
1128.0 0.000887 1048.48486 1099.59314
1095.0 0.000913 1048.54272 1101.19543
1058.0 0.000945 1048.60120 1102.88110
1113.0 0.000898 1048.65955 1104.65161
1137.0 0.000880 1048.71802 1106.51709
1163.0 0.000860 1048.77661 1108.47974
1161.0 0.000861 1048.83545 1110.54834
1134.0 0.000882 1048.89429 1112.73340
1135.0 0.000881 1048.95325 1115.03833
1195.0 0.000837 1049.01233 1117.47791
1189.0 0.000841 1049.07166 1120.05603
1168.0 0.000856 1049.13098 1122.78748
1172.0 0.000853 1049.19055 1125.68750
1145.0 0.000873 1049.25000 1128.76343
1164.0 0.000859 1049.30969 1132.03735
1175.0 0.000851 1049.36963 1135.51855
1162.0 0.000861 1049.42944 1139.22974
1197.0 0.000835 1049.48962 1143.19617
1169.0 0.000855 1049.55017 1147.43237
1132.0 0.000883 1049.61047 1151.97437
1130.0 0.000885 1049.67078 1156.84119
1173.0 0.000853 1049.73145 1162.07129
1168.0 0.000856 1049.79199 1167.70862
1152.0 0.000868 1049.85303 1173.78296
1163.0 0.000860 1049.91394 1180.35718
1160.0 0.000862 1049.97498 1187.47144
1180.0 0.000847 1050.03625 1195.19617
1206.0 0.000829 1050.09753 1203.61499
1203.0 0.000831 1050.15894 1212.79260
1201.0 0.000833 1050.22046 1222.84814
1261.0 0.000793 1050.28223 1233.87256
1263.0 0.000792 1050.34412 1246.01013
1242.0 0.000805 1050.40601 1259.43396
1275.0 0.000784 1050.46814 1274.29883
1299.0 0.000770 1050.53027 1290.86011
1326.0 0.000754 1050.59253 1309.34399
1371.0 0.000729 1050.65503 1330.08691
1320.0 0.000758 1050.71765 1353.50244
1386.0 0.000722 1050.77991 1380.00842
1441.0 0.000694 1050.84290 1410.24731
1554.0 0.000644 1050.90576 1444.87061
1625.0 0.000615 1050.96863 1484.81567
1567.0 0.000638 1051.03186 1531.29041
1668.0 0.000600 1051.09509 1585.67896
1721.0 0.000581 1051.15857 1650.09119
1808.0 0.000553 1051.22192 1727.10718
1980.0 0.000505 1051.28564 1820.70642
2074.0 0.000482 1051.34937 1936.87415
2147.0 0.000466 1051.41321 2084.26758
2340.0 0.000427 1051.47742 2276.84985
2614.0 0.000383 1051.54138 2534.29419
2873.0 0.0003481 1051.60571 2884.87622
3297.0 0.0003033 1051.67017 3365.45947
3824.0 0.0002615 1051.73413 4016.96240
4578.0 0.0002184 1051.79907 4882.38770
5861.0 0.0001706 1051.86353 5987.43799
7662.0 0.0001305 1051.92822 7319.11621
10059.0 0.0000994 1051.99329 8767.62402
12196.0 0.0000820 1052.05835 10044.76953
12928.0 0.0000774 1052.12341 10714.69238
11406.0 0.0000877 1052.18872 10465.34766
9551.0 0.0001047 1052.25415 9425.49316
7690.0 0.0001300 1052.31958 8022.50293
6338.0 0.0001578 1052.38513 6631.27539
5135.0 0.0001947 1052.45117 5432.10645
4180.0 0.0002392 1052.51685 4477.62061
3562.0 0.0002807 1052.58301 3753.19849
3137.0 0.0003188 1052.64905 3221.42310
2803.0 0.000357 1052.71497 2841.22070
2576.0 0.000388 1052.78149 2572.97314
2451.0 0.000408 1052.84802 2386.27148
2387.0 0.000419 1052.91431 2258.36914
2273.0 0.000440 1052.98120 2174.58936
2152.0 0.000465 1053.04785 2126.84106
2074.0 0.000482 1053.11499 2111.80591
2126.0 0.000470 1053.18213 2130.74341
2145.0 0.000466 1053.24890 2189.21753
2175.0 0.000460 1053.31653 2297.60254
2225.0 0.000449 1053.38367 2470.49609
2473.0 0.000404 1053.45117 2726.89600
2693.0 0.000371 1053.51868 3086.03271
3004.0 0.0003329 1053.58643 3564.08911
3608.0 0.0002772 1053.65454 4163.39795
4327.0 0.0002311 1053.72241 4847.83740
5307.0 0.0001884 1053.79053 5511.59961
6209.0 0.0001611 1053.85840 5956.33838
6539.0 0.0001529 1053.92688 5985.70459
6354.0 0.0001574 1053.99524 5577.04150
5770.0 0.0001733 1054.06384 4907.96973
4956.0 0.0002018 1054.13257 4184.94287
4070.0 0.0002457 1054.20117 3533.56812
3325.0 0.0003008 1054.27002 2997.59717
2926.0 0.0003418 1054.33923 2578.95850
2506.0 0.000399 1054.40820 2263.45166
2226.0 0.000449 1054.47754 2029.69031
1994.0 0.000502 1054.54663 1857.86963
1917.0 0.000522 1054.61621 1730.39429
1773.0 0.000564 1054.68555 1633.88110
1649.0 0.000606 1054.75525 1559.07751
1545.0 0.000647 1054.82507 1499.39709
1551.0 0.000645 1054.89502 1450.76184
1427.0 0.000701 1054.96509 1410.32178
1412.0 0.000708 1055.03516 1376.16553
1405.0 0.000712 1055.10522 1347.05225
1324.0 0.000755 1055.17590 1321.94751
1287.0 0.000777 1055.24609 1300.17688
1327.0 0.000754 1055.31653 1281.14136
1253.0 0.000798 1055.38745 1264.37390
1266.0 0.000790 1055.45813 1249.55286
1278.0 0.000782 1055.52905 1236.35217
1242.0 0.000805 1055.59985 1224.56458
1164.0 0.000859 1055.67114 1213.97864
1161.0 0.000861 1055.74243 1204.42200
1194.0 0.000838 1055.81372 1195.78101
1230.0 0.000813 1055.88525 1187.92163
1236.0 0.000809 1055.95679 1180.76611
1219.0 0.000820 1056.02844 1174.22388
1189.0 0.000841 1056.10022 1168.21741
1156.0 0.000865 1056.17200 1162.70154
1158.0 0.000864 1056.24426 1157.61108
1179.0 0.000848 1056.31616 1152.91345
1171.0 0.000854 1056.38831 1148.56299
1198.0 0.000835 1056.46069 1144.52148
1200.0 0.000833 1056.53308 1140.76794
1178.0 0.000849 1056.60583 1137.26758
1144.0 0.000874 1056.67847 1134.00488
1105.0 0.000905 1056.75122 1130.95532
1110.0 0.000901 1056.82397 1128.09692
1159.0 0.000863 1056.89709 1125.42041
1158.0 0.000864 1056.97021 1122.90454
1112.0 0.000899 1057.04346 1120.54211
1111.0 0.000900 1057.11658 1118.31812
1074.0 0.000931 1057.19019 1116.21985
1027.0 0.000974 1057.26367 1114.24243
1066.0 0.000938 1057.33740 1112.37231
1066.0 0.000938 1057.41113 1110.60620
1061.0 0.000943 1057.48486 1108.93457
1097.0 0.000912 1057.55884 1107.34900
1143.0 0.000875 1057.63281 1105.84753
1154.0 0.000867 1057.70715 1104.42090
1107.0 0.000903 1057.78137 1103.06738
1052.0 0.000951 1057.85559 1101.78101
1077.0 0.000929 1057.93030 1100.55566
1090.0 0.000917 1058.00488 1099.39075
1089.0 0.000918 1058.07971 1098.27979
1106.0 0.000904 1058.15442 1097.22180
1118.0 0.000894 1058.22937 1096.21289
1110.0 0.000901 1058.30457 1095.24866
1068.0 0.000936 1058.37939 1094.32922
1097.0 0.000912 1058.45483 1093.44983
1038.0 0.000963 1058.53015 1092.60974
1064.0 0.000940 1058.60571 1091.80664
1100.0 0.000909 1058.68127 1091.03711
1069.0 0.000935 1058.75671 1090.30139
1052.0 0.000951 1058.83252 1089.59595
1060.0 0.000943 1058.90845 1088.92065
1060.0 0.000943 1058.98438 1088.27356
1128.0 0.000887 1059.06055 1087.65234
1097.0 0.000912 1059.13660 1087.05701
1079.0 0.000927 1059.21301 1086.48523
1083.0 0.000923 1059.28943 1085.93726
1082.0 0.000924 1059.36584 1085.41077
1093.0 0.000915 1059.44250 1084.90454
1094.0 0.000914 1059.51917 1084.41895
1154.0 0.000867 1059.59595 1083.95178
1077.0 0.000929 1059.67285 1083.50305
1030.0 0.000971 1059.74988 1083.07190
1088.0 0.000919 1059.82703 1082.65674
1019.0 0.000981 1059.90417 1082.25793
1081.0 0.000925 1059.98169 1081.87354
1092.0 0.000916 1060.05920 1081.50439
1064.0 0.000940 1060.13647 1081.14929
1079.0 0.000927 1060.21423 1080.80688
1081.0 0.000925 1060.29199 1080.47791
1084.0 0.000923 1060.37000 1080.16064
1089.0 0.000918 1060.44775 1079.85547
1131.0 0.000884 1060.52563 1079.56189
1129.0 0.000886 1060.60400 1079.27881
1058.0 0.000945 1060.68213 1079.00647
1022.0 0.000978 1060.76038 1078.74365
1041.0 0.000961 1060.83911 1078.49133
1078.0 0.000928 1060.91760 1078.24792
1060.0 0.000943 1060.99622 1078.01331
1016.0 0.000984 1061.07483 1077.66565
1025.0 0.000976 1061.15381 1077.44885
1046.0 0.000956 1061.23267 1077.24036
1054.0 0.000949 1061.31165 1077.03967
1062.0 0.000942 1061.39087 1076.84644
1071.0 0.000934 1061.47009 1076.66028
1073.0 0.000932 1061.54956 1076.48096
1071.0 0.000934 1061.62903 1076.30884
1069.0 0.000935 1061.70837 1076.14294
1059.0 0.000944 1061.78809 1075.98315
1009.0 0.000991 1061.86780 1075.82983
1007.0 0.000993 1061.94775 1075.68225
1026.0 0.000975 1062.02771 1075.54016
1069.0 0.000935 1062.10767 1075.40369
1117.0 0.000895 1062.18774 1075.27246
1064.0 0.000940 1062.26782 1075.14673
1069.0 0.000935 1062.34839 1075.02539
1073.0 0.000932 1062.42883 1074.90955
1049.0 0.000953 1062.50928 1074.79785
1072.0 0.000933 1062.58984 1074.69116
1101.0 0.000908 1062.67053 1074.58862
1088.0 0.000919 1062.75134 1074.49023
1087.0 0.000920 1062.83240 1074.39636
1051.0 0.000951 1062.91345 1074.30615
1060.0 0.000943 1062.99463 1074.22009
1053.0 0.000950 1063.07568 1074.07593
1024.0 0.000977 1063.15698 1073.99756
1010.0 0.000990 1063.23840 1073.92297
1089.0 0.000918 1063.31982 1073.85181
1120.0 0.000893 1063.40149 1073.78394
1030.0 0.000971 1063.48328 1073.71924
1043.0 0.000959 1063.56519 1073.65796
1025.0 0.000976 1063.64685 1073.59973
1066.0 0.000938 1063.72888 1073.54468
1091.0 0.000917 1063.81104 1073.49231
1060.0 0.000943 1063.89294 1073.44275
1056.0 0.000947 1063.97534 1073.39600
1090.0 0.000917 1064.05762 1073.35205
1102.0 0.000907 1064.14001 1073.31079
1036.0 0.000965 1064.22266 1073.27209
1035.0 0.000966 1064.30530 1073.23560
1022.0 0.000978 1064.38794 1073.20190
1032.0 0.000969 1064.47070 1073.17041
1057.0 0.000946 1064.55359 1073.14136
1090.0 0.000917 1064.63672 1073.11438
1070.0 0.000935 1064.71985 1073.08984
1074.0 0.000931 1064.80322 1073.06714
1027.0 0.000974 1064.88623 1073.04688
1026.0 0.000975 1064.96973 1073.02844
1016.0 0.000984 1065.05322 1073.01208
1057.0 0.000946 1065.13660 1072.99768
1076.0 0.000929 1065.22046 1072.98511
1067.0 0.000937 1065.30408 1072.97437
1046.0 0.000956 1065.38806 1072.96558
1031.0 0.000970 1065.47205 1072.95850
1032.0 0.000969 1065.55591 1072.95325
1054.0 0.000949 1065.64001 1072.94946
1075.0 0.000930 1065.72412 1072.94751
1042.0 0.000960 1065.80847 1072.94690
1001.0 0.000999 1065.89282 1072.94812
983.0 0.001017 1065.97742 1072.95105
1016.0 0.000984 1066.06189 1072.95532
1022.0 0.000978 1066.14648 1072.96082
1055.0 0.000948 1066.23108 1072.96802
1092.0 0.000916 1066.31604 1072.97668
1134.0 0.000882 1066.40100 1072.98657
1126.0 0.000888 1066.48608 1072.99792
1048.0 0.000954 1066.57117 1073.01050
1065.0 0.000939 1066.65625 1073.02454
1064.0 0.000940 1066.74170 1073.03967
1020.0 0.000980 1066.82703 1073.05603
1034.0 0.000967 1066.91260 1073.07385
1011.0 0.000989 1066.99792 1073.09265
1005.0 0.000995 1067.08362 1073.11267
1064.0 0.000940 1067.16919 1073.13367
1051.0 0.000951 1067.25513 1073.15601
1063.0 0.000941 1067.34106 1073.17969
1060.0 0.000943 1067.42725 1073.20410
1055.0 0.000948 1067.51306 1073.22961
1012.0 0.000988 1067.59937 1073.25610
1035.0 0.000966 1067.68542 1073.28381
1066.0 0.000938 1067.77185 1073.31226
1052.0 0.000951 1067.85815 1073.34192
1054.0 0.000949 1067.94470 1073.37244
1049.0 0.000953 1068.03137 1073.40405
1066.0 0.000938 1068.11792 1073.43628
1060.0 0.000943 1068.20483 1073.46960
1089.0 0.000918 1068.29138 1073.50391
1093.0 0.000915 1068.37866 1073.53894
1062.0 0.000942 1068.46558 1073.57483
1024.0 0.000977 1068.55261 1073.61157
1030.0 0.000971 1068.63989 1073.64917
1070.0 0.000935 1068.72705 1073.68762
1089.0 0.000918 1068.81433 1073.72693
1051.0 0.000951 1068.90186 1073.76697
1029.0 0.000972 1068.98926 1073.80750
1086.0 0.000921 1069.07690 1073.84912
1087.0 0.000920 1069.16467 1073.89148
1088.0 0.000919 1069.25232 1073.93445
1057.0 0.000946 1069.34033 1073.97827
1080.0 0.000926 1069.42834 1074.02258
1069.0 0.000935 1069.51624 1074.06763
1032.0 0.000969 1069.60437 1074.11340
1013.0 0.000987 1069.69263 1074.15979
1060.0 0.000943 1069.78076 1074.20715
1074.0 0.000931 1069.86926 1074.25488
1083.0 0.000923 1069.95752 1074.30334
1080.0 0.000926 1070.04602 1074.35242
1085.0 0.000922 1070.13452 1074.40210
1063.0 0.000941 1070.22351 1074.45227
1021.0 0.000979 1070.31189 1074.50317
1073.0 0.000932 1070.40088 1074.55457
1068.0 0.000936 1070.48987 1074.60657
1050.0 0.000952 1070.57886 1074.65930
1042.0 0.000960 1070.66809 1074.71252
1069.0 0.000935 1070.75732 1074.76636
1089.0 0.000918 1070.84631 1074.82056
1070.0 0.000935 1070.93591 1074.87537
1070.0 0.000935 1071.02502 1074.93066
1093.0 0.000915 1071.11475 1074.98657
1058.0 0.000945 1071.20410 1075.04297
1061.0 0.000943 1071.29407 1075.09998
1060.0 0.000943 1071.38379 1075.15710
1068.0 0.000936 1071.47327 1075.21484
1094.0 0.000914 1071.56299 1075.27344
1098.0 0.000911 1071.65308 1075.33215
1067.0 0.000937 1071.74329 1075.39172
1054.0 0.000949 1071.83325 1075.45129
1085.0 0.000922 1071.92346 1075.51147
1085.0 0.000922 1072.01379 1075.57227
1077.0 0.000929 1072.10425 1075.63342
1057.0 0.000946 1072.19470 1075.69495
1065.0 0.000939 1072.28503 1075.75684
1058.0 0.000945 1072.37549 1075.81934
1053.0 0.000950 1072.46619 1075.88208
1093.0 0.000915 1072.55688 1075.94531
1078.0 0.000928 1072.64795 1076.00903
1075.0 0.000930 1072.73877 1076.07312
1033.0 0.000968 1072.82947 1076.13733
1009.0 0.000991 1072.92065 1076.20215
1004.0 0.000996 1073.01160 1076.26758
1079.0 0.000927 1073.10303 1076.33313
1100.0 0.000909 1073.19409 1076.39917
1045.0 0.000957 1073.28552 1076.46545
1081.0 0.000925 1073.37708 1076.53235
1028.0 0.000973 1073.46851 1076.59924
1041.0 0.000961 1073.56042 1076.66687
1111.0 0.000900 1073.65173 1076.73450
1117.0 0.000895 1073.74329 1076.80261
1081.0 0.000925 1073.83533 1076.87109
1025.0 0.000976 1073.92700 1076.93994
1037.0 0.000964 1074.01917 1077.00916
1033.0 0.000968 1074.11096 1077.07861
1057.0 0.000946 1074.20313 1077.14832
1116.0 0.000896 1074.29517 1077.21851
1090.0 0.000917 1074.38745 1077.28894
1057.0 0.000946 1074.47974 1077.35974
1043.0 0.000959 1074.57214 1077.43091
1047.0 0.000955 1074.66443 1077.50220
1060.0 0.000943 1074.75708 1077.57397
1087.0 0.000920 1074.84973 1077.64600
1071.0 0.000934 1074.94226 1077.71814
1039.0 0.000962 1075.03467 1077.79089
1050.0 0.000952 1075.12769 1077.86365
1064.0 0.000940 1075.22058 1077.93701
1078.0 0.000928 1075.31372 1078.01038
1071.0 0.000934 1075.40662 1078.08398
1083.0 0.000923 1075.49976 1078.15808
1093.0 0.000915 1075.59302 1078.23218
1065.0 0.000939 1075.68616 1078.30688
1041.0 0.000961 1075.77942 1078.47266
1038.0 0.000963 1075.87268 1078.54834
1084.0 0.000923 1075.96594 1078.62390
1064.0 0.000940 1076.05969 1078.70020
1051.0 0.000951 1076.15308 1078.77661
1092.0 0.000916 1076.24683 1078.85327
1065.0 0.000939 1076.34094 1078.93018
1061.0 0.000943 1076.43433 1079.00720
1059.0 0.000944 1076.52808 1079.08472
1062.0 0.000942 1076.62207 1079.16235
1084.0 0.000923 1076.71594 1079.24048
1074.0 0.000931 1076.81030 1079.31860
1095.0 0.000913 1076.90405 1079.39697
1139.0 0.000878 1076.99829 1079.47559
1106.0 0.000904 1077.09265 1079.55457
1105.0 0.000905 1077.18701 1079.63354
1068.0 0.000936 1077.28149 1079.71313
1058.0 0.000945 1077.37585 1079.79248
1044.0 0.000958 1077.47009 1079.87231
1058.0 0.000945 1077.56494 1079.95227
1026.0 0.000975 1077.65955 1080.03247
1092.0 0.000916 1077.75427 1080.11304
1060.0 0.000943 1077.84900 1080.19360
1032.0 0.000969 1077.94373 1080.27441
1087.0 0.000920 1078.03894 1080.35559
1087.0 0.000920 1078.13367 1080.43701
1089.0 0.000918 1078.22900 1080.51880
1095.0 0.000913 1078.32385 1080.60034
1165.0 0.000858 1078.41907 1080.68213
1118.0 0.000894 1078.51440 1080.76440
1040.0 0.000962 1078.60974 1080.84668
1040.0 0.000962 1078.70496 1080.92932
1064.0 0.000940 1078.80042 1081.01196
1016.0 0.000984 1078.89587 1081.14124
1051.0 0.000951 1078.99146 1081.22461
1059.0 0.000944 1079.08691 1081.30811
1089.0 0.000918 1079.18274 1081.39209
1042.0 0.000960 1079.27844 1081.47595
1096.0 0.000912 1079.37439 1081.56018
1037.0 0.000964 1079.46997 1081.64465
1059.0 0.000944 1079.56592 1081.72913
1065.0 0.000939 1079.66211 1081.81396
1075.0 0.000930 1079.75793 1081.89893
1115.0 0.000897 1079.85413 1081.98401
1103.0 0.000907 1079.95032 1082.06958
1081.0 0.000925 1080.04639 1082.15466
1031.0 0.000970 1080.14282 1082.24036
1079.0 0.000927 1080.23914 1082.32617
1029.0 0.000972 1080.33557 1082.41248
1012.0 0.000988 1080.43213 1082.49854
1064.0 0.000940 1080.52844 1082.58496
1063.0 0.000941 1080.62524 1082.67139
1102.0 0.000907 1080.72168 1082.75818
1082.0 0.000924 1080.81848 1082.84509
1095.0 0.000913 1080.91553 1082.93213
1077.0 0.000929 1081.01208 1083.01929
1117.0 0.000895 1081.10901 1083.10669
1080.0 0.000926 1081.20593 1083.19446
1073.0 0.000932 1081.30310 1083.28198
1079.0 0.000927 1081.40015 1083.36987
1076.0 0.000929 1081.49719 1083.45789
1081.0 0.000925 1081.59436 1083.54626
1081.0 0.000925 1081.69165 1083.63464
1058.0 0.000945 1081.78870 1083.72302
1024.0 0.000977 1081.88635 1083.81189
1025.0 0.000976 1081.98364 1083.90063
1036.0 0.000965 1082.08130 1083.98975
1069.0 0.000935 1082.17871 1084.07874
1080.0 0.000926 1082.27612 1084.16797
1069.0 0.000935 1082.37402 1084.25757
1081.0 0.000925 1082.47144 1084.34729
1077.0 0.000929 1082.56934 1084.43701
1051.0 0.000951 1082.66699 1084.52698
1060.0 0.000943 1082.76489 1084.61682
1102.0 0.000907 1082.86267 1084.70728
1069.0 0.000935 1082.96094 1084.79749
1038.0 0.000963 1083.05908 1084.88806
1046.0 0.000956 1083.15698 1084.97888
1079.0 0.000927 1083.25488 1085.06958
1057.0 0.000946 1083.35315 1085.16064
1076.0 0.000929 1083.45166 1085.25171
1120.0 0.000893 1083.54980 1085.34302
1096.0 0.000912 1083.64807 1085.43433
1060.0 0.000943 1083.74646 1085.52588
1070.0 0.000935 1083.84485 1085.61743
1061.0 0.000943 1083.94348 1085.70947
1085.0 0.000922 1084.04224 1085.80127
1117.0 0.000895 1084.14075 1085.89343
1079.0 0.000927 1084.23938 1085.98547
1087.0 0.000920 1084.33801 1086.07800
1073.0 0.000932 1084.43665 1086.17065
1052.0 0.000951 1084.53589 1086.26318
1052.0 0.000951 1084.63452 1086.35596
1048.0 0.000954 1084.73352 1086.44885
1117.0 0.000895 1084.83228 1086.54175
1084.0 0.000923 1084.93152 1086.63525
1055.0 0.000948 1085.03064 1086.72827
1077.0 0.000929 1085.12964 1086.82214
1129.0 0.000886 1085.22876 1086.91541
1072.0 0.000933 1085.32788 1087.00916
1035.0 0.000966 1085.42725 1087.10303
1100.0 0.000909 1085.52673 1087.19727
1132.0 0.000883 1085.62634 1087.29138
1074.0 0.000931 1085.72546 1087.38550
1096.0 0.000912 1085.82495 1087.48010
1056.0 0.000947 1085.92432 1087.57446
1081.0 0.000925 1086.02417 1087.66919
1024.0 0.000977 1086.12378 1087.76379
1087.0 0.000920 1086.22351 1087.85876
1084.0 0.000923 1086.32324 1087.95386
1115.0 0.000897 1086.42297 1088.04895
1088.0 0.000919 1086.52295 1088.14441
1106.0 0.000904 1086.62268 1088.23962
1125.0 0.000889 1086.72253 1087.61926
1106.0 0.000904 1086.82251 1087.71851
1097.0 0.000912 1086.92261 1087.81775
1065.0 0.000939 1087.02258 1087.91711
1085.0 0.000922 1087.12256 1088.01672
1115.0 0.000897 1087.22278 1088.11646
1100.0 0.000909 1087.32300 1088.21619
1075.0 0.000930 1087.42310 1088.31580
1085.0 0.000922 1087.52356 1088.41577
1090.0 0.000917 1087.62390 1088.51563
1072.0 0.000933 1087.72412 1088.61584
1046.0 0.000956 1087.82458 1088.71619
1067.0 0.000937 1087.92505 1088.81641
1067.0 0.000937 1088.02563 1088.91699
1068.0 0.000936 1088.12598 1089.01758
1087.0 0.000920 1088.22681 1089.11816
1051.0 0.000951 1088.32751 1089.21887
1031.0 0.000970 1088.42822 1089.31982
1056.0 0.000947 1088.52881 1089.42065
1072.0 0.000933 1088.62952 1089.52173
1091.0 0.000917 1088.73047 1089.62280
1076.0 0.000929 1088.83142 1089.72437
1066.0 0.000938 1088.93213 1089.82556
1085.0 0.000922 1089.03333 1089.92712
1121.0 0.000892 1089.13428 1090.02881
1107.0 0.000903 1089.23511 1090.13049
1069.0 0.000935 1089.33643 1089.69312
1068.0 0.000936 1089.43750 1089.79749
1088.0 0.000919 1089.53882 1089.90234
1090.0 0.000917 1089.63977 1090.00696
1095.0 0.000913 1089.74109 1090.11169
1131.0 0.000884 1089.84241 1090.21680
1091.0 0.000917 1089.94373 1090.32166
1085.0 0.000922 1090.04529 1090.42688
1095.0 0.000913 1090.14636 1090.53198
1053.0 0.000950 1090.24805 1090.63733
1054.0 0.000949 1090.34924 1090.74280
1042.0 0.000960 1090.45117 1090.84827
1058.0 0.000945 1090.55273 1090.95398
1081.0 0.000925 1090.65417 1091.05969
1098.0 0.000911 1090.75574 1091.16541
1088.0 0.000919 1090.85754 1091.27124
1097.0 0.000912 1090.95947 1091.37732
1064.0 0.000940 1091.06116 1091.48352
1033.0 0.000968 1091.16284 1091.58984
1098.0 0.000911 1091.26477 1091.69604
1085.0 0.000922 1091.36658 1091.80261
1090.0 0.000917 1091.46851 1091.90906
1072.0 0.000933 1091.57056 1092.01587
1074.0 0.000931 1091.67249 1092.12268
1077.0 0.000929 1091.77441 1092.22949
1045.0 0.000957 1091.87683 1092.33655
1130.0 0.000885 1091.97876 1092.44360
1089.0 0.000918 1092.08105 1092.55115
1051.0 0.000951 1092.18323 1092.65833
1068.0 0.000936 1092.28552 1092.76587
1096.0 0.000912 1092.38770 1092.87354
1055.0 0.000948 1092.48975 1092.98120
1045.0 0.000957 1092.59229 1093.08923
1069.0 0.000935 1092.69470 1093.19714
1034.0 0.000967 1092.79712 1093.30542
1022.0 0.000978 1092.89954 1093.41370
1076.0 0.000929 1093.00195 1093.52197
1091.0 0.000917 1093.10474 1093.63062
1125.0 0.000889 1093.20691 1093.73950
1124.0 0.000890 1093.30957 1093.84827
1064.0 0.000940 1093.41235 1093.95728
1072.0 0.000933 1093.51477 1094.06628
1105.0 0.000905 1093.61743 1094.17578
1108.0 0.000903 1093.72034 1094.28516
1077.0 0.000929 1093.82312 1094.39490
1070.0 0.000935 1093.92590 1094.50452
1092.0 0.000916 1094.02856 1094.61450
1116.0 0.000896 1094.13171 1094.72473
1110.0 0.000901 1094.23438 1094.83496
1111.0 0.000900 1094.33752 1094.94543
1084.0 0.000923 1094.44080 1095.05603
1051.0 0.000951 1094.54346 1095.16675
1079.0 0.000927 1094.64636 1095.27795
1068.0 0.000936 1094.74939 1095.38892
1065.0 0.000939 1094.85242 1095.50024
1093.0 0.000915 1094.95581 1095.61194
1094.0 0.000914 1095.05908 1095.72363
1097.0 0.000912 1095.16199 1095.83569
1086.0 0.000921 1095.26514 1095.94775
1124.0 0.000890 1095.36829 1096.06006
1095.0 0.000913 1095.47192 1096.17285
1039.0 0.000962 1095.57520 1096.28577
1050.0 0.000952 1095.67847 1096.39880
1078.0 0.000928 1095.78186 1096.51221
1098.0 0.000911 1095.88525 1096.62561
1049.0 0.000953 1095.98865 1096.73926
1082.0 0.000924 1096.09192 1096.85339
1109.0 0.000902 1096.19556 1096.96777
1135.0 0.000881 1096.29919 1097.08228
1117.0 0.000895 1096.40247 1097.19690
1108.0 0.000903 1096.50623 1097.31201
1176.0 0.000850 1096.60962 1097.42737
1124.0 0.000890 1096.71362 1097.54321
1119.0 0.000894 1096.81726 1097.65906
1112.0 0.000899 1096.92078 1097.77515
1061.0 0.000943 1097.02429 1097.89185
1090.0 0.000917 1097.12830 1098.00879
1110.0 0.000901 1097.23206 1098.12610
1065.0 0.000939 1097.33582 1098.24365
1084.0 0.000923 1097.43958 1098.36145
1101.0 0.000908 1097.54346 1098.47974
1108.0 0.000903 1097.64734 1098.59839
1042.0 0.000960 1097.75146 1098.71753
1023.0 0.000978 1097.85559 1098.83704
1109.0 0.000902 1097.95923 1098.95667
1106.0 0.000904 1098.06311 1099.07690
1081.0 0.000925 1098.16711 1099.19763
1073.0 0.000932 1098.27112 1099.31897
1101.0 0.000908 1098.37549 1099.44043
1070.0 0.000935 1098.47937 1099.56238
1107.0 0.000903 1098.58350 1099.68506
1108.0 0.000903 1098.68762 1099.80798
1098.0 0.000911 1098.79187 1099.93164
1101.0 0.000908 1098.89612 1100.05579
1079.0 0.000927 1099.00024 1100.18042
1101.0 0.000908 1099.10449 1100.30566
1064.0 0.000940 1099.20886 1100.43140
1055.0 0.000948 1099.31311 1100.55811
1124.0 0.000890 1099.41748 1100.68506
1120.0 0.000893 1099.52185 1100.81274
1073.0 0.000932 1099.62610 1100.94128
1067.0 0.000937 1099.73047 1101.07031
1068.0 0.000936 1099.83496 1101.20032
1084.0 0.000923 1099.93921 1101.33105
1080.0 0.000926 1100.04370 1101.46228
1068.0 0.000936 1100.14819 1101.59473
1081.0 0.000925 1100.25281 1101.72778
1096.0 0.000912 1100.35730 1101.86194
1070.0 0.000935 1100.46179 1101.99683
1095.0 0.000913 1100.56628 1102.13257
1073.0 0.000932 1100.67102 1102.26965
1022.0 0.000978 1100.77576 1102.40771
1104.0 0.000906 1100.88025 1102.54675
1119.0 0.000894 1100.98474 1102.68689
1080.0 0.000926 1101.08960 1102.82837
1057.0 0.000946 1101.19434 1102.97083
1076.0 0.000929 1101.29919 1103.11487
1072.0 0.000933 1101.40393 1103.26025
1085.0 0.000922 1101.50818 1103.40662
1096.0 0.000912 1101.61328 1103.55493
1061.0 0.000943 1101.71802 1103.70459
1131.0 0.000884 1101.82300 1103.85596
1129.0 0.000886 1101.92773 1104.00903
1111.0 0.000900 1102.03259 1104.16370
1068.0 0.000936 1102.13733 1104.32031
1078.0 0.000928 1102.24243 1104.47913
1115.0 0.000897 1102.34717 1104.63977
1104.0 0.000906 1102.45203 1104.80286
1124.0 0.000890 1102.55713 1104.96765
1112.0 0.000899 1102.66199 1105.13513
1095.0 0.000913 1102.76697 1105.30542
1024.0 0.000977 1102.87219 1105.47803
1063.0 0.000941 1102.97705 1105.65369
1044.0 0.000958 1103.08215 1105.83203
1134.0 0.000882 1103.18726 1106.01367
1161.0 0.000861 1103.29224 1106.19873
1097.0 0.000912 1103.39722 1106.38721
1122.0 0.000891 1103.50256 1106.57959
1166.0 0.000858 1103.60754 1106.77551
1127.0 0.000887 1103.71277 1107.21509
1114.0 0.000898 1103.81812 1107.42090
1086.0 0.000921 1103.92310 1107.63123
1117.0 0.000895 1104.02832 1107.84680
1037.0 0.000964 1104.13354 1108.06750
1056.0 0.000947 1104.23865 1108.29407
1105.0 0.000905 1104.34412 1108.52710
1149.0 0.000870 1104.44910 1108.76624
1118.0 0.000894 1104.55432 1109.01270
1105.0 0.000905 1104.65979 1109.26672
1124.0 0.000890 1104.76501 1109.52856
1097.0 0.000912 1104.87024 1109.79944
1146.0 0.000873 1104.97559 1110.07947
1125.0 0.000889 1105.08105 1110.36963
1105.0 0.000905 1105.18616 1110.67078
1108.0 0.000903 1105.29187 1110.98376
1103.0 0.000907 1105.39722 1111.30957
1082.0 0.000924 1105.50256 1111.64917
1102.0 0.000907 1105.60803 1112.00415
1093.0 0.000915 1105.71326 1112.37524
1094.0 0.000914 1105.81885 1112.76416
1052.0 0.000951 1105.92444 1113.17334
1074.0 0.000931 1106.02954 1113.60339
1135.0 0.000881 1106.13538 1114.05774
1148.0 0.000871 1106.24097 1114.53760
1116.0 0.000896 1106.34619 1115.04590
1112.0 0.000899 1106.45178 1115.58679
1114.0 0.000898 1106.55725 1116.16199
1086.0 0.000921 1106.66284 1116.77747
1085.0 0.000922 1106.76831 1117.43591
1091.0 0.000917 1106.87390 1118.14331
1063.0 0.000941 1106.97949 1118.90649
1089.0 0.000918 1107.08496 1119.73071
1136.0 0.000880 1107.19080 1120.62622
1130.0 0.000885 1107.29614 1121.60059
1107.0 0.000903 1107.40198 1122.66553
1090.0 0.000917 1107.50757 1123.83618
1109.0 0.000902 1107.61304 1125.12537
1142.0 0.000876 1107.71887 1126.55493
1128.0 0.000887 1107.82446 1128.14429
1094.0 0.000914 1107.92993 1129.92297
1170.0 0.000855 1108.03589 1132.05029
1145.0 0.000873 1108.14160 1134.31616
1137.0 0.000880 1108.24731 1136.90063
1135.0 0.000881 1108.35291 1139.86267
1144.0 0.000874 1108.45850 1143.28625
1148.0 0.000871 1108.56433 1147.28125
1168.0 0.000856 1108.67004 1151.97534
1242.0 0.000805 1108.77588 1157.56250
1261.0 0.000793 1108.88171 1164.28589
1151.0 0.000869 1108.98730 1172.53113
1150.0 0.000870 1109.09314 1182.91858
1267.0 0.000789 1109.19897 1196.44946
1246.0 0.000803 1109.30493 1214.91455
1284.0 0.000779 1109.41052 1241.17834
1311.0 0.000763 1109.51624 1279.70410
1393.0 0.000718 1109.62207 1336.61780
1442.0 0.000693 1109.72766 1418.78284
1617.0 0.000618 1109.83398 1532.61877
1718.0 0.000582 1109.93982 1680.28357
1927.0 0.000519 1110.04529 1855.29053
2269.0 0.000441 1110.15125 2032.96875
2493.0 0.000401 1110.25732 2161.09326
2612.0 0.000383 1110.36304 2180.37671
2448.0 0.000408 1110.46887 2080.17505
2269.0 0.000441 1110.57446 1911.59668
2069.0 0.000483 1110.68054 1732.73987
1874.0 0.000534 1110.78674 1576.51306
1721.0 0.000581 1110.89246 1453.44226
1631.0 0.000613 1110.99841 1363.38306
1565.0 0.000639 1111.10400 1300.70837
1466.0 0.000682 1111.21008 1258.39941
1453.0 0.000688 1111.31592 1230.12122
1377.0 0.000726 1111.42188 1210.87231
1278.0 0.000782 1111.52795 1197.38330
1284.0 0.000779 1111.63354 1187.59985
1275.0 0.000784 1111.73975 1180.33850
1228.0 0.000814 1111.84558 1174.94312
1202.0 0.000832 1111.95154 1171.00842
1207.0 0.000829 1112.05750 1168.31165
1201.0 0.000833 1112.16345 1166.71606
1175.0 0.000851 1112.26941 1166.16687
1194.0 0.000838 1112.37524 1166.68298
1191.0 0.000840 1112.48145 1168.37402
1221.0 0.000819 1112.58716 1171.48132
1211.0 0.000826 1112.69312 1176.48035
1195.0 0.000837 1112.79919 1184.23975
1212.0 0.000825 1112.90515 1196.18469
1276.0 0.000784 1113.01111 1214.55127
1316.0 0.000760 1113.11719 1242.27380
1290.0 0.000775 1113.22302 1282.75903
1256.0 0.000796 1113.32910 1339.03247
1308.0 0.000765 1113.43494 1411.98608
1464.0 0.000683 1113.54114 1498.29822
1498.0 0.000668 1113.64685 1585.25696
1598.0 0.000626 1113.75305 1647.41479
1704.0 0.000587 1113.85876 1655.86267
1801.0 0.000555 1113.96497 1605.63940
1766.0 0.000566 1114.07092 1521.56165
1742.0 0.000574 1114.17688 1432.34814
1646.0 0.000608 1114.28284 1353.95056
1555.0 0.000643 1114.38892 1291.79065
1501.0 0.000666 1114.49500 1245.92505
1341.0 0.000746 1114.60107 1213.63696
1302.0 0.000768 1114.70679 1191.59985
1280.0 0.000781 1114.81274 1176.59729
1202.0 0.000832 1114.91882 1166.15564
1188.0 0.000842 1115.02466 1158.61707
1203.0 0.000831 1115.13074 1152.91724
1221.0 0.000819 1115.23694 1148.45007
1201.0 0.000833 1115.34277 1144.84436
1167.0 0.000857 1115.44885 1141.87427
1168.0 0.000856 1115.55481 1139.40002
1188.0 0.000842 1115.66101 1137.31201
1159.0 0.000863 1115.76672 1135.53979
1146.0 0.000873 1115.87268 1134.02283
1128.0 0.000887 1115.97864 1132.71448
1118.0 0.000894 1116.08472 1131.58252
1119.0 0.000894 1116.19080 1130.59607
1157.0 0.000864 1116.29639 1129.73450
1130.0 0.000885 1116.40247 1128.97827
1175.0 0.000851 1116.50879 1128.31140
1142.0 0.000876 1116.61487 1127.72290
1124.0 0.000890 1116.72083 1127.20117
1097.0 0.000912 1116.82642 1126.73840
1092.0 0.000916 1116.93250 1126.32727
1120.0 0.000893 1117.03857 1125.96069
1127.0 0.000887 1117.14465 1125.63489
1118.0 0.000894 1117.25037 1125.34351
1098.0 0.000911 1117.35657 1125.08459
1074.0 0.000931 1117.46228 1124.85315
1100.0 0.000909 1117.56836 1124.64722
1122.0 0.000891 1117.67419 1124.46399
1116.0 0.000896 1117.78027 1124.30115
1086.0 0.000921 1117.88623 1124.15698
1114.0 0.000898 1117.99207 1124.02979
1144.0 0.000874 1118.09790 1123.91772
1108.0 0.000903 1118.20398 1123.81958
1115.0 0.000897 1118.30994 1123.73438
1114.0 0.000898 1118.41577 1123.66052
1111.0 0.000900 1118.52185 1123.59778
1096.0 0.000912 1118.62756 1123.54492
1059.0 0.000944 1118.73328 1123.50098
1115.0 0.000897 1118.83936 1123.46558
1108.0 0.000903 1118.94568 1123.43799
1153.0 0.000867 1119.05127 1123.41748
1161.0 0.000861 1119.15723 1123.40393
1168.0 0.000856 1119.26294 1123.39624
1117.0 0.000895 1119.36865 1123.39478
1135.0 0.000881 1119.47461 1123.39832
1103.0 0.000907 1119.58057 1123.40735
1120.0 0.000893 1119.68665 1123.42090
1053.0 0.000950 1119.79224 1123.43872
1027.0 0.000974 1119.89819 1123.46082
1078.0 0.000928 1120.00403 1123.48682
1098.0 0.000911 1120.10962 1123.51636
1117.0 0.000895 1120.21558 1123.54968
1087.0 0.000920 1120.32153 1123.58594
1083.0 0.000923 1120.42749 1123.62524
1122.0 0.000891 1120.53320 1123.66760
1099.0 0.000910 1120.63892 1123.71240
1107.0 0.000903 1120.74512 1123.76025
1050.0 0.000952 1120.85046 1123.81018
1133.0 0.000883 1120.95642 1123.86243
1108.0 0.000903 1121.06201 1123.91699
1057.0 0.000946 1121.16797 1123.97351
1204.0 0.000831 1121.27344 1124.03186
1150.0 0.000870 1121.37952 1124.09253
1145.0 0.000873 1121.48523 1124.15479
1172.0 0.000853 1121.59106 1124.21875
1101.0 0.000908 1121.69641 1124.28394
1093.0 0.000915 1121.80225 1124.35120
1164.0 0.000859 1121.90808 1124.41968
1145.0 0.000873 1122.01392 1124.48950
1126.0 0.000888 1122.11951 1124.56091
1118.0 0.000894 1122.22522 1124.63330
1114.0 0.000898 1122.33093 1124.70715
1103.0 0.000907 1122.43652 1124.78198
1080.0 0.000926 1122.54248 1124.85828
1122.0 0.000891 1122.64783 1124.93518
1139.0 0.000878 1122.75342 1125.01318
1124.0 0.000890 1122.85901 1125.09241
1095.0 0.000913 1122.96497 1125.17261
1087.0 0.000920 1123.07019 1125.25342
1095.0 0.000913 1123.17590 1125.33521
1151.0 0.000869 1123.28137 1125.41785
1130.0 0.000885 1123.38733 1125.50134
1121.0 0.000892 1123.49243 1125.58557
1153.0 0.000867 1123.59839 1125.67065
1104.0 0.000906 1123.70374 1125.75647
1094.0 0.000914 1123.80945 1125.84277
1104.0 0.000906 1123.91479 1125.92993
1103.0 0.000907 1124.02051 1126.01758
1103.0 0.000907 1124.12622 1126.10608
1085.0 0.000922 1124.23145 1126.19482
1074.0 0.000931 1124.33679 1126.28442
1060.0 0.000943 1124.44238 1126.37451
1079.0 0.000927 1124.54785 1126.46521
1087.0 0.000920 1124.65320 1126.55627
1111.0 0.000900 1124.75879 1126.64795
1155.0 0.000866 1124.86426 1126.74011
1164.0 0.000859 1124.96973 1126.83289
1122.0 0.000891 1125.07520 1126.92566
1126.0 0.000888 1125.18079 1127.01929
1139.0 0.000878 1125.28601 1127.11316
1108.0 0.000903 1125.39148 1127.20752
1096.0 0.000912 1125.49683 1127.30237
1110.0 0.000901 1125.60193 1127.39758
1129.0 0.000886 1125.70764 1127.49316
1072.0 0.000933 1125.81262 1127.58887
1147.0 0.000872 1125.91821 1127.68518
1102.0 0.000907 1126.02344 1127.78186
1093.0 0.000915 1126.12878 1127.87891
1115.0 0.000897 1126.23425 1127.97607
1089.0 0.000918 1126.33936 1128.07385
1114.0 0.000898 1126.44470 1128.17163
1105.0 0.000905 1126.54993 1128.26990
1059.0 0.000944 1126.65503 1128.36841
1131.0 0.000884 1126.76038 1128.46729
1119.0 0.000894 1126.86548 1128.56641
1132.0 0.000883 1126.97083 1128.66577
1074.0 0.000931 1127.07605 1128.76538
1138.0 0.000879 1127.18103 1128.86536
1100.0 0.000909 1127.28625 1128.96570
1141.0 0.000876 1127.39160 1129.06604
1121.0 0.000892 1127.49634 1129.16650
1090.0 0.000917 1127.60193 1129.26746
1072.0 0.000933 1127.70679 1129.36865
1105.0 0.000905 1127.81201 1129.47009
1120.0 0.000893 1127.91687 1129.57166
1082.0 0.000924 1128.02222 1129.67346
1075.0 0.000930 1128.12732 1129.77563
1062.0 0.000942 1128.23206 1129.87756
1106.0 0.000904 1128.33728 1129.98035
1137.0 0.000880 1128.44226 1130.08289
1134.0 0.000882 1128.54724 1130.18579
1080.0 0.000926 1128.65198 1130.28894
1121.0 0.000892 1128.75708 1130.39221
1184.0 0.000845 1128.86230 1130.49573
1153.0 0.000867 1128.96704 1130.64136
1075.0 0.000930 1129.07178 1130.74536
1079.0 0.000927 1129.17712 1130.84985
1053.0 0.000950 1129.28174 1130.95410
1042.0 0.000960 1129.38696 1131.05884
1071.0 0.000934 1129.49146 1131.16345
1085.0 0.000922 1129.59668 1131.26843
1105.0 0.000905 1129.70117 1131.37366
1118.0 0.000894 1129.80603 1131.47876
1120.0 0.000893 1129.91113 1131.58435
1117.0 0.000895 1130.01587 1131.68982
1103.0 0.000907 1130.12048 1131.79578
1058.0 0.000945 1130.22510 1131.90161
1075.0 0.000930 1130.33008 1132.00793
1125.0 0.000889 1130.43481 1132.11401
1122.0 0.000891 1130.53943 1132.22046
1132.0 0.000883 1130.64404 1132.32690
1136.0 0.000880 1130.74890 1132.43372
1131.0 0.000884 1130.85352 1132.54041
1157.0 0.000864 1130.95837 1132.64734
1127.0 0.000887 1131.06274 1132.75464
1092.0 0.000916 1131.16748 1132.86206
1071.0 0.000934 1131.27209 1132.96960
1097.0 0.000912 1131.37659 1133.07703
1157.0 0.000864 1131.48120 1133.18506
1153.0 0.000867 1131.58569 1133.29285
1149.0 0.000870 1131.69031 1133.40100
1179.0 0.000848 1131.79480 1133.50903
1109.0 0.000902 1131.89917 1133.61719
1142.0 0.000876 1132.00378 1133.72571
1122.0 0.000891 1132.10828 1133.83459
1075.0 0.000930 1132.21277 1133.94312
1115.0 0.000897 1132.31714 1134.05212
1102.0 0.000907 1132.42163 1134.16101
1104.0 0.000906 1132.52600 1134.27014
1111.0 0.000900 1132.63013 1134.37952
1121.0 0.000892 1132.73499 1134.48901
1119.0 0.000894 1132.83911 1134.59851
1069.0 0.000935 1132.94336 1134.70825
1087.0 0.000920 1133.04773 1134.81824
1140.0 0.000877 1133.15222 1134.92822
1084.0 0.000923 1133.25623 1135.03809
1108.0 0.000903 1133.36060 1135.17041
1106.0 0.000904 1133.46472 1135.28101
1087.0 0.000920 1133.56897 1135.39172
1176.0 0.000850 1133.67334 1135.50256
1115.0 0.000897 1133.77747 1135.61353
1115.0 0.000897 1133.88171 1135.72485
1162.0 0.000861 1133.98572 1135.83594
1107.0 0.000903 1134.09021 1135.94739
1113.0 0.000898 1134.19421 1136.05872
1124.0 0.000890 1134.29822 1136.17053
1087.0 0.000920 1134.40234 1136.28235
1097.0 0.000912 1134.50647 1136.39429
1121.0 0.000892 1134.61047 1136.50659
1075.0 0.000930 1134.71472 1136.61877
1108.0 0.000903 1134.81860 1136.73096
1178.0 0.000849 1134.92249 1136.84375
1141.0 0.000876 1135.02637 1136.95642
1150.0 0.000870 1135.13049 1137.06934
1122.0 0.000891 1135.23425 1137.18237
1135.0 0.000881 1135.33826 1137.29553
1146.0 0.000873 1135.44263 1137.40918
1128.0 0.000887 1135.54614 1137.52246
1146.0 0.000873 1135.65039 1137.63611
1093.0 0.000915 1135.75378 1137.74988
1086.0 0.000921 1135.85754 1137.86389
1113.0 0.000898 1135.96143 1137.97815
1084.0 0.000923 1136.06543 1138.09241
1081.0 0.000925 1136.16919 1138.20703
1093.0 0.000915 1136.27295 1138.32166
1121.0 0.000892 1136.37634 1138.43640
1106.0 0.000904 1136.48035 1138.55151
1097.0 0.000912 1136.58386 1138.66626
1130.0 0.000885 1136.68762 1138.78198
1133.0 0.000883 1136.79138 1138.89746
1121.0 0.000892 1136.89502 1139.01306
1138.0 0.000879 1136.99866 1139.12903
1115.0 0.000897 1137.10205 1139.24500
1091.0 0.000917 1137.20593 1139.36157
1076.0 0.000929 1137.30945 1139.47791
1081.0 0.000925 1137.41272 1139.59412
1088.0 0.000919 1137.51624 1139.71118
1086.0 0.000921 1137.62000 1139.82837
1117.0 0.000895 1137.72351 1139.94556
1136.0 0.000880 1137.82715 1140.06311
1106.0 0.000904 1137.93030 1140.18042
1061.0 0.000943 1138.03381 1140.29846
1042.0 0.000960 1138.13708 1140.41638
1057.0 0.000946 1138.24060 1140.53479
1062.0 0.000942 1138.34375 1140.65308
1068.0 0.000936 1138.44727 1140.77209
1135.0 0.000881 1138.55066 1140.89099
1135.0 0.000881 1138.65405 1141.01013
1162.0 0.000861 1138.75732 1141.12939
1174.0 0.000852 1138.86047 1141.24890
1144.0 0.000874 1138.96375 1141.36890
1162.0 0.000861 1139.06702 1141.48901
1110.0 0.000901 1139.17029 1141.60925
1144.0 0.000874 1139.27332 1141.72986
1114.0 0.000898 1139.37671 1141.85083
1179.0 0.000848 1139.47974 1141.97168
1128.0 0.000887 1139.58301 1142.09338
1147.0 0.000872 1139.68604 1142.21472
1136.0 0.000880 1139.78931 1142.33691
1112.0 0.000899 1139.89197 1142.45898
1149.0 0.000870 1139.99536 1142.58154
1105.0 0.000905 1140.09839 1142.70422
1135.0 0.000881 1140.20142 1142.82727
1104.0 0.000906 1140.30420 1142.95068
1098.0 0.000911 1140.40710 1143.07422
1093.0 0.000915 1140.51001 1143.19800
1076.0 0.000929 1140.61304 1143.32239
1108.0 0.000903 1140.71619 1143.44702
1137.0 0.000880 1140.81909 1143.57202
1110.0 0.000901 1140.92163 1143.69690
1108.0 0.000903 1141.02478 1143.82263
1138.0 0.000879 1141.12769 1143.94861
1099.0 0.000910 1141.23035 1144.07458
1107.0 0.000903 1141.33313 1144.20142
1127.0 0.000887 1141.43591 1144.32825
1128.0 0.000887 1141.53870 1144.45532
1146.0 0.000873 1141.64124 1144.58313
1144.0 0.000874 1141.74414 1144.71130
1111.0 0.000900 1141.84680 1144.83972
1092.0 0.000916 1141.94946 1144.96863
1112.0 0.000899 1142.05176 1145.09766
1093.0 0.000915 1142.15466 1145.22742
1091.0 0.000917 1142.25732 1145.35742
1108.0 0.000903 1142.35999 1145.48816
1119.0 0.000894 1142.46252 1145.61890
1122.0 0.000891 1142.56519 1145.75024
1125.0 0.000889 1142.66748 1145.88245
1132.0 0.000883 1142.77002 1146.01477
1144.0 0.000874 1142.87268 1146.14771
1167.0 0.000857 1142.97498 1146.28052
1152.0 0.000868 1143.07739 1146.41443
1118.0 0.000894 1143.17981 1146.54858
1146.0 0.000873 1143.28223 1146.68335
1177.0 0.000850 1143.38489 1146.81885
1153.0 0.000867 1143.48706 1146.95471
1144.0 0.000874 1143.58936 1147.09094
1139.0 0.000878 1143.69165 1147.22827
1108.0 0.000903 1143.79395 1147.36548
1119.0 0.000894 1143.89612 1147.50391
1148.0 0.000871 1143.99866 1147.64258
1128.0 0.000887 1144.10071 1147.78186
1115.0 0.000897 1144.20325 1147.92188
1160.0 0.000862 1144.30518 1148.06250
1183.0 0.000845 1144.40771 1148.20398
1083.0 0.000923 1144.50928 1148.34570
1089.0 0.000918 1144.61157 1148.48816
1126.0 0.000888 1144.71375 1148.63171
1076.0 0.000929 1144.81567 1148.77576
1118.0 0.000894 1144.91785 1148.92041
1133.0 0.000883 1145.02014 1149.06628
1077.0 0.000929 1145.12195 1149.21252
1149.0 0.000870 1145.22400 1149.35962
1163.0 0.000860 1145.32581 1149.50757
1195.0 0.000837 1145.42810 1149.65649
1146.0 0.000873 1145.52979 1149.80591
1113.0 0.000898 1145.63171 1149.95642
1043.0 0.000959 1145.73376 1150.10815
1054.0 0.000949 1145.83569 1150.26025
1154.0 0.000867 1145.93762 1150.32239
1157.0 0.000864 1146.03943 1150.47717
1121.0 0.000892 1146.14111 1150.63269
1092.0 0.000916 1146.24292 1150.78979
1139.0 0.000878 1146.34448 1150.94739
1120.0 0.000893 1146.44641 1151.10632
1148.0 0.000871 1146.54834 1151.26636
1140.0 0.000877 1146.65015 1151.42737
1134.0 0.000882 1146.75195 1151.58960
1106.0 0.000904 1146.85339 1151.75281
1109.0 0.000902 1146.95520 1151.91760
1101.0 0.000908 1147.05664 1152.08325
1147.0 0.000872 1147.15833 1152.25049
1143.0 0.000875 1147.25989 1152.41882
1121.0 0.000892 1147.36157 1152.58862
1145.0 0.000873 1147.46313 1152.75989
1102.0 0.000907 1147.56470 1152.93250
1133.0 0.000883 1147.66614 1153.10632
1135.0 0.000881 1147.76794 1153.28210
1133.0 0.000883 1147.86914 1153.45923
1146.0 0.000873 1147.97070 1153.63794
1106.0 0.000904 1148.07202 1153.81836
1123.0 0.000890 1148.17346 1154.00024
1155.0 0.000866 1148.27515 1154.18445
1143.0 0.000875 1148.37622 1154.36975
1147.0 0.000872 1148.47754 1154.55737
1178.0 0.000849 1148.57886 1154.74658
1157.0 0.000864 1148.68005 1154.93774
1131.0 0.000884 1148.78149 1155.13135
1137.0 0.000880 1148.88293 1155.32690
1165.0 0.000858 1148.98425 1155.52429
1142.0 0.000876 1149.08533 1155.72424
1161.0 0.000861 1149.18640 1155.92603
1150.0 0.000870 1149.28772 1156.08459
1144.0 0.000874 1149.38892 1156.29138
1112.0 0.000899 1149.48999 1156.50134
1106.0 0.000904 1149.59131 1156.71375
1169.0 0.000855 1149.69214 1156.92859
1126.0 0.000888 1149.79333 1157.14636
1125.0 0.000889 1149.89453 1157.36707
1121.0 0.000892 1149.99548 1157.59094
1099.0 0.000910 1150.09668 1157.81738
1139.0 0.000878 1150.19739 1158.04700
1123.0 0.000890 1150.29834 1158.28040
1159.0 0.000863 1150.39954 1158.51697
1137.0 0.000880 1150.50049 1158.75684
1171.0 0.000854 1150.60168 1159.00073
1141.0 0.000876 1150.70227 1159.24817
1112.0 0.000899 1150.80334 1159.49976
1137.0 0.000880 1150.90393 1159.75500
1179.0 0.000848 1151.00500 1160.01477
1136.0 0.000880 1151.10583 1160.27869
1112.0 0.000899 1151.20667 1160.54724
1117.0 0.000895 1151.30762 1160.82080
1164.0 0.000859 1151.40820 1161.09888
1100.0 0.000909 1151.50903 1161.38245
1115.0 0.000897 1151.60999 1161.67078
1131.0 0.000884 1151.71045 1161.96472
1081.0 0.000925 1151.81116 1162.26465
1146.0 0.000873 1151.91187 1162.57031
1180.0 0.000847 1152.01257 1162.88208
1197.0 0.000835 1152.11340 1163.20081
1179.0 0.000848 1152.21387 1163.52563
1170.0 0.000855 1152.31458 1163.85803
1143.0 0.000875 1152.41504 1164.19702
1146.0 0.000873 1152.51563 1164.54456
1207.0 0.000829 1152.61609 1164.89917
1179.0 0.000848 1152.71692 1165.26257
1141.0 0.000876 1152.81738 1165.63464
1181.0 0.000847 1152.91772 1166.01550
1210.0 0.000826 1153.01831 1166.40637
1172.0 0.000853 1153.11877 1166.80664
1156.0 0.000865 1153.21899 1167.21716
1201.0 0.000833 1153.31970 1167.63928
1175.0 0.000851 1153.41992 1168.07239
1185.0 0.000844 1153.52039 1168.51794
1216.0 0.000822 1153.62073 1168.97546
1187.0 0.000842 1153.72095 1169.44641
1137.0 0.000880 1153.82166 1169.93164
1132.0 0.000883 1153.92175 1170.43079
1141.0 0.000876 1154.02222 1170.94604
1108.0 0.000903 1154.12231 1171.47681
1133.0 0.000883 1154.22253 1172.02454
1192.0 0.000839 1154.32300 1172.59082
1185.0 0.000844 1154.42322 1173.17590
1126.0 0.000888 1154.52332 1173.78125
1127.0 0.000887 1154.62366 1174.40710
1159.0 0.000863 1154.72351 1175.05518
1189.0 0.000841 1154.82397 1175.72815
1219.0 0.000820 1154.92358 1176.42517
1230.0 0.000813 1155.02405 1177.14966
1184.0 0.000845 1155.12402 1177.90149
1188.0 0.000842 1155.22424 1178.68347
1142.0 0.000876 1155.32434 1179.49829
1092.0 0.000916 1155.42444 1180.34595
1168.0 0.000856 1155.52429 1181.23120
1211.0 0.000826 1155.62439 1182.15344
1208.0 0.000828 1155.72449 1183.11743
1184.0 0.000845 1155.82434 1184.12646
1178.0 0.000849 1155.92468 1185.18176
1162.0 0.000861 1156.02441 1186.28845
1171.0 0.000854 1156.12415 1187.44836
1203.0 0.000831 1156.22412 1188.66626
1247.0 0.000802 1156.32422 1189.94861
1215.0 0.000823 1156.42371 1191.29700
1217.0 0.000822 1156.52380 1192.71985
1184.0 0.000845 1156.62366 1194.21985
1134.0 0.000882 1156.72351 1195.80518
1192.0 0.000839 1156.82336 1197.48462
1197.0 0.000835 1156.92322 1199.26257
1168.0 0.000856 1157.02319 1201.15186
1159.0 0.000863 1157.12280 1203.15759
1201.0 0.000833 1157.22253 1205.29321
1171.0 0.000854 1157.32227 1207.57361
1251.0 0.000799 1157.42188 1210.00708
1259.0 0.000794 1157.52173 1212.61438
1258.0 0.000795 1157.62146 1215.40759
1276.0 0.000784 1157.72083 1218.40820
1271.0 0.000787 1157.82080 1221.64294
1245.0 0.000803 1157.92017 1225.12891
1231.0 0.000812 1158.01990 1228.90356
1197.0 0.000835 1158.11938 1232.99084
1205.0 0.000830 1158.21899 1237.43237
1233.0 0.000811 1158.31873 1242.27759
1263.0 0.000792 1158.41821 1247.56592
1260.0 0.000794 1158.51782 1253.36743
1273.0 0.000786 1158.61743 1259.73779
1307.0 0.000765 1158.71655 1266.76282
1295.0 0.000772 1158.81616 1274.54651
1360.0 0.000735 1158.91565 1283.18298
1383.0 0.000723 1159.01526 1292.82642
1354.0 0.000739 1159.11487 1303.61743
1353.0 0.000739 1159.21399 1315.76526
1375.0 0.000727 1159.31384 1329.53503
1358.0 0.000736 1159.41296 1345.21130
1375.0 0.000727 1159.51257 1363.24207
1435.0 0.000697 1159.61169 1384.12878
1513.0 0.000661 1159.71130 1408.62048
1528.0 0.000654 1159.81067 1437.73645
1560.0 0.000641 1159.90991 1472.73376
1600.0 0.000625 1160.00928 1515.44690
1651.0 0.000606 1160.10864 1568.04480
1749.0 0.000572 1160.20764 1633.40503
1830.0 0.000546 1160.30725 1715.03857
1933.0 0.000517 1160.40637 1816.65686
2078.0 0.000481 1160.50598 1942.68896
2259.0 0.000443 1160.60498 2096.95728
2518.0 0.000397 1160.70398 2282.98975
2728.0 0.000367 1160.80359 2502.62549
3101.0 0.0003225 1160.90259 2753.09351
3529.0 0.0002834 1161.00195 3025.51099
4028.0 0.0002483 1161.10107 3298.18335
4430.0 0.0002257 1161.20007 3535.79224
4656.0 0.0002148 1161.29944 3692.87866
4402.0 0.0002272 1161.39856 3730.46948
4004.0 0.0002498 1161.49780 3638.55078
3607.0 0.0002772 1161.59680 3442.32788
3279.0 0.0003050 1161.69568 3186.30615
3036.0 0.0003294 1161.79504 2912.69409
2750.0 0.000364 1161.89380 2651.21997
2523.0 0.000396 1161.99316 2416.62354
2312.0 0.000433 1162.09229 2215.17383
2063.0 0.000485 1162.19128 2046.82129
1907.0 0.000524 1162.29041 1908.87317
1902.0 0.000526 1162.38904 1797.85083
1800.0 0.000556 1162.48853 1709.31775
1651.0 0.000606 1162.58716 1639.41980
1597.0 0.000626 1162.68628 1584.39294
1655.0 0.000604 1162.78516 1541.08704
1597.0 0.000626 1162.88440 1507.08301
1539.0 0.000650 1162.98291 1480.34045
1487.0 0.000672 1163.08215 1459.45422
1469.0 0.000681 1163.18103 1443.32922
1449.0 0.000690 1163.28027 1431.21729
1431.0 0.000699 1163.37891 1422.66162
1452.0 0.000689 1163.47791 1417.36438
1468.0 0.000681 1163.57654 1415.23547
1456.0 0.000687 1163.67578 1416.33472
1500.0 0.000667 1163.77441 1420.91284
1461.0 0.000684 1163.87341 1429.40527
1468.0 0.000681 1163.97217 1442.51013
1537.0 0.000651 1164.07092 1461.13892
1561.0 0.000641 1164.16980 1486.53223
1594.0 0.000627 1164.26880 1520.24792
1626.0 0.000615 1164.36755 1563.97620
1657.0 0.000604 1164.46631 1619.75220
1665.0 0.000601 1164.56519 1689.38708
1754.0 0.000570 1164.66394 1774.61084
1816.0 0.000551 1164.76257 1876.49194
1953.0 0.000512 1164.86133 1994.17224
2116.0 0.000473 1164.96021 2124.31030
2211.0 0.000452 1165.05884 2258.02051
2445.0 0.000409 1165.15759 2380.16406
2719.0 0.000368 1165.25647 2469.80347
2888.0 0.0003463 1165.35522 2506.38647
2906.0 0.0003441 1165.45374 2480.57397
2740.0 0.000365 1165.55273 2399.87183
2578.0 0.000388 1165.65088 2284.11646
2500.0 0.000400 1165.74988 2155.25244
2328.0 0.000430 1165.84851 2030.80090
2149.0 0.000465 1165.94739 1922.09399
2054.0 0.000487 1166.04602 1833.75183
1950.0 0.000513 1166.14453 1769.46509
1936.0 0.000517 1166.24341 1730.49658
1896.0 0.000527 1166.34192 1716.80957
1897.0 0.000527 1166.44067 1726.45215
1996.0 0.000501 1166.53931 1754.58203
2046.0 0.000489 1166.63794 1791.40552
2095.0 0.000477 1166.73633 1820.21033
2155.0 0.000464 1166.83521 1820.71338
2122.0 0.000471 1166.93372 1782.20459
2073.0 0.000482 1167.03223 1712.86890
1918.0 0.000521 1167.13086 1630.79895
1828.0 0.000547 1167.22949 1550.79370
1697.0 0.000589 1167.32800 1481.24707
1728.0 0.000579 1167.42664 1423.93518
1628.0 0.000614 1167.52515 1379.19995
1584.0 0.000631 1167.62378 1345.33533
1523.0 0.000657 1167.72229 1320.10266
1478.0 0.000677 1167.82068 1301.34729
1382.0 0.000724 1167.91956 1287.14929
1397.0 0.000716 1168.01794 1276.12952
1275.0 0.000784 1168.11633 1267.29529
1337.0 0.000748 1168.21484 1260.00452
1306.0 0.000766 1168.31360 1253.87231
1330.0 0.000752 1168.41199 1248.62769
1285.0 0.000778 1168.51074 1244.11511
1267.0 0.000789 1168.60913 1240.21191
1186.0 0.000843 1168.70764 1236.83069
1220.0 0.000820 1168.80603 1233.91870
1261.0 0.000793 1168.90466 1231.42346
1211.0 0.000826 1169.00281 1229.32007
1222.0 0.000818 1169.10168 1227.58545
1221.0 0.000819 1169.20032 1226.21118
1269.0 0.000788 1169.29883 1225.20605
1200.0 0.000833 1169.39722 1224.59033
1171.0 0.000854 1169.49548 1224.41235
1219.0 0.000820 1169.59375 1224.75891
1194.0 0.000838 1169.69226 1225.78271
1224.0 0.000817 1169.79089 1227.73755
1202.0 0.000832 1169.88940 1231.03491
1198.0 0.000835 1169.98816 1236.27112
1236.0 0.000809 1170.08643 1244.26611
1266.0 0.000790 1170.18494 1256.02185
1273.0 0.000786 1170.28320 1272.52490
1257.0 0.000796 1170.38159 1294.60413
1294.0 0.000773 1170.48022 1322.38867
1336.0 0.000749 1170.57861 1354.88342
1384.0 0.000723 1170.67725 1388.93787
1434.0 0.000697 1170.77551 1418.00293
1455.0 0.000687 1170.87415 1433.09692
1470.0 0.000680 1170.97241 1427.79248
1496.0 0.000668 1171.07092 1404.13245
1490.0 0.000671 1171.16943 1370.51453
1465.0 0.000683 1171.26782 1335.26367
1489.0 0.000672 1171.36621 1303.22974
1433.0 0.000698 1171.46460 1276.56616
1376.0 0.000727 1171.56311 1255.62195
1335.0 0.000749 1171.66174 1239.86877
1353.0 0.000739 1171.75989 1228.40771
1358.0 0.000736 1171.85864 1220.17664
1340.0 0.000746 1171.95679 1214.26208
1289.0 0.000776 1172.05554 1209.91907
1287.0 0.000777 1172.15369 1206.62085
1223.0 0.000818 1172.25232 1204.02905
1221.0 0.000819 1172.35083 1201.91858
1207.0 0.000829 1172.44910 1200.15857
1271.0 0.000787 1172.54736 1198.66064
1236.0 0.000809 1172.64624 1197.36694
1197.0 0.000835 1172.74475 1196.24036
1237.0 0.000808 1172.84290 1195.24902
1244.0 0.000804 1172.94141 1194.37292
1241.0 0.000806 1173.03992 1193.59277
1228.0 0.000814 1173.13843 1192.89392
1199.0 0.000834 1173.23669 1192.26563
1168.0 0.000856 1173.33533 1191.69812
1171.0 0.000854 1173.43359 1191.18372
1191.0 0.000840 1173.53210 1190.71594
1229.0 0.000814 1173.63086 1190.28809
1202.0 0.000832 1173.72925 1189.89771
1207.0 0.000829 1173.82764 1189.53857
1202.0 0.000832 1173.92615 1189.20911
1192.0 0.000839 1174.02466 1188.90540
1174.0 0.000852 1174.12305 1188.62488
1193.0 0.000838 1174.22119 1188.36572
1195.0 0.000837 1174.32019 1188.12610
1178.0 0.000849 1174.41882 1187.90417
1131.0 0.000884 1174.51721 1187.69861
1228.0 0.000814 1174.61584 1187.50769
1204.0 0.000831 1174.71436 1187.33057
1182.0 0.000846 1174.81287 1187.16614
1173.0 0.000853 1174.91138 1187.01355
1182.0 0.000846 1175.01001 1186.87207
1179.0 0.000848 1175.10828 1186.74048
1162.0 0.000861 1175.20679 1186.61865
1145.0 0.000873 1175.30542 1186.50549
1209.0 0.000827 1175.40430 1186.40112
1229.0 0.000814 1175.50256 1186.30408
1183.0 0.000845 1175.60120 1186.21484
1169.0 0.000855 1175.69958 1186.13232
1173.0 0.000853 1175.79834 1186.05627
1191.0 0.000840 1175.89685 1185.98645
1202.0 0.000832 1175.99548 1186.13513
1193.0 0.000838 1176.09412 1186.07703
1198.0 0.000835 1176.19287 1186.02429
1225.0 0.000816 1176.29138 1185.97656
1179.0 0.000848 1176.39001 1185.93372
1173.0 0.000853 1176.48865 1185.89526
1183.0 0.000845 1176.58740 1185.86121
1202.0 0.000832 1176.68604 1185.83118
1200.0 0.000833 1176.78455 1185.80493
1178.0 0.000849 1176.88342 1185.78284
1183.0 0.000845 1176.98193 1185.76404
1197.0 0.000835 1177.08069 1185.74890
1213.0 0.000824 1177.17920 1185.73694
1220.0 0.000820 1177.27795 1185.72827
1165.0 0.000858 1177.37659 1185.72229
1128.0 0.000887 1177.47546 1185.71973
1173.0 0.000853 1177.57434 1185.71960
1170.0 0.000855 1177.67285 1185.72241
1167.0 0.000857 1177.77185 1185.72754
1194.0 0.000838 1177.87036 1185.73547
1206.0 0.000829 1177.96899 1185.74561
1216.0 0.000822 1178.06799 1185.75806
1243.0 0.000805 1178.16675 1185.77307
1231.0 0.000812 1178.26550 1185.78979
1193.0 0.000838 1178.36438 1185.80884
1162.0 0.000861 1178.46338 1185.82996
1198.0 0.000835 1178.56201 1185.85303
1214.0 0.000824 1178.66089 1185.87805
1185.0 0.000844 1178.75977 1185.90479
1200.0 0.000833 1178.85864 1185.93311
1201.0 0.000833 1178.95740 1185.96301
1211.0 0.000826 1179.05627 1186.31079
1196.0 0.000836 1179.15515 1186.34485
1105.0 0.000905 1179.25415 1186.38037
1223.0 0.000818 1179.35327 1186.41724
1209.0 0.000827 1179.45190 1186.45605
1200.0 0.000833 1179.55115 1186.49561
1230.0 0.000813 1179.64990 1186.53674
1189.0 0.000841 1179.74915 1186.57947
1154.0 0.000867 1179.84802 1186.62354
1169.0 0.000855 1179.94690 1186.66858
1211.0 0.000826 1180.04614 1186.71484
1217.0 0.000822 1180.14514 1186.76245
1170.0 0.000855 1180.24426 1186.81128
1131.0 0.000884 1180.34302 1186.86121
1156.0 0.000865 1180.44238 1186.91223
1184.0 0.000845 1180.54126 1186.96436
1129.0 0.000886 1180.64063 1187.01721
1174.0 0.000852 1180.73975 1187.07141
1169.0 0.000855 1180.83899 1187.12671
1096.0 0.000912 1180.93799 1187.18286
1150.0 0.000870 1181.03735 1187.23975
1144.0 0.000874 1181.13623 1187.29749
1163.0 0.000860 1181.23547 1187.35669
1171.0 0.000854 1181.33484 1187.41626
1148.0 0.000871 1181.43408 1187.47693
1169.0 0.000855 1181.53333 1187.53845
1157.0 0.000864 1181.63281 1187.60046
1154.0 0.000867 1181.73206 1187.66357
1189.0 0.000841 1181.83118 1188.15295
1192.0 0.000839 1181.93054 1188.21790
1201.0 0.000833 1182.02966 1188.28418
1216.0 0.000822 1182.12915 1188.35107
1185.0 0.000844 1182.22876 1188.41833
1169.0 0.000855 1182.32813 1188.48669
1161.0 0.000861 1182.42725 1188.55542
1160.0 0.000862 1182.52686 1188.62524
1212.0 0.000825 1182.62610 1188.69507
1194.0 0.000838 1182.72583 1188.76587
1168.0 0.000856 1182.82532 1188.83740
1156.0 0.000865 1182.92493 1188.90955
1145.0 0.000873 1183.02454 1188.98230
1174.0 0.000852 1183.12402 1189.05542
1196.0 0.000836 1183.22351 1189.12927
1210.0 0.000826 1183.32300 1189.20386
1198.0 0.000835 1183.42261 1189.27844
1181.0 0.000847 1183.52234 1189.35400
1202.0 0.000832 1183.62207 1189.43005
1210.0 0.000826 1183.72168 1189.50647
1232.0 0.000812 1183.82129 1189.58350
1209.0 0.000827 1183.92114 1189.66113
1192.0 0.000839 1184.02087 1189.73926
1187.0 0.000842 1184.12048 1189.81787
1190.0 0.000840 1184.22058 1189.89685
1160.0 0.000862 1184.32031 1189.97644
1125.0 0.000889 1184.42017 1190.05664
1172.0 0.000853 1184.51978 1190.13660
1158.0 0.000864 1184.62000 1190.21765
1146.0 0.000873 1184.71985 1190.29907
1197.0 0.000835 1184.81970 1190.38049
1133.0 0.000883 1184.91943 1190.46265
1161.0 0.000861 1185.01965 1190.54517
1199.0 0.000834 1185.11975 1190.62805
1175.0 0.000851 1185.21936 1190.71167
1227.0 0.000815 1185.31946 1190.79541
1209.0 0.000827 1185.41980 1190.87952
1207.0 0.000829 1185.52002 1190.96423
1152.0 0.000868 1185.62012 1191.04883
1150.0 0.000870 1185.72021 1191.13416
1109.0 0.000902 1185.82019 1191.21973
1132.0 0.000883 1185.92053 1191.30579
1183.0 0.000845 1186.02051 1191.39197
1175.0 0.000851 1186.12085 1191.47876
1201.0 0.000833 1186.22144 1191.56592
1163.0 0.000860 1186.32166 1191.65356
1146.0 0.000873 1186.42175 1191.74072
1195.0 0.000837 1186.52222 1191.82898
1190.0 0.000840 1186.62244 1191.91724
1190.0 0.000840 1186.72314 1192.00586
1140.0 0.000877 1186.82349 1192.09509
1154.0 0.000867 1186.92395 1192.18433
1205.0 0.000830 1187.02429 1192.27380
1212.0 0.000825 1187.12500 1192.36389
1205.0 0.000830 1187.22571 1192.45422
1255.0 0.000797 1187.32593 1192.54468
1213.0 0.000824 1187.42664 1192.63538
1166.0 0.000858 1187.52722 1192.72644
1142.0 0.000876 1187.62781 1192.81775
1156.0 0.000865 1187.72852 1192.90967
1181.0 0.000847 1187.82935 1193.00171
1188.0 0.000842 1187.92993 1193.09363
1212.0 0.000825 1188.03113 1193.18604
1186.0 0.000843 1188.13147 1193.27881
1145.0 0.000873 1188.23267 1193.37183
1172.0 0.000853 1188.33337 1193.46509
1197.0 0.000835 1188.43433 1193.55884
1193.0 0.000838 1188.53528 1193.65259
1181.0 0.000847 1188.63611 1193.74658
1166.0 0.000858 1188.73743 1193.84094
1206.0 0.000829 1188.83813 1193.93567
1194.0 0.000838 1188.93945 1194.02991
1232.0 0.000812 1189.04028 1194.12524
1241.0 0.000806 1189.14148 1194.22070
1196.0 0.000836 1189.24280 1194.31592
1190.0 0.000840 1189.34399 1194.41187
1197.0 0.000835 1189.44507 1194.50781
1210.0 0.000826 1189.54663 1194.60425
1203.0 0.000831 1189.64746 1194.70032
1196.0 0.000836 1189.74927 1194.79712
1237.0 0.000808 1189.85010 1194.89368
1192.0 0.000839 1189.95154 1194.99109
1202.0 0.000832 1190.05322 1195.08875
1199.0 0.000834 1190.15479 1195.18591
1248.0 0.000801 1190.25623 1195.28394
1212.0 0.000825 1190.35779 1195.38184
1186.0 0.000843 1190.45886 1195.47986
1161.0 0.000861 1190.56091 1195.57861
1218.0 0.000821 1190.66248 1195.67725
1226.0 0.000816 1190.76404 1195.77576
1200.0 0.000833 1190.86584 1195.87500
1139.0 0.000878 1190.96765 1195.97412
1189.0 0.000841 1191.06970 1196.07385
1143.0 0.000875 1191.17114 1196.17310
1237.0 0.000808 1191.27307 1196.27332
1157.0 0.000864 1191.37476 1196.37329
1198.0 0.000835 1191.47681 1196.47351
1189.0 0.000841 1191.57861 1196.57422
1152.0 0.000868 1191.68079 1196.67468
1119.0 0.000894 1191.78308 1196.77576
1137.0 0.000880 1191.88501 1196.87671
1156.0 0.000865 1191.98694 1196.97766
1177.0 0.000850 1192.08923 1197.07947
1206.0 0.000829 1192.19128 1197.18079
1182.0 0.000846 1192.29370 1197.28271
1199.0 0.000834 1192.39587 1197.38477
1258.0 0.000795 1192.49805 1197.48694
1234.0 0.000810 1192.60034 1197.58899
1211.0 0.000826 1192.70300 1197.69177
1145.0 0.000873 1192.80554 1197.79480
1146.0 0.000873 1192.90784 1197.89746
1164.0 0.000859 1193.01038 1198.00049
1176.0 0.000850 1193.11304 1198.10376
1144.0 0.000874 1193.21570 1198.20728
1183.0 0.000845 1193.31812 1198.31091
1223.0 0.000818 1193.42102 1198.41504
1183.0 0.000845 1193.52344 1198.51855
1183.0 0.000845 1193.62634 1198.62305
1172.0 0.000853 1193.72900 1198.72693
1147.0 0.000872 1193.83191 1198.83167
1145.0 0.000873 1193.93494 1198.93665
1178.0 0.000849 1194.03796 1199.04126
1203.0 0.000831 1194.14063 1199.14648
1162.0 0.000861 1194.24390 1199.25171
1149.0 0.000870 1194.34680 1199.35718
1148.0 0.000871 1194.44995 1199.46265
1138.0 0.000879 1194.55310 1199.56848
1199.0 0.000834 1194.65625 1199.67419
1238.0 0.000808 1194.75964 1199.78027
1186.0 0.000843 1194.86279 1199.88660
1166.0 0.000858 1194.96619 1199.99329
1168.0 0.000856 1195.06946 1200.09961
1170.0 0.000855 1195.17297 1200.20654
1199.0 0.000834 1195.27637 1200.31323
1177.0 0.000850 1195.38000 1200.42017
1179.0 0.000848 1195.48340 1200.52771
1200.0 0.000833 1195.58728 1200.63525
1199.0 0.000834 1195.69080 1200.74268
1189.0 0.000841 1195.79443 1200.85034
1193.0 0.000838 1195.89819 1200.95837
1218.0 0.000821 1196.00208 1201.06653
1198.0 0.000835 1196.10559 1201.17468
1150.0 0.000870 1196.20972 1201.28333
1166.0 0.000858 1196.31360 1201.39172
1130.0 0.000885 1196.41760 1201.50061
1155.0 0.000866 1196.52161 1201.60950
1253.0 0.000798 1196.62549 1201.71838
1227.0 0.000815 1196.72998 1201.82788
1122.0 0.000891 1196.83374 1201.93738
1195.0 0.000837 1196.93823 1202.04688
1161.0 0.000861 1197.04236 1202.15649
1169.0 0.000855 1197.14697 1202.26624
1233.0 0.000811 1197.25098 1202.37646
1263.0 0.000792 1197.35559 1202.48682
1184.0 0.000845 1197.46008 1202.59717
1160.0 0.000862 1197.56470 1202.70776
1157.0 0.000864 1197.66895 1202.81812
1162.0 0.000861 1197.77393 1202.92932
1164.0 0.000859 1197.87842 1203.04053
1176.0 0.000850 1197.98328 1203.15173
1228.0 0.000814 1198.08801 1203.26282
1135.0 0.000881 1198.19275 1203.37463
1151.0 0.000869 1198.29797 1203.48645
1221.0 0.000819 1198.40283 1203.59802
1197.0 0.000835 1198.50781 1203.71033
1144.0 0.000874 1198.61243 1203.82214
1158.0 0.000864 1198.71777 1203.93469
1237.0 0.000808 1198.82288 1204.04700
1251.0 0.000799 1198.92834 1204.15979
1184.0 0.000845 1199.03333 1204.27295
1156.0 0.000865 1199.13879 1204.38574
1177.0 0.000850 1199.24402 1204.49890
1212.0 0.000825 1199.34985 1204.61255
1219.0 0.000820 1199.45496 1204.72583
1205.0 0.000830 1199.56067 1204.83936
1226.0 0.000816 1199.66614 1204.95313
1225.0 0.000816 1199.77173 1205.06726
1198.0 0.000835 1199.87744 1205.18140
1189.0 0.000841 1199.98303 1205.29578
1201.0 0.000833 1200.08911 1205.41040
1197.0 0.000835 1200.19507 1205.52502
1183.0 0.000845 1200.30054 1205.63977
1213.0 0.000824 1200.40686 1205.75476
1215.0 0.000823 1200.51270 1205.86987
1211.0 0.000826 1200.61865 1205.98547
1200.0 0.000833 1200.72510 1206.10095
1202.0 0.000832 1200.83130 1206.21631
1193.0 0.000838 1200.93762 1206.33215
1172.0 0.000853 1201.04382 1206.44836
1147.0 0.000872 1201.15051 1206.56458
1182.0 0.000846 1201.25647 1206.68091
1190.0 0.000840 1201.36304 1206.79736
1218.0 0.000821 1201.46985 1206.91406
1204.0 0.000831 1201.57642 1207.03101
1159.0 0.000863 1201.68298 1207.14771
1147.0 0.000872 1201.78967 1207.26514
1128.0 0.000887 1201.89673 1207.38245
1167.0 0.000857 1202.00354 1207.49976
1190.0 0.000840 1202.11035 1207.61768
1195.0 0.000837 1202.21741 1207.73560
1227.0 0.000815 1202.32446 1207.85376
1248.0 0.000801 1202.43152 1207.97192
1247.0 0.000802 1202.53882 1208.09033
1204.0 0.000831 1202.64587 1208.20898
1173.0 0.000853 1202.75330 1208.32788
1178.0 0.000849 1202.86047 1208.44641
1189.0 0.000841 1202.96814 1208.56567
1186.0 0.000843 1203.07544 1208.68481
1183.0 0.000845 1203.18323 1208.80432
1207.0 0.000829 1203.29089 1208.92395
1194.0 0.000838 1203.39844 1209.04382
1174.0 0.000852 1203.50598 1209.16345
1137.0 0.000880 1203.61389 1209.28406
1149.0 0.000870 1203.72168 1209.40442
1225.0 0.000816 1203.82971 1209.52502
1217.0 0.000822 1203.93762 1209.64539
1162.0 0.000861 1204.04578 1209.76624
1164.0 0.000859 1204.15405 1209.88757
1238.0 0.000808 1204.26208 1210.00854
1220.0 0.000820 1204.37036 1210.13025
1165.0 0.000858 1204.47864 1210.25159
1229.0 0.000814 1204.58691 1210.37354
1219.0 0.000820 1204.69519 1210.49524
1177.0 0.000850 1204.80396 1210.61792
1202.0 0.000832 1204.91248 1210.74011
1197.0 0.000835 1205.02148 1210.86267
1192.0 0.000839 1205.12988 1210.98499
1173.0 0.000853 1205.23877 1211.10828
1178.0 0.000849 1205.34741 1211.23120
1194.0 0.000838 1205.45654 1211.35461
1191.0 0.000840 1205.56543 1211.47815
1191.0 0.000840 1205.67468 1211.60156
1201.0 0.000833 1205.78357 1211.72571
1223.0 0.000818 1205.89294 1211.84961
1203.0 0.000831 1206.00232 1211.97388
1240.0 0.000806 1206.11157 1212.09814
1247.0 0.000802 1206.22095 1212.22302
1219.0 0.000820 1206.33020 1212.34778
1180.0 0.000847 1206.44006 1212.47290
1193.0 0.000838 1206.54944 1212.59814
1214.0 0.000824 1206.65942 1212.72363
1214.0 0.000824 1206.76904 1212.84900
1199.0 0.000834 1206.87903 1212.97498
1181.0 0.000847 1206.98853 1213.10107
1178.0 0.000849 1207.09888 1213.22742
1158.0 0.000864 1207.20886 1213.35388
1166.0 0.000858 1207.31909 1213.48047
1158.0 0.000864 1207.42908 1213.60730
1161.0 0.000861 1207.53943 1213.73438
1216.0 0.000822 1207.65015 1213.86182
1226.0 0.000816 1207.76013 1213.98901
1219.0 0.000820 1207.87061 1214.11658
1212.0 0.000825 1207.98120 1214.24463
1205.0 0.000830 1208.09167 1214.37268
1201.0 0.000833 1208.20251 1214.50098
1247.0 0.000802 1208.31335 1214.62952
1184.0 0.000845 1208.42419 1214.75806
1192.0 0.000839 1208.53516 1214.88696
1175.0 0.000851 1208.64600 1215.01599
1199.0 0.000834 1208.75745 1215.14563
1226.0 0.000816 1208.86841 1215.27527
1202.0 0.000832 1208.97961 1215.40515
1207.0 0.000829 1209.09106 1215.53491
1158.0 0.000864 1209.20227 1215.66516
1239.0 0.000807 1209.31372 1215.79578
1255.0 0.000797 1209.42542 1215.92664
1182.0 0.000846 1209.53674 1216.05737
1239.0 0.000807 1209.64893 1216.18872
1204.0 0.000831 1209.76038 1216.31982
1210.0 0.000826 1209.87219 1216.45166
1225.0 0.000816 1209.98413 1216.58337
1296.0 0.000772 1210.09583 1216.71545
1245.0 0.000803 1210.20837 1216.84778
1154.0 0.000867 1210.32043 1216.98022
1158.0 0.000864 1210.43274 1217.11328
1205.0 0.000830 1210.54456 1217.24573
1167.0 0.000857 1210.65747 1217.37927
1164.0 0.000859 1210.76965 1217.51270
1167.0 0.000857 1210.88257 1217.64661
1184.0 0.000845 1210.99487 1217.78064
1173.0 0.000853 1211.10779 1217.91467
1214.0 0.000824 1211.22034 1218.04883
1216.0 0.000822 1211.33337 1218.18384
1179.0 0.000848 1211.44653 1218.31873
1253.0 0.000798 1211.55933 1218.45374
1236.0 0.000809 1211.67249 1218.58911
1226.0 0.000816 1211.78589 1218.72473
1198.0 0.000835 1211.89905 1218.86096
1220.0 0.000820 1212.01245 1218.99683
1199.0 0.000834 1212.12598 1219.13342
1174.0 0.000852 1212.23950 1219.26990
1190.0 0.000840 1212.35303 1219.40686
1212.0 0.000825 1212.46680 1219.54419
1222.0 0.000818 1212.58044 1219.68164
1224.0 0.000817 1212.69434 1219.81958
1213.0 0.000824 1212.80835 1219.95715
1212.0 0.000825 1212.92212 1220.09534
1189.0 0.000841 1213.03650 1220.23401
1175.0 0.000851 1213.15063 1220.37280
1168.0 0.000856 1213.26514 1220.51196
1176.0 0.000850 1213.37964 1220.65112
1225.0 0.000816 1213.49390 1220.79089
1227.0 0.000815 1213.60828 1220.93054
1269.0 0.000788 1213.72290 1221.07104
1239.0 0.000807 1213.83789 1221.21143
1197.0 0.000835 1213.95239 1221.35181
1187.0 0.000842 1214.06750 1221.49292
1197.0 0.000835 1214.18250 1221.63416
1211.0 0.000826 1214.29736 1221.77563
1222.0 0.000818 1214.41248 1221.91785
1217.0 0.000822 1214.52795 1222.05994
1256.0 0.000796 1214.64319 1222.20203
1212.0 0.000825 1214.75879 1222.34509
1200.0 0.000833 1214.87390 1222.48804
1212.0 0.000825 1214.98962 1222.63135
1210.0 0.000826 1215.10522 1222.77490
1220.0 0.000820 1215.22119 1222.91870
1198.0 0.000835 1215.33704 1223.06299
1235.0 0.000810 1215.45288 1223.20752
1220.0 0.000820 1215.56885 1223.35242
1194.0 0.000838 1215.68506 1223.49768
1209.0 0.000827 1215.80139 1223.64307
1202.0 0.000832 1215.91760 1223.78882
1249.0 0.000801 1216.03394 1223.93481
1224.0 0.000817 1216.15063 1224.08130
1219.0 0.000820 1216.26709 1224.22803
1281.0 0.000781 1216.38354 1224.37524
1215.0 0.000823 1216.50049 1224.52258
1214.0 0.000824 1216.61743 1224.67017
1241.0 0.000806 1216.73462 1224.81812
1254.0 0.000797 1216.85120 1224.96619
1248.0 0.000801 1216.96851 1225.11523
1229.0 0.000814 1217.08582 1225.26404
1124.0 0.000890 1217.20313 1225.41357
1198.0 0.000835 1217.32043 1225.56323
1199.0 0.000834 1217.43787 1225.71338
1202.0 0.000832 1217.55542 1225.86340
1233.0 0.000811 1217.67322 1226.01440
1234.0 0.000810 1217.79102 1226.16541
1233.0 0.000811 1217.90894 1226.31689
1219.0 0.000820 1218.02698 1226.46887
1221.0 0.000819 1218.14490 1226.62085
1168.0 0.000856 1218.26331 1226.77356
1205.0 0.000830 1218.38147 1226.92639
1237.0 0.000808 1218.49976 1227.07971
1220.0 0.000820 1218.61816 1227.23303
1178.0 0.000849 1218.73657 1227.38721
1176.0 0.000850 1218.85535 1227.54163
1228.0 0.000814 1218.97412 1227.69641
1224.0 0.000817 1219.09290 1227.61206
1219.0 0.000820 1219.21204 1227.76843
1213.0 0.000824 1219.33081 1227.92480
1221.0 0.000819 1219.45007 1228.08215
1250.0 0.000800 1219.56909 1228.23962
1238.0 0.000808 1219.68872 1228.39771
1251.0 0.000799 1219.80798 1228.55615
1271.0 0.000787 1219.92737 1228.71460
1221.0 0.000819 1220.04712 1228.87390
1186.0 0.000843 1220.16687 1229.03357
1225.0 0.000816 1220.28674 1229.19336
1229.0 0.000814 1220.40649 1229.35376
1211.0 0.000826 1220.52649 1229.51453
1215.0 0.000823 1220.64673 1229.67566
1204.0 0.000831 1220.76685 1229.83765
1180.0 0.000847 1220.88733 1229.99927
1230.0 0.000813 1221.00781 1230.16211
1236.0 0.000809 1221.12805 1230.32483
1186.0 0.000843 1221.24902 1230.48816
1232.0 0.000812 1221.36938 1230.65173
1211.0 0.000826 1221.49036 1230.81616
1187.0 0.000842 1221.61121 1230.98096
1239.0 0.000807 1221.73230 1231.14624
1277.0 0.000783 1221.85327 1231.31165
1255.0 0.000797 1221.97437 1231.47766
1197.0 0.000835 1222.09607 1231.64441
1224.0 0.000817 1222.21729 1231.81140
1215.0 0.000823 1222.33887 1231.97876
1202.0 0.000832 1222.46057 1232.14685
1252.0 0.000799 1222.58203 1232.31519
1244.0 0.000804 1222.70410 1232.48413
1240.0 0.000806 1222.82617 1232.65393
1280.0 0.000781 1222.94788 1232.82312
1249.0 0.000801 1223.07031 1232.99390
1199.0 0.000834 1223.19238 1233.16492
1214.0 0.000824 1223.31482 1233.33643
1197.0 0.000835 1223.43726 1233.50818
1206.0 0.000829 1223.55994 1233.68066
1193.0 0.000838 1223.68250 1233.85376
1227.0 0.000815 1223.80530 1234.02734
1173.0 0.000853 1223.92834 1234.20129
1281.0 0.000781 1224.05127 1234.22083
1230.0 0.000813 1224.17407 1234.39624
1194.0 0.000838 1224.29736 1234.57263
1196.0 0.000836 1224.42065 1234.74951
1233.0 0.000811 1224.54419 1234.92700
1265.0 0.000791 1224.66760 1235.10461
1240.0 0.000806 1224.79126 1235.28320
1245.0 0.000803 1224.91516 1235.46252
1285.0 0.000778 1225.03870 1235.64197
1247.0 0.000802 1225.16284 1235.82251
1216.0 0.000822 1225.28687 1236.00305
1227.0 0.000815 1225.41101 1236.18457
1262.0 0.000792 1225.53540 1236.36646
1281.0 0.000781 1225.65979 1236.54919
1250.0 0.000800 1225.78442 1236.73254
1254.0 0.000797 1225.90894 1236.91650
1210.0 0.000826 1226.03357 1237.10071
1208.0 0.000828 1226.15845 1237.28625
1245.0 0.000803 1226.28333 1237.47205
1238.0 0.000808 1226.40833 1237.65845
1177.0 0.000850 1226.53333 1237.84546
1166.0 0.000858 1226.65881 1238.03333
1167.0 0.000857 1226.78442 1238.22192
1211.0 0.000826 1226.90967 1238.41089
1241.0 0.000806 1227.03540 1238.60083
1252.0 0.000799 1227.16101 1238.79126
1269.0 0.000788 1227.28674 1238.98230
1244.0 0.000804 1227.41260 1239.17432
1204.0 0.000831 1227.53894 1239.36719
1226.0 0.000816 1227.66504 1239.56055
1260.0 0.000794 1227.79138 1239.75452
1255.0 0.000797 1227.91724 1239.94910
1225.0 0.000816 1228.04419 1240.14502
1237.0 0.000808 1228.17078 1240.34119
1292.0 0.000774 1228.29761 1240.53833
1256.0 0.000796 1228.42432 1240.73633
1176.0 0.000850 1228.55103 1240.93481
1210.0 0.000826 1228.67847 1241.13440
1230.0 0.000813 1228.80554 1241.33459
1225.0 0.000816 1228.93286 1241.53589
1234.0 0.000810 1229.06018 1241.73743
1215.0 0.000823 1229.18750 1241.94031
1241.0 0.000806 1229.31519 1242.14404
1230.0 0.000813 1229.44312 1242.34814
1203.0 0.000831 1229.57068 1242.55359
1216.0 0.000822 1229.69885 1242.75989
1242.0 0.000805 1229.82690 1242.96667
1252.0 0.000799 1229.95520 1243.17456
1239.0 0.000807 1230.08325 1243.38342
1191.0 0.000840 1230.21204 1243.59338
1268.0 0.000789 1230.34045 1243.82739
1223.0 0.000818 1230.46936 1244.03906
1247.0 0.000802 1230.59802 1244.25183
1215.0 0.000823 1230.72693 1244.46509
1233.0 0.000811 1230.85596 1244.67969
1261.0 0.000793 1230.98511 1244.89526
1243.0 0.000805 1231.11438 1245.11182
1210.0 0.000826 1231.24390 1245.32935
1253.0 0.000798 1231.37317 1245.54797
1289.0 0.000776 1231.50317 1245.76758
1253.0 0.000798 1231.63269 1245.98828
1271.0 0.000787 1231.76233 1246.20972
1284.0 0.000779 1231.89246 1246.43274
1272.0 0.000786 1232.02246 1246.65649
1247.0 0.000802 1232.15271 1246.88159
1244.0 0.000804 1232.28308 1247.10730
1228.0 0.000814 1232.41382 1247.33472
1274.0 0.000785 1232.54431 1247.56299
1300.0 0.000769 1232.67493 1247.79248
1255.0 0.000797 1232.80591 1248.02332
1267.0 0.000789 1232.93665 1248.25500
1225.0 0.000816 1233.06738 1248.48804
1241.0 0.000806 1233.19897 1248.72253
1242.0 0.000805 1233.33020 1248.95801
1249.0 0.000801 1233.46155 1249.19495
1245.0 0.000803 1233.59302 1249.43298
1256.0 0.000796 1233.72485 1249.67236
1231.0 0.000812 1233.85693 1249.91296
1235.0 0.000810 1233.98853 1250.15503
1276.0 0.000784 1234.12085 1250.39856
1281.0 0.000781 1234.25269 1250.64319
1260.0 0.000794 1234.38501 1250.88916
1245.0 0.000803 1234.51721 1251.13696
1250.0 0.000800 1234.64990 1251.38574
1248.0 0.000801 1234.78259 1251.63647
1260.0 0.000794 1234.91528 1251.88831
1262.0 0.000792 1235.04810 1252.14148
1261.0 0.000793 1235.18127 1252.39673
1248.0 0.000801 1235.31409 1252.65295
1226.0 0.000816 1235.44763 1252.91125
1243.0 0.000805 1235.58105 1253.17090
1227.0 0.000815 1235.71460 1253.43201
1241.0 0.000806 1235.84790 1253.69470
1263.0 0.000792 1235.98193 1253.97119
1248.0 0.000801 1236.11597 1254.23767
1254.0 0.000797 1236.24988 1254.50549
1267.0 0.000789 1236.38391 1254.77515
1287.0 0.000777 1236.51831 1255.04675
1225.0 0.000816 1236.65283 1255.31970
1179.0 0.000848 1236.78711 1255.59497
1238.0 0.000808 1236.92200 1255.87195
1291.0 0.000775 1237.05664 1256.15051
1322.0 0.000756 1237.19177 1256.43127
1242.0 0.000805 1237.32666 1256.71362
1255.0 0.000797 1237.46167 1256.99854
1260.0 0.000794 1237.59717 1257.28516
1231.0 0.000812 1237.73254 1257.57361
1319.0 0.000758 1237.86804 1257.86438
1246.0 0.000803 1238.00354 1258.15723
1160.0 0.000862 1238.13977 1258.45239
1240.0 0.000806 1238.27551 1258.74927
1267.0 0.000789 1238.41138 1259.04822
1294.0 0.000773 1238.54761 1259.35022
1227.0 0.000815 1238.68372 1259.65393
1279.0 0.000782 1238.82043 1259.96033
1287.0 0.000777 1238.95715 1260.26880
1250.0 0.000800 1239.09351 1260.57971
1265.0 0.000791 1239.23047 1260.89294
1216.0 0.000822 1239.36743 1261.20874
1282.0 0.000780 1239.50464 1261.52771
1226.0 0.000816 1239.64185 1261.84839
1277.0 0.000783 1239.77893 1262.17175
1283.0 0.000779 1239.91650 1262.49829
1302.0 0.000768 1240.05408 1262.82715
1258.0 0.000795 1240.19189 1263.15906
1278.0 0.000782 1240.32983 1263.49377
1251.0 0.000799 1240.46777 1263.83081
1278.0 0.000782 1240.60608 1264.17163
1262.0 0.000792 1240.74426 1264.51477
1257.0 0.000796 1240.88257 1264.86145
1297.0 0.000771 1241.02100 1265.21069
1287.0 0.000777 1241.15979 1265.56323
1262.0 0.000792 1241.29871 1265.91956
1273.0 0.000786 1241.43762 1266.27820
1259.0 0.000794 1241.57666 1266.64111
1232.0 0.000812 1241.71594 1267.00684
1252.0 0.000799 1241.85535 1267.37622
1274.0 0.000785 1241.99438 1267.74902
1284.0 0.000779 1242.13440 1268.12524
1241.0 0.000806 1242.27405 1268.50562
1239.0 0.000807 1242.41394 1268.88965
1255.0 0.000797 1242.55371 1269.27686
1253.0 0.000798 1242.69397 1269.66882
1270.0 0.000787 1242.83435 1270.06470
1273.0 0.000786 1242.97461 1270.46436
1224.0 0.000817 1243.11523 1270.86792
1264.0 0.000791 1243.25586 1271.27588
1330.0 0.000752 1243.39661 1271.68860
1319.0 0.000758 1243.53748 1272.10486
1284.0 0.000779 1243.67883 1272.52649
1250.0 0.000800 1243.81958 1272.95215
1228.0 0.000814 1243.96094 1273.38269
1196.0 0.000836 1244.10242 1273.81812
1218.0 0.000821 1244.24426 1274.25806
1255.0 0.000797 1244.38623 1274.70386
1272.0 0.000786 1244.52795 1275.15393
1293.0 0.000773 1244.66992 1275.60925
1278.0 0.000782 1244.81213 1276.07068
1268.0 0.000789 1244.95422 1276.53674
1282.0 0.000780 1245.09680 1277.00916
1244.0 0.000804 1245.23938 1277.48669
1348.0 0.000742 1245.38196 1277.97009
1334.0 0.000750 1245.52515 1278.45996
1309.0 0.000764 1245.66785 1278.95544
1319.0 0.000758 1245.81104 1279.45764
1168.0 0.000856 1245.95447 1279.96570
1248.0 0.000801 1246.09766 1280.48071
1306.0 0.000766 1246.24121 1281.00256
1308.0 0.000765 1246.38477 1281.53076
1288.0 0.000776 1246.52869 1282.06665
1307.0 0.000765 1246.67285 1282.60938
1279.0 0.000782 1246.81665 1283.15918
1290.0 0.000775 1246.96118 1283.71729
1298.0 0.000770 1247.10535 1284.28284
1331.0 0.000751 1247.24988 1284.85657
1334.0 0.000750 1247.39441 1285.43787
1296.0 0.000772 1247.53931 1286.02759
1295.0 0.000772 1247.68445 1286.62659
1250.0 0.000800 1247.82947 1287.23376
1270.0 0.000787 1247.97461 1287.85059
1339.0 0.000747 1248.11987 1288.47595
1244.0 0.000804 1248.26550 1289.11096
1263.0 0.000792 1248.41089 1289.75623
1272.0 0.000786 1248.55676 1290.41125
1298.0 0.000770 1248.70264 1291.07690
1308.0 0.000765 1248.84912 1291.75256
1293.0 0.000773 1248.99463 1292.43896
1281.0 0.000781 1249.14124 1293.13721
1312.0 0.000762 1249.28772 1293.84607
1294.0 0.000773 1249.43457 1294.56775
1292.0 0.000774 1249.58105 1295.30066
1322.0 0.000756 1249.72803 1296.04614
1347.0 0.000742 1249.87524 1296.80518
1323.0 0.000756 1250.02209 1297.57690
1336.0 0.000749 1250.16956 1298.36255
1393.0 0.000718 1250.31702 1299.16162
1349.0 0.000741 1250.46448 1299.97473
1327.0 0.000754 1250.61218 1300.80371
1352.0 0.000740 1250.76025 1301.64722
1352.0 0.000740 1250.90820 1302.50745
1353.0 0.000739 1251.05664 1303.38281
1366.0 0.000732 1251.20496 1304.27478
1386.0 0.000722 1251.35352 1305.18506
1364.0 0.000733 1251.50195 1306.11206
1331.0 0.000751 1251.65076 1307.05847
1392.0 0.000718 1251.79956 1308.02271
1334.0 0.000750 1251.94849 1309.00623
1301.0 0.000769 1252.09790 1310.01147
1407.0 0.000711 1252.24719 1311.03625
1363.0 0.000734 1252.39661 1312.08374
1338.0 0.000747 1252.54626 1313.15222
1301.0 0.000769 1252.69592 1314.24341
1363.0 0.000734 1252.84583 1315.36011
1424.0 0.000702 1252.99561 1316.49963
1399.0 0.000715 1253.14600 1317.66638
1365.0 0.000733 1253.29639 1318.85754
1343.0 0.000745 1253.44690 1320.07654
1376.0 0.000727 1253.59741 1321.32458
1300.0 0.000769 1253.74829 1322.60059
1317.0 0.000759 1253.89929 1323.90857
1393.0 0.000718 1254.05017 1325.24646
1377.0 0.000726 1254.20142 1326.61646
1424.0 0.000702 1254.35303 1328.02222
1456.0 0.000687 1254.50452 1329.46143
1352.0 . . .
