#------------------------------------------------------------------------------
#$Date: 2021-04-27 04:10:30 +0300 (Tue, 27 Apr 2021) $
#$Revision: 264565 $
#$URL: file:///home/coder/svn-repositories/cod/cif/1/56/21/1562130.cif $
#------------------------------------------------------------------------------
#
# This file is available in the Crystallography Open Database (COD),
# http://www.crystallography.net/
#
# All data on this site have been placed in the public domain by the
# contributors.
#
data_1562130
loop_
_publ_author_name
'Van Lommel, Ruben'
'Bock, Jonathan'
'Daniliuc, Constantin'
'Hennecke, Ulrich'
'De Proft, Frank'
_publ_section_title
;
 A Dynamic Picture of the Halolactonization Reaction through a Combination
 of ab-initio Metadynamics and Experimental Investigations .
;
_journal_name_full               'Chemical Science'
_journal_paper_doi               10.1039/D1SC01014J
_journal_year                    2021
_chemical_formula_sum            'C13 H13 Br O2'
_chemical_formula_weight         281.14
_space_group_crystal_system      triclinic
_space_group_IT_number           2
_space_group_name_Hall           '-P 1'
_space_group_name_H-M_alt        'P -1'
_atom_sites_solution_hydrogens   geom
_audit_creation_method           'APEX3 v2019.1-0'
_audit_update_record
;
2021-01-14 deposited with the CCDC.	2021-04-23 downloaded from the CCDC.
;
_cell_angle_alpha                77.5970(10)
_cell_angle_beta                 69.8180(10)
_cell_angle_gamma                67.0810(10)
_cell_formula_units_Z            2
_cell_length_a                   8.5352(2)
_cell_length_b                   8.6441(2)
_cell_length_c                   8.8394(2)
_cell_measurement_reflns_used    4344
_cell_measurement_temperature    102.(2)
_cell_measurement_theta_max      26.7563
_cell_measurement_theta_min      2.4656
_cell_volume                     561.35(2)
_computing_cell_refinement       'SAINT V8.40A (Bruker Nano, Inc., 2019)'
_computing_data_collection       'APEX3 v2019.1-0'
_computing_data_reduction        'SAINT V8.40A (Bruker Nano, Inc., 2019)'
_computing_molecular_graphics    'shelXle (C.B. Huebschle, rev 958)'
_computing_structure_refinement  'SHELXL-2018/3 (Sheldrick, 2018)'
_computing_structure_solution    'SHELXT 2014/5 (Sheldrick, 2014)'
_diffrn_ambient_temperature      102.(2)
_diffrn_detector_area_resol_mean 7.3910
_diffrn_measured_fraction_theta_full 0.996
_diffrn_measured_fraction_theta_max 0.996
_diffrn_measurement_device_type  'Bruker D8 Venture PHOTON III Diffractometer'
_diffrn_measurement_method       'phi / omega scans'
_diffrn_radiation_monochromator  'MX mirror'
_diffrn_radiation_type           MoK\a
_diffrn_radiation_wavelength     0.71073
_diffrn_reflns_av_R_equivalents  0.0371
_diffrn_reflns_av_unetI/netI     0.0312
_diffrn_reflns_limit_h_max       10
_diffrn_reflns_limit_h_min       -10
_diffrn_reflns_limit_k_max       10
_diffrn_reflns_limit_k_min       -10
_diffrn_reflns_limit_l_max       11
_diffrn_reflns_limit_l_min       -11
_diffrn_reflns_number            9047
_diffrn_reflns_theta_full        26.77
_diffrn_reflns_theta_max         26.77
_diffrn_reflns_theta_min         2.47
_diffrn_source                   'Mo Ims'
_diffrn_source_type              'micro focus tube'
_exptl_absorpt_coefficient_mu    3.642
_exptl_absorpt_correction_T_max  0.82
_exptl_absorpt_correction_T_min  0.76
_exptl_absorpt_correction_type   multi-scan
_exptl_absorpt_process_details
;
SADABS-2016/2 Bruker AXS area detector scaling and absorption correction.
Krause, L., Herbst-Irmer, R., Sheldrick G.M. & Stalke D.,
J. Appl. Cryst. 48 (2015) 3-10
;
_exptl_crystal_colour            colourless
_exptl_crystal_density_diffrn    1.663
_exptl_crystal_density_method    'not measured'
_exptl_crystal_description       prism
_exptl_crystal_F_000             284
_exptl_crystal_size_max          0.168
_exptl_crystal_size_mid          0.090
_exptl_crystal_size_min          0.057
_refine_diff_density_max         0.466
_refine_diff_density_min         -0.228
_refine_ls_extinction_method     none
_refine_ls_goodness_of_fit_ref   1.046
_refine_ls_hydrogen_treatment    constr
_refine_ls_matrix_type           full
_refine_ls_number_parameters     145
_refine_ls_number_reflns         2386
_refine_ls_number_restraints     0
_refine_ls_restrained_S_all      1.046
_refine_ls_R_factor_all          0.0261
_refine_ls_R_factor_gt           0.0222
_refine_ls_shift/su_max          0.001
_refine_ls_shift/su_mean         0.000
_refine_ls_structure_factor_coef Fsqd
_refine_ls_weighting_details
'w=1/[\s^2^(Fo^2^)+(0.0168P)^2^+0.3260P] where P=(Fo^2^+2Fc^2^)/3'
_refine_ls_weighting_scheme      calc
_refine_ls_wR_factor_gt          0.0482
_refine_ls_wR_factor_ref         0.0503
_reflns_number_gt                2207
_reflns_number_total             2386
_reflns_threshold_expression     'I > 2\s(I)'
_cod_data_source_file            d1sc01014j3.cif
_cod_data_source_block           dan9942
_cod_depositor_comments
;
The following automatic conversions were performed:

data item '_exptl_absorpt_correction_type' value 'Multi-Scan' was
changed to 'multi-scan' in accordance with the
/home/data/users/saulius/crontab/automatic-downloads/rss-feeds/RSC/lib/dictionaries/cif_core.dic
dictionary named 'cif_core.dic' version 2.4.2 last updated on
2011-04-26.

Automatic conversion script
Id: cif_fix_values 7556 2019-12-06 15:28:31Z antanas 
;
_cod_database_code               1562130
_shelx_res_file
;

TITL dan9942.res in P-1
    dan9942.res
    created by SHELXL-2018/3 at 09:28:35 on 05-Nov-2020
CELL  0.71073   8.5352   8.6441   8.8394   77.597   69.818   67.081
ZERR    2.000   0.0002   0.0002   0.0002    0.001    0.001    0.001
LATT 1
SFAC C  H  Br O
UNIT 26  26  2  4
LIST 4
SIZE 0.057 0.09 0.168
TEMP -171.150
ACTA
CONF

OMIT     2   4   0
OMIT     4   1   1
OMIT     3   1   4

L.S. 30
BOND $H
FMAP 2
PLAN 10

WGHT    0.016800    0.326000
FVAR       1.12807
BR1   3    0.239352    0.973919    0.210463    11.00000    0.01673    0.01156 =
         0.02045   -0.00028   -0.00354   -0.00192
O1    4   -0.095735    0.675838    0.354727    11.00000    0.01284    0.02686 =
         0.02634   -0.00163   -0.00544   -0.00799
O2    4    0.197110    0.607527    0.244060    11.00000    0.01059    0.01750 =
         0.01474   -0.00370   -0.00438   -0.00440
C1    1    0.453967    0.293024    0.305740    11.00000    0.01637    0.01784 =
         0.01245   -0.00197   -0.00409   -0.00707
AFIX  43
H1    2    0.333893    0.303354    0.362261    11.00000   -1.20000
AFIX   0
C2    1    0.582669    0.134405    0.286005    11.00000    0.02343    0.01314 =
         0.01720   -0.00021   -0.00837   -0.00738
AFIX  43
H2    2    0.550946    0.036683    0.330015    11.00000   -1.20000
AFIX   0
C3    1    0.758838    0.117935    0.201586    11.00000    0.02048    0.01322 =
         0.01736   -0.00490   -0.00891    0.00122
AFIX  43
H3    2    0.847518    0.009294    0.186995    11.00000   -1.20000
AFIX   0
C4    1    0.803127    0.261109    0.139397    11.00000    0.01354    0.01927 =
         0.01547   -0.00463   -0.00569   -0.00191
AFIX  43
H4    2    0.923218    0.249419    0.081454    11.00000   -1.20000
AFIX   0
C5    1    0.675818    0.423206    0.159390    11.00000    0.01465    0.01563 =
         0.00988   -0.00168   -0.00550   -0.00467
C6    1    0.498567    0.438401    0.243437    11.00000    0.01433    0.01303 =
         0.01001   -0.00198   -0.00512   -0.00371
C7    1    0.732753    0.574978    0.091901    11.00000    0.01263    0.01694 =
         0.01533   -0.00260   -0.00209   -0.00538
AFIX  23
H7A   2    0.754803    0.590468   -0.026967    11.00000   -1.20000
H7B   2    0.845847    0.554102    0.113805    11.00000   -1.20000
AFIX   0
C8    1    0.594344    0.736460    0.164233    11.00000    0.01407    0.01346 =
         0.01637   -0.00157   -0.00402   -0.00597
AFIX  23
H8A   2    0.593139    0.734736    0.276972    11.00000   -1.20000
H8B   2    0.623527    0.835853    0.100389    11.00000   -1.20000
AFIX   0
C9    1    0.413708    0.747016    0.161056    11.00000    0.01337    0.00960 =
         0.01277   -0.00075   -0.00343   -0.00141
AFIX  13
H9    2    0.424514    0.729812    0.049073    11.00000   -1.20000
AFIX   0
C10   1    0.352579    0.609935    0.277549    11.00000    0.01078    0.01530 =
         0.01207   -0.00166   -0.00428   -0.00564
C11   1    0.286925    0.639044    0.459586    11.00000    0.01552    0.01596 =
         0.01062   -0.00282   -0.00282   -0.00487
AFIX  23
H11A  2    0.328503    0.532061    0.525932    11.00000   -1.20000
H11B  2    0.330827    0.721876    0.477926    11.00000   -1.20000
AFIX   0
C12   1    0.084299    0.706685    0.502004    11.00000    0.01430    0.01779 =
         0.01424   -0.00364   -0.00033   -0.00486
AFIX  23
H12A  2    0.031146    0.651097    0.606518    11.00000   -1.20000
H12B  2    0.037115    0.830035    0.509187    11.00000   -1.20000
AFIX   0
C13   1    0.045235    0.665163    0.365771    11.00000    0.01378    0.01195 =
         0.01709    0.00059   -0.00277   -0.00357
HKLF 4




REM  dan9942.res in P-1
REM wR2 = 0.050264, GooF = S = 1.04595, Restrained GooF = 1.04595 for all data
REM R1 = 0.022214 for 2207 Fo > 4sig(Fo) and 0.026097 for all 2386 data
REM 145 parameters refined using 0 restraints

END

WGHT      0.0168      0.3260

REM Highest difference peak  0.466,  deepest hole -0.228,  1-sigma level  0.065
Q1    1   0.2579  0.9710  0.3138  11.00000  0.05    0.47
Q2    1   0.3778  0.6783  0.2229  11.00000  0.05    0.35
Q3    1   0.5907  0.4353  0.2160  11.00000  0.05    0.33
Q4    1   0.1249  0.6407  0.3049  11.00000  0.05    0.32
Q5    1   0.3151  0.6285  0.3767  11.00000  0.05    0.31
Q6    1   0.7347  0.3368  0.1256  11.00000  0.05    0.31
Q7    1   0.1840  0.6844  0.4774  11.00000  0.05    0.30
Q8    1   0.0526  0.6998  0.4389  11.00000  0.05    0.30
Q9    1   0.4282  0.5103  0.2578  11.00000  0.05    0.30
Q10   1   0.6599  0.1331  0.2194  11.00000  0.05    0.29
;
_shelx_res_checksum              74554
_shelx_hkl_file
;
  -1   0   0  492.85   15.10
   1   0   0  517.75   15.30
  -2   0   0 5300.57  116.59
  -2   0   0 5124.69  120.19
   2   0   0 5247.67  116.39
   2   0   0 5180.48  120.59
  -3   0   0  187.98   15.10
  -3   0   0  122.99   11.10
   3   0   0  152.28   14.30
   3   0   0  146.99   12.00
  -4   0   0 2427.26   70.19
  -4   0   0 2536.45   77.49
   4   0   0 2418.66   77.19
   4   0   0 2404.16   69.99
  -5   0   0  224.48   19.60
  -5   0   0  269.97   23.70
   5   0   0  246.28   20.10
   5   0   0  271.57   24.80
  -6   0   0 2353.76   77.89
  -6   0   0 2251.47   84.09
   6   0   0 2287.07   86.69
   6   0   0 2444.86   77.89
   6   0   0 2287.87   87.19
  -7   0   0  470.75   33.30
   7   0   0  456.35   32.70
   7   0   0  543.75   42.20
   7   0   0  486.65   39.30
  -8   0   0  250.97   24.20
  -8   0   0  218.88   27.90
  -8   0   0  380.26   39.30
   8   0   0  255.57   38.10
   8   0   0  242.98   28.70
   8   0   0  217.78   34.10
  -9   0   0  109.69   18.60
  -9   0   0  108.09   20.90
  -9   0   0  134.29   29.40
   9   0   0  172.88   31.60
   9   0   0  148.69   25.10
   9   0   0  100.09   28.20
   9  -1   0  250.27   40.80
   9  -1   0  245.28   42.90
   9  -1   0  313.77   31.20
  -9   1   0  280.77   23.50
  -9   1   0  287.67   50.59
  -9   1   0  259.57   25.00
   8  -1   0  584.14   50.29
   8  -1   0  649.14   50.79
   8  -1   0  595.54   40.80
  -8   1   0  596.74   47.10
  -8   1   0  620.04   33.50
   7  -1   0   84.39   17.10
   7  -1   0   91.39   22.70
  -7   1   0   56.79   15.20
  -7   1   0   92.49   14.40
   6  -1   0 3348.66   99.99
   6  -1   0 3357.46  113.09
  -6   1   0 3209.28  108.39
  -6   1   0 3346.87  100.89
   5  -1   0  261.87   20.90
   5  -1   0  339.67   28.30
  -5   1   0  284.87   22.30
  -5   1   0  224.78   27.70
   4  -1   0 1798.12   65.29
   4  -1   0 1901.91   59.59
  -4   1   0 1886.51   59.79
  -4   1   0 1838.32   64.99
   3  -1   0    6.80    4.60
   3  -1   0    6.10    5.60
  -3   1   0    9.50    6.10
   2  -1   0 2985.90   78.09
   2  -1   0 3021.30   74.79
  -2   1   0 2942.61   79.59
  -2   1   0 3126.19   75.59
   1  -1   0 2223.18   54.09
   1  -1   0 2164.58   54.09
  -1   1   0 2226.18   54.19
   0  -1   0   26.60    3.50
  -1  -1   0 4026.40   89.79
  -1  -1   0 3923.41   86.99
  -1  -1   0 3993.40   89.69
   1   1   0 4068.89   87.19
   1   1   0 4186.88   90.09
   1   1   0 4121.39   89.89
  -2  -1   0 2504.25   65.09
  -2  -1   0 2517.15   64.09
  -2  -1   0 2547.25   63.19
   2   1   0 2631.34   65.59
   2   1   0 2507.65   64.19
   2   1   0 2605.74   63.29
  -3  -1   0 1359.06   44.80
  -3  -1   0 1309.87   41.70
   3   1   0 1332.67   45.00
   3   1   0 1367.66   45.60
   3   1   0 1325.47   41.90
  -4  -1   0 1854.51   57.09
  -4  -1   0 1869.91   61.59
   4   1   0 1727.33   60.59
   4   1   0 1978.90   58.09
   4   1   0 1744.33   61.19
  -5  -1   0 1552.24   58.79
  -5  -1   0 1443.06   52.29
   5   1   0 1449.26   58.89
   5   1   0 1380.56   51.39
   5   1   0 1395.16   57.09
  -6  -1   0  653.23   40.50
  -6  -1   0  680.93   36.30
   6   1   0  652.53   35.40
   6   1   0  725.83   43.40
   6   1   0  694.53   41.60
  -7  -1   0   29.80   13.10
  -7  -1   0    5.10   10.70
   7   1   0   14.70   11.40
   7   1   0   37.60   13.60
   7   1   0   14.40    8.60
  -8  -1   0  690.83   42.50
   8   1   0  639.84   40.90
   8   1   0  700.43   49.80
   8   1   0  706.53   51.89
  -9  -1   0  169.68   31.10
  -9  -1   0  143.29   23.60
  -9  -1   0  127.29   23.70
   9   1   0  175.08   33.10
   9   1   0  176.48   48.80
   9   1   0  132.49   23.20
   8  -2   0 1014.90   65.59
   8  -2   0  920.61   50.79
  -8   2   0  858.31   34.40
  -8   2   0  931.71   35.90
  -8   2   0  845.02   69.29
   7  -2   0   46.90   16.80
  -7   2   0   72.59   10.60
  -7   2   0   55.09   18.40
  -7   2   0   73.09   11.00
   6  -2   0   83.39   30.10
   6  -2   0  123.89   19.50
  -6   2   0  108.99   11.20
  -6   2   0  104.59   12.20
  -6   2   0   99.99   20.50
   5  -2   0  469.05   34.80
   5  -2   0  438.06   28.70
  -5   2   0  465.75   19.90
  -5   2   0  398.96   30.50
  -5   2   0  440.16   19.70
   4  -2   0 4720.23  129.19
   4  -2   0 4474.85  119.99
  -4   2   0 4506.35  125.59
  -4   2   0 4762.52  103.99
   3  -2   0    5.10    5.60
   3  -2   0    0.10    4.50
  -3   2   0    2.50    1.90
  -3   2   0    3.80    5.60
   2  -2   0 6336.47  142.39
   2  -2   0 5626.34  151.18
  -2   2   0 6202.98  142.29
   1  -2   0  128.09    9.50
   1  -2   0  124.99    4.30
  -1   2   0  113.59    8.90
   0  -2   0  483.55   13.90
  -1  -2   0   99.89    8.70
  -1  -2   0   88.29    4.20
   1   2   0   90.79    8.40
  -2  -2   0 7145.69  151.88
  -2  -2   0 7184.38  157.68
  -2  -2   0 6720.43  156.18
   2   2   0 6712.13  157.98
   2   2   0 7118.09  152.18
  -3  -2   0  330.27   23.20
  -3  -2   0  350.26   20.80
  -3  -2   0  344.57   18.90
   3   2   0  371.46   20.00
   3   2   0  380.76   21.20
   3   2   0  367.96   20.20
  -4  -2   0 2274.17   67.39
  -4  -2   0 2183.78   68.39
  -4  -2   0 2237.68   71.29
   4   2   0 2214.38   67.29
   4   2   0 2299.07   70.19
   4   2   0 2259.57   70.29
  -5  -2   0 1122.69   44.80
  -5  -2   0 1049.30   46.70
   5   2   0 1101.99   48.40
   5   2   0 1084.59   44.70
   5   2   0 1102.29   48.70
  -6  -2   0  524.25   32.20
  -6  -2   0  639.74   38.00
   6   2   0  592.34   40.00
   6   2   0  577.54   33.50
   6   2   0  537.85   35.90
  -7  -2   0 1826.22   75.29
  -7  -2   0 1787.52   69.59
   7   2   0 1887.01   77.59
   7   2   0 1909.21   79.79
   7   2   0 1750.12   68.99
  -8  -2   0  762.72   50.59
  -8  -2   0  794.52   46.30
   8   2   0  773.42   45.80
   8   2   0  926.11   56.79
  -9  -2   0  522.85   45.10
  -9  -2   0  499.45   38.80
  -9  -2   0  443.46   37.80
   9   2   0  443.96   44.70
   9   2   0  374.66   44.30
   9   2   0  444.66   37.20
 -10  -2   0  168.68   27.80
 -10  -2   0  168.48   28.80
  10   2   0  137.99   32.10
  10   2   0  218.88   30.80
   8  -3   0  453.35   37.70
  -8   3   0  427.76   50.09
   7  -3   0   58.09   15.20
   7  -3   0   53.39   19.90
  -7   3   0   44.80   16.30
   6  -3   0 1320.07   58.19
   6  -3   0 1225.38   64.89
  -6   3   0 1318.47   64.09
   5  -3   0   73.69   14.40
   5  -3   0   61.39   16.40
  -5   3   0   54.89   15.70
   4  -3   0 1398.36   54.39
   4  -3   0 1377.66   58.19
  -4   3   0 1401.66   56.99
   3  -3   0  208.58   19.00
   3  -3   0  212.58   18.90
  -3   3   0  230.48   19.20
   2  -3   0  810.62   33.40
  -2   3   0  773.12   32.20
   1  -3   0  466.75   20.10
   1  -3   0  454.05   13.90
  -1   3   0  459.95   19.80
   0  -3   0 8456.25  191.38
   0  -3   0 8392.76  175.88
   0   3   0 8385.76  175.58
   1   3   0 6056.99  141.99
  -2  -3   0 4409.26  107.29
  -2  -3   0 4238.48   94.69
   2   3   0 4217.58  105.99
  -3  -3   0 1031.60   39.60
  -3  -3   0  994.80   34.00
  -3  -3   0  947.61   38.40
   3   3   0  933.61   33.40
   3   3   0 1000.90   38.60
  -4  -3   0  635.64   29.50
  -4  -3   0  564.54   30.30
  -4  -3   0  564.44   31.60
   4   3   0  608.34   31.10
   4   3   0  599.74   31.60
   4   3   0  663.13   30.70
  -5  -3   0  282.57   22.50
  -5  -3   0  304.77   23.50
  -5  -3   0  291.57   24.90
   5   3   0  287.67   23.70
   5   3   0  269.67   22.20
   5   3   0  231.48   21.40
  -6  -3   0  722.03   39.00
  -6  -3   0  669.03   38.90
   6   3   0  729.33   38.90
   6   3   0  744.53   42.00
   6   3   0  686.63   40.40
  -7  -3   0  671.83   40.60
  -7  -3   0  694.53   44.20
   7   3   0  675.63   44.20
   7   3   0  678.53   44.40
   7   3   0  791.82   43.30
  -8  -3   0   14.40   11.60
  -8  -3   0   16.90   11.10
   8   3   0    3.00    9.80
   8   3   0   15.40   13.60
  -9  -3   0  450.65   41.40
  -9  -3   0  511.15   39.90
   9   3   0  401.66   40.80
   9   3   0  431.76   43.10
   9   3   0  452.05   37.10
 -10  -3   0   19.70   17.20
 -10  -3   0   11.30   14.30
 -10  -3   0  -15.40   12.30
  10   3   0   10.00   11.20
  10   3   0  -19.40   12.70
  10   3   0  -13.40   12.70
   7  -4   0   78.29   23.90
   7  -4   0   59.69   17.60
  -7   4   0  148.19   27.60
   6  -4   0 1160.68   57.79
   6  -4   0 1053.99   61.39
   5  -4   0  180.28   24.90
   5  -4   0  180.38   26.90
  -5   4   0  173.38   25.60
   4  -4   0  530.45   34.00
   4  -4   0  592.64   37.70
  -4   4   0  548.35   34.90
   3  -4   0  354.66   25.80
   3  -4   0  292.87   24.50
  -3   4   0  366.46   25.20
   2  -4   0 1038.40   40.30
  -2   4   0  974.00   38.40
   1  -4   0 1088.69   46.50
   1  -4   0 1107.09   30.00
   1  -4   0 1106.89   36.80
  -1   4   0 1123.49   36.60
   0  -4   0  733.83   26.60
   0  -4   0  743.13   35.30
   0  -4   0  745.43   22.20
   0   4   0  722.83   21.80
  -1  -4   0  566.74   29.50
   1   4   0  606.84   30.30
  -2  -4   0   41.80    9.90
  -2  -4   0   34.80    3.50
   2   4   0   34.10    9.10
  -3  -4   0 4025.30  108.69
  -3  -4   0 4018.70  107.89
  -3  -4   0 3849.51   92.59
   3   4   0 3925.01  106.59
  -4  -4   0  599.04   27.60
  -4  -4   0  640.54   34.40
  -4  -4   0  652.13   34.60
   4   4   0  603.14   32.80
   4   4   0  640.94   28.90
  -5  -4   0 2574.74   78.49
  -5  -4   0 2518.55   85.79
  -5  -4   0 2591.24   84.69
   5   4   0 2652.93   80.39
   5   4   0 2619.94   85.09
  -6  -4   0  411.16   28.60
  -6  -4   0  345.77   30.10
   6   4   0  354.86   28.40
   6   4   0  344.07   28.80
  -7  -4   0  798.62   45.20
  -7  -4   0  775.92   45.10
   7   4   0  702.83   45.10
   7   4   0  804.52   45.40
   7   4   0  801.12   47.00
  -8  -4   0  308.67   32.10
  -8  -4   0  314.57   32.00
   8   4   0  311.57   30.90
   8   4   0  305.97   37.40
  -9  -4   0  638.94   47.30
  -9  -4   0  648.84   46.00
   9   4   0  643.84   45.80
   9   4   0  660.03   51.39
   9   4   0  640.74   49.30
 -10  -4   0   35.60   18.20
 -10  -4   0    8.00   18.50
 -10  -4   0    0.60   12.90
  10   4   0   16.40   14.60
  10   4   0   38.30   17.10
   6  -5   0  145.59   29.10
   6  -5   0  153.98   26.70
  -6   5   0  114.69   24.60
   5  -5   0   50.59   16.90
   5  -5   0   23.60   11.80
  -5   5   0   55.59   16.70
   4  -5   0 1177.98   56.89
   4  -5   0 1220.18   56.59
  -4   5   0 1131.39   53.59
   3  -5   0  522.25   35.40
   3  -5   0  499.65   31.80
  -3   5   0  474.35   30.30
   2  -5   0 2996.70   85.49
  -2   5   0 2934.71   83.49
   1  -5   0  911.71   46.20
   1  -5   0  993.90   34.90
   1  -5   0  932.21   28.70
  -1   5   0 1014.40   34.50
   0  -5   0  785.12   40.30
   0  -5   0  777.12   29.70
   0   5   0  789.72   23.70
  -1  -5   0  595.44   33.50
   1   5   0  639.74   34.70
  -2  -5   0 1626.34   59.79
   2   5   0 1614.64   59.59
  -3  -5   0  857.91   41.20
  -3  -5   0  901.71   43.00
  -3  -5   0  853.51   25.80
   3   5   0  803.22   39.90
  -4  -5   0  675.13   27.30
  -4  -5   0  629.84   36.30
  -4  -5   0  655.33   37.50
   4   5   0  576.04   34.50
  -5  -5   0  848.12   36.70
  -5  -5   0  812.82   51.19
   5   5   0  863.91   44.50
  -6  -5   0   61.79   17.30
  -6  -5   0   32.80   12.30
  -6  -5   0   32.30   10.50
   6   5   0   36.00   14.10
   6   5   0   31.90   10.90
  -7  -5   0  853.91   52.79
  -7  -5   0  980.00   52.99
  -7  -5   0  989.20   49.60
   7   5   0 1028.30   52.39
   7   5   0  973.40   53.39
  -8  -5   0    6.40   11.40
  -8  -5   0    6.80   10.30
   8   5   0   12.10   11.40
  -9  -5   0  147.19   26.60
  -9  -5   0  169.18   29.30
   9   5   0  168.78   30.00
 -10  -5   0  -15.10   13.00
 -10  -5   0   11.10   12.90
 -10  -5   0  -23.20   11.30
  10   5   0  -10.10   17.40
   5  -6   0  465.85   39.40
  -5   6   0  499.75   38.90
   4  -6   0  535.65   38.20
   4  -6   0  451.35   37.40
  -4   6   0  492.75   35.10
   3  -6   0  861.81   49.60
   3  -6   0  795.72   42.10
  -3   6   0  843.82   41.50
   2  -6   0  116.29   27.30
   2  -6   0  160.98   16.50
  -2   6   0  158.48   15.70
   1  -6   0  443.96   18.50
   1  -6   0  485.35   36.00
  -1   6   0  455.95   21.90
   0  -6   0   73.39   10.90
   0  -6   0   55.59   14.70
  -1  -6   0 3696.33   99.99
  -2  -6   0  110.59   18.40
   2   6   0   93.39   16.90
  -3  -6   0 1124.79   62.39
   3   6   0 1243.48   54.49
  -4  -6   0   57.89    7.80
  -4  -6   0   25.90   12.30
  -4  -6   0   44.90   13.20
   4   6   0   73.59   16.10
  -5  -6   0  495.15   36.10
  -5  -6   0  460.35   24.40
  -5  -6   0  427.86   34.00
   5   6   0  439.16   33.30
  -6  -6   0  221.28   31.90
  -6  -6   0  217.78   28.70
  -6  -6   0  197.08   19.10
   6   6   0  217.28   28.10
  -7  -6   0  479.05   39.00
  -7  -6   0  435.36   38.20
  -7  -6   0  434.76   31.20
  -8  -6   0   14.10   12.90
  -8  -6   0  -10.40    9.70
  -8  -6   0   -8.80    8.60
  -9  -6   0  599.24   43.50
  -9  -6   0  648.54   48.90
   9   6   0  666.73   51.39
   4  -7   0  110.89   26.60
   4  -7   0  121.19   24.20
  -4   7   0  103.39   18.60
   3  -7   0  353.26   42.40
   3  -7   0  417.16   37.20
  -3   7   0  325.67   25.90
   2  -7   0  278.17   36.10
  -2   7   0  251.17   19.60
   1  -7   0  805.12   50.29
   1  -7   0  769.02   26.10
  -1   7   0  719.83   28.80
   0  -7   0 1142.29   41.70
  -1  -7   0  103.89   15.60
  -1  -7   0  110.99   20.60
  -2  -7   0   86.99   15.70
  -2  -7   0   99.69   20.50
  -3  -7   0 1606.54   69.09
  -4  -7   0  156.68   25.80
  -4  -7   0  184.58   26.50
   4   7   0  184.88   25.20
  -5  -7   0 1331.07   42.40
  -5  -7   0 1373.66   76.79
  -5  -7   0 1346.17   65.49
   5   7   0 1319.57   62.79
  -6  -7   0   61.49   17.60
  -6  -7   0   60.69   12.00
  -6  -7   0   53.79   17.40
   6   7   0   62.09   16.30
  -7  -7   0  817.52   52.89
  -7  -7   0  737.63   39.90
  -7  -7   0  786.92   52.99
   7   7   0  813.22   51.49
  -8  -7   0   40.70   18.20
  -8  -7   0   19.60   12.50
  -8  -7   0   50.49   20.20
   8   7   0   82.69   21.90
  -9  -7   0  692.63   55.69
  -9  -7   0  773.22   55.79
  -9  -7   0  739.53   48.50
   9   7   0  799.22   57.59
   3  -8   0  553.24   45.50
  -3   8   0  519.55   32.90
   2  -8   0  502.25   46.20
  -2   8   0  472.35   26.60
   1  -8   0 1419.66   71.79
   1  -8   0 1307.47   36.50
   0  -8   0  194.68   17.10
   0  -8   0  196.88   30.20
  -1  -8   0  945.71   42.60
  -1  -8   0  901.31   54.39
  -2  -8   0   70.39   19.00
  -2  -8   0   83.89   17.20
  -3  -8   0  860.71   47.50
  -3  -8   0  854.71   51.89
   3   8   0  951.60   53.59
  -4  -8   0    0.30   12.20
  -4  -8   0   34.90   15.90
  -4  -8   0   49.60   15.40
  -5  -8   0 1462.15   72.79
  -5  -8   0 1544.85   74.89
  -6  -8   0   16.40   13.50
  -6  -8   0    2.00   11.90
  -6  -8   0   12.50    5.70
   6   8   0    7.60   10.90
  -7  -8   0  292.67   23.00
  -7  -8   0  255.17   35.60
  -7  -8   0  329.67   41.00
   7   8   0  312.07   38.60
  -8  -8   0  431.56   43.00
  -8  -8   0  313.07   27.70
  -8  -8   0  333.37   43.20
   8   8   0  440.16   41.80
   2  -9   0  -22.60   11.60
   1  -9   0  789.92   57.79
   0  -9   0   26.70   16.90
   0  -9   0    1.40    6.60
  -1  -9   0 1450.85   57.29
  -1  -9   0 1522.15   76.39
  -2  -9   0   18.10   13.10
  -2  -9   0    7.80    8.70
  -3  -9   0  812.72   54.89
  -3  -9   0  813.02   47.70
  -4  -9   0    7.60   12.20
  -4  -9   0   29.00   14.70
  -4  -9   0    1.10   10.20
   4   9   0   31.70   14.80
  -5  -9   0  591.34   48.40
  -5  -9   0  657.93   51.19
  -5  -9   0  560.04   44.00
   5   9   0  637.04   49.10
  -6  -9   0   26.20   15.90
  -6  -9   0   25.90   15.40
  -6  -9   0    1.60   14.00
   6   9   0    9.70   14.40
  -7  -9   0  511.95   45.80
  -7  -9   0  430.16   43.50
  -7  -9   0  514.25   48.50
  -7  -9   0  443.16   23.80
   7   9   0  466.85   42.80
  -8  -9   0   -1.10    7.90
  -8  -9   0   27.60   17.30
  -8  -9   0    3.10   16.00
   8   9   0   19.60   18.90
   0 -10   0   -4.30   14.00
   0 -10   0   17.60    7.10
  -1 -10   0  774.82   39.90
  -2 -10   0   36.20   12.50
  -2 -10   0   19.00   15.20
  -3 -10   0  423.86   35.50
  -3 -10   0  350.86   43.90
  -4 -10   0  160.68   31.30
  -4 -10   0   96.49   23.60
  -4 -10   0  166.38   32.10
   4  10   0  119.39   27.10
  -5 -10   0  455.85   46.50
  -5 -10   0  426.06   40.10
   5  10   0  499.85   45.20
  -6 -10   0  151.18   39.60
  -6 -10   0  205.58   37.30
  -6 -10   0  210.68   36.00
   6  10   0  169.38   33.10
   5  10  -1   43.40   22.20
  -5 -10   1   26.40   18.70
  -5 -10   1   33.00   16.30
  -5 -10   1   52.19   22.10
   4  10  -1  517.55   49.30
  -4 -10   1  353.26   69.79
  -4 -10   1  544.25   44.50
  -4 -10   1  566.54   52.99
  -3 -10   1   47.50   16.20
  -2 -10   1  254.07   30.80
  -2 -10   1  244.58   44.00
  -1 -10   1  -15.10   12.00
  -1 -10   1   -0.50    9.00
   7   9  -1    4.70   12.50
  -7  -9   1   -7.70   20.30
  -7  -9   1    6.00    5.80
  -7  -9   1    2.70   15.00
  -7  -9   1    1.10   15.10
   6   9  -1  564.34   48.90
  -6  -9   1  714.83   55.99
  -6  -9   1  679.73   54.69
   5   9  -1  -14.60   11.10
  -5  -9   1    2.70   12.30
  -5  -9   1   -0.50   14.40
  -5  -9   1  -17.20   10.50
   4   9  -1  590.74   47.40
  -4  -9   1  640.94   50.79
  -4  -9   1  583.04   48.10
  -4  -9   1  646.94   46.60
   3   9  -1   41.60   16.50
  -3  -9   1   15.30   12.70
  -3  -9   1   15.00   14.40
  -2  -9   1  622.84   40.30
  -2  -9   1  685.63   50.69
  -1  -9   1   18.40   14.50
  -1  -9   1    0.50    8.30
   0  -9   1  787.12   56.29
   0  -9   1  761.42   37.50
   1  -9   1   -1.90    4.50
   1  -9   1    4.70   13.70
   2  -9   1  147.19   31.50
   8   8  -1  793.12   57.89
  -8  -8   1  883.61   61.29
  -8  -8   1  685.43   57.99
  -8  -8   1  743.13   60.09
   7   8  -1   32.00   21.80
  -7  -8   1    8.40    8.80
  -7  -8   1   11.80   14.30
  -7  -8   1   14.20   15.20
  -7  -8   1   13.00   21.70
   6   8  -1  403.96   39.00
  -6  -8   1  384.56   21.90
  -6  -8   1  440.06   41.00
  -6  -8   1  385.66   39.30
  -6  -8   1  457.75   41.30
   5   8  -1  -11.10    9.20
  -5  -8   1  -13.80    9.70
  -5  -8   1   14.00   12.80
  -5  -8   1   -6.30    9.60
  -4  -8   1  700.03   49.10
  -4  -8   1  796.82   49.20
  -4  -8   1  801.22   53.19
  -3  -8   1  307.97   29.40
  -3  -8   1  287.97   35.80
  -2  -8   1 1638.44   66.89
  -2  -8   1 1760.02   77.99
  -1  -8   1  434.96   30.10
  -1  -8   1  383.06   36.30
   0  -8   1  505.45   29.70
   0  -8   1  627.44   46.20
   1  -8   1  172.08   14.70
   1  -8   1  240.38   34.60
  -2   8  -1 1186.38   41.10
   2  -8   1 1120.89   67.09
  -3   8  -1  244.88   21.70
   3  -8   1  231.28   34.80
  -9  -7   1  -30.00    9.20
  -9  -7   1  -15.20   12.30
   8   7  -1  630.64   51.09
  -8  -7   1  788.02   56.89
  -8  -7   1  904.31   61.29
  -8  -7   1  770.82   45.70
  -8  -7   1  765.12   53.59
   7   7  -1  -10.30   10.20
  -7  -7   1   -0.40   11.40
  -7  -7   1   18.30   12.60
  -7  -7   1   24.50    9.80
  -7  -7   1    4.20   11.90
   6   7  -1  701.03   48.50
  -6  -7   1  636.84   32.80
  -6  -7   1  656.23   47.70
  -6  -7   1  691.63   48.30
  -6  -7   1  699.73   49.60
  -5  -7   1  193.68   29.10
  -5  -7   1  218.78   30.60
  -5  -7   1  183.08   14.40
  -5  -7   1  174.58   28.00
   4   7  -1  924.51   51.99
  -4  -7   1  870.81   52.79
  -4  -7   1 1010.50   53.49
  -4  -7   1  961.60   54.59
   3   7  -1   95.59   19.00
  -3  -7   1  150.68   23.10
  -3  -7   1   95.89   20.60
   2   7  -1  767.02   46.00
  -2  -7   1  696.83   44.30
  -2  -7   1  701.63   39.20
  -1  -7   1   15.10   12.40
  -1  -7   1   14.00    8.20
   0  -7   1  325.77   22.50
   0  -7   1  289.07   29.90
  -1   7  -1  635.74   23.20
   1  -7   1  649.43   45.00
   1  -7   1  647.54   28.30
  -2   7  -1  233.58   17.80
   2  -7   1  233.68    9.50
   2  -7   1  237.38   32.70
  -3   7  -1  646.94   34.40
   3  -7   1  671.93   47.90
   3  -7   1  560.84   46.30
  -4   7  -1  242.48   23.80
   4  -7   1  246.48   36.20
   4  -7   1  188.48   34.10
   9   6  -1   34.20   17.80
  -9  -6   1    0.20   11.20
  -9  -6   1   24.50   15.50
  -9  -6   1   12.30   16.90
   8   6  -1  197.68   33.10
   8   6  -1  194.58   29.30
  -8  -6   1  228.58   32.50
  -8  -6   1  136.19   23.40
  -8  -6   1  150.08   30.90
  -8  -6   1  166.98   30.40
   7   6  -1   42.70   15.40
   7   6  -1   35.20   13.10
  -7  -6   1   30.00   13.20
  -7  -6   1   17.80   12.30
  -7  -6   1   28.30   15.30
   6   6  -1 1142.39   49.50
  -6  -6   1 1110.59   47.40
  -6  -6   1 1090.69   59.69
  -6  -6   1 1013.20   66.69
   5   6  -1  299.97   21.30
   5   6  -1  221.48   28.90
  -5  -6   1  326.97   31.10
  -5  -6   1  280.97   19.90
  -5  -6   1  284.97   33.90
  -5  -6   1  314.57   30.60
   4   6  -1 1098.09   53.99
  -4  -6   1 1120.09   54.79
  -4  -6   1 1061.09   54.59
  -4  -6   1 1089.59   54.69
   3   6  -1  548.75   35.80
  -3  -6   1  544.15   36.30
  -3  -6   1  454.25   32.30
   2   6  -1 1469.85   62.09
  -2  -6   1 1484.65   57.79
  -2  -6   1 1408.66   61.19
   1   6  -1 1145.39   54.49
  -1  -6   1 1160.88   54.49
  -1  -6   1 1136.49   46.50
   0  -6   1 4508.55  115.89
   0  -6   1 4518.15  132.89
  -1   6  -1  569.54   22.70
   1  -6   1  531.25   24.80
   1  -6   1  579.24   39.90
  -2   6  -1  671.23   30.50
   2  -6   1  611.94   43.40
   2  -6   1  608.74   20.90
  -3   6  -1  969.60   43.70
   3  -6   1 1009.70   56.29
   3  -6   1 1074.39   59.69
  -4   6  -1  563.84   36.10
   4  -6   1  436.46   41.00
   4  -6   1  585.74   43.70
  -5   6  -1  859.41   49.20
   5  -6   1  825.32   52.59
  -6   6  -1   40.80   16.40
   6  -6   1   51.89   19.00
   9   5  -1  -12.70   11.50
   9   5  -1   -8.00   11.70
  -9  -5   1   28.70   14.00
  -9  -5   1   30.80   25.90
  -9  -5   1   15.40   14.00
   8   5  -1  717.23   51.19
   8   5  -1  749.53   49.80
  -8  -5   1  788.12   49.90
  -8  -5   1  755.02   52.99
  -8  -5   1  759.12   48.10
   7   5  -1  800.12   47.20
  -7  -5   1  729.83   45.30
  -7  -5   1  828.32   53.19
  -7  -5   1  771.22   57.99
   6   5  -1 2507.55   91.59
   6   5  -1 2438.46   83.39
  -6  -5   1 2461.95   88.39
  -6  -5   1 2448.96   81.79
   5   5  -1    1.30    6.80
   5   5  -1    7.00    6.80
  -5  -5   1   13.90    7.40
  -5  -5   1   22.30   10.80
  -5  -5   1   20.40   10.60
   4   5  -1 1174.58   41.50
   4   5  -1 1200.08   52.89
  -4  -5   1 1170.98   40.50
  -4  -5   1 1104.99   51.69
   3   5  -1 1290.57   54.89
   3   5  -1 1382.56   39.00
  -3  -5   1 1349.77   55.89
  -3  -5   1 1386.06   38.50
  -3  -5   1 1310.77   55.59
   2   5  -1 1328.37   54.09
  -2  -5   1 1347.67   52.39
  -2  -5   1 1354.56   55.09
   1   5  -1 5005.00  136.49
  -1  -5   1 5176.18  128.59
  -1  -5   1 4925.41  135.89
   0   5  -1   48.40    4.10
   0  -5   1   68.19   10.80
   0  -5   1   55.79   13.10
  -1   5  -1 1567.24   45.50
   1  -5   1 1595.14   63.89
   1  -5   1 1610.34   50.09
  -2   5  -1  395.56   22.90
   2  -5   1  396.26   16.10
   2  -5   1  419.76   32.30
  -3   5  -1 1237.68   49.99
   3  -5   1 1373.86   61.59
  -4   5  -1   24.10   10.20
   4  -5   1   19.20   12.50
  -5   5  -1 1700.23   71.89
   5  -5   1 1824.42   78.09
  -6   5  -1   20.50   21.80
   6  -5   1   35.60   15.10
   9   4  -1  183.68   31.40
   9   4  -1  223.48   36.00
  -9  -4   1  293.47   38.90
  -9  -4   1  249.08   35.60
  -9  -4   1  203.88   30.90
   8   4  -1  566.94   44.90
   8   4  -1  620.94   47.10
  -8  -4   1  623.24   44.40
  -8  -4   1  506.75   39.00
  -8  -4   1  522.05   78.39
   7   4  -1  643.64   42.90
  -7  -4   1  657.63   41.30
  -7  -4   1  579.24   42.20
  -7  -4   1  630.14   41.50
   6   4  -1   68.39   15.70
   6   4  -1   42.70   14.30
  -6  -4   1   84.79   18.70
  -6  -4   1   68.09   15.10
  -6  -4   1   83.59   18.90
   5   4  -1 3325.57   97.79
   5   4  -1 3445.96  105.49
  -5  -4   1 3317.87  106.19
  -5  -4   1 3132.49   98.69
  -5  -4   1 3370.16   96.39
   4   4  -1  952.00   44.60
   4   4  -1  928.31   37.70
  -4  -4   1  900.31   43.00
  -4  -4   1  970.10   37.90
  -4  -4   1  995.20   46.00
   3   4  -1 1596.34   47.50
   3   4  -1 1718.03   60.09
  -3  -4   1 1653.43   59.99
  -3  -4   1 1582.84   58.49
  -3  -4   1 1637.04   49.00
   2   4  -1   33.10    4.60
   2   4  -1   17.40    7.10
  -2  -4   1   28.90    8.80
  -2  -4   1   38.60    9.90
  -2  -4   1   26.90    4.30
   1   4  -1 1609.24   56.59
  -1  -4   1 1557.14   51.99
  -1  -4   1 1555.04   55.39
   0   4  -1  247.58    9.80
   0  -4   1  276.77   21.10
   0  -4   1  238.98   16.00
  -1   4  -1 2360.36   60.49
   1  -4   1 2326.87   75.29
   1  -4   1 2256.57   60.19
  -2   4  -1  111.19   13.70
   2  -4   1  120.69    8.30
  -3   4  -1 1527.15   54.79
   3  -4   1 1455.95   60.29
  -4   4  -1    8.90    8.30
   4  -4   1    2.10    7.70
  -5   4  -1  903.71   51.29
   5  -4   1  850.01   48.40
  -6   4  -1  108.69   21.60
   6  -4   1   84.19   20.60
  -7   4  -1 1561.74   76.59
   7  -4   1 1537.75   73.49
   9   3  -1  196.08   34.80
   9   3  -1  213.08   35.00
  -9  -3   1  202.58   31.20
  -9  -3   1  232.88   41.50
  -9  -3   1  175.18   26.20
   8   3  -1  200.28   26.20
   8   3  -1  132.89   25.60
   8   3  -1  222.88   33.90
  -8  -3   1  220.68   32.30
  -8  -3   1  189.68   28.30
  -8  -3   1  184.38   25.60
   7   3  -1   59.59   17.70
   7   3  -1   77.49   17.00
  -7  -3   1   98.59   20.40
  -7  -3   1   69.69   16.90
  -7  -3   1   74.59   16.10
   6   3  -1  730.53   43.30
   6   3  -1  705.43   43.80
  -6  -3   1  713.53   40.60
  -6  -3   1  726.23   39.20
   5   3  -1 1980.50   68.79
   5   3  -1 1873.31   70.19
  -5  -3   1 1921.81   72.59
  -5  -3   1 1936.81   66.99
  -5  -3   1 1859.31   65.39
   4   3  -1  765.72   38.10
   4   3  -1  820.32   36.20
  -4  -3   1  737.03   35.10
  -4  -3   1  764.42   38.80
  -4  -3   1  748.43   33.80
   3   3  -1 1850.41   55.19
   3   3  -1 1942.41   62.39
  -3  -3   1 1813.42   61.69
  -3  -3   1 1895.91   60.39
  -3  -3   1 1890.81   54.89
  -2  -3   1  743.83   32.50
  -2  -3   1  752.82   33.30
   1   3  -1  670.93   29.40
   1   3  -1  655.53   17.80
  -1  -3   1  633.94   28.80
  -1  -3   1  661.03   28.20
   0   3  -1 1270.87   45.00
   0   3  -1 1268.47   31.50
   0  -3   1 1303.47   39.60
   0  -3   1 1210.68   43.70
  -1   3  -1 7717.53  171.08
  -1   3  -1 8004.90  172.38
   1  -3   1 8040.90  171.28
   1  -3   1 7836.82  185.48
  -2   3  -1 1013.60   28.80
  -2   3  -1 1022.90   37.30
   2  -3   1 1051.99   29.10
  -3   3  -1 2097.39   49.40
  -3   3  -1 2170.78   67.89
   3  -3   1 2123.09   69.19
   3  -3   1 2157.38   71.89
  -4   3  -1    4.90    2.20
  -4   3  -1    3.10    6.50
   4  -3   1    7.70    7.00
   4  -3   1   -6.00    4.90
  -5   3  -1 1102.09   28.90
  -5   3  -1 1123.79   53.49
   5  -3   1 1143.89   56.39
   5  -3   1 1137.99   53.09
  -6   3  -1  167.58    8.20
  -6   3  -1  177.88   26.50
  -6   3  -1  167.48    8.20
   6  -3   1  170.38   28.10
   6  -3   1  139.99   23.20
  -7   3  -1  763.82   51.29
   7  -3   1  781.72   48.50
  -8   3  -1  208.48   33.40
   8  -3   1  156.08   27.40
   9   2  -1  337.47   43.10
   9   2  -1  249.18   30.80
   9   2  -1  181.68   33.00
  -9  -2   1  287.37   39.30
  -9  -2   1  266.37   31.30
   8   2  -1  155.38   26.90
   8   2  -1  113.79   24.90
   8   2  -1  227.68   44.80
  -8  -2   1  162.88   28.70
  -8  -2   1  177.38   25.10
  -8  -2   1  146.99   27.40
   7   2  -1 1445.56   59.29
   7   2  -1 1416.06   69.09
  -7  -2   1 1383.86   61.89
  -7  -2   1 1283.97   67.49
  -7  -2   1 1431.16   66.89
   6   2  -1  116.39   20.60
   6   2  -1  110.59   16.80
   6   2  -1  127.49   22.50
  -6  -2   1  106.69   16.40
   5   2  -1 1419.46   58.59
   5   2  -1 1506.95   53.69
   5   2  -1 1503.35   59.49
  -5  -2   1 1405.76   52.29
  -5  -2   1 1428.36   57.19
   4   2  -1  200.28   18.90
   4   2  -1  169.58   17.30
   4   2  -1  164.08   15.20
  -4  -2   1  175.38   15.60
  -4  -2   1  195.48   19.20
  -4  -2   1  176.38   16.70
   3   2  -1 3534.55   92.69
   3   2  -1 3473.25   95.49
  -3  -2   1 3656.93   92.19
  -3  -2   1 3498.45   91.39
  -3  -2   1 3641.94   97.29
   2   2  -1   95.79    9.00
   2   2  -1   87.79   11.20
  -2  -2   1   78.79   12.50
  -2  -2   1   88.29   12.50
  -2  -2   1  108.69   10.60
  -2  -2   1  102.89    9.00
   0   2  -1 3092.09   76.89
   0   2  -1 2987.30   72.89
   0  -2   1 2981.20   72.69
   0  -2   1 2959.90   75.99
  -1   2  -1 2250.87   54.39
  -1   2  -1 2210.48   56.49
   1  -2   1 2280.47   54.49
  -2   2  -1 1016.20   28.20
  -2   2  -1 1080.29   36.60
   2  -2   1  995.00   28.30
   2  -2   1 1014.90   39.00
  -3   2  -1 4947.71  122.19
  -3   2  -1 4760.22  105.49
   3  -2   1 4683.23  122.59
   3  -2   1 4683.13  122.69
  -4   2  -1    9.00    3.80
  -4   2  -1    2.70    5.90
   4  -2   1    5.50    6.80
   4  -2   1    5.80    6.50
  -5   2  -1 2078.49   75.89
  -5   2  -1 2043.40   55.99
   5  -2   1 2046.60   72.59
  -6   2  -1  863.71   49.30
   6  -2   1  921.41   52.69
   6  -2   1  893.71   46.80
  -7   2  -1  753.32   31.40
   7  -2   1  693.23   44.60
   7  -2   1  796.72   53.59
  -8   2  -1   79.99   23.30
  -8   2  -1   34.80    9.00
  -8   2  -1   51.39   10.10
   8  -2   1   89.19   20.80
   9   1  -1  398.36   47.60
   9   1  -1  435.26   35.00
   9   1  -1  383.96   49.70
  -9  -1   1  434.96   50.59
  -9  -1   1  479.05   37.10
  -9  -1   1  400.06   34.00
   8   1  -1  399.86   41.00
   8   1  -1  270.87   27.20
   8   1  -1  279.17   37.60
  -8  -1   1  310.07   28.30
  -8  -1   1  262.57   35.70
  -8  -1   1  372.86   43.60
   7   1  -1 1064.99   60.49
   7   1  -1 1049.79   49.00
  -7  -1   1 1209.08   61.29
  -7  -1   1 1030.20   50.59
  -7  -1   1 1107.39   50.09
   6   1  -1   65.29   16.00
   6   1  -1   55.09   17.80
   6   1  -1   64.69   13.30
  -6  -1   1   56.09   13.70
  -6  -1   1   56.29   15.30
  -6  -1   1   56.79   12.10
   5   1  -1  658.13   38.50
   5   1  -1  640.44   38.10
   5   1  -1  660.53   31.90
  -5  -1   1  716.53   38.80
  -5  -1   1  642.64   31.50
   4   1  -1   54.49   10.10
   4   1  -1   33.50    9.70
   4   1  -1   40.10   10.70
  -4  -1   1   45.60    8.40
  -4  -1   1   43.80   10.80
   3   1  -1 4275.07  111.29
   3   1  -1 4437.96  111.29
  -3  -1   1 4379.86  103.49
  -3  -1   1 4231.28  109.39
   2   1  -1  220.48   14.30
   2   1  -1  230.08   15.00
   2   1  -1  218.58   12.20
  -2  -1   1  260.17   16.10
  -2  -1   1  212.68   13.90
  -2  -1   1  215.68   12.20
   1   1  -1 1828.22   49.10
   1   1  -1 1883.81   50.89
   1   1  -1 1861.01   47.40
  -1  -1   1 1955.80   47.60
  -1  -1   1 1902.01   49.70
  -1  -1   1 1919.41   50.79
   0   1  -1   26.50    4.20
   0   1  -1   25.90    4.80
   0  -1   1   23.20    4.20
   0  -1   1   20.80    3.80
  -1   1  -1 2700.23   61.09
   1  -1   1 2619.84   61.19
  -2   1  -1  267.47   12.00
  -2   1  -1  279.77   17.10
   2  -1   1  275.07   16.40
  -3   1  -1 2016.30   61.49
  -3   1  -1 1956.00   61.69
  -3   1  -1 1993.20   52.59
   3  -1   1 1998.80   60.99
   3  -1   1 2238.28   65.39
  -4   1  -1  867.91   39.60
  -4   1  -1  810.12   37.10
  -4   1  -1  817.22   30.20
   4  -1   1  870.91   37.90
   4  -1   1  901.61   41.40
  -5   1  -1 1433.56   56.29
  -5   1  -1 1438.56   59.29
   5  -1   1 1458.25   60.99
   5  -1   1 1490.25   56.59
  -6   1  -1   11.00    9.50
  -6   1  -1   11.10    6.30
  -6   1  -1    8.90    8.80
   6  -1   1   23.70   12.70
   6  -1   1   27.10   10.90
  -7   1  -1  517.85   40.80
  -7   1  -1  723.73   44.10
  -7   1  -1  763.42   35.40
   7  -1   1  779.82   50.99
  -8   1  -1  338.47   25.10
  -8   1  -1  265.37   32.50
  -8   1  -1  298.87   38.60
   8  -1   1  386.96   32.90
  -9   1  -1  126.29   19.00
  -9   1  -1  129.89   27.90
  -9   1  -1   89.69   15.70
   9  -1   1  139.49   25.80
   9  -1   1  173.18   32.30
   9   0  -1  611.54   54.09
   9   0  -1  569.94   53.89
  -9   0   1  590.24   68.69
  -9   0   1  610.14   38.70
  -9   0   1  503.55   39.30
   8   0  -1   40.00   13.90
   8   0  -1   44.90   17.30
   8   0  -1   40.00   18.20
  -8   0   1   31.70   15.00
  -8   0   1   41.80   13.60
  -8   0   1   44.30   12.70
   7   0  -1  228.68   32.80
   7   0  -1  190.58   23.60
  -7   0   1  249.08   22.60
  -7   0   1  244.98   23.90
   6   0  -1  180.68   18.30
   6   0  -1  214.38   28.60
   6   0  -1  173.48   27.30
  -6   0   1  163.58   24.50
  -6   0   1  186.48   18.90
  -6   0   1  164.18   20.30
   5   0  -1 3161.18   85.39
   5   0  -1 2794.72  108.29
   5   0  -1 2959.50   97.49
  -5   0   1 2949.30   85.09
  -5   0   1 2863.11   94.59
  -5   0   1 3029.70   84.59
   4   0  -1    8.40    6.80
   4   0  -1   10.00    5.10
   4   0  -1   11.80    7.20
  -4   0   1   10.80    5.60
  -4   0   1   20.20    8.00
  -4   0   1    8.80    4.90
   3   0  -1 4154.08  109.49
   3   0  -1 4237.88  109.39
   3   0  -1 4172.98   98.09
  -3   0   1 4090.49  101.09
  -3   0   1 4095.49  107.79
  -3   0   1 4090.99   97.89
   2   0  -1 1184.08   33.20
   2   0  -1 1207.68   40.80
  -2   0   1 1225.78   37.00
  -2   0   1 1274.57   40.70
  -2   0   1 1272.57   33.70
   1   0  -1  736.13   23.70
   1   0  -1  693.53   22.30
   1   0  -1  667.13   17.70
   1   0  -1  660.23   23.30
  -1   0   1  684.13   17.80
   0   0  -1   61.79    4.90
   0   0  -1   64.29    4.90
   0   0   1   65.09    4.90
  -2   0  -1 2087.29   57.39
  -2   0  -1 2161.98   56.89
   2   0   1 2200.18   56.99
  -3   0  -1 2187.38   63.29
   3   0   1 2095.39   60.59
   3   0   1 2080.39   63.19
  -4   0  -1 1353.96   48.30
  -4   0  -1 1351.76   51.09
   4   0   1 1331.77   48.00
   4   0   1 1391.66   52.39
  -5   0  -1  284.27   23.10
  -5   0  -1  303.97   25.00
   5   0   1  352.96   24.00
   5   0   1  302.67   25.50
  -6   0  -1  776.72   44.00
  -6   0  -1  786.92   41.40
   6   0   1  748.63   40.20
   6   0   1  739.53   44.70
  -7   0  -1  265.97   30.40
   7   0   1  208.18   26.00
   7   0   1  214.48   29.60
   7   0   1  233.18   31.90
  -8   0  -1  606.24   48.80
   8   0   1  520.35   38.10
   8   0   1  487.25   44.90
   8   0   1  574.14   45.30
  -9   0  -1  475.05   40.90
  -9   0  -1  448.56   43.10
   9   0   1  416.36   36.90
   8  -1  -1    6.50    9.20
   8  -1  -1    0.20   19.40
   8  -1  -1   -2.80   13.80
  -8   1   1   22.70    9.20
   7  -1  -1 1226.08   53.49
   7  -1  -1 1309.67   69.89
  -7   1   1 1217.68   48.30
  -7   1   1 1293.57   67.19
   6  -1  -1  225.88   45.60
   6  -1  -1  237.58   21.10
  -6   1   1  246.68   18.90
  -6   1   1  252.47   22.20
  -6   1   1  211.28   28.00
   5  -1  -1 1828.52   72.19
   5  -1  -1 1754.72   58.99
  -5   1   1 1821.12   70.49
  -5   1   1 1737.03   55.29
  -5   1   1 1808.72   59.99
   4  -1  -1  209.28   21.20
   4  -1  -1  204.28   15.60
  -4   1   1  236.98   16.90
  -4   1   1  220.08   15.10
  -4   1   1  241.08   21.60
   3  -1  -1 1439.86   51.99
   3  -1  -1 1642.84   56.69
  -3   1   1 1615.24   55.39
  -3   1   1 1634.44   45.10
  -3   1   1 1675.23   47.70
   2  -1  -1   67.49    9.90
   2  -1  -1   82.99    7.20
  -2   1   1   71.49    7.10
  -2   1   1   84.69    6.90
  -2   1   1   77.09   10.70
   1  -1  -1 5677.43  120.79
   1  -1  -1 5679.93  128.09
   1  -1  -1 5729.13  120.39
  -1   1   1 5545.44  127.89
  -1   1   1 5769.72  120.59
   0  -1  -1 2814.72   64.99
   0  -1  -1 2850.31   62.79
   0   1   1 2796.32   65.09
   0   1   1 2811.72   62.69
  -1  -1  -1  667.53   20.20
  -1  -1  -1  619.54   16.90
   1   1   1  613.24   16.80
   1   1   1  655.53   19.90
  -2  -1  -1  645.44   22.20
  -2  -1  -1  644.24   24.00
   2   1   1  660.83   22.10
  -3  -1  -1 4636.84  108.99
  -3  -1  -1 4416.56  106.69
   3   1   1 4024.00  116.79
   3   1   1 4249.27  105.39
   3   1   1 4410.76  106.29
  -4  -1  -1  708.13   33.40
  -4  -1  -1  637.04   30.50
   4   1   1  700.33   32.20
   4   1   1  701.63   31.60
  -5  -1  -1 1169.38   49.40
  -5  -1  -1 1077.69   45.20
   5   1   1 1165.88   46.40
   5   1   1 1206.18   49.50
   5   1   1 1098.59   49.40
  -6  -1  -1  785.72   43.60
  -6  -1  -1  830.42   41.50
   6   1   1  771.92   44.60
   6   1   1  796.32   43.50
   6   1   1  857.31   42.00
  -7  -1  -1  501.45   34.50
  -7  -1  -1  566.84   39.80
   7   1   1  493.55   34.00
   7   1   1  451.85   36.30
   7   1   1  438.06   37.50
  -8  -1  -1  225.58   30.00
   8   1   1  235.58   28.90
   8   1   1  237.78   34.60
  -9  -1  -1  261.07   37.90
  -9  -1  -1  295.97   36.00
   9   1   1  261.87   37.00
   9   1   1  305.97   35.80
 -10  -1  -1   73.19   21.80
  10   1   1   50.49   18.30
  10   1   1   66.79   27.20
   8  -2  -1   25.40   12.60
   8  -2  -1   38.10   18.70
   8  -2  -1   53.29   21.90
  -8   2   1   22.90    8.00
  -8   2   1   35.10    8.70
  -8   2   1   34.70   19.60
   7  -2  -1  788.62   42.70
   7  -2  -1  847.22   57.49
  -7   2   1  780.12   32.30
  -7   2   1  811.32   54.69
   6  -2  -1   44.30   16.50
   6  -2  -1   75.19   14.40
  -6   2   1   70.29   17.70
  -6   2   1   68.79   10.20
   5  -2  -1   31.50   12.50
   5  -2  -1   25.80    8.70
  -5   2   1   10.60    9.30
   4  -2  -1   94.79   17.30
   4  -2  -1   78.19   12.30
  -4   2   1   85.59    8.10
  -4   2   1   80.29   14.80
   3  -2  -1 1155.98   47.00
   3  -2  -1 1101.89   38.80
  -3   2   1 1132.39   45.80
  -3   2   1 1128.59   30.50
   2  -2  -1   37.10    9.30
   2  -2  -1   37.60    6.70
  -2   2   1   40.90    9.10
  -2   2   1   33.90    3.50
   1  -2  -1 2060.59   56.39
   1  -2  -1 2107.99   45.60
  -1   2   1 2031.20   56.29
   0  -2  -1   21.20    4.00
   0  -2  -1   23.10    3.60
   0   2   1   22.80    4.70
  -1  -2  -1 1601.44   43.30
   1   2   1 1543.65   41.70
  -2  -2  -1 1225.28   38.90
  -2  -2  -1 1324.07   37.50
   2   2   1 1231.88   36.50
   2   2   1 1324.27   40.00
  -3  -2  -1 1128.09   38.00
  -3  -2  -1 1076.19   37.50
  -3  -2  -1 1073.59   38.80
   3   2   1 1115.19   38.80
   3   2   1 1120.29   37.30
  -4  -2  -1 3986.90  105.09
  -4  -2  -1 3819.02  103.79
  -4  -2  -1 3942.71  104.39
   4   2   1 3940.01  105.79
   4   2   1 4088.79  104.29
   4   2   1 4105.49  104.69
  -5  -2  -1 2203.18   71.89
  -5  -2  -1 2152.58   69.69
   5   2   1 2148.49   72.89
   5   2   1 2024.40   68.29
   5   2   1 2126.69   70.49
  -6  -2  -1 1016.90   46.20
  -6  -2  -1  845.72   44.90
   6   2   1 1038.80   50.49
   6   2   1  969.10   44.80
   6   2   1  895.71   45.80
  -7  -2  -1  573.94   39.40
  -7  -2  -1  544.15   36.30
   7   2   1  473.65   37.90
   7   2   1  557.24   39.50
   7   2   1  556.24   35.90
  -8  -2  -1 1476.55   70.89
  -8  -2  -1 1377.96   64.09
   8   2   1 1428.86   72.39
   8   2   1 1330.57   66.89
   8   2   1 1346.97   62.59
  -9  -2  -1    5.90   11.20
  -9  -2  -1    2.70   12.20
   9   2   1   -3.20    9.90
   9   2   1    3.10   11.30
 -10  -2  -1  470.15   46.70
 -10  -2  -1  536.95   45.20
  10   2   1  519.45   48.00
  10   2   1  570.64   44.80
   7  -3  -1  584.84   48.10
   7  -3  -1  582.64   45.80
  -7   3   1  492.25   43.10
   6  -3  -1   19.60    8.90
   6  -3  -1   -5.60    9.50
   5  -3  -1 2867.91   88.19
   5  -3  -1 2872.61  101.59
  -5   3   1 2869.01   99.79
   4  -3  -1  165.98   19.20
   4  -3  -1  183.88   26.10
  -4   3   1  121.49   19.80
   3  -3  -1 3285.87   96.99
   3  -3  -1 3285.27   90.19
  -3   3   1 3255.57   96.09
   2  -3  -1 3944.11  103.79
   2  -3  -1 3924.41  100.49
  -2   3   1 3873.01  102.99
   1  -3  -1 5909.61  140.29
   1  -3  -1 6027.80  125.19
  -1   3   1 6312.57  141.49
   0  -3  -1   37.20    5.70
   0  -3  -1   30.60    7.20
   0   3   1   36.80    6.30
  -1  -3  -1 3712.23   84.99
  -1  -3  -1 3921.31   95.09
   1   3   1 3903.51   95.09
  -2  -3  -1 2800.72   72.19
  -2  -3  -1 2627.04   75.99
   2   3   1 2792.92   72.09
  -3  -3  -1  970.90   33.30
  -3  -3  -1  997.40   38.00
  -3  -3  -1  882.51   34.70
   3   3   1  968.50   37.70
   3   3   1  889.51   34.40
  -4  -3  -1 3894.91  104.39
  -4  -3  -1 3861.81  105.19
  -4  -3  -1 3944.01  101.59
   4   3   1 3887.71  105.09
   4   3   1 3951.70  103.79
  -5  -3  -1  253.57   21.60
  -5  -3  -1  251.37   21.30
  -5  -3  -1  226.68   19.60
   5   3   1  212.68   19.80
   5   3   1  246.28   21.70
  -6  -3  -1  491.85   32.30
  -6  -3  -1  494.05   32.20
   6   3   1  497.65   32.30
   6   3   1  441.56   31.40
   6   3   1  540.45   34.80
  -7  -3  -1    2.10    8.50
  -7  -3  -1   -4.80    7.80
   7   3   1   -8.00    7.90
   7   3   1   -8.10    6.10
   7   3   1   -1.00    7.90
  -8  -3  -1  305.97   44.90
  -8  -3  -1  339.97   32.80
   8   3   1  337.77   31.70
   8   3   1  363.96   32.90
  -9  -3  -1   39.70   17.20
  -9  -3  -1   47.30   15.70
   9   3   1   12.80   14.00
   9   3   1   41.50   16.40
 -10  -3  -1  601.04   47.40
 -10  -3  -1  593.44   50.19
  10   3   1  642.44   52.39
  10   3   1  751.82   51.09
   7  -4  -1  515.75   37.80
   7  -4  -1  520.85   48.00
  -7   4   1  499.05   46.50
   6  -4  -1  358.66   36.50
   6  -4  -1  390.06   31.00
  -6   4   1  407.06   38.00
   5  -4  -1  958.80   54.89
   5  -4  -1  870.71   44.10
  -5   4   1  907.31   51.69
   4  -4  -1  533.75   37.00
   4  -4  -1  525.35   32.20
  -4   4   1  597.64   37.80
   3  -4  -1  420.66   29.20
   3  -4  -1  434.96   27.40
  -3   4   1  402.06   28.00
   2  -4  -1  716.23   34.00
  -2   4   1  707.03   33.40
   1  -4  -1  613.04   16.50
   1  -4  -1  585.34   28.20
   1  -4  -1  639.44   16.50
  -1   4   1  628.04   27.30
   0  -4  -1 3950.10  106.49
   0  -4  -1 4013.90   93.49
   0   4   1 3986.00   93.89
  -1  -4  -1  343.57   13.50
  -1  -4  -1  407.46   23.40
  -2  -4  -1  294.67   19.70
  -2  -4  -1  261.17   19.40
   2   4   1  286.07   19.20
  -3  -4  -1  350.66   23.50
  -3  -4  -1  330.77   21.60
  -3  -4  -1  348.87   17.00
   3   4   1  328.77   21.30
  -4  -4  -1  676.53   34.10
  -4  -4  -1  726.13   30.40
  -4  -4  -1  693.63   35.40
   4   4   1  695.53   33.50
  -5  -4  -1 1025.80   42.60
  -5  -4  -1 1050.39   47.60
  -5  -4  -1 1084.79   47.70
   5   4   1 1043.00   45.60
   5   4   1 1051.59   47.50
  -6  -4  -1  977.80   45.40
  -6  -4  -1  992.40   49.20
   6   4   1  966.40   47.70
   6   4   1  870.81   45.40
  -7  -4  -1  105.69   20.10
  -7  -4  -1  123.49   20.90
   7   4   1  151.18   26.80
   7   4   1  126.49   23.00
  -8  -4  -1  669.93   44.40
  -8  -4  -1  603.64   42.30
   8   4   1  576.24   41.10
   8   4   1  562.44   40.80
  -9  -4  -1   40.10   16.80
  -9  -4  -1   38.10   15.70
   9   4   1   52.09   16.80
   9   4   1   59.09   16.50
 -10  -4  -1  181.48   31.60
 -10  -4  -1  223.38   34.00
  10   4   1  255.67   38.00
  10   4   1  230.48   32.50
   6  -5  -1  554.74   46.50
   6  -5  -1  613.34   41.60
  -6   5   1  800.92   53.69
   5  -5  -1  443.06   38.60
   5  -5  -1  454.75   41.60
  -5   5   1  561.24   40.90
   4  -5  -1  248.08   28.30
   4  -5  -1  257.87   26.70
  -4   5   1  238.38   28.70
   3  -5  -1  519.75   33.50
   3  -5  -1  502.45   33.10
  -3   5   1  492.45   32.20
   2  -5  -1  514.95   29.60
  -2   5   1  522.05   29.40
   1  -5  -1  847.32   21.70
   1  -5  -1  794.82   33.10
   1  -5  -1  744.13   41.20
   1  -5  -1  804.12   21.30
  -1   5   1  814.22   33.20
   0  -5  -1 2285.87   75.99
   0  -5  -1 2253.57   59.79
   0   5   1 2278.87   60.39
  -1  -5  -1 1265.97   33.10
  -1  -5  -1 1255.17   50.39
  -2  -5  -1 2910.21   87.69
  -2  -5  -1 2985.20   66.59
   2   5   1 3076.29   88.89
  -3  -5  -1  582.84   32.00
  -3  -5  -1  557.34   32.70
  -3  -5  -1  558.14   20.80
   3   5   1  573.44   31.40
  -4  -5  -1 1769.72   65.49
  -4  -5  -1 1687.23   51.49
  -4  -5  -1 1667.43   62.09
   4   5   1 1802.12   63.09
  -5  -5  -1   25.10   10.30
  -5  -5  -1   13.50    7.10
  -5  -5  -1   10.70    9.10
   5   5   1   32.60   10.30
  -6  -5  -1 4438.16  121.79
  -6  -5  -1 4262.07  129.99
  -6  -5  -1 4611.74  133.19
   6   5   1 4393.26  128.19
  -7  -5  -1  726.23   45.90
  -7  -5  -1  737.43   41.90
  -7  -5  -1  747.93   46.20
   7   5   1  711.43   44.80
   7   5   1  795.52   46.10
  -8  -5  -1 1354.56   63.19
  -8  -5  -1 1254.87   64.69
   8   5   1 1308.67   64.99
  -9  -5  -1   11.00   13.40
  -9  -5  -1   40.50   16.30
   9   5   1   28.40   13.30
   9   5   1   29.70   15.40
 -10  -5  -1  269.87   58.89
 -10  -5  -1  297.67   38.20
  10   5   1  342.57   42.10
   5  -6  -1  384.26   35.10
   5  -6  -1  441.86   39.60
   4  -6  -1  981.90   52.89
   4  -6  -1  930.31   52.19
  -4   6   1 1011.10   51.99
   3  -6  -1 1093.69   53.79
   3  -6  -1 1048.30   60.69
  -3   6   1 1100.29   49.99
   2  -6  -1 1545.75   57.79
  -2   6   1 1567.74   56.89
   1  -6  -1  134.99   13.90
   1  -6  -1  124.79   21.50
   1  -6  -1  107.99    6.00
   1  -6  -1  107.79    6.10
  -1   6   1  133.29   13.50
   0  -6  -1 1459.95   43.30
   0  -6  -1 1402.26   61.09
   0  -6  -1 1464.65   44.70
  -1  -6  -1  746.13   41.00
  -1  -6  -1  796.82   22.50
  -2  -6  -1 1480.05   59.29
   2   6   1 1407.36   57.99
  -3  -6  -1  111.79   19.10
  -3  -6  -1  111.39   18.50
  -3  -6  -1  103.79    6.80
   3   6   1  108.79   17.40
  -4  -6  -1 1681.03   64.79
  -4  -6  -1 1640.94   66.39
  -4  -6  -1 1603.34   46.70
   4   6   1 1570.14   62.39
  -5  -6  -1   10.40    8.70
  -5  -6  -1    2.50    7.10
  -5  -6  -1    0.40    4.90
   5   6   1    3.60    7.90
  -6  -6  -1  380.26   32.90
  -6  -6  -1  417.86   26.90
  -6  -6  -1  392.46   33.10
   6   6   1  407.36   32.90
  -7  -6  -1  415.96   36.20
  -7  -6  -1  436.56   30.90
  -7  -6  -1  409.56   35.20
   7   6   1  402.26   34.30
  -8  -6  -1  482.65   41.10
  -8  -6  -1  425.76   33.50
  -8  -6  -1  410.26   38.70
  -9  -6  -1   53.99   17.30
  -9  -6  -1   32.90   16.90
   9   6   1   33.30   16.00
 -10  -6  -1  563.14   46.00
 -10  -6  -1  466.75   46.00
  10   6   1  523.45   47.60
   4  -7  -1  766.42   49.40
   4  -7  -1  785.22   48.60
  -4   7   1  774.42   46.20
   3  -7  -1   38.40   14.30
   3  -7  -1   44.10   18.20
   3  -7  -1   22.10   11.40
  -3   7   1   25.90   11.00
   2  -7  -1 1160.28   63.79
   2  -7  -1 1184.48   49.90
  -2   7   1 1210.48   49.20
   1  -7  -1  116.29   22.90
   1  -7  -1  108.69   14.40
  -1   7   1   87.69   13.00
   0  -7  -1 1637.94   70.39
   0  -7  -1 1541.75   48.40
   0  -7  -1 1582.64   45.80
  -1  -7  -1  236.28   29.00
  -2  -7  -1 2912.11   98.49
  -3  -7  -1   22.60   11.70
  -3  -7  -1   13.60   11.20
   3   7   1    9.50    9.60
  -4  -7  -1 2565.14   90.99
  -4  -7  -1 2386.06   56.59
  -4  -7  -1 2281.37   85.09
   4   7   1 2306.97   84.79
  -5  -7  -1   30.30    7.40
  -5  -7  -1   48.20   15.20
   5   7   1   23.30   12.00
  -6  -7  -1 1269.37   47.80
  -6  -7  -1 1338.07   65.19
  -6  -7  -1 1289.77   73.99
   6   7   1 1228.48   60.49
  -7  -7  -1   92.49   21.10
  -7  -7  -1   91.99   15.70
  -7  -7  -1   90.69   21.30
  -8  -7  -1  749.23   52.49
  -8  -7  -1  789.42   55.09
  -8  -7  -1  779.62   53.09
   8   7   1  792.22   51.59
  -9  -7  -1   34.50   18.30
  -9  -7  -1    1.90   11.30
  -9  -7  -1   19.50   14.50
   9   7   1   12.70   14.70
   3  -8  -1   89.49   29.00
   3  -8  -1   69.19   20.50
  -3   8   1   54.59   14.10
   2  -8  -1  811.82   57.19
  -2   8   1  721.53   37.00
   1  -8  -1   51.29   19.00
   0  -8  -1 1335.27   66.79
   0  -8  -1 1252.47   42.50
  -1  -8  -1   11.40   11.30
  -1  -8  -1    2.60    6.30
  -2  -8  -1 1339.77   65.19
  -3  -8  -1  171.48   28.30
  -3  -8  -1  149.19   25.00
   3   8   1  195.78   27.70
  -4  -8  -1  382.46   34.20
  -4  -8  -1  415.16   36.80
   4   8   1  400.16   34.30
  -5  -8  -1  668.13   22.20
  -5  -8  -1  680.03   47.50
  -5  -8  -1  699.13   47.30
   5   8   1  761.92   47.20
  -6  -8  -1  786.42   32.70
  -6  -8  -1  896.61   54.49
  -6  -8  -1  872.61   54.69
  -7  -8  -1   91.69   23.10
  -7  -8  -1  139.19   27.90
  -7  -8  -1  125.89   17.10
   7   8   1  120.99   23.80
  -8  -8  -1  755.02   56.39
  -8  -8  -1  793.32   42.30
  -8  -8  -1  801.92   56.99
   8   8   1  817.12   54.39
  -9  -8  -1  182.78   25.60
  -9  -8  -1  199.48   34.40
   9   8   1  197.58   33.50
   2  -9  -1  527.25   48.20
   1  -9  -1  243.78   37.60
   0  -9  -1  890.01   33.00
   0  -9  -1  902.61   59.09
  -1  -9  -1   48.70   11.50
  -1  -9  -1   38.50   16.10
  -2  -9  -1  578.84   45.60
  -2  -9  -1  504.25   34.00
  -3  -9  -1   72.79   20.70
  -3  -9  -1   92.09   21.10
  -4  -9  -1  496.55   43.30
  -4  -9  -1  503.05   42.30
   4   9   1  533.15   43.00
  -5  -9  -1   61.09   19.40
  -5  -9  -1   48.70   19.10
   5   9   1   81.19   21.20
  -6  -9  -1  289.37   38.90
  -6  -9  -1  257.27   11.50
  -6  -9  -1  245.78   35.90
   6   9   1  253.07   34.80
  -7  -9  -1  194.88   16.00
  -7  -9  -1  186.48   32.80
  -7  -9  -1  164.78   31.00
   7   9   1  221.48   32.60
  -8  -9  -1   33.80   10.80
  -8  -9  -1  102.29   32.90
  -8  -9  -1   39.80   18.00
   8   9   1   32.20   18.40
   0 -10  -1  168.18   11.50
   0 -10  -1  128.79   30.30
  -1 -10  -1  231.48   36.30
  -1 -10  -1  251.37   21.90
  -2 -10  -1  506.45   34.80
  -2 -10  -1  505.35   45.60
  -3 -10  -1  147.79   29.10
  -3 -10  -1  145.89   31.00
  -3 -10  -1  103.69   21.40
  -4 -10  -1 1118.19   67.89
  -4 -10  -1 1274.07   63.89
  -4 -10  -1 1201.98   71.79
  -5 -10  -1   58.19   21.00
  -5 -10  -1   71.19   20.00
  -5 -10  -1   39.70   18.30
  -6 -10  -1  443.36   43.10
   6  10   1  408.76   42.00
  -7 -10  -1  264.47   40.80
   7  10   1  288.67   40.40
  -4 -10   2   16.80   17.50
  -4 -10   2   36.20   20.60
  -3 -10   2  368.56   45.50
  -3 -10   2  416.36   38.20
  -2 -10   2  656.93   54.39
  -2 -10   2  608.14   43.10
   6   9  -2   17.30   16.90
  -6  -9   2   28.80   17.70
  -6  -9   2   65.09   20.60
  -6  -9   2   31.00   29.60
   5   9  -2  642.04   50.79
  -5  -9   2  548.85   49.30
  -5  -9   2  703.23   55.99
  -5  -9   2  595.14   79.09
   4   9  -2   20.90   14.70
  -4  -9   2   41.90   17.80
  -4  -9   2   12.40   12.50
  -4  -9   2   21.80   16.60
   3   9  -2  282.17   63.59
  -3  -9   2  355.76   43.40
  -3  -9   2  461.65   39.00
  -2  -9   2   -2.80   12.50
  -2  -9   2    5.90    8.50
  -1  -9   2  378.46   38.80
  -1  -9   2  383.06   31.80
   0  -9   2  226.38   25.10
   0  -9   2  245.58   37.00
   1  -9   2  462.55   26.80
   1  -9   2  522.05   48.10
   7   8  -2  351.96   43.50
  -7  -8   2  426.36   50.69
  -7  -8   2  355.96   27.10
  -7  -8   2  366.26   44.10
  -6  -8   2  366.96   50.49
  -6  -8   2  462.65   42.70
  -6  -8   2  298.97   40.80
   5   8  -2  750.72   52.19
  -5  -8   2  707.33   51.99
  -5  -8   2  764.12   53.29
  -5  -8   2  793.82   53.89
  -4  -8   2   89.69   21.20
  -4  -8   2   95.69   22.90
  -4  -8   2   98.89   23.50
  -3  -8   2  921.41   57.29
  -3  -8   2  922.41   51.89
  -2  -8   2  214.08   32.30
  -2  -8   2  217.28   28.60
  -1  -8   2  941.91   48.30
  -1  -8   2  950.30   57.59
   0  -8   2 1232.18   66.99
   0  -8   2 1167.88   50.99
   1  -8   2  564.84   31.00
   1  -8   2  709.03   50.79
  -2   8  -2  630.24   31.70
   2  -8   2  569.84   47.90
   2  -8   2  630.94   26.20
  -3   8  -2  541.75   29.70
   3  -8   2  550.74   49.80
   3  -8   2  490.25   45.90
   8   7  -2  109.29   21.90
   8   7  -2  132.09   29.20
  -8  -7   2  116.69   29.00
  -8  -7   2   66.09   21.60
  -8  -7   2  111.59   26.70
  -8  -7   2   97.99   20.10
   7   7  -2  459.15   34.00
  -7  -7   2  491.25   46.40
  -7  -7   2  478.65   42.60
  -7  -7   2  489.25   34.00
   6   7  -2   68.89   22.60
   6   7  -2   66.99   13.50
  -6  -7   2  123.39   27.00
  -6  -7   2   59.69   13.30
  -6  -7   2   62.59   20.10
  -6  -7   2   97.39   21.80
  -5  -7   2  668.63   46.50
  -5  -7   2  572.64   28.40
  -5  -7   2  582.94   45.10
  -5  -7   2  591.14   45.50
  -4  -7   2  960.60   56.69
  -4  -7   2 1019.30   57.49
  -4  -7   2  897.91   52.59
  -3  -7   2 1064.39   57.49
  -3  -7   2 1029.90   53.69
  -2  -7   2 1225.68   56.99
  -2  -7   2 1324.77   64.59
  -1  -7   2   28.10   13.20
  -1  -7   2   45.20   12.50
   0  -7   2 1028.50   56.69
   0  -7   2  978.50   44.70
  -1   7  -2  633.74   21.20
   1  -7   2  652.73   32.70
   1  -7   2  715.63   47.40
  -2   7  -2 1044.00   38.00
   2  -7   2  945.41   36.50
   2  -7   2 1078.69   61.29
  -3   7  -2  137.99   17.60
   3  -7   2  114.49   24.70
   3  -7   2  147.19   27.50
  -4   7  -2  950.60   46.90
   4  -7   2 1038.00   65.89
   4  -7   2  930.41   61.59
   8   6  -2  101.49   24.50
   8   6  -2   92.79   21.60
  -8  -6   2  105.39   26.50
  -8  -6   2  106.49   27.90
  -8  -6   2   90.09   20.50
  -8  -6   2  115.09   24.10
   7   6  -2  246.78   35.10
   7   6  -2  192.18   26.10
  -7  -6   2  201.28   29.80
  -7  -6   2  240.48   35.80
  -7  -6   2  182.38   25.40
  -7  -6   2  222.08   34.40
   6   6  -2  248.18   23.70
  -6  -6   2  195.38   28.50
  -6  -6   2  212.98   21.20
  -6  -6   2  251.97   35.40
   5   6  -2  459.05   27.70
  -5  -6   2  462.35   36.10
  -5  -6   2  401.06   35.50
  -5  -6   2  367.76   35.00
  -5  -6   2  365.86   24.50
   4   6  -2  576.94   26.80
   4   6  -2  539.05   38.60
  -4  -6   2  594.34   40.90
  -4  -6   2  570.74   40.30
  -4  -6   2  582.54   26.50
  -4  -6   2  552.74   39.10
   3   6  -2  232.48   12.70
  -3  -6   2  284.07   27.90
  -3  -6   2  266.37   30.70
   2   6  -2  801.72   46.10
  -2  -6   2  883.01   44.50
  -2  -6   2  849.12   47.00
   1   6  -2  752.32   44.30
  -1  -6   2  672.23   37.00
  -1  -6   2  771.62   44.40
   0  -6   2  414.66   33.20
   0  -6   2  399.96   26.20
  -1   6  -2   19.20    5.30
   1  -6   2    8.90    6.40
   1  -6   2   18.10   11.30
  -2   6  -2 1362.76   47.00
   2  -6   2 1394.56   46.10
   2  -6   2 1485.95   68.49
  -3   6  -2   -4.20    5.30
   3  -6   2   32.70   14.20
   3  -6   2   -5.70    9.40
  -4   6  -2  993.20   47.60
   4  -6   2  940.61   58.49
   4  -6   2  913.81   58.29
  -5   6  -2   45.20   14.60
   5  -6   2   74.29   22.30
   5  -6   2   63.19   19.50
  -6   6  -2  815.22   51.59
   9   5  -2   78.29   23.70
  -9  -5   2   88.29   23.40
  -9  -5   2   52.09   22.70
   8   5  -2  154.38   46.80
   8   5  -2  282.47   37.30
  -8  -5   2  228.38   36.30
  -8  -5   2  201.98   29.40
  -8  -5   2  298.87   35.10
   7   5  -2  853.51   50.19
  -7  -5   2  817.32   53.49
  -7  -5   2  823.62   50.49
  -7  -5   2  780.82   54.69
  -7  -5   2  832.72   48.30
   6   5  -2 1296.87   66.49
  -6  -5   2 1364.86   61.99
  -6  -5   2 1399.56   68.59
  -6  -5   2 1375.56   57.89
   5   5  -2  212.78   27.80
   5   5  -2  174.78   21.20
  -5  -5   2  134.39   21.60
  -5  -5   2  183.08   18.60
  -5  -5   2  146.79   24.20
  -5  -5   2  181.88   27.00
   4   5  -2 1757.52   69.69
   4   5  -2 1688.83   56.09
  -4  -5   2 1677.63   55.29
  -4  -5   2 1709.33   70.89
  -4  -5   2 1686.43   70.09
   3   5  -2  604.34   25.20
   3   5  -2  509.95   34.60
  -3  -5   2  576.34   36.50
  -3  -5   2  725.13   45.90
  -3  -5   2  570.34   24.80
   2   5  -2 1261.77   53.19
   2   5  -2 1189.68   32.80
  -2  -5   2 1068.89   50.69
  -2  -5   2 1110.19   49.70
   1   5  -2  665.93   38.20
   1   5  -2  714.63   18.60
  -1  -5   2  719.83   39.60
  -1  -5   2  764.52   37.10
   0   5  -2 3659.13   82.69
   0  -5   2 3659.13  100.89
   0  -5   2 3795.12  111.79
  -1   5  -2   82.19    9.80
   1  -5   2   81.29   16.60
   1  -5   2   86.19   12.60
  -2   5  -2 1484.85   49.50
   2  -5   2 1492.25   64.49
   2  -5   2 1494.45   47.20
  -3   5  -2  133.39   17.80
   3  -5   2  146.19   11.00
   3  -5   2  154.18   24.40
   3  -5   2  154.48   25.10
  -4   5  -2  305.47   25.80
   4  -5   2  327.37   32.90
  -5   5  -2   20.50   10.80
   5  -5   2   12.00   10.40
   6  -5   2  436.96   40.70
   9   4  -2  146.89   29.50
   9   4  -2  175.88   33.40
  -9  -4   2  130.19   23.60
  -9  -4   2  202.68   32.30
  -9  -4   2  139.49   34.30
   8   4  -2  309.07   39.10
   8   4  -2  376.26   38.70
  -8  -4   2  347.77   35.50
  -8  -4   2  352.46   42.10
  -8  -4   2  316.07   31.10
   7   4  -2   23.30   14.80
  -7  -4   2   46.70   14.00
  -7  -4   2   20.40   11.70
   6   4  -2  303.07   28.80
  -6  -4   2  336.37   28.00
  -6  -4   2  305.67   30.60
  -6  -4   2  275.47   35.40
  -6  -4   2  301.17   27.10
   5   4  -2  152.58   21.30
   5   4  -2  148.89   22.60
  -5  -4   2  116.29   18.30
  -5  -4   2  107.59   20.80
  -5  -4   2  133.59   18.20
  -5  -4   2  137.89   23.20
   4   4  -2  831.82   37.40
   4   4  -2  826.02   43.10
  -4  -4   2  860.21   41.70
  -4  -4   2  876.11   52.79
  -4  -4   2  766.92   35.50
  -4  -4   2  807.22   44.00
   3   4  -2  196.28   15.20
   3   4  -2  167.18   20.40
  -3  -4   2  197.88   23.80
  -3  -4   2  160.98   21.00
  -3  -4   2  162.48   13.90
   2   4  -2  868.01   28.70
   2   4  -2  821.72   39.50
  -2  -4   2  781.12   38.60
  -2  -4   2  781.02   38.70
   1   4  -2  892.21   26.70
   1   4  -2  846.42   40.00
  -1  -4   2  946.91   39.90
  -1  -4   2  938.91   41.40
   0   4  -2  757.52   37.60
   0  -4   2  695.43   32.40
   0  -4   2  802.62   38.20
  -1   4  -2   86.99   12.00
  -1   4  -2   79.79    9.80
   1  -4   2   68.89   13.80
   1  -4   2   94.09   12.40
  -2   4  -2 2080.09   61.99
  -2   4  -2 2095.09   58.69
   2  -4   2 2043.00   72.99
   2  -4   2 2087.39   58.79
  -3   4  -2    4.70    6.20
  -3   4  -2   -4.00    2.70
   3  -4   2    0.80    3.30
   3  -4   2   11.70    9.10
  -4   4  -2 2252.07   55.99
  -4   4  -2 2205.78   76.19
   4  -4   2 2210.88   84.19
  -5   4  -2   65.79   16.00
   5  -4   2   88.69   19.70
  -6   4  -2  746.83   46.90
   6  -4   2  626.94   45.20
  -7   4  -2  -16.70    8.90
   7  -4   2   21.70   13.50
   9   3  -2  171.98   32.30
   9   3  -2  222.38   37.80
  -9  -3   2  162.78   30.80
  -9  -3   2  148.79   24.90
  -9  -3   2  127.09   27.30
   8   3  -2  513.85   44.90
   8   3  -2  508.75   44.20
  -8  -3   2  483.75   41.50
  -8  -3   2  503.15   48.80
  -8  -3   2  539.45   37.20
   7   3  -2  101.69   22.60
  -7  -3   2  124.99   22.70
  -7  -3   2  149.29   25.00
  -7  -3   2   97.19   18.10
   6   3  -2  389.76   32.30
   6   3  -2  295.37   28.70
  -6  -3   2  277.77   24.50
  -6  -3   2  306.17   28.00
   5   3  -2  534.25   35.70
   5   3  -2  577.14   35.40
  -5  -3   2  495.45   32.20
  -5  -3   2  562.34   36.30
  -5  -3   2  484.55   30.00
  -5  -3   2  521.35   36.60
   4   3  -2 1436.16   54.59
   4   3  -2 1468.15   58.99
  -4  -3   2 1453.65   53.99
  -4  -3   2 1484.85   60.69
  -4  -3   2 1507.15   60.49
  -4  -3   2 1498.65   53.99
   3   3  -2  321.97   20.50
   3   3  -2  296.27   22.60
  -3  -3   2  292.37   19.20
  -3  -3   2  318.97   23.60
  -3  -3   2  323.77   22.10
  -3  -3   2  321.37   24.20
   2   3  -2 5105.69  122.19
   2   3  -2 5259.07  132.49
  -2  -3   2 5232.58  133.99
  -2  -3   2 5406.66  134.19
   1   3  -2 3068.39   84.59
   1   3  -2 3050.59   72.79
  -1  -3   2 3021.10   84.49
  -1  -3   2 2925.51   83.69
   0   3  -2 1789.92   55.49
   0   3  -2 1817.42   58.29
   0  -3   2 1797.72   55.39
   0  -3   2 1750.22   57.49
  -1   3  -2   -5.90    2.80
   1  -3   2    0.00    3.60
   1  -3   2    2.20    5.10
  -2   3  -2 1950.01   58.99
  -2   3  -2 1942.81   54.59
   2  -3   2 2041.40   66.79
  -3   3  -2  612.64   23.80
  -3   3  -2  607.54   31.00
   3  -3   2  579.44   23.80
   3  -3   2  629.54   35.90
  -4   3  -2 2216.48   75.79
  -4   3  -2 2339.37   60.09
   4  -3   2 2310.27   81.69
  -5   3  -2  122.19   10.70
  -5   3  -2  138.49   21.10
   5  -3   2  110.09   19.60
  -6   3  -2  916.51   31.10
  -6   3  -2  989.20   54.09
   6  -3   2  967.50   52.89
  -7   3  -2  537.85   21.60
  -7   3  -2  618.54   45.90
   7  -3   2  531.35   42.20
  -8   3  -2  361.86   14.00
  -8   3  -2  405.06   52.09
  -8   3  -2  378.06   14.50
   8  -3   2  317.37   39.40
   9   2  -2   46.60   20.40
   9   2  -2    7.50   20.10
  -9  -2   2   37.60   16.20
  -9  -2   2   57.59   15.40
  -9  -2   2   29.60   18.50
   8   2  -2  554.04   45.90
   8   2  -2  453.75   43.90
  -8  -2   2  426.36   32.60
  -8  -2   2  410.46   40.90
  -8  -2   2  544.45   41.30
   7   2  -2 1048.50   60.29
  -7  -2   2 1090.99   49.20
  -7  -2   2 1059.29   54.69
  -7  -2   2 1042.30   58.29
   6   2  -2 1899.11   77.99
   6   2  -2 1911.51   78.49
  -6  -2   2 1941.11   66.79
  -6  -2   2 2066.59   81.29
  -6  -2   2 1891.71   74.09
   5   2  -2   -1.20    7.20
   5   2  -2   10.20    9.00
  -5  -2   2   23.50    9.70
  -5  -2   2   13.30    9.20
  -5  -2   2    0.60    5.40
   4   2  -2 2278.67   75.69
   4   2  -2 2365.66   78.19
  -4  -2   2 2312.97   76.79
  -4  -2   2 2346.17   75.09
  -4  -2   2 2420.86   69.39
  -4  -2   2 2207.68   77.79
   3   2  -2  340.47   23.20
   3   2  -2  291.47   20.30
  -3  -2   2  310.87   20.70
  -3  -2   2  307.57   22.80
  -3  -2   2  311.57   22.60
  -3  -2   2  325.67   19.70
   2   2  -2 2559.54   69.99
   2   2  -2 2618.54   74.09
  -2  -2   2 2512.95   74.89
  -2  -2   2 2682.03   70.49
  -2  -2   2 2555.34   73.99
   1   2  -2  174.08   13.60
   1   2  -2  146.09   13.70
  -1  -2   2  170.18   16.40
  -1  -2   2  154.78   13.80
   0   2  -2 6730.53  154.88
   0   2  -2 6840.12  154.98
   0  -2   2 6753.82  154.68
   0  -2   2 6739.23  154.88
  -1   2  -2  926.21   31.90
  -2   2  -2 1534.25   48.70
  -2   2  -2 1505.45   44.30
   2  -2   2 1604.54   54.19
   2  -2   2 1547.45   45.20
  -3   2  -2  415.06   24.90
  -3   2  -2  419.16   19.30
   3  -2   2  411.86   19.60
   3  -2   2  436.46   27.20
  -4   2  -2  537.05   23.20
  -4   2  -2  537.75   31.50
   4  -2   2  499.85   31.50
  -5   2  -2   34.50   11.70
   5  -2   2   30.60   11.10
  -6   2  -2   31.40   12.40
  -6   2  -2   41.40    9.20
  -7   2  -2  227.88   17.90
   7  -2   2  250.17   32.60
  -8   2  -2  166.18   16.50
  -8   2  -2  100.09   24.50
   8  -2   2  154.08   26.30
   9   1  -2   10.80   10.10
   9   1  -2   -9.70   15.10
   8   1  -2  498.15   45.30
   8   1  -2  586.84   50.29
   8   1  -2  563.94   36.10
  -8  -1   2  503.85   37.40
  -8  -1   2  565.74   47.10
  -8  -1   2  525.45   35.10
   7   1  -2  144.49   19.60
   7   1  -2  142.39   26.10
  -7  -1   2  179.48   29.30
  -7  -1   2  138.49   19.30
  -7  -1   2  168.38   23.90
   6   1  -2 1599.54   71.69
   6   1  -2 1536.15   57.09
   6   1  -2 1686.23   73.69
  -6  -1   2 1649.93   64.39
  -6  -1   2 1647.64   71.19
  -6  -1   2 1657.83   58.09
   5   1  -2   -3.80    6.70
   5   1  -2   12.60    9.30
   5   1  -2   -3.80    4.00
  -5  -1   2    1.40    7.40
  -5  -1   2    1.50    4.50
  -5  -1   2    9.50    7.20
   4   1  -2  766.62   30.90
   4   1  -2  718.13   38.40
   4   1  -2  829.62   40.70
  -4  -1   2  706.93   37.60
  -4  -1   2  710.53   29.90
  -4  -1   2  796.82   37.10
   3   1  -2   13.10    6.80
   3   1  -2   24.60    8.00
  -3  -1   2    7.30    4.00
  -3  -1   2   25.40    8.20
  -3  -1   2   15.20    6.60
   2   1  -2 1834.72   55.19
   2   1  -2 1687.03   53.69
  -2  -1   2 1765.02   53.89
  -2  -1   2 1715.73   54.39
  -2  -1   2 1778.52   55.49
  -2  -1   2 1771.32   47.70
   1   1  -2 3213.08   78.09
   1   1  -2 3123.89   77.59
   1   1  -2 3046.10   80.19
  -1  -1   2 3105.29   77.69
  -1  -1   2 3058.19   79.99
  -1  -1   2 2988.60   77.19
   0   1  -2 2023.70   51.99
   0   1  -2 2069.29   55.69
   0  -1   2 1957.40   54.79
   0  -1   2 1974.10   51.59
  -1   1  -2   19.60    5.00
   1  -1   2   39.30    9.60
   1  -1   2   25.50    4.90
   1  -1   2   31.90    5.90
  -2   1  -2 3670.83   88.99
   2  -1   2 3884.11   96.29
   2  -1   2 3639.34   89.49
  -3   1  -2   36.10    7.10
  -3   1  -2   45.10    9.90
  -3   1  -2   40.50    9.50
   3  -1   2   51.39   10.60
  -4   1  -2 3102.29   93.69
  -4   1  -2 3350.46   86.29
  -4   1  -2 3216.58   94.29
   4  -1   2 3277.27   94.49
  -5   1  -2 1887.51   70.29
  -5   1  -2 1908.11   58.89
  -5   1  -2 2002.70   70.69
   5  -1   2 1882.31   68.89
  -6   1  -2 3528.95  109.99
  -6   1  -2 3367.76   94.49
  -6   1  -2 3508.95  112.19
   6  -1   2 3487.25  108.59
  -7   1  -2   35.70   13.80
  -7   1  -2    9.80    7.30
  -7   1  -2   14.10   10.80
   7  -1   2   20.30   11.60
  -8   1  -2  613.74   46.30
  -8   1  -2  677.13   46.30
  -8   1  -2  562.54   32.70
   8  -1   2  533.05   41.30
  -9   1  -2  211.48   33.60
  -9   1  -2  151.28   20.30
   9  -1   2  193.18   30.50
   9  -1   2  138.89   29.70
   8   0  -2  659.63   53.69
   8   0  -2  576.84   49.50
   8   0  -2  739.53   40.20
  -8   0   2  661.43   47.40
  -8   0   2  666.83   38.70
  -8   0   2  764.52   54.69
   7   0  -2    3.20    7.90
   7   0  -2    0.50   10.80
  -7   0   2    4.50    8.20
  -7   0   2   12.10    8.80
   6   0  -2  667.03   45.30
   6   0  -2  675.53   45.20
   6   0  -2  634.44   32.60
  -6   0   2  641.44   33.20
  -6   0   2  601.84   34.70
   5   0  -2  155.38   14.90
   5   0  -2  152.78   22.90
   5   0  -2  141.69   21.60
  -5   0   2  144.19   14.50
  -5   0   2  156.88   23.00
  -5   0   2  163.18   19.60
   4   0  -2 2229.38   77.29
   4   0  -2 2308.97   62.99
   4   0  -2 2205.18   77.79
  -4   0   2 2311.27   69.79
  -4   0   2 2275.47   77.29
  -4   0   2 2266.37   62.59
   3   0  -2  528.95   29.20
   3   0  -2  442.46   27.20
   3   0  -2  439.06   18.90
  -3   0   2  461.85   19.10
  -3   0   2  505.55   28.50
  -3   0   2  498.75   24.80
   2   0  -2 3581.84   90.59
   2   0  -2 3425.16   93.19
   2   0  -2 3748.62   93.79
  -2   0   2 3503.55   79.49
  -2   0   2 3588.04   93.99
  -2   0   2 3504.75   89.49
   1   0  -2  800.12   28.20
   1   0  -2  810.72   29.00
   1   0  -2  807.02   30.20
  -1   0  -2 1991.10   51.09
  -1   0  -2 1984.00   51.99
   1   0   2 1980.60   50.99
   1   0   2 1866.81   51.89
   1   0   2 2003.70   45.10
  -2   0  -2  914.01   32.60
   2   0   2  905.21   30.70
   2   0   2  858.01   37.10
  -3   0  -2 1331.07   47.10
  -3   0  -2 1391.26   43.60
  -3   0  -2 1383.26   47.10
   3   0   2 1410.46   47.40
  -4   0  -2  948.41   41.50
  -4   0  -2  944.91   36.20
  -4   0  -2  899.91   39.60
   4   0   2  972.00   40.50
  -5   0  -2 2395.86   71.99
  -5   0  -2 2391.66   78.79
  -5   0  -2 2387.56   80.09
   5   0   2 2451.75   78.59
  -6   0  -2  557.64   36.90
  -6   0  -2  520.15   36.10
  -6   0  -2  548.15   30.70
   6   0   2  508.75   33.70
  -7   0  -2 2088.39   79.69
  -7   0  -2 1971.70   81.59
  -7   0  -2 2074.49   70.99
   7   0   2 1850.51  111.39
  -8   0  -2  111.09   18.80
  -8   0  -2  129.39   23.90
  -8   0  -2  125.19   24.70
   8   0   2  108.39   21.20
  -9   0  -2  481.45   40.60
  -9   0  -2  423.86   32.60
   9   0   2  465.35   43.30
   9   0   2  423.16   37.70
   8  -1  -2  285.47   44.90
   8  -1  -2  280.87   25.60
   8  -1  -2  253.97   37.90
  -8   1   2  339.77   26.20
  -8   1   2  330.47   43.10
   7  -1  -2    6.40    6.80
   7  -1  -2   14.30   14.40
   7  -1  -2  -16.40   10.10
  -7   1   2   -2.70    6.30
  -7   1   2    6.80   11.30
   6  -1  -2 1955.80   84.09
   6  -1  -2 1848.32   82.69
   6  -1  -2 1986.40   64.59
  -6   1   2 2025.50   66.19
  -6   1   2 1979.20   65.19
   5  -1  -2  359.06   32.70
   5  -1  -2  369.96   32.10
   5  -1  -2  360.16   21.80
  -5   1   2  413.66   39.20
  -5   1   2  370.76   22.90
  -5   1   2  345.17   22.00
   4  -1  -2 2465.85   84.39
   4  -1  -2 2467.65   66.59
  -4   1   2 2488.95   70.19
  -4   1   2 2503.45   83.89
  -4   1   2 2399.66   66.49
   3  -1  -2 1987.30   69.19
   3  -1  -2 2179.78   54.69
  -3   1   2 2054.79   69.39
  -3   1   2 2142.89   54.79
  -3   1   2 2108.69   59.39
   2  -1  -2 2414.66   71.49
   2  -1  -2 2312.77   62.79
   2  -1  -2 2408.36   54.89
  -2   1   2 2458.85   71.49
  -2   1   2 2301.87   61.89
   1  -1  -2  160.18   13.20
   1  -1  -2  139.39   10.40
  -1   1   2  200.98   14.40
   0  -1  -2 2822.42   61.69
   0  -1  -2 2897.21   69.79
   0  -1  -2 2957.50   72.89
   0   1   2 2851.81   72.69
   0   1   2 2922.41   70.09
   0   1   2 2844.72   61.69
  -2  -1  -2 9972.80  216.38
   2   1   2 9999.00  216.18
  -3  -1  -2 2821.62   79.79
   3   1   2 3134.99   76.39
   3   1   2 3160.88   81.39
  -4  -1  -2  933.31   39.70
  -4  -1  -2  869.51   37.60
   4   1   2  932.11   38.60
   4   1   2  870.61   35.30
  -5  -1  -2  306.97   24.10
  -5  -1  -2  315.07   23.40
   5   1   2  312.27   23.50
   5   1   2  252.57   20.90
  -6  -1  -2  414.76   29.80
  -6  -1  -2  419.86   30.90
   6   1   2  403.96   29.40
   6   1   2  363.96   28.10
  -7  -1  -2  657.73   43.00
  -7  -1  -2  641.34   39.90
   7   1   2  582.14   38.10
   7   1   2  653.43   41.10
  -8  -1  -2  225.98   30.10
   8   1   2  228.38   31.10
   8   1   2  219.58   29.40
  -9  -1  -2  777.32   51.29
  -9  -1  -2  693.73   52.09
   9   1   2  715.13   48.70
   9   1   2  740.73   52.09
 -10  -1  -2   -1.20   12.90
 -10  -1  -2   21.50   17.20
 -10  -1  -2    3.80   11.20
  10   1   2  -10.60   12.90
  10   1   2    9.60   12.70
   8  -2  -2  557.34   51.89
   8  -2  -2  513.75   34.20
  -8   2   2  546.45   28.50
   7  -2  -2   41.20   11.20
   7  -2  -2   30.30   17.10
   7  -2  -2   36.00   17.30
  -7   2   2   45.90    9.70
  -7   2   2   42.90   17.10
   6  -2  -2  523.15   29.80
   6  -2  -2  502.35   42.40
  -6   2   2  525.25   26.10
   5  -2  -2 1015.20   54.59
   5  -2  -2  912.01   38.00
  -5   2   2  933.81   34.90
  -5   2   2  941.61   51.59
   4  -2  -2 2538.25   69.49
   4  -2  -2 2400.36   89.09
  -4   2   2 2585.34   87.09
  -4   2   2 2533.35   66.89
   3  -2  -2  119.29   10.80
   3  -2  -2  136.69   19.30
  -3   2   2  140.79   10.70
  -3   2   2  160.58   20.40
   2  -2  -2 2074.19   66.09
   2  -2  -2 2093.19   54.09
   2  -2  -2 2158.88   53.19
  -2   2   2 2033.80   66.09
  -2   2   2 2076.79   53.29
   1  -2  -2 1180.58   33.70
   1  -2  -2 1217.88   42.00
  -1   2   2 1161.28   33.60
  -1   2   2 1160.98   41.30
   0  -2  -2  770.52   25.40
   0  -2  -2  777.92   28.70
   0   2   2  763.42   25.60
   0   2   2  788.22   29.40
  -1  -2  -2 2581.04   61.09
  -1  -2  -2 2666.13   63.59
  -1  -2  -2 2560.84   65.89
   1   2   2 2594.54   63.79
  -2  -2  -2 3062.89   67.59
  -2  -2  -2 2935.21   73.89
   2   2   2 2671.63   74.29
   2   2   2 2892.51   66.69
  -3  -2  -2 2762.62   69.89
  -3  -2  -2 2848.71   76.39
   3   2   2 2729.03   75.49
   3   2   2 2768.12   69.39
  -4  -2  -2 1068.39   42.40
  -4  -2  -2 1141.19   43.90
   4   2   2 1114.39   43.20
   4   2   2 1130.99   39.80
  -5  -2  -2 3579.64  103.49
  -5  -2  -2 3575.94  102.39
   5   2   2 3622.24  102.69
   5   2   2 3523.35   98.59
  -6  -2  -2  187.88   23.30
  -6  -2  -2  197.88   24.20
   6   2   2  170.38   21.40
   6   2   2  130.79   19.00
  -7  -2  -2 1581.24   65.09
   7   2   2 1447.56   63.19
   7   2   2 1490.75   63.79
  -8  -2  -2  308.77   41.50
  -8  -2  -2  312.77   32.20
   8   2   2  283.37   29.20
   8   2   2  349.67   31.30
  -9  -2  -2  438.16   38.40
  -9  -2  -2  426.06   40.50
   9   2   2  351.86   35.50
   9   2   2  462.95   39.70
 -10  -2  -2   21.30   16.00
 -10  -2  -2    4.60   14.40
  10   2   2   20.10   11.90
  10   2   2    6.40   14.10
   7  -3  -2  351.06   27.00
   7  -3  -2  310.47   43.60
  -7   3   2  247.18   38.00
   6  -3  -2  507.35   43.50
   6  -3  -2  467.85   29.60
  -6   3   2  476.25   17.50
  -6   3   2  428.36   38.40
   5  -3  -2  180.88   27.80
   5  -3  -2  222.08   18.90
  -5   3   2  186.78   27.40
  -5   3   2  161.58    9.70
   4  -3  -2  503.55   35.80
   4  -3  -2  525.15   26.70
  -4   3   2  476.25   17.30
  -4   3   2  475.75   34.30
   3  -3  -2 1201.68   51.79
   3  -3  -2 1150.48   40.60
  -3   3   2 1185.88   51.59
  -3   3   2 1194.78   31.40
   2  -3  -2  939.71   34.20
   2  -3  -2 1032.70   43.00
  -2   3   2 1037.60   43.20
  -2   3   2  999.90   27.50
   1  -3  -2 7179.18  152.38
   1  -3  -2 7060.09  165.88
  -1   3   2 7051.79  166.78
   0  -3  -2 1612.14   48.80
   0  -3  -2 1666.93   44.40
   0   3   2 1618.44   49.60
  -1  -3  -2 3962.10   95.69
  -1  -3  -2 3889.41   95.09
  -1  -3  -2 3968.20   95.49
  -1  -3  -2 3954.80   94.19
  -2  -3  -2   28.40    5.60
   2   3   2   27.30    5.90
   2   3   2   26.60    6.50
  -3  -3  -2 1217.08   39.80
  -3  -3  -2 1240.18   44.50
   3   3   2 1236.38   44.70
   3   3   2 1334.97   46.00
  -4  -3  -2   15.90    7.00
  -4  -3  -2   10.50    6.40
  -4  -3  -2   12.70    6.00
   4   3   2    3.20    4.20
   4   3   2   17.90    7.10
  -5  -3  -2 2983.20   88.69
  -5  -3  -2 2688.43   83.39
  -5  -3  -2 2774.32   85.59
   5   3   2 2855.41   86.99
   5   3   2 2903.51   83.49
  -6  -3  -2    1.20    7.00
  -6  -3  -2    4.70    7.50
   6   3   2    1.70    6.50
   6   3   2    8.40    8.10
  -7  -3  -2 2012.90   76.79
  -7  -3  -2 1938.41   76.39
   7   3   2 2071.39   75.49
   7   3   2 1881.61   74.49
  -8  -3  -2  238.98   31.00
  -8  -3  -2  236.18   31.30
   8   3   2  267.37   31.80
   8   3   2  282.37   33.30
  -9  -3  -2  773.52   52.79
  -9  -3  -2  776.92   51.49
   9   3   2  794.52   94.09
   9   3   2  722.03   49.60
 -10  -3  -2    7.50   13.70
 -10  -3  -2  -11.00   11.80
  10   3   2  -22.90   12.10
  10   3   2   36.50   16.30
   6  -4  -2  662.53   50.19
   6  -4  -2  672.23   37.10
  -6   4   2  673.83   50.49
   5  -4  -2  805.82   39.70
   5  -4  -2  874.11   53.19
   4  -4  -2  433.56   26.80
   4  -4  -2  457.75   35.60
   3  -4  -2 1769.42   67.29
   3  -4  -2 1667.83   57.19
  -3   4   2 1728.93   66.29
   2  -4  -2  221.08   20.30
   2  -4  -2  187.88   16.30
  -2   4   2  183.08   18.60
   1  -4  -2  304.07   12.30
   1  -4  -2  300.37   20.40
  -1   4   2  302.57   20.90
   0  -4  -2  320.77   22.60
   0  -4  -2  309.17   15.40
   0   4   2  293.97   18.40
  -1  -4  -2 2467.85   64.29
  -1  -4  -2 2432.36   70.79
  -2  -4  -2  313.37   19.50
  -2  -4  -2  318.87   20.50
   2   4   2  330.97   19.50
  -3  -4  -2 4013.80  102.69
  -3  -4  -2 4043.20  107.69
   3   4   2 4070.99  102.49
  -4  -4  -2  633.94   30.70
  -4  -4  -2  612.74   29.10
  -4  -4  -2  616.44   33.10
   4   4   2  629.34   29.70
   4   4   2  629.74   33.40
  -5  -4  -2  877.11   39.90
  -5  -4  -2  932.51   44.20
  -5  -4  -2  901.81   41.00
   5   4   2  941.31   44.40
   5   4   2  972.40   41.00
  -6  -4  -2  175.38   22.80
  -6  -4  -2  188.48   28.00
  -6  -4  -2  156.28   20.20
   6   4   2  155.88   20.30
   6   4   2  181.98   23.90
  -7  -4  -2  565.34   38.70
  -7  -4  -2  590.34   37.80
   7   4   2  627.24   38.10
  -8  -4  -2   72.09   17.90
  -8  -4  -2   88.19   20.00
   8   4   2   50.29   15.50
   8   4   2   53.59   16.90
  -9  -4  -2  536.15   42.50
  -9  -4  -2  592.64   44.50
   9   4   2  592.74   44.00
 -10  -4  -2  124.69   25.90
 -10  -4  -2  134.39   37.50
  10   4   2  148.29   29.40
  10   4   2   93.99   21.40
   6  -5  -2    8.40   12.40
  -6   5   2   11.20   15.30
   5  -5  -2  635.54   38.00
   5  -5  -2  760.92   50.99
  -5   5   2  641.64   56.39
   4  -5  -2  187.48   28.80
   4  -5  -2  189.98   22.40
  -4   5   2  228.38   29.50
   3  -5  -2 1068.49   46.40
   3  -5  -2 1082.49   51.99
  -3   5   2 1055.99   50.79
   2  -5  -2  624.34   34.70
  -2   5   2  577.94   33.80
   1  -5  -2 1024.80   41.30
   1  -5  -2  954.60   26.10
  -1   5   2 1042.50   42.10
   0  -5  -2    4.30    6.80
   0  -5  -2    6.30    5.00
   0  -5  -2    2.20    3.40
   0   5   2    1.10    4.40
  -1  -5  -2 2178.88   70.69
  -1  -5  -2 2175.98   58.89
  -2  -5  -2  162.28   11.40
  -2  -5  -2  140.79   17.90
  -2  -5  -2  132.79   17.80
   2   5   2  138.19   17.60
  -3  -5  -2 3942.41  104.69
  -3  -5  -2 3778.22  107.69
   3   5   2 3775.42  103.49
  -4  -5  -2  124.19   18.50
  -4  -5  -2  113.89   15.90
  -4  -5  -2   93.19   12.20
   4   5   2  111.59   15.70
  -5  -5  -2 2505.55   84.29
  -5  -5  -2 2381.06   74.39
  -5  -5  -2 2559.54   80.59
   5   5   2 2441.36   78.19
  -6  -5  -2 1078.99   52.49
  -6  -5  -2 1003.30   45.70
  -6  -5  -2 1086.49   50.59
   6   5   2 1035.10   51.79
   6   5   2 1043.10   48.20
  -7  -5  -2 1912.91   76.49
  -7  -5  -2 1926.01   72.99
  -7  -5  -2 2051.79   80.79
   7   5   2 1908.21   73.99
   7   5   2 1949.20   78.79
  -8  -5  -2   96.99   20.40
  -8  -5  -2   93.29   21.60
   8   5   2   93.39   20.20
   8   5   2  101.29   20.50
  -9  -5  -2  923.41   57.39
  -9  -5  -2  987.40   56.59
   9   5   2  791.32   52.99
   9   5   2  900.61   55.89
 -10  -5  -2  122.19   26.30
 -10  -5  -2   85.39   21.90
  10   5   2   79.49   22.70
   5  -6  -2  265.67   36.40
   5  -6  -2  360.06   30.30
  -5   6   2  384.46   37.50
   4  -6  -2   58.49   14.10
   4  -6  -2   64.39   18.70
  -4   6   2   81.59   18.90
   3  -6  -2  984.40   48.30
   3  -6  -2  923.81   49.10
  -3   6   2 1046.80   51.49
   2  -6  -2   84.09   16.00
  -2   6   2   71.79   14.60
   1  -6  -2 2564.34   78.09
   1  -6  -2 2517.85   90.99
  -1   6   2 2588.04   78.39
   0  -6  -2   21.00    5.80
   0  -6  -2   19.50    6.80
   0  -6  -2   11.80   15.60
  -1  -6  -2 2950.10   76.19
  -1  -6  -2 3093.89   94.99
  -2  -6  -2  232.78   21.90
  -2  -6  -2  237.28   13.30
  -2  -6  -2  212.08   24.40
  -3  -6  -2  939.01   43.90
  -3  -6  -2  922.51   45.50
   3   6   2  948.11   43.60
  -4  -6  -2  105.89   17.30
  -4  -6  -2   87.09   11.60
   4   6   2   87.39   15.50
  -5  -6  -2  658.13   38.80
  -5  -6  -2  747.23   43.20
  -5  -6  -2  734.13   32.90
   5   6   2  725.73   39.30
  -6  -6  -2    1.40    9.90
  -6  -6  -2    7.30    9.20
  -6  -6  -2   11.20    7.30
   6   6   2   20.50   10.30
  -7  -6  -2  211.28   25.50
  -7  -6  -2  296.07   33.80
  -7  -6  -2  232.08   30.40
   7   6   2  259.27   31.00
  -8  -6  -2  760.32   49.70
  -8  -6  -2  745.93   45.40
  -8  -6  -2  860.41   53.19
   8   6   2  772.22   48.00
  -9  -6  -2  156.28   27.40
  -9  -6  -2  165.18   28.60
   9   6   2  157.58   27.80
   9   6   2  235.58   32.90
 -10  -6  -2   19.60   13.60
 -10  -6  -2   -0.10   11.80
   4  -7  -2    2.30    9.50
   4  -7  -2   -6.60   11.20
   3  -7  -2  681.33   43.00
   3  -7  -2  632.14   42.10
  -3   7   2  792.82   46.00
   2  -7  -2   48.40   13.00
   2  -7  -2   53.99   17.70
  -2   7   2   39.80   12.10
   1  -7  -2  733.33   36.30
   1  -7  -2  717.53   47.30
  -1   7   2  807.92   37.90
   0  -7  -2  153.38   14.50
   0  -7  -2  125.09   11.40
   0  -7  -2  143.59   23.80
  -1  -7  -2   53.09    8.10
  -1  -7  -2   19.80   10.80
  -2  -7  -2  522.25   35.60
  -2  -7  -2  511.85   19.20
  -3  -7  -2 1122.99   54.59
  -3  -7  -2 1050.89   50.89
  -3  -7  -2 1079.29   31.40
  -3  -7  -2 1073.29   31.90
   3   7   2 1093.19   51.79
  -4  -7  -2   67.19   17.30
  -4  -7  -2   48.00   14.00
  -4  -7  -2   54.69   10.10
   4   7   2   46.00   13.00
  -5  -7  -2  989.70   37.80
  -5  -7  -2  960.50   52.79
  -5  -7  -2 1122.09   54.19
   5   7   2  977.70   49.70
  -6  -7  -2    4.60    6.20
  -6  -7  -2   20.60   12.20
  -6  -7  -2   12.90   10.60
   6   7   2   12.80   11.30
  -7  -7  -2  288.47   29.90
  -7  -7  -2  282.47   37.00
  -7  -7  -2  323.47   25.80
   7   7   2  338.77   32.10
  -8  -7  -2   49.00   16.80
  -8  -7  -2   23.00   12.30
  -8  -7  -2   29.70   15.50
  -9  -7  -2  192.18   27.40
  -9  -7  -2  197.38   33.10
  -9  -7  -2  158.38   29.70
   9   7   2  202.38   31.10
 -10  -7  -2  316.07   42.10
 -10  -7  -2  367.66   36.00
  10   7   2  431.36   40.50
   3  -8  -2  711.63   86.69
   3  -8  -2  798.02   51.39
  -3   8   2  871.91   48.70
   2  -8  -2  -10.40   11.10
  -2   8   2   -1.00    8.70
   1  -8  -2 1019.80   44.00
   1  -8  -2  997.00   59.99
   0  -8  -2   77.39   19.80
   0  -8  -2   70.19   10.00
   0  -8  -2   66.89   10.70
   0  -8  -2   67.59    9.50
  -1  -8  -2 1422.56   41.00
  -1  -8  -2 1429.06   67.29
  -3  -8  -2 1054.19   72.69
  -3  -8  -2 1032.70   54.19
  -4  -8  -2  572.34   17.70
  -4  -8  -2  601.94   42.70
  -4  -8  -2  519.85   17.00
  -4  -8  -2  574.74   40.50
   4   8   2  493.65   37.60
  -5  -8  -2 1408.96   68.39
  -5  -8  -2 1393.66   51.09
   5   8   2 1339.77   64.19
  -6  -8  -2  344.87   22.40
  -6  -8  -2  416.56   36.20
  -6  -8  -2  355.66   35.30
   6   8   2  373.26   33.70
  -7  -8  -2  216.28   32.60
  -7  -8  -2  303.87   37.00
  -7  -8  -2  312.17   24.00
  -8  -8  -2  172.78   30.80
  -8  -8  -2  140.89   20.40
  -8  -8  -2  142.99   27.20
   8   8   2  165.08   29.00
  -9  -8  -2  406.96   41.60
  -9  -8  -2  341.07   45.50
  -9  -8  -2  350.06   31.70
   9   8   2  353.96   47.50
   1  -9  -2  351.06   44.20
   1  -9  -2  332.67   23.40
   0  -9  -2  139.99   10.70
   0  -9  -2  172.18   30.50
  -1  -9  -2  944.71   57.79
  -1  -9  -2  877.71   39.00
  -1  -9  -2  923.91   39.90
  -2  -9  -2  179.88   30.30
  -2  -9  -2  185.78   29.20
  -3  -9  -2  225.98   33.00
  -3  -9  -2  223.58   31.40
  -4  -9  -2  255.17   35.50
  -4  -9  -2  196.68   29.70
  -5  -9  -2  107.19   23.60
  -5  -9  -2   92.69   21.60
  -6  -9  -2  277.47   37.00
  -6  -9  -2  249.97   16.90
  -6  -9  -2  285.97   37.80
   6   9   2  278.07   35.20
  -7  -9  -2  465.35   26.50
  -7  -9  -2  493.75   45.00
  -7  -9  -2  452.55   41.10
   7   9   2  464.55   40.40
  -8  -9  -2  297.87   24.90
  -8  -9  -2  398.06   46.50
  -8  -9  -2  214.08   36.90
   8   9   2  351.16   42.80
   0 -10  -2   44.60   21.50
  -1 -10  -2  639.64   31.80
  -1 -10  -2  696.13   33.40
  -2 -10  -2  183.58   31.90
  -2 -10  -2  220.88   33.40
  -2 -10  -2  196.78   23.90
  -3 -10  -2  280.87   37.80
  -3 -10  -2  246.28   30.60
  -3 -10  -2  297.17   38.10
  -4 -10  -2  246.98   36.00
  -4 -10  -2  255.17   36.40
  -5 -10  -2  389.36   38.70
  -5 -10  -2  458.35   44.90
   5  10   2  396.26   40.30
  -6 -10  -2  414.46   48.60
  -6 -10  -2  439.36   43.20
   6  10   2  430.56   41.80
  -7 -10  -2  224.98   19.50
  -7 -10  -2  226.38   37.30
  -7 -10  -2  257.57   38.10
   7  10   2  260.67   36.80
  -5  -9   3  106.19   24.80
  -5  -9   3  123.29   33.20
  -5  -9   3  186.28   36.10
   4   9  -3  365.56   45.20
  -4  -9   3  289.97   41.20
   3   9  -3  315.77   41.40
  -3  -9   3  368.56   36.30
  -3  -9   3  345.27   44.30
  -2  -9   3  271.77   34.10
  -2  -9   3  279.67   38.80
  -1  -9   3   14.70   16.00
  -1  -9   3   51.59   16.20
   0  -9   3  393.16   32.20
   0  -9   3  266.47   59.19
   1  -9   3  368.26   28.00
   1  -9   3  351.26   44.60
   6   8  -3  260.07   39.00
  -6  -8   3  270.37   40.30
  -6  -8   3  250.17   37.60
   5   8  -3  227.38   35.40
  -5  -8   3  273.77   39.50
  -5  -8   3  346.17   41.90
  -5  -8   3  211.78   33.50
   4   8  -3  318.07   39.80
  -4  -8   3  301.47   37.60
  -4  -8   3  350.06   43.40
   3   8  -3  405.86   40.50
  -3  -8   3  485.75   39.70
  -3  -8   3  481.95   43.20
   2   8  -3  728.73   52.79
  -2  -8   3  860.41   50.69
  -2  -8   3  874.51   56.19
  -1  -8   3  304.47   38.60
  -1  -8   3  312.47   29.30
   0  -8   3  152.08   28.60
   0  -8   3  145.39   22.50
   1  -8   3  764.92   53.79
   1  -8   3  626.94   36.80
   2  -8   3   44.30   20.20
   2  -8   3   51.69   11.80
  -3   8  -3  272.57   20.50
   3  -8   3  295.87   43.10
   3  -8   3  264.57   38.30
   7   7  -3  889.31   49.90
   7   7  -3  885.21   61.09
  -7  -7   3  874.21   47.80
  -7  -7   3  801.92   55.79
  -7  -7   3  935.11   63.29
   6   7  -3  289.47   44.40
   6   7  -3  255.27   24.00
  -6  -7   3  243.88   36.80
  -6  -7   3  233.28   35.90
  -6  -7   3  223.98   23.10
  -6  -7   3  252.47   36.00
   5   7  -3  367.36   25.50
   5   7  -3  513.95   42.80
  -5  -7   3  446.06   41.50
  -5  -7   3  468.75   41.30
  -5  -7   3  465.75   41.30
   4   7  -3  265.97   33.90
   4   7  -3  279.27   25.10
  -4  -7   3  294.57   37.60
  -4  -7   3  242.18   34.30
  -4  -7   3  246.08   33.60
   3   7  -3  508.15   41.80
  -3  -7   3  616.04   43.00
  -3  -7   3  586.54   44.10
   2   7  -3  223.38   30.80
  -2  -7   3  218.08   31.70
  -2  -7   3  245.48   30.30
   1   7  -3 1415.56   69.99
  -1  -7   3 1530.45   64.49
  -1  -7   3 1507.85   70.79
   0  -7   3   -3.20    8.90
   0  -7   3   23.50    9.40
  -1   7  -3  590.54   20.40
   1  -7   3  546.45   42.80
   1  -7   3  519.25   32.80
  -2   7  -3   72.29   11.00
   2  -7   3   53.49   12.30
   2  -7   3   48.60   18.10
  -3   7  -3  631.34   33.10
   3  -7   3  675.13   53.19
   3  -7   3  648.74   28.80
   3  -7   3  612.74   48.20
  -4   7  -3  168.98   22.20
   4  -7   3  146.39   29.50
   4  -7   3  198.28   33.90
   8   6  -3    5.90   11.80
  -8  -6   3   36.40   16.00
  -8  -6   3   20.40   13.50
  -8  -6   3   -8.50   13.50
  -8  -6   3   22.80   18.60
   7   6  -3  338.77   45.10
   7   6  -3  366.96   33.30
  -7  -6   3  286.67   35.00
  -7  -6   3  348.87   44.50
  -7  -6   3  300.27   51.39
  -7  -6   3  337.07   31.10
   6   6  -3  300.97   28.60
   6   6  -3  322.27   38.40
  -6  -6   3  290.57   38.80
  -6  -6   3  316.67   40.40
  -6  -6   3  334.77   28.40
  -6  -6   3  359.56   34.00
   5   6  -3  213.58   30.80
   5   6  -3  230.58   21.60
  -5  -6   3  191.88   28.80
  -5  -6   3  214.38   31.90
  -5  -6   3  183.08   21.80
   4   6  -3  238.28   19.10
   4   6  -3  293.07   29.80
  -4  -6   3  251.57   31.70
  -4  -6   3  329.27   31.70
  -4  -6   3  218.18   30.30
   3   6  -3  654.13   31.90
   3   6  -3  675.13   43.30
  -3  -6   3  663.53   42.90
   2   6  -3   19.00    4.70
   2   6  -3   38.20   13.70
  -2  -6   3   42.20   12.60
  -2  -6   3   14.40   10.80
   1   6  -3  759.12   21.60
   1   6  -3  736.43   21.80
   1   6  -3  769.22   46.20
  -1  -6   3  739.63   45.10
  -1  -6   3  776.82   42.60
   0   6  -3 1601.94   42.40
   0   6  -3 1663.63   42.80
   0  -6   3 1667.23   63.49
   0  -6   3 1663.23   70.79
   1  -6   3  251.57   22.40
  -2   6  -3   14.90    6.50
   2  -6   3   -0.70    9.00
   2  -6   3   15.00    7.90
  -3   6  -3 1209.38   48.30
   3  -6   3 1119.89   42.30
   3  -6   3 1179.68   63.39
   3  -6   3 1205.28   66.59
  -4   6  -3    9.00    9.80
   4  -6   3   20.20   13.50
   4  -6   3    4.70   13.20
  -5   6  -3  808.52   46.60
   5  -6   3  850.81   59.09
   8   5  -3  119.99   25.30
   8   5  -3  117.59   26.30
  -8  -5   3  166.08   28.60
  -8  -5   3  113.89   25.80
  -8  -5   3  111.19   22.30
   7   5  -3  184.88   30.60
   7   5  -3  109.29   22.30
  -7  -5   3  164.88   29.00
  -7  -5   3  143.19   23.80
  -7  -5   3   95.69   24.90
  -7  -5   3  179.88   27.90
   6   5  -3 1025.90   58.69
   6   5  -3 1008.80   51.89
  -6  -5   3  951.80   57.69
  -6  -5   3  978.00   50.89
  -6  -5   3  901.21   57.09
  -6  -5   3 1049.20   53.79
   5   5  -3  475.05   32.10
   5   5  -3  531.15   39.60
  -5  -5   3  466.35   31.00
  -5  -5   3  484.65   36.60
  -5  -5   3  487.25   39.20
   4   5  -3  135.99   17.70
   4   5  -3  125.69   21.70
  -4  -5   3  114.59   21.50
  -4  -5   3  172.28   24.50
  -4  -5   3  137.99   23.10
  -4  -5   3  123.99   16.80
   3   5  -3 1959.20   74.69
   3   5  -3 1744.73   57.29
  -3  -5   3 1860.81   73.99
  -3  -5   3 1959.70   75.09
   2   5  -3   69.89    9.60
   2   5  -3   93.29   18.00
  -2  -5   3   65.19   15.40
  -2  -5   3   79.69   16.80
   1   5  -3 2139.49   55.99
   1   5  -3 2132.59   77.59
  -1  -5   3 2210.68   75.49
  -1  -5   3 2007.00   77.49
   0   5  -3   11.50    8.70
   0   5  -3    4.50    3.90
   0  -5   3    7.00    7.20
   0  -5   3   12.30    9.00
  -1   5  -3 3523.95   89.99
   1  -5   3 3583.14  111.19
   1  -5   3 3554.44  100.49
  -2   5  -3   83.99   13.60
  -2   5  -3   76.89   12.10
   2  -5   3   86.29   17.90
   2  -5   3   93.29   13.70
  -3   5  -3 1015.80   39.20
  -3   5  -3 1027.70   44.20
   3  -5   3 1053.49   40.20
   3  -5   3  946.61   63.19
   3  -5   3  970.90   55.59
  -4   5  -3  172.18   22.40
   4  -5   3  184.68   29.80
   4  -5   3  211.28   30.80
  -5   5  -3 1164.68   56.89
   5  -5   3 1197.48   66.49
   5  -5   3 1235.38   66.69
   6  -5   3  199.68   32.00
   8   4  -3  430.66   42.80
   8   4  -3  368.26   44.60
  -8  -4   3  361.96   36.00
  -8  -4   3  391.36   33.40
  -8  -4   3  329.07   41.50
   7   4  -3 1241.38   64.29
   7   4  -3 1175.18   65.69
  -7  -4   3 1058.99   62.49
  -7  -4   3 1239.98   62.59
  -7  -4   3 1066.09   53.99
   6   4  -3   52.89   16.30
   6   4  -3   57.99   17.70
  -6  -4   3   59.49   19.30
  -6  -4   3   73.69   16.90
  -6  -4   3   71.39   16.00
   5   4  -3 3201.88  106.79
   5   4  -3 3283.77  109.49
  -5  -4   3 3279.37  101.79
  -5  -4   3 3308.57  119.39
  -5  -4   3 3287.47  101.29
  -5  -4   3 3246.68  110.79
   4   4  -3  627.04   34.70
   4   4  -3  673.73   40.80
  -4  -4   3  638.54   40.40
  -4  -4   3  651.03   37.10
  -4  -4   3  614.24   39.80
  -4  -4   3  653.63   34.40
   3   4  -3  958.00   46.40
   3   4  -3  898.71   38.30
  -3  -4   3  944.71   39.20
  -3  -4   3  920.01   46.80
  -3  -4   3  953.50   49.00
   2   4  -3  304.07   24.80
   2   4  -3  317.77   19.20
  -2  -4   3  324.57   25.90
  -2  -4   3  315.97   25.80
   1   4  -3 3010.40   92.59
   1   4  -3 3053.79   78.39
  -1  -4   3 3221.78   94.69
  -1  -4   3 3071.19   93.29
   0   4  -3  390.96   27.70
   0   4  -3  410.86   26.60
   0  -4   3  379.16   25.40
   0  -4   3  350.86   26.00
  -1   4  -3 1769.52   59.59
   1  -4   3 1859.31   66.09
   1  -4   3 1670.93   58.59
  -2   4  -3   35.50    9.00
  -2   4  -3   34.40    9.10
   2  -4   3   27.70    8.30
   2  -4   3   31.80   11.10
  -3   4  -3 1135.39   41.50
  -3   4  -3 1119.29   46.20
   3  -4   3 1143.59   56.39
   3  -4   3 1092.69   41.70
   3  -4   3 1160.98   53.99
  -4   4  -3   11.20    5.80
  -4   4  -3    5.70    8.60
   4  -4   3   12.00    9.70
   4  -4   3   31.10   12.60
  -5   4  -3  821.12   46.40
   5  -4   3  837.22   51.89
  -6   4  -3  123.09   10.80
  -6   4  -3  138.29   24.00
   6  -4   3   97.39   21.80
  -7   4  -3  664.13   48.10
   7  -4   3  698.53   52.99
   8   3  -3   40.10   18.80
   8   3  -3    9.60   14.50
  -8  -3   3   31.30   16.20
  -8  -3   3   37.70   16.50
  -8  -3   3   31.40   13.20
   7   3  -3  426.86   39.40
   7   3  -3  374.16   38.50
  -7  -3   3  372.06   34.80
  -7  -3   3  419.36   30.70
   6   3  -3    4.80    9.90
   6   3  -3   -6.70    8.90
  -6  -3   3   12.30   10.20
  -6  -3   3   -7.30    5.70
  -6  -3   3    5.40    9.60
   5   3  -3  777.32   43.60
   5   3  -3  734.43   44.80
  -5  -3   3  701.83   40.60
  -5  -3   3  649.93   49.60
  -5  -3   3  797.92   38.50
  -5  -3   3  622.34   42.50
   4   3  -3   42.10   12.00
   4   3  -3   31.80   11.40
  -4  -3   3   53.89   14.90
  -4  -3   3   28.90   11.20
  -4  -3   3   40.90   10.80
  -4  -3   3   52.19   12.70
   3   3  -3 2821.92   84.49
   3   3  -3 2927.51   90.79
  -3  -3   3 2989.90   86.19
  -3  -3   3 2905.51   92.19
  -3  -3   3 2878.61   84.59
  -3  -3   3 2874.91   91.09
   2   3  -3  256.17   18.30
   2   3  -3  300.57   22.50
  -2  -3   3  263.87   18.50
  -2  -3   3  278.17   22.90
  -2  -3   3  249.48   21.30
   1   3  -3 1920.91   64.89
   1   3  -3 1771.22   61.09
   1   3  -3 1873.81   54.89
  -1  -3   3 1844.32   63.59
  -1  -3   3 1928.51   62.59
   0   3  -3   65.59   11.80
   0   3  -3   55.39   11.30
   0  -3   3   49.90   10.80
   0  -3   3   63.79   11.70
  -1   3  -3 3794.52  100.79
   1  -3   3 3833.42  101.59
   1  -3   3 3872.61  104.49
  -2   3  -3  380.36   22.00
   2  -3   3  339.27   24.30
   2  -3   3  416.56   29.10
   2  -3   3  320.17   20.90
  -3   3  -3 1918.21   59.09
  -3   3  -3 1950.60   65.49
   3  -3   3 1971.20   73.39
   3  -3   3 1972.50   60.49
   3  -3   3 2080.29   70.99
  -4   3  -3  904.31   43.60
  -4   3  -3  938.31   35.60
   4  -3   3  846.62   47.60
  -5   3  -3  870.51   34.70
  -5   3  -3  932.21   48.20
   5  -3   3  854.61   49.70
  -6   3  -3  600.54   27.80
  -6   3  -3  648.64   43.50
   6  -3   3  570.94   42.10
  -7   3  -3  747.43   50.99
  -7   3  -3  806.12   32.90
   7  -3   3  939.61   56.19
  -8   3  -3  459.35   22.70
   8   2  -3  -11.00   11.40
   8   2  -3   12.70   14.60
  -8  -2   3  -11.40    6.70
  -8  -2   3   -6.80    9.70
  -8  -2   3    5.20   11.20
   7   2  -3 1074.79   62.89
   7   2  -3 1173.88   66.29
  -7  -2   3 1089.69   48.30
  -7  -2   3 1185.08   59.69
  -7  -2   3 1052.99   61.49
   6   2  -3  319.27   32.90
   6   2  -3  358.06   33.70
  -6  -2   3  290.67   29.30
  -6  -2   3  343.77   31.10
  -6  -2   3  378.46   25.70
   5   2  -3 1596.94   80.99
   5   2  -3 1796.82   72.59
  -5  -2   3 1835.62   71.29
  -5  -2   3 1786.42   70.19
  -5  -2   3 1744.73   58.99
   4   2  -3   19.50    9.50
   4   2  -3   12.80    8.50
  -4  -2   3    3.80    7.20
  -4  -2   3   15.90    8.90
  -4  -2   3   16.60    6.70
  -4  -2   3    2.10    7.50
   3   2  -3 3103.29   94.19
   3   2  -3 2971.40   91.59
  -3  -2   3 3427.36   86.79
  -3  -2   3 3233.28   96.49
  -3  -2   3 3131.99   92.19
  -3  -2   3 3248.38   96.39
   2   2  -3  767.52   34.00
   2   2  -3  837.72   36.40
   2   2  -3  790.72   38.40
  -2  -2   3  748.93   35.10
  -2  -2   3  787.32   37.50
  -2  -2   3  742.43   33.30
   1   2  -3 2138.89   62.39
   1   2  -3 2270.07   64.39
   1   2  -3 2097.39   67.19
  -1  -2   3 1991.60   62.79
  -1  -2   3 2080.29   66.79
   0   2  -3  428.76   24.70
   0   2  -3  459.85   23.80
   0  -2   3  532.75   25.10
   0  -2   3  525.85   26.90
  -1   2  -3 1469.45   49.40
   1  -2   3 1649.13   51.59
   1  -2   3 1428.96   48.00
  -2   2  -3  999.70   37.80
   2  -2   3 1043.50   43.90
   2  -2   3 1064.99   39.30
   2  -2   3 1049.70   40.00
  -3   2  -3 2749.52   81.99
  -3   2  -3 2742.33   75.49
   3  -2   3 2801.62   87.29
   3  -2   3 2702.63   76.39
  -4   2  -3  547.75   32.60
  -4   2  -3  551.64   26.70
   4  -2   3  506.75   33.40
  -5   2  -3  596.74   28.80
  -5   2  -3  622.34   38.20
   5  -2   3  604.24   38.60
  -6   2  -3  725.13   33.30
  -6   2  -3  696.63   44.50
   6  -2   3  737.33   45.60
  -7   2  -3  190.28   18.20
   7  -2   3  174.78   27.90
  -8   2  -3  128.79   25.40
  -8   2  -3  151.48   18.60
   8  -2   3  127.49   26.20
  -9   2  -3  105.19   27.30
  -9   2  -3  109.99   15.80
   9  -2   3  155.88   29.50
   8   1  -3    9.10   16.60
   8   1  -3    8.50   13.90
  -8  -1   3    3.50   12.90
  -8  -1   3   14.50   11.50
   7   1  -3  619.64   48.10
   7   1  -3  541.15   46.50
  -7  -1   3  648.54   34.20
  -7  -1   3  626.84   41.70
  -7  -1   3  483.75   42.80
   6   1  -3  693.73   47.10
   6   1  -3  592.64   43.80
  -6  -1   3  696.73   46.00
  -6  -1   3  655.43   32.30
  -6  -1   3  589.74   38.40
   5   1  -3 1087.09   56.59
   5   1  -3 1151.48   57.49
  -5  -1   3 1138.69   51.79
  -5  -1   3 1184.58   42.30
  -5  -1   3 1019.10   55.49
   4   1  -3  742.13   40.10
   4   1  -3  649.74   38.90
  -4  -1   3  756.22   38.40
  -4  -1   3  712.83   37.60
  -4  -1   3  649.24   38.00
   3   1  -3 1613.34   58.49
   3   1  -3 1579.04   59.19
  -3  -1   3 1569.44   46.60
  -3  -1   3 1654.63   59.29
  -3  -1   3 1622.64   58.19
   2   1  -3   54.29   10.60
   2   1  -3   30.70    8.00
   2   1  -3   42.60   10.70
  -2  -1   3   33.80    8.80
  -2  -1   3   39.10    6.40
  -2  -1   3   34.30    9.20
  -2  -1   3   53.19   10.90
   1   1  -3 2760.82   79.49
   1   1  -3 2845.62   75.29
   1   1  -3 2808.92   77.49
  -1  -1   3 2731.03   79.09
  -1  -1   3 2928.51   78.69
   0   1  -3 1813.02   55.69
   0   1  -3 1760.42   49.60
   0   1  -3 1762.82   53.19
   0  -1   3 1728.23   49.30
   0  -1   3 1746.93   54.99
  -1   1  -3 2021.30   58.69
  -1   1  -3 2003.50   53.79
   1  -1   3 1836.82   52.29
   1  -1   3 1973.70   58.29
   1  -1   3 1988.90   58.49
  -2   1  -3 1107.49   39.20
   2  -1   3 1083.69   41.60
   2  -1   3 1077.49   39.40
   2  -1   3 1179.78   37.60
  -3   1  -3  928.71   41.10
  -3   1  -3  938.61   35.70
   3  -1   3  872.01   39.40
   3  -1   3  933.91   36.20
  -4   1  -3 1007.10   44.60
  -4   1  -3  903.31   44.20
  -4   1  -3  964.40   38.20
   4  -1   3 1034.60   45.50
  -5   1  -3 1421.46   59.89
  -5   1  -3 1463.65   51.29
  -5   1  -3 1486.45   61.49
   5  -1   3 1421.76   59.59
  -6   1  -3 1079.79   43.90
  -6   1  -3  972.90   52.19
  -6   1  -3 1080.99   54.29
   6  -1   3 1028.30   52.49
  -7   1  -3  276.67   23.30
  -7   1  -3  285.87   34.10
  -7   1  -3  390.16   34.40
   7  -1   3  357.06   32.80
  -8   1  -3 1239.88   67.59
  -8   1  -3 1349.66   70.99
  -8   1  -3 1361.36   54.99
   8  -1   3 1408.96   68.89
  -9   1  -3   17.90   15.80
  -9   1  -3   18.00   10.00
   9  -1   3   23.90   15.50
   8   0  -3   38.60   19.50
   8   0  -3    7.00   17.00
  -8   0   3   23.60    9.90
  -8   0   3   30.30   11.90
  -8   0   3   32.10   17.90
   7   0  -3  438.36   43.30
   7   0  -3  450.25   42.60
  -7   0   3  434.96   41.10
  -7   0   3  453.55   27.70
  -7   0   3  423.76   32.50
   6   0  -3  116.49   23.70
   6   0  -3  101.99   22.20
  -6   0   3  124.39   15.50
  -6   0   3   74.89   15.70
   5   0  -3 1006.70   58.69
   5   0  -3 1088.59   56.89
  -5   0   3 1148.49   57.29
  -5   0   3 1126.69   39.40
  -5   0   3 1084.79   48.20
   4   0  -3  261.67   24.90
   4   0  -3  258.67   33.60
  -4   0   3  231.58   14.30
  -4   0   3  258.77   21.30
  -4   0   3  282.47   25.10
   3   0  -3 1572.24   59.79
   3   0  -3 1666.93   62.69
  -3   0   3 1714.63   57.79
  -3   0   3 1775.42   63.49
  -3   0   3 1673.53   44.10
   2   0  -3 2046.60   63.89
   2   0  -3 2061.79   66.59
   2   0  -3 2068.39   63.69
  -2   0   3 1974.00   65.49
  -2   0   3 2056.19   48.20
  -2   0   3 1934.31   61.59
   1   0  -3 3066.09   83.29
   1   0  -3 2884.41   80.49
   1   0  -3 2939.61   76.89
  -1   0   3 2960.10   80.59
  -1   0   3 3045.20   83.19
   0   0  -3 3910.51  102.49
   0   0  -3 4220.78   93.49
   0   0   3 4011.90   92.09
   0   0   3 4032.90   93.49
   0   0   3 4065.69  101.49
  -1   0  -3 4737.23  107.69
   1   0   3 5117.49  107.79
   1   0   3 4961.60  119.79
   1   0   3 5068.99  115.69
  -2   0  -3 7745.73  178.18
  -2   0  -3 7436.66  175.08
   2   0   3 7801.12  174.28
   2   0   3 7883.21  163.98
   2   0   3 7209.48  173.48
  -3   0  -3 1744.63   55.09
  -3   0  -3 1829.42   58.99
   3   0   3 1827.42   58.49
   3   0   3 1748.93   55.59
  -4   0  -3 2336.27   71.79
  -4   0  -3 2423.06   77.39
  -4   0  -3 2545.75   79.69
   4   0   3 2619.04   78.89
  -5   0  -3   43.70   10.50
  -5   0  -3   49.50   12.70
  -5   0  -3   63.79   14.20
   5   0   3   44.50   12.10
  -6   0  -3 1532.75   57.79
  -6   0  -3 1647.94   66.49
  -6   0  -3 1574.54   66.09
   6   0   3 1485.15   63.79
  -7   0  -3   75.49   18.70
  -7   0  -3   76.69   16.30
  -7   0  -3   81.69   18.70
   7   0   3   52.19   15.90
  -8   0  -3 1136.09   61.89
  -8   0  -3 1220.68   63.49
  -8   0  -3 1059.99   61.79
   8   0   3 1163.38   61.59
   8   0   3 1131.89   60.99
  -9   0  -3   43.40   16.90
  -9   0  -3   62.89   27.80
  -9   0  -3   65.29   15.60
   9   0   3   53.29   18.30
   9   0   3   36.90   17.80
   8  -1  -3  484.35   49.50
   8  -1  -3  333.17   25.20
  -8   1   3  299.17   27.90
   7  -1  -3  977.20   63.99
   7  -1  -3  890.01   59.99
   7  -1  -3  838.92   38.30
  -7   1   3  966.50   45.20
  -7   1   3  910.21   59.89
   6  -1  -3   56.59   17.40
   6  -1  -3   38.00    8.90
   6  -1  -3   39.30   15.20
  -6   1   3   25.50    9.60
   5  -1  -3 1140.29   59.09
   5  -1  -3 1078.39   38.40
  -5   1   3 1222.48   47.70
   4  -1  -3  606.04   38.20
   4  -1  -3  608.64   22.90
   4  -1  -3  545.45   37.50
  -4   1   3  573.14   36.80
  -4   1   3  595.54   30.30
   3  -1  -3 1543.65   58.99
   3  -1  -3 1547.95   59.89
   3  -1  -3 1395.76   36.80
  -3   1   3 1450.95   49.60
  -3   1   3 1386.26   57.29
   2  -1  -3 2417.56   77.99
   2  -1  -3 2565.04   72.29
   2  -1  -3 2574.24   76.79
  -2   1   3 2494.05   78.49
  -2   1   3 2665.23   71.89
   1  -1  -3   85.19   10.70
   1  -1  -3   77.99   11.90
  -1   1   3  118.29   11.70
  -1   1   3  119.89   15.70
   0  -1  -3  874.71   34.70
   0  -1  -3  891.31   23.60
   0  -1  -3  947.41   33.60
   0  -1  -3  851.61   27.60
   0   1   3  915.21   33.00
   0   1   3  883.71   23.30
  -1  -1  -3 2305.57   49.80
  -1  -1  -3 2407.06   58.59
  -1  -1  -3 2166.98   63.09
   1   1   3 2293.97   57.89
   1   1   3 2416.36   65.29
  -2  -1  -3 2005.40   55.39
  -2  -1  -3 1913.91   57.49
   2   1   3 2009.90   58.19
   2   1   3 1815.92   54.09
   2   1   3 1900.11   42.00
  -3  -1  -3  153.48   14.30
  -3  -1  -3  162.48   14.70
   3   1   3  160.08   14.80
  -4  -1  -3 1121.29   43.70
  -4  -1  -3 1116.39   44.90
   4   1   3 1129.09   44.90
  -5  -1  -3   60.29   13.80
  -5  -1  -3   63.09   12.80
  -5  -1  -3   59.79   12.60
   5   1   3   78.09   14.20
  -6  -1  -3 1275.67   52.99
  -6  -1  -3 1295.57   58.29
   6   1   3 1293.17   56.69
   6   1   3 1279.07   53.69
  -7  -1  -3   40.80   12.30
  -7  -1  -3   76.69   18.00
  -7  -1  -3   82.69   18.70
   7   1   3   52.79   17.70
   7   1   3   27.50   11.50
  -8  -1  -3  257.07   26.30
  -8  -1  -3  253.57   33.00
   8   1   3  271.27   33.30
   8   1   3  238.48   31.10
  -9  -1  -3   28.10   15.50
  -9  -1  -3   24.10   15.20
  -9  -1  -3   15.00   11.90
   9   1   3   56.29   17.30
   9   1   3   15.00   14.30
 -10  -1  -3  720.43   47.10
 -10  -1  -3  618.04   50.29
 -10  -1  -3  618.64   53.49
  10   1   3  724.33   61.19
   7  -2  -3  213.08   19.20
   7  -2  -3  297.37   42.50
   7  -2  -3  170.08   32.00
  -7   2   3  262.17   38.30
  -7   2   3  230.38   20.30
   6  -2  -3  445.36   41.30
   6  -2  -3  450.25   42.30
   6  -2  -3  407.36   23.60
  -6   2   3  485.25   41.40
  -6   2   3  431.46   25.80
   5  -2  -3   22.00   13.60
   5  -2  -3    0.80    4.20
  -5   2   3   15.00    9.10
  -5   2   3   12.30    6.20
   4  -2  -3 1920.31   76.39
   4  -2  -3 1834.92   51.19
  -4   2   3 1906.21   75.29
  -4   2   3 1848.81   57.59
   3  -2  -3  419.46   30.80
   3  -2  -3  420.96   16.40
  -3   2   3  447.06   30.60
  -3   2   3  430.56   22.10
   2  -2  -3 1152.58   47.20
   2  -2  -3 1051.29   37.40
   2  -2  -3 1059.79   26.20
  -2   2   3 1040.20   45.70
  -2   2   3 1051.09   36.50
   1  -2  -3 2655.63   69.09
   1  -2  -3 2525.35   53.99
   1  -2  -3 2535.15   76.39
   1  -2  -3 2555.64   54.09
  -1   2   3 2616.14   68.69
  -1   2   3 2523.85   76.79
   0  -2  -3 1282.87   45.70
   0  -2  -3 1349.96   42.40
   0  -2  -3 1395.96   33.70
   0   2   3 1320.87   42.40
  -1  -2  -3 1287.87   36.80
  -1  -2  -3 1254.37   42.10
   1   2   3 1308.27   42.70
   1   2   3 1309.77   36.90
  -2  -2  -3  742.23   18.90
  -2  -2  -3  722.83   27.70
  -2  -2  -3  688.93   29.90
   2   2   3  662.93   27.00
   2   2   3  688.53   18.70
  -3  -2  -3  189.28   15.50
  -3  -2  -3  182.98   16.10
   3   2   3  199.68   15.80
   3   2   3  175.68   10.00
  -4  -2  -3 3537.55   98.39
  -4  -2  -3 3416.96   96.49
   4   2   3 3507.75   96.79
  -5  -2  -3 2465.95   78.89
  -5  -2  -3 2261.47   77.59
   5   2   3 2332.37   77.19
   5   2   3 2500.55   71.69
  -6  -2  -3  562.54   35.90
  -6  -2  -3  526.35   35.00
   6   2   3  519.45   34.00
   6   2   3  483.55   30.00
  -7  -2  -3   95.89   24.10
  -7  -2  -3   77.99   17.50
   7   2   3   43.00   13.20
   7   2   3   73.99   17.80
  -8  -2  -3 1151.28   62.29
  -8  -2  -3 1198.18   60.89
   8   2   3 1086.29   58.59
   8   2   3 1258.87   60.29
  -9  -2  -3   63.99   18.90
  -9  -2  -3   83.39   22.70
   9   2   3  130.59   24.60
 -10  -2  -3  698.53   51.59
 -10  -2  -3  644.34   46.80
 -10  -2  -3  648.94   53.99
  10   2   3  673.23   50.49
  10   2   3  719.53   61.09
   7  -3  -3  233.58   42.70
   7  -3  -3  272.27   41.90
   7  -3  -3  272.27   21.50
  -7   3   3  334.67   44.80
   6  -3  -3  205.88   34.50
   6  -3  -3  217.38   17.70
  -6   3   3  191.18   14.00
  -6   3   3  170.08   30.10
   5  -3  -3  758.42   50.89
   5  -3  -3  775.22   32.80
  -5   3   3  856.41   30.80
   4  -3  -3   50.89   15.20
   4  -3  -3   42.80    8.40
  -4   3   3   68.59   17.70
  -4   3   3   45.20    7.80
   3  -3  -3   71.89    8.70
   3  -3  -3   49.99   14.60
  -3   3   3   92.59   17.70
   2  -3  -3 1716.73   63.69
   2  -3  -3 1681.43   49.10
   2  -3  -3 1729.43   45.90
  -2   3   3 1702.43   63.59
  -2   3   3 1709.63   48.80
   1  -3  -3  544.85   23.10
   1  -3  -3  568.34   30.40
  -1   3   3  532.15   23.20
  -1   3   3  580.44   31.00
   0  -3  -3 1174.68   42.20
   0  -3  -3 1127.39   36.80
   0  -3  -3 1036.90   32.20
   0   3   3 1018.80   37.00
  -1  -3  -3  627.94   24.60
  -1  -3  -3  654.63   28.90
  -2  -3  -3 5405.26  121.09
  -2  -3  -3 5486.55  132.79
   2   3   3 5401.76  128.59
  -3  -3  -3  263.57   14.10
  -3  -3  -3  258.07   18.80
   3   3   3  247.48   18.30
   3   3   3  278.37   14.20
  -4  -3  -3 2860.81   75.59
  -4  -3  -3 2769.42   84.29
   4   3   3 2892.81   74.79
   4   3   3 2982.90   85.39
  -5  -3  -3  176.28   21.60
  -5  -3  -3  194.78   19.60
   5   3   3  183.68   21.80
   5   3   3  180.98   15.60
  -6  -3  -3 1363.36   58.39
  -6  -3  -3 1277.07   68.39
   6   3   3 1402.36   58.89
   6   3   3 1438.06   53.49
  -7  -3  -3    1.20    9.00
  -7  -3  -3   19.40   10.70
   7   3   3   -6.40    7.40
   7   3   3  -13.00    5.70
  -8  -3  -3  934.61   53.89
  -8  -3  -3  961.80   53.69
   8   3   3  891.91   52.09
   8   3   3  889.41   71.59
  -9  -3  -3  226.78   33.30
  -9  -3  -3  234.88   33.40
   9   3   3  180.48   28.10
   9   3   3  245.38   33.50
 -10  -3  -3  199.48   31.90
 -10  -3  -3  208.98   34.40
  10   3   3  180.58   32.00
  10   3   3  211.48   32.00
   6  -4  -3  528.75   46.90
   6  -4  -3  486.75   28.30
   5  -4  -3  435.16   25.20
   5  -4  -3  486.95   42.60
  -5   4   3  432.46   39.30
   4  -4  -3  727.23   46.60
   4  -4  -3  708.53   31.10
  -4   4   3  620.04   43.10
   3  -4  -3  464.95   34.70
   3  -4  -3  490.95   24.20
  -3   4   3  482.35   35.20
   2  -4  -3 1409.76   57.59
   2  -4  -3 1506.35   46.50
   2  -4  -3 1409.16   40.10
  -2   4   3 1474.55   59.29
   1  -4  -3   30.20   10.20
   1  -4  -3   19.20    5.00
  -1   4   3   40.80   10.80
   0  -4  -3 3501.95   88.49
   0  -4  -3 3628.54   96.99
  -1  -4  -3   51.09    9.60
  -1  -4  -3   47.40    8.80
  -1  -4  -3   50.19    9.70
  -1  -4  -3   55.19    9.40
  -2  -4  -3  480.05   26.00
  -2  -4  -3  514.15   23.90
  -2  -4  -3  527.35   26.20
  -3  -4  -3   21.70    6.10
  -3  -4  -3   17.50    7.40
   3   4   3   15.90    5.70
   3   4   3   19.30    7.30
  -4  -4  -3 1028.50   38.20
  -4  -4  -3 1009.00   44.10
   4   4   3 1047.90   44.80
   4   4   3 1032.20   37.50
  -5  -4  -3   84.79   16.20
  -5  -4  -3   85.19   14.30
  -5  -4  -3   74.69   12.30
   5   4   3   49.80   10.20
   5   4   3   83.79   15.10
  -6  -4  -3 1754.72   67.69
  -6  -4  -3 1894.51   66.69
  -6  -4  -3 1902.41   71.79
   6   4   3 1854.11   64.19
   6   4   3 1927.41   72.49
  -7  -4  -3  245.88   25.40
  -7  -4  -3  250.17   30.30
   7   4   3  210.78   25.00
   7   4   3  202.38   27.80
  -8  -4  -3  331.27   31.50
  -8  -4  -3  334.27   33.10
   8   4   3  312.47   37.80
   8   4   3  304.87   35.50
  -9  -4  -3   -7.30    9.20
  -9  -4  -3  -16.00    6.40
   9   4   3   19.90   11.60
   9   4   3    6.70   11.10
 -10  -4  -3  296.07   39.00
  10   4   3  300.77   41.20
  10   4   3  307.97   38.80
   5  -5  -3   68.19   13.10
   5  -5  -3   47.70   18.80
  -5   5   3   90.99   22.80
   4  -5  -3  797.72   50.09
   4  -5  -3  781.92   36.60
  -4   5   3  821.42   50.99
   3  -5  -3  141.49   17.20
   3  -5  -3  103.79   19.80
   2  -5  -3 1213.18   45.20
   2  -5  -3 1143.49   52.39
  -2   5   3 1077.39   51.69
   1  -5  -3  291.07   23.10
   1  -5  -3  265.07   13.90
  -1   5   3  267.07   23.00
   0  -5  -3 2426.86   65.69
   0  -5  -3 2404.96   73.29
  -1  -5  -3   36.70    8.70
  -1  -5  -3   22.00    6.70
  -1  -5  -3   16.30    7.30
  -1  -5  -3   24.80    7.20
  -2  -5  -3 1909.11   62.69
  -2  -5  -3 2010.50   64.49
  -2  -5  -3 1943.51   58.39
  -2  -5  -3 1897.71   61.79
  -3  -5  -3  165.28   21.10
  -3  -5  -3  116.99   14.50
   3   5   3  109.29   14.10
  -4  -5  -3 1220.28   51.89
  -4  -5  -3 1239.08   47.00
   4   5   3 1337.67   47.40
  -5  -5  -3   88.89   14.60
  -5  -5  -3  106.09   18.50
  -5  -5  -3   90.99   14.80
   5   5   3  105.29   18.80
   5   5   3  103.89   15.30
  -6  -5  -3 1639.84   68.99
  -6  -5  -3 1703.83   63.59
  -6  -5  -3 1751.72   64.99
   6   5   3 1630.74   67.99
   6   5   3 1724.13   62.29
  -7  -5  -3   24.40   11.40
  -7  -5  -3   25.20   12.60
   7   5   3   11.50    9.90
   7   5   3   23.70   10.90
  -8  -5  -3  192.88   26.60
  -8  -5  -3  149.99   26.50
   8   5   3  195.78   29.70
   8   5   3  173.58   25.60
  -9  -5  -3  188.78   30.20
  -9  -5  -3  238.78   31.80
   9   5   3  229.58   33.80
   9   5   3  201.68   29.90
 -10  -5  -3  103.89   23.70
 -10  -5  -3  105.69   24.60
  10   5   3   83.49   22.00
  10   5   3   97.09   30.30
   5  -6  -3   37.50   17.10
   5  -6  -3    3.30    8.10
  -5   6   3    1.70   14.50
   4  -6  -3 1042.70   59.09
   4  -6  -3  948.91   44.70
   3  -6  -3   -9.50    8.30
   3  -6  -3    4.10    7.00
  -3   6   3    5.40    9.30
   2  -6  -3 1024.60   50.59
   2  -6  -3 1043.20   46.50
  -2   6   3 1038.30   50.79
   1  -6  -3  123.09    8.10
   1  -6  -3  165.58   21.40
  -1   6   3  114.29   17.70
   0  -6  -3 1087.79   44.10
   0  -6  -3 1103.49   37.50
  -1  -6  -3   62.29   13.90
  -1  -6  -3   53.09    9.90
  -1  -6  -3   57.69   10.30
  -1  -6  -3   64.19   13.70
  -2  -6  -3 2247.78   75.19
  -2  -6  -3 2283.17   75.09
  -2  -6  -3 2233.28   64.79
  -3  -6  -3 1061.89   45.20
  -3  -6  -3 1025.40   48.00
   3   6   3 1055.89   45.70
  -4  -6  -3 1600.34   58.39
  -4  -6  -3 1540.25   62.69
   4   6   3 1503.65   56.99
  -5  -6  -3  302.57   25.30
  -5  -6  -3  350.96   29.70
  -5  -6  -3  311.17   22.60
   5   6   3  378.46   26.80
  -6  -6  -3  279.87   23.70
  -6  -6  -3  238.58   24.20
  -6  -6  -3  255.37   31.20
   6   6   3  294.07   25.10
  -7  -6  -3  356.86   29.10
  -7  -6  -3  346.97   30.10
  -7  -6  -3  414.66   35.80
   7   6   3  382.56   29.60
  -8  -6  -3 1743.93   79.19
  -8  -6  -3 2029.40   85.49
  -8  -6  -3 1781.42   74.69
   8   6   3 1961.90   84.39
   8   6   3 1803.42   74.49
  -9  -6  -3  228.68   32.60
  -9  -6  -3  200.78   32.40
   9   6   3  141.99   27.10
 -10  -6  -3  478.05   40.60
 -10  -6  -3  413.56   48.10
  10   6   3  419.26   48.00
  10   6   3  421.96   40.30
   4  -7  -3  596.14   46.80
  -4   7   3  631.74   45.60
   3  -7  -3   -4.00    9.00
  -3   7   3    7.60   10.20
   2  -7  -3  793.52   44.60
   2  -7  -3  861.21   46.60
  -2   7   3  880.21   47.50
   1  -7  -3   -0.20    6.70
   1  -7  -3    1.10    9.10
   0  -7  -3  949.11   41.20
   0  -7  -3  907.51   51.09
   0  -7  -3  988.80   35.00
  -1  -7  -3  123.09   20.60
  -1  -7  -3   83.69   12.70
  -1  -7  -3  108.09   14.50
  -2  -7  -3 1207.68   65.09
  -2  -7  -3 1269.97   42.70
  -2  -7  -3 1248.98   65.09
  -3  -7  -3   44.40   13.30
  -3  -7  -3   49.30   13.30
  -3  -7  -3   26.10    6.90
  -4  -7  -3  831.42   46.30
  -4  -7  -3  789.52   42.10
   4   7   3  753.52   40.80
  -5  -7  -3   81.09   19.10
  -5  -7  -3   91.79   13.80
   5   7   3   85.89   16.60
  -6  -7  -3  920.01   42.30
  -6  -7  -3 1016.40   55.19
  -6  -7  -3  880.31   48.00
   6   7   3  946.91   48.50
  -7  -7  -3  755.12   49.10
  -7  -7  -3  711.33   44.40
  -7  -7  -3  600.44   36.60
   7   7   3  628.34   40.90
  -8  -7  -3  159.28   24.70
  -8  -7  -3  137.89   26.70
  -8  -7  -3  166.48   26.50
   8   7   3  157.68   25.60
  -9  -7  -3  171.38   29.70
  -9  -7  -3  140.39   25.20
  -9  -7  -3  193.08   33.60
   9   7   3  240.58   32.20
 -10  -7  -3   35.30   16.90
 -10  -7  -3   60.49   23.20
  10   7   3   60.69   19.20
   3  -8  -3   29.50   17.20
   3  -8  -3   -0.20   10.30
   3  -8  -3   -0.90   12.10
   2  -8  -3  758.82   46.90
   2  -8  -3  854.41   46.60
   2  -8  -3  722.93   53.49
  -2   8   3  829.52   53.79
   1  -8  -3  161.38   28.70
   1  -8  -3  143.69   20.60
   0  -8  -3 1614.44   47.10
   0  -8  -3 1604.24   74.89
   0  -8  -3 1665.83   58.39
  -1  -8  -3  607.04   42.10
  -1  -8  -3  506.75   26.70
  -1  -8  -3  549.45   28.70
  -2  -8  -3  824.52   48.40
  -2  -8  -3  939.61   43.10
  -2  -8  -3  796.12   47.90
  -3  -8  -3  533.85   23.00
  -3  -8  -3  487.25   36.00
  -3  -8  -3  510.85   38.10
  -4  -8  -3  708.73   45.40
  -4  -8  -3  716.53   43.20
  -4  -8  -3  726.33   29.30
   4   8   3  662.53   49.20
  -5  -8  -3 1467.75   65.89
  -5  -8  -3 1519.25   50.79
  -5  -8  -3 1641.04   73.49
   5   8   3 1494.45   74.69
  -6  -8  -3  865.11   49.60
  -6  -8  -3  821.72   37.80
  -6  -8  -3  788.92   51.49
   6   8   3  923.51   49.70
  -7  -8  -3  520.65   40.50
  -7  -8  -3  510.75   32.30
  -7  -8  -3  497.55   42.90
   7   8   3  496.85   38.60
  -8  -8  -3  125.89   26.10
  -8  -8  -3   50.09   19.40
  -8  -8  -3   98.69   18.60
  -9  -8  -3  320.77   30.70
  -9  -8  -3  251.17   38.90
  -9  -8  -3  253.87   37.20
   9   8   3  214.78   30.80
   1  -9  -3  489.95   41.80
   1  -9  -3  577.74   48.10
   0  -9  -3  269.27   21.70
   0  -9  -3  285.37   37.60
   0  -9  -3  295.27   13.50
   0  -9  -3  304.67   13.30
  -1  -9  -3  308.27   37.90
  -1  -9  -3  329.57   20.10
  -1  -9  -3  326.17   33.10
  -1  -9  -3  364.76   23.80
  -2  -9  -3  513.55   41.60
  -2  -9  -3  520.45   32.80
  -2  -9  -3  533.65   41.80
  -2  -9  -3  533.05   21.90
  -3  -9  -3 1037.30   58.69
  -3  -9  -3 1093.69   30.80
  -3  -9  -3 1133.19   60.19
  -4  -9  -3  300.47   13.90
  -4  -9  -3  275.87   33.80
  -4  -9  -3  274.77   35.90
  -4  -9  -3  305.37   13.90
  -5  -9  -3  299.77   16.90
  -5  -9  -3  313.47   21.90
  -5  -9  -3  361.46   33.90
  -5  -9  -3  225.68   33.20
   5   9   3  355.16   31.80
  -6  -9  -3   36.90    8.70
  -6  -9  -3   23.50   14.70
  -6  -9  -3   34.60   15.60
  -7  -9  -3  279.57   22.60
  -7  -9  -3  296.07   37.80
  -7  -9  -3  308.97   40.20
   7   9   3  383.06   35.00
  -8  -9  -3  203.98   32.10
  -8  -9  -3  288.47   40.70
  -8  -9  -3  232.78   23.70
   8   9   3  234.18   31.80
  -9  -9  -3  475.35   45.00
  -9  -9  -3  416.26   33.70
  -9  -9  -3  402.26   49.70
  -1 -10  -3  485.35   44.70
  -1 -10  -3  539.95   27.90
  -1 -10  -3  560.94   28.40
  -1 -10  -3  558.14   45.50
  -2 -10  -3  180.68   29.70
  -2 -10  -3  200.98   31.20
  -3 -10  -3  472.65   41.30
  -3 -10  -3  432.56   39.90
  -4 -10  -3  219.68   32.20
  -4 -10  -3  197.58   32.10
  -5 -10  -3  108.39   26.40
  -5 -10  -3  134.69   26.10
  -6 -10  -3   59.09    6.60
  -6 -10  -3   46.30   20.10
  -6 -10  -3   48.10   20.40
  -6 -10  -3   46.90    5.80
   6  10   3   64.49   17.30
  -7 -10  -3  614.34   63.19
  -7 -10  -3  768.42   31.30
  -7 -10  -3  699.73   52.49
   7  10   3  808.82   53.79
  -3  -9   4  323.37   40.70
  -3  -9   4  320.17   43.30
  -2  -9   4  424.96   40.00
  -2  -9   4  464.85   46.10
  -1  -9   4   19.00   14.80
  -1  -9   4   20.50   13.60
   5   8  -4  252.27   39.60
   5   8  -4  280.97   20.50
  -5  -8   4  335.57   43.90
  -5  -8   4  343.37   42.80
  -5  -8   4  245.08   37.40
   4   8  -4  419.86   42.60
  -4  -8   4  410.36   41.90
  -3  -8   4  152.68   30.30
  -3  -8   4  190.48   32.00
   2   8  -4  415.46   47.10
  -2  -8   4  333.97   33.50
  -2  -8   4  463.75   42.50
  -1  -8   4  243.28   31.80
  -1  -8   4  224.98   34.10
   0  -8   4  855.21   49.70
   0  -8   4  843.22   57.19
   1  -8   4   72.99   16.80
   1  -8   4   37.90   17.70
   2  -8   4  887.21   45.00
   2  -8   4  806.82   61.79
   6   7  -4  539.15   47.60
   6   7  -4  523.65   36.60
  -6  -7   4  539.35   46.30
  -6  -7   4  564.34   50.69
  -6  -7   4  716.33   96.59
   5   7  -4   59.49   13.90
   5   7  -4   51.09   23.10
  -5  -7   4   37.40   16.90
  -5  -7   4   42.10   18.90
   4   7  -4  835.52   36.40
   4   7  -4  941.81   58.49
  -4  -7   4  794.92   53.89
  -4  -7   4  825.42   56.39
   3   7  -4  130.89   25.80
  -3  -7   4  129.09   26.30
  -3  -7   4  147.89   27.00
   2   7  -4  535.85   19.20
   2   7  -4  509.25   42.40
  -2  -7   4  565.54   44.00
  -2  -7   4  541.05   41.40
   1   7  -4  159.88   27.20
  -1  -7   4  112.29   21.90
  -1  -7   4  135.99   25.40
   0   7  -4  879.51   24.80
   0   7  -4  889.21   24.70
   0  -7   4  894.11   48.80
   0  -7   4  840.72   53.09
  -1   7  -4    1.20    4.50
   1  -7   4   13.40   13.10
   1  -7   4   17.10    9.40
  -2   7  -4  592.34   28.30
   2  -7   4  583.14   35.80
   2  -7   4  602.94   47.30
   2  -7   4  657.73   51.19
  -3   7  -4   33.10   10.40
   3  -7   4   27.60   16.90
   3  -7   4   48.70   12.00
   3  -7   4   31.90   17.00
  -4   7  -4  699.43   38.90
   4  -7   4  638.64   56.59
   7   6  -4   21.70   13.30
   7   6  -4   20.80   14.30
  -7  -6   4   25.70   14.50
  -7  -6   4   -1.60   12.10
  -7  -6   4    1.20   14.10
  -7  -6   4    0.90   14.10
   6   6  -4  513.55   37.30
   6   6  -4  565.04   76.49
  -6  -6   4  456.45   35.60
  -6  -6   4  428.36   73.99
  -6  -6   4  504.85   40.60
  -6  -6   4  519.75   48.40
   5   6  -4   49.70   18.80
  -5  -6   4   56.79   17.60
  -5  -6   4   37.80   16.90
  -5  -6   4   55.49   18.90
   4   6  -4  739.13   37.60
   4   6  -4  730.23   49.80
  -4  -6   4  765.02   49.40
  -4  -6   4  858.31   53.79
  -4  -6   4  729.83   49.60
   3   6  -4  123.99   23.30
   3   6  -4  127.99   15.40
  -3  -6   4  137.09   25.00
  -3  -6   4  124.09   23.70
   2   6  -4 2222.68   62.59
   2   6  -4 2247.68   88.49
  -2  -6   4 2112.09   84.59
  -2  -6   4 2201.38   87.29
   1   6  -4   -6.40    9.20
   1   6  -4    6.30    4.40
  -1  -6   4   -8.80    7.90
  -1  -6   4   -3.90    8.70
   0   6  -4 1035.20   35.30
   0  -6   4 1005.20   54.99
   0  -6   4 1028.90   51.69
  -1   6  -4   31.70    7.70
   1  -6   4    7.80    9.10
   1  -6   4   40.60   15.20
  -2   6  -4 2209.48   68.49
   2  -6   4 2306.07   90.49
   2  -6   4 2172.48   76.09
  -3   6  -4   -8.50    5.60
   3  -6   4   14.70   11.80
   3  -6   4   10.50    8.20
   3  -6   4   25.30   15.90
  -4   6  -4 1221.08   53.79
   4  -6   4 1186.28   45.90
   4  -6   4 1102.29   68.69
   4  -6   4 1171.08   66.09
  -5   6  -4   79.49   16.70
   5  -6   4   99.29   24.90
   5  -6   4  138.79   27.80
   7   5  -4  164.38   27.90
   7   5  -4  158.98   30.70
  -7  -5   4  125.89   22.50
  -7  -5   4  159.48   26.30
  -7  -5   4  150.08   31.40
  -7  -5   4  132.59   28.60
   6   5  -4  395.26   39.10
   6   5  -4  463.25   38.70
  -6  -5   4  469.05   42.30
  -6  -5   4  381.96   39.00
  -6  -5   4  494.85   36.60
   5   5  -4   76.99   17.00
   5   5  -4   85.09   20.00
  -5  -5   4   54.09   17.90
  -5  -5   4  100.19   19.80
  -5  -5   4   68.99   16.20
   4   5  -4 1404.76   65.89
   4   5  -4 1306.87   54.59
  -4  -5   4 1228.68   63.99
  -4  -5   4 1392.96   62.29
   3   5  -4    4.30    6.80
   3   5  -4   10.00    9.90
  -3  -5   4   10.00   10.00
  -3  -5   4    2.30    7.20
   2   5  -4  771.62   51.39
   2   5  -4  819.72   34.80
  -2  -5   4  892.01   48.70
   1   5  -4  155.98   23.20
   1   5  -4  130.79   13.10
  -1  -5   4   99.69   19.20
  -1  -5   4  129.69   21.20
   0   5  -4 1798.62   82.79
   0   5  -4 1949.01   58.59
   0   5  -4 2097.29   78.09
   0  -5   4 2042.20   76.19
   0  -5   4 1965.80   73.19
  -1   5  -4  520.05   33.10
   1  -5   4  512.15   36.30
   1  -5   4  459.35   31.80
  -2   5  -4  868.21   38.40
  -2   5  -4  849.52   41.70
   2  -5   4  914.61   49.40
   2  -5   4  828.42   41.30
  -3   5  -4  461.25   29.60
  -3   5  -4  449.66   28.60
   3  -5   4  493.95   30.10
   3  -5   4  455.55   37.10
  -4   5  -4  200.78   19.00
  -4   5  -4  210.48   25.30
   4  -5   4  200.58   33.00
   4  -5   4  228.68   19.70
   4  -5   4  198.18   29.10
  -5   5  -4  728.53   45.70
  -5   5  -4  761.32   34.10
   5  -5   4  862.91   57.19
   5  -5   4  872.41   55.89
   6  -5   4  626.64   50.49
   6  -5   4  475.05   46.00
   8   4  -4  339.17   43.80
  -8  -4   4  375.26   32.90
  -8  -4   4  327.87   41.20
  -8  -4   4  366.06   46.00
   7   4  -4   39.90   16.60
  -7  -4   4   34.00   15.00
  -7  -4   4   20.90   10.60
  -7  -4   4   49.40   19.20
   6   4  -4 1228.08   63.09
   6   4  -4 1094.49   62.49
  -6  -4   4 1267.37   62.09
  -6  -4   4 1167.18   67.29
  -6  -4   4 1197.08   55.09
  -6  -4   4 1197.98   65.49
   5   4  -4  185.48   28.40
   5   4  -4  220.78   27.50
  -5  -4   4  229.18   31.80
  -5  -4   4  218.58   31.00
  -5  -4   4  216.68   27.20
   4   4  -4 1609.64   69.79
   4   4  -4 1564.84   62.99
  -4  -4   4 1765.82   65.69
  -4  -4   4 1637.54   64.19
  -4  -4   4 1560.34   69.99
   3   4  -4  487.25   29.70
   3   4  -4  392.66   31.50
  -3  -4   4  490.25   34.80
   2   4  -4  923.51   45.80
   2   4  -4  895.31   38.50
  -2  -4   4  828.72   45.90
   1   4  -4  120.39   18.70
   1   4  -4  111.29   19.10
   1   4  -4  102.29   13.20
  -1  -4   4  124.19   19.50
  -1  -4   4   95.89   17.00
   0   4  -4 1203.98   51.99
   0   4  -4 1141.79   42.10
   0   4  -4 1147.59   51.09
   0  -4   4 1061.19   48.90
   0  -4   4 1167.08   51.09
  -1   4  -4  172.38   20.80
   1  -4   4  164.68   22.00
   1  -4   4  138.99   19.50
  -2   4  -4  911.31   41.60
   2  -4   4  937.01   42.30
   2  -4   4  891.71   49.80
   2  -4   4  801.12   45.00
  -3   4  -4  370.36   25.10
  -3   4  -4  331.07   25.20
   3  -4   4  362.46   25.50
   3  -4   4  381.36   32.80
   3  -4   4  380.16   30.50
  -4   4  -4  849.32   38.10
  -4   4  -4  855.41   44.20
   4  -4   4  877.21   49.10
   4  -4   4  813.92   38.40
   4  -4   4  811.62   50.99
  -5   4  -4   39.80   10.50
   5  -4   4   39.10   15.10
   5  -4   4   28.90   14.90
  -6   4  -4   91.99   19.70
  -6   4  -4   79.99   13.00
   6  -4   4   66.69   20.10
  -7   4  -4   90.59   20.70
  -7   4  -4  113.59   13.40
   7  -4   4  126.59   25.90
   8   3  -4  366.06   47.20
  -8  -3   4  278.77   37.80
  -8  -3   4  354.26   28.70
  -8  -3   4  368.96   46.10
   7   3  -4    9.10   14.10
   7   3  -4   14.20   14.50
  -7  -3   4    2.10   10.80
  -7  -3   4   23.70   11.50
  -7  -3   4   22.40   14.90
   6   3  -4  246.88   33.90
   6   3  -4  228.88   33.00
  -6  -3   4  300.07   31.30
  -6  -3   4  260.37   23.50
   5   3  -4    9.20    9.60
   5   3  -4   17.80   11.50
  -5  -3   4   -3.10    8.50
  -5  -3   4   22.30   11.90
  -5  -3   4    8.20    6.70
  -5  -3   4   -3.40    7.60
   4   3  -4  308.47   28.60
  -4  -3   4  307.47   26.50
  -4  -3   4  296.47   29.00
  -4  -3   4  288.47   23.20
  -4  -3   4  261.47   26.80
   3   3  -4   59.29   13.50
   3   3  -4   45.80   11.90
  -3  -3   4   28.20    9.90
  -3  -3   4   50.19   16.00
  -3  -3   4   36.70   12.70
   2   3  -4 3053.59   93.79
   2   3  -4 3138.69   90.49
   2   3  -4 3047.60   99.59
  -2  -3   4 3014.60   94.89
  -2  -3   4 3326.17  101.59
   1   3  -4   -1.30    4.10
   1   3  -4    3.40    6.80
   1   3  -4   10.70    7.70
  -1  -3   4    5.50    6.40
  -1  -3   4    7.20    7.20
   0   3  -4  236.18   18.20
   0   3  -4  261.47   22.60
   0   3  -4  262.37   21.10
   0  -3   4  227.08   21.50
   0  -3   4  240.38   20.50
  -1   3  -4  396.26   26.60
   1  -3   4  455.45   28.50
   1  -3   4  387.26   25.60
  -2   3  -4 1550.34   56.59
   2  -3   4 1621.84   64.79
   2  -3   4 1528.85   56.79
   2  -3   4 1667.23   59.29
  -3   3  -4  944.81   43.70
  -3   3  -4 1030.30   42.40
   3  -3   4  966.90   45.50
   3  -3   4  980.80   42.60
   3  -3   4  952.70   49.60
  -4   3  -4 2113.59   66.09
  -4   3  -4 2006.20   72.99
   4  -3   4 1840.72   82.69
   4  -3   4 1981.10   83.89
   4  -3   4 1938.21   65.79
  -5   3  -4  688.23   41.20
  -5   3  -4  594.34   31.10
   5  -3   4  525.45   40.30
  -6   3  -4  348.97   32.70
  -6   3  -4  361.36   24.50
   6  -3   4  349.17   35.40
  -7   3  -4  695.03   33.90
  -7   3  -4  618.14   46.40
   7  -3   4  679.73   51.29
  -8   3  -4   26.30   26.80
  -8   3  -4   27.30    8.80
   8  -3   4   44.40   18.80
   8   2  -4  644.34   54.59
   8   2  -4  576.54   81.29
  -8  -2   4  610.84   48.00
  -8  -2   4  529.45   48.40
   7   2  -4   24.40   16.60
   7   2  -4   10.40   12.20
  -7  -2   4   16.40   10.50
  -7  -2   4   42.70   17.70
  -7  -2   4   -1.80    6.60
   6   2  -4  524.95   42.00
   6   2  -4  617.04   46.20
  -6  -2   4  525.75   30.10
  -6  -2   4  567.84   40.90
  -6  -2   4  562.14   43.10
   5   2  -4   44.80   16.20
   5   2  -4   54.39   15.70
  -5  -2   4   48.60   10.90
  -5  -2   4   35.60   14.10
  -5  -2   4   18.20   11.60
   4   2  -4 1034.40   51.39
   4   2  -4  960.90   49.90
  -4  -2   4 1091.29   41.00
  -4  -2   4 1099.09   54.09
  -4  -2   4  917.81   49.00
  -4  -2   4 1070.39   51.39
   3   2  -4  460.95   30.40
   3   2  -4  386.06   28.20
  -3  -2   4  434.96   31.20
  -3  -2   4  449.86   30.00
  -3  -2   4  460.45   24.80
  -3  -2   4  419.86   30.20
   2   2  -4 1197.18   49.00
   2   2  -4 1283.27   50.39
   2   2  -4 1266.87   54.29
  -2  -2   4 1210.98   52.99
  -2  -2   4 1292.77   51.19
  -2  -2   4 1289.67   50.69
   1   2  -4 1808.32   58.79
   1   2  -4 1803.92   59.49
   1   2  -4 1763.72   63.79
  -1  -2   4 1632.34   57.39
  -1  -2   4 1798.92   64.19
   0   2  -4 3243.08   88.69
   0   2  -4 3355.96   95.89
   0   2  -4 3178.98   89.79
   0  -2   4 3179.48   88.09
   0  -2   4 3406.06   96.19
  -1   2  -4 1681.63   58.69
  -1   2  -4 1587.84   54.19
   1  -2   4 1746.13   54.99
   1  -2   4 1790.92   60.79
  -2   2  -4  233.08   19.40
   2  -2   4  205.48   18.70
   2  -2   4  221.78   20.40
   2  -2   4  198.58   17.00
  -3   2  -4 1536.85   54.09
   3  -2   4 1464.85   54.39
   3  -2   4 1535.75   60.79
   3  -2   4 1516.75   54.19
  -4   2  -4   84.59   16.40
  -4   2  -4   66.79   12.70
   4  -2   4   69.79   15.50
   4  -2   4   71.79   13.60
  -5   2  -4 1437.86   62.19
  -5   2  -4 1305.87   50.79
   5  -2   4 1472.15   68.09
  -6   2  -4  116.09   22.00
  -6   2  -4  198.48   19.30
   6  -2   4  212.58   29.60
  -7   2  -4 1030.00   45.10
   7  -2   4 1045.40   59.99
  -8   2  -4   -2.50    7.80
  -8   2  -4   -6.20   11.50
   8  -2   4   15.80   13.10
   8   1  -4  150.98   31.10
  -8  -1   4  145.89   18.10
  -8  -1   4  116.19   23.00
   7   1  -4   89.59   22.80
   7   1  -4   73.89   23.40
  -7  -1   4   56.19   20.90
  -7  -1   4  104.39   15.00
   6   1  -4 1751.22   79.39
   6   1  -4 1650.43   80.79
  -6  -1   4 1730.83   73.39
  -6  -1   4 1813.22   81.09
  -6  -1   4 1828.32   57.09
   5   1  -4   69.19   18.90
   5   1  -4   48.10   15.50
  -5  -1   4   31.80   13.50
  -5  -1   4   45.50    8.90
  -5  -1   4   50.49   14.80
   4   1  -4 1101.89   53.09
   4   1  -4 1183.38   56.19
  -4  -1   4 1062.99   42.30
  -4  -1   4 1126.49   54.49
  -4  -1   4 1166.58   52.69
   3   1  -4  692.43   38.30
   3   1  -4  661.93   36.10
  -3  -1   4  619.04   25.10
  -3  -1   4  606.64   36.70
  -3  -1   4  636.74   36.70
   2   1  -4  117.09   16.40
   2   1  -4  133.69   16.80
   2   1  -4  154.58   20.00
  -2  -1   4  159.48   20.40
  -2  -1   4  147.29   18.30
  -2  -1   4  158.78   21.10
   1   1  -4  603.44   31.60
   1   1  -4  654.73   29.70
   1   1  -4  596.64   32.90
  -1  -1   4  674.73   34.30
  -1  -1   4  658.93   30.30
   0   1  -4 1449.26   44.60
   0   1  -4 1329.27   49.00
   0   1  -4 1294.27   49.90
   0  -1   4 1378.26   50.99
   0  -1   4 1355.56   44.90
  -1   1  -4   95.39   12.50
  -1   1  -4  122.39   16.90
   1  -1   4  102.09   14.20
   1  -1   4   85.99   12.20
   1  -1   4   97.19    9.90
  -2   1  -4 1008.10   41.30
   2  -1   4  988.60   35.20
   2  -1   4  985.00   41.60
   2  -1   4 1141.09   44.00
  -3   1  -4  641.94   31.60
   3  -1   4  686.33   33.20
   3  -1   4  598.84   33.70
   3  -1   4  627.44   28.40
  -4   1  -4   56.59   11.50
   4  -1   4   56.99   11.50
   4  -1   4   45.30   12.50
  -5   1  -4 1222.48   48.80
  -5   1  -4 1161.28   56.39
  -5   1  -4 1241.08   56.09
   5  -1   4 1232.38   56.19
  -6   1  -4  435.86   41.90
  -6   1  -4  381.96   27.40
  -6   1  -4  463.55   36.70
   6  -1   4  363.56   31.80
  -7   1  -4   36.40   13.30
  -7   1  -4   26.20   14.40
  -7   1  -4   12.00    8.60
   7  -1   4   19.00   13.80
  -8   1  -4   25.40   10.40
  -8   1  -4    8.10   11.10
   8  -1   4    7.30   12.40
  -9   1  -4  493.65   46.20
  -9   1  -4  533.95   36.00
   9  -1   4  556.34   47.00
   7   0  -4  167.58   32.80
  -7   0   4  109.09   21.10
  -7   0   4  133.99   29.30
   6   0  -4  193.78   32.20
   6   0  -4  154.68   27.80
  -6   0   4  150.98   28.20
  -6   0   4  180.98   29.90
  -6   0   4  139.09   15.20
   5   0  -4  499.55   40.60
   5   0  -4  579.44   41.60
  -5   0   4  553.34   35.60
  -5   0   4  601.34   43.10
  -5   0   4  555.84   23.30
   4   0  -4  876.61   49.60
   4   0  -4  869.31   47.10
  -4   0   4  887.31   43.40
  -4   0   4  898.81   28.20
  -4   0   4  889.51   59.09
   3   0  -4  437.56   29.60
   3   0  -4  347.57   26.70
   3   0  -4  418.96   31.00
  -3   0   4  397.86   15.00
  -3   0   4  415.36   30.20
  -3   0   4  440.26   28.40
   2   0  -4 1383.16   52.99
   2   0  -4 1338.47   54.79
   2   0  -4 1385.86   50.59
  -2   0   4 1327.37   54.39
  -2   0   4 1338.57   51.59
  -2   0   4 1341.87   34.60
   1   0  -4 2549.65   76.29
   1   0  -4 2406.06   68.59
   1   0  -4 2502.35   76.49
  -1   0   4 2436.26   74.59
  -1   0   4 2318.07   75.59
  -1   0   4 2378.36   58.79
   0   0  -4  959.70   40.20
   0   0  -4 1019.00   40.80
   0   0  -4  945.61   32.00
   0   0   4  980.00   32.90
   0   0   4  945.01   31.10
   0   0   4  950.70   39.50
  -1   0  -4  877.21   27.50
  -1   0  -4  908.21   37.80
   1   0   4  848.42   37.30
   1   0   4  922.51   27.70
   1   0   4  925.11   33.40
  -2   0  -4  409.16   24.30
  -2   0  -4  382.66   22.80
   2   0   4  417.96   16.30
   2   0   4  396.66   24.30
   2   0   4  375.06   22.10
  -3   0  -4 3076.09   88.79
  -3   0  -4 3101.79   87.29
   3   0   4 3011.30   87.79
   3   0   4 3045.60   88.19
  -4   0  -4  658.93   33.50
  -4   0  -4  632.74   35.40
   4   0   4  638.04   35.20
  -5   0  -4 1797.62   69.49
  -5   0  -4 1848.32   70.79
  -5   0  -4 1913.11   65.09
   5   0   4 1820.22   69.29
  -6   0  -4   16.00    9.20
  -6   0  -4   36.50   13.40
  -6   0  -4   17.50   10.10
   6   0   4   17.00   10.40
  -7   0  -4 2106.09   85.09
  -7   0  -4 2064.69   75.09
  -7   0  -4 2176.88   86.69
   7   0   4 2064.59   83.79
  -8   0  -4  189.38   30.00
  -8   0  -4  156.08   26.80
  -8   0  -4  123.89   20.80
   8   0   4  212.18   31.50
  -9   0  -4  188.98   32.20
  -9   0  -4  267.47   30.50
   9   0   4  283.57   37.10
   9   0   4  309.47   39.70
   7  -1  -4  167.58   39.10
   7  -1  -4  257.07   37.90
  -7   1   4  251.67   37.90
   6  -1  -4  467.65   41.30
   6  -1  -4  401.86   41.10
  -6   1   4  351.66   42.80
  -6   1   4  433.86   31.00
   5  -1  -4  474.05   40.80
   5  -1  -4  575.44   42.60
  -5   1   4  574.44   33.90
   4  -1  -4  399.36   33.60
   4  -1  -4  368.26   31.00
  -4   1   4  380.06   32.60
  -4   1   4  362.66   26.00
   3  -1  -4  893.81   47.20
   3  -1  -4  918.91   45.30
   3  -1  -4  958.40   42.90
  -3   1   4  832.12   39.20
  -3   1   4  861.31   46.20
   2  -1  -4  643.44   37.00
   2  -1  -4  693.93   34.30
   2  -1  -4  680.93   34.30
  -2   1   4  704.53   38.30
  -2   1   4  692.33   33.40
   1  -1  -4  721.53   31.20
   1  -1  -4  713.33   36.10
   1  -1  -4  757.62   34.40
  -1   1   4  741.43   37.40
  -1   1   4  721.53   33.30
   0  -1  -4  133.39   15.70
   0  -1  -4  149.39   11.10
   0  -1  -4  159.48   16.00
   0   1   4  163.48   15.10
   0   1   4  167.88    8.90
  -1  -1  -4 8975.60  185.58
  -1  -1  -4 8884.21  204.98
  -1  -1  -4 8920.41  194.28
   1   1   4 8885.31  205.78
   1   1   4 8837.42  193.78
  -2  -1  -4 1492.15   48.20
  -2  -1  -4 1556.54   52.19
   2   1   4 1454.85   51.59
   2   1   4 1401.66   46.50
  -3  -1  -4  112.29   14.40
  -3  -1  -4   98.69   14.50
   3   1   4  115.99   14.80
   3   1   4  101.59   14.50
  -4  -1  -4  117.39   17.10
  -4  -1  -4  166.08   19.60
   4   1   4  132.99   17.30
  -5  -1  -4  374.66   27.30
  -5  -1  -4  470.55   31.60
   5   1   4  500.15   31.60
  -6  -1  -4   26.30   11.50
  -6  -1  -4   27.80   10.10
  -6  -1  -4   37.20   12.80
   6   1   4   49.30   13.30
  -7  -1  -4 1590.84   69.99
  -7  -1  -4 1389.06   67.59
  -7  -1  -4 1507.15   64.49
   7   1   4 1602.14   69.79
   7   1   4 1603.54   64.19
  -8  -1  -4   47.50   17.20
  -8  -1  -4   35.90   12.90
   8   1   4   41.40   15.90
   8   1   4   23.80   13.50
  -9  -1  -4  506.35   44.80
  -9  -1  -4  521.35   44.60
  -9  -1  -4  502.85   38.50
   9   1   4  562.94   45.30
 -10  -1  -4   14.10   15.60
 -10  -1  -4    4.70   14.50
 -10  -1  -4   11.00   12.10
  10   1   4   -0.40   14.20
  10   1   4   13.40   15.20
   7  -2  -4  101.59   29.20
   7  -2  -4  136.39   32.00
  -7   2   4  149.49   19.50
   6  -2  -4  252.57   36.20
   6  -2  -4  279.17   39.50
  -6   2   4  282.07   40.00
  -6   2   4  271.87   23.40
   5  -2  -4  616.94   45.60
   5  -2  -4  622.54   46.70
  -5   2   4  566.34   31.80
  -5   2   4  530.75   45.70
   4  -2  -4  888.51   50.49
   4  -2  -4  891.51   54.49
  -4   2   4  890.21   51.69
  -4   2   4  884.81   39.30
   3  -2  -4  439.66   34.00
   3  -2  -4  458.65   27.70
  -3   2   4  539.45   36.60
  -3   2   4  478.55   26.90
   2  -2  -4  100.59   17.40
   2  -2  -4  119.59   15.00
  -2   2   4   99.89   13.70
  -2   2   4   84.69   16.10
   1  -2  -4 1130.69   47.80
   1  -2  -4 1065.59   41.30
  -1   2   4 1041.60   40.40
  -1   2   4 1067.29   47.30
   0  -2  -4  459.45   28.00
   0  -2  -4  530.15   16.00
   0  -2  -4  512.55   26.60
   0   2   4  550.84   27.30
  -1  -2  -4  976.90   40.20
  -1  -2  -4  935.91   30.20
  -1  -2  -4  892.71   37.10
   1   2   4  946.41   38.30
   1   2   4  981.60   30.50
  -2  -2  -4  481.85   26.90
  -2  -2  -4  476.25   23.50
   2   2   4  508.75   27.60
  -3  -2  -4 4203.78  108.39
  -3  -2  -4 4286.97  112.89
   3   2   4 4116.79   87.79
   3   2   4 4087.99  107.39
  -4  -2  -4   11.00    6.90
  -4  -2  -4   11.10    7.10
   4   2   4    5.10    6.60
   4   2   4   -1.30    2.40
  -5  -2  -4 4499.05  127.19
  -5  -2  -4 4777.02  129.09
   5   2   4 4701.03  128.59
   5   2   4 4589.64  113.99
  -6  -2  -4   16.90    9.90
  -6  -2  -4   25.30   10.50
  -6  -2  -4   31.60   11.50
   6   2   4   33.20   11.40
   6   2   4   18.50    8.10
  -7  -2  -4  752.52   47.00
  -7  -2  -4  866.91   48.90
  -7  -2  -4  732.93   44.00
   7   2   4  879.61   43.20
   7   2   4  834.82   47.70
  -8  -2  -4   -0.70    8.50
  -8  -2  -4   -3.20    9.60
   8   2   4    7.80    9.00
   8   2   4    0.30    9.80
  -9  -2  -4  759.02   52.29
  -9  -2  -4  626.44   48.80
  -9  -2  -4  708.93   46.90
   9   2   4  724.93   47.10
   9   2   4  701.23   50.29
 -10  -2  -4  325.47   41.70
 -10  -2  -4  320.47   41.80
 -10  -2  -4  365.16   37.10
  10   2   4  381.06   38.00
  10   2   4  302.37   39.70
   6  -3  -4  234.68   37.10
   6  -3  -4  222.88   12.60
   6  -3  -4  254.37   38.20
  -6   3   4  182.68   32.40
  -6   3   4  255.77   19.20
   5  -3  -4  785.42   53.79
   5  -3  -4  673.53   21.90
  -5   3   4  673.03   31.40
  -5   3   4  682.73   49.70
   4  -3  -4  277.47   34.60
   4  -3  -4  221.08    9.40
  -4   3   4  218.48   17.40
  -4   3   4  196.08   28.80
   3  -3  -4 3064.39  103.79
  -3   3   4 3069.79   84.09
   2  -3  -4  691.43   30.90
  -2   3   4  620.34   38.20
  -2   3   4  635.44   29.50
   1  -3  -4 5846.71  152.48
   1  -3  -4 5803.42  121.49
   1  -3  -4 5823.12  121.49
   1  -3  -4 5894.81  140.79
  -1   3   4 6035.30  141.49
  -1   3   4 5645.84  152.98
   0  -3  -4  281.97   19.00
   0  -3  -4  265.57   21.50
   0  -3  -4  300.87   13.10
   0   3   4  280.67   19.40
  -1  -3  -4 2749.02   80.89
  -1  -3  -4 2713.93   69.19
  -1  -3  -4 2742.03   77.89
   1   3   4 2701.53   78.19
  -2  -3  -4   42.00   10.20
  -2  -3  -4   36.50    8.00
  -2  -3  -4   33.50    4.90
   2   3   4   28.10    7.20
  -3  -3  -4 4239.38  109.19
  -3  -3  -4 4230.88   93.49
  -3  -3  -4 4096.49  113.29
   3   3   4 4298.17  108.99
   3   3   4 4168.88   93.09
  -4  -3  -4  342.07   25.40
  -4  -3  -4  355.36   24.40
   4   3   4  321.87   23.00
   4   3   4  312.57   15.30
  -5  -3  -4 1808.52   67.29
  -5  -3  -4 1953.40   70.49
   5   3   4 1837.82   67.49
   5   3   4 1926.41   56.19
  -6  -3  -4  378.46   29.80
  -6  -3  -4  436.76   32.10
   6   3   4  412.36   24.90
   6   3   4  415.06   30.60
  -7  -3  -4  844.52   58.59
  -7  -3  -4  935.11   51.09
  -7  -3  -4  968.30   51.89
   7   3   4  914.91   50.39
   7   3   4  933.71   43.20
  -8  -3  -4  107.09   22.00
  -8  -3  -4   95.09   21.60
   8   3   4  126.09   21.00
   8   3   4  119.49   23.70
  -9  -3  -4  513.75   41.50
  -9  -3  -4  342.77   40.80
  -9  -3  -4  417.96   39.80
   9   3   4  337.07   33.60
   9   3   4  420.16   39.10
 -10  -3  -4    1.90   12.70
 -10  -3  -4   11.10   14.00
 -10  -3  -4   25.20   14.70
  10   3   4   12.20   14.50
  10   3   4   18.60   12.60
   6  -4  -4   61.09   21.60
  -6   4   4   70.79   25.20
   5  -4  -4  831.62   56.39
  -5   4   4  794.22   26.60
  -5   4   4  851.61   57.39
   4  -4  -4   24.70   13.90
   4  -4  -4   27.00    5.90
   3  -4  -4 1016.40   54.19
   3  -4  -4 1001.00   31.10
  -3   4   4 1091.99   56.09
  -3   4   4 1020.00   36.00
   2  -4  -4   48.50    6.80
   2  -4  -4   24.80    9.70
   2  -4  -4   48.00   13.70
  -2   4   4   49.00    9.00
  -2   4   4   42.40   13.80
   1  -4  -4  395.56   21.70
   1  -4  -4  360.26   16.80
   1  -4  -4  393.06   28.40
  -1   4   4  376.76   28.90
  -1   4   4  376.66   21.30
   0  -4  -4  911.61   36.20
   0  -4  -4  919.61   31.30
   0  -4  -4  899.91   41.50
  -1  -4  -4 4289.97  111.49
  -1  -4  -4 4210.38  107.69
  -1  -4  -4 4336.57  108.39
  -1  -4  -4 4420.86  115.49
  -2  -4  -4  995.60   34.10
  -2  -4  -4  971.60   37.80
  -2  -4  -4  997.00   41.30
  -3  -4  -4 1225.08   49.30
  -3  -4  -4 1204.88   37.50
  -3  -4  -4 1192.48   46.00
   3   4   4 1218.58   46.20
  -4  -4  -4    4.80    5.70
  -4  -4  -4    4.60    4.00
  -4  -4  -4    5.60    6.70
   4   4   4   10.50    7.00
   4   4   4   -1.00    3.50
  -5  -4  -4  179.38   15.10
  -5  -4  -4  156.38   20.50
   5   4   4  145.49   13.50
   5   4   4  173.48   22.30
  -6  -4  -4   59.29   15.10
  -6  -4  -4   41.00   12.80
   6   4   4   79.59   12.80
   6   4   4   55.09   14.00
  -7  -4  -4 1516.15   67.39
  -7  -4  -4 1481.85   65.69
   7   4   4 1551.54   67.69
   7   4   4 1436.66   56.89
  -8  -4  -4  649.14   44.10
  -8  -4  -4  620.14   44.20
   8   4   4  584.54   36.80
   8   4   4  623.54   76.49
  -9  -4  -4  385.86   37.90
  -9  -4  -4  365.16   36.60
   9   4   4  375.96   32.90
   9   4   4  372.26   36.80
 -10  -4  -4  190.08   33.20
  10   4   4  202.18   29.80
  10   4   4  137.19   33.00
   5  -5  -4 1046.00   37.00
   5  -5  -4 1125.79   67.29
   4  -5  -4   18.00    6.40
   4  -5  -4   15.90   14.30
  -4   5   4   33.00   16.10
   3  -5  -4 1122.69   58.89
   3  -5  -4 1089.49   37.80
  -3   5   4 1016.60   56.09
   2  -5  -4   45.40   14.70
   2  -5  -4   33.30    7.80
   2  -5  -4   49.10    8.00
  -2   5   4   50.39   15.70
   1  -5  -4  950.80   45.80
   1  -5  -4  886.81   33.90
  -1   5   4  832.82   45.00
   0  -5  -4    3.10    4.70
   0  -5  -4    1.80    4.40
   0  -5  -4    1.40    6.20
  -1  -5  -4 1216.58   45.30
  -1  -5  -4 1196.58   43.70
  -1  -5  -4 1208.78   47.40
  -1  -5  -4 1133.09   45.50
  -2  -5  -4   42.90    9.80
  -2  -5  -4   51.69   10.40
  -2  -5  -4   54.79   11.30
  -2  -5  -4   58.19   12.10
  -3  -5  -4 2448.96   69.49
  -3  -5  -4 2361.96   75.79
  -3  -5  -4 2482.65   79.49
  -4  -5  -4  262.47   24.20
  -4  -5  -4  267.77   18.60
  -4  -5  -4  240.98   22.60
   4   5   4  280.87   18.80
   4   5   4  244.38   22.10
  -5  -5  -4 2441.06   99.39
  -5  -5  -4 2436.36   73.29
   5   5   4 2438.36   83.59
   5   5   4 2509.85   72.79
  -6  -5  -4 1061.39   45.00
  -6  -5  -4 1039.10   52.59
  -6  -5  -4 1041.90   50.09
   6   5   4 1069.39   53.19
   6   5   4  988.30   42.30
  -7  -5  -4  785.92   45.50
   7   5   4  834.62   41.00
  -8  -5  -4  220.38   29.50
  -8  -5  -4  205.48   31.20
   8   5   4  206.98   26.00
  -9  -5  -4  504.45   43.40
  -9  -5  -4  599.34   44.60
   9   5   4  541.55   39.10
   9   5   4  493.65   43.00
 -10  -5  -4  252.07   37.40
 -10  -5  -4  243.38   36.00
  10   5   4  269.67   34.90
  10   5   4  281.57   39.30
   4  -6  -4   99.99   14.30
   4  -6  -4   85.89   22.60
  -4   6   4  104.49   23.50
   3  -6  -4 1074.69   43.10
   3  -6  -4 1233.78   62.69
   2  -6  -4  235.48   30.20
   2  -6  -4  211.88   18.70
  -2   6   4  258.17   32.40
   1  -6  -4 2615.14   88.39
   1  -6  -4 2620.74   68.19
   0  -6  -4  255.77   23.00
   0  -6  -4  265.67   20.60
   0  -6  -4  249.08   17.50
  -1  -6  -4  703.93   34.70
  -1  -6  -4  680.13   37.20
  -1  -6  -4  678.33   32.80
  -1  -6  -4  661.83   34.60
  -2  -6  -4  387.46   26.00
  -2  -6  -4  337.77   23.30
  -2  -6  -4  370.86   25.70
  -2  -6  -4  378.46   26.50
  -3  -6  -4 1303.07   53.19
  -3  -6  -4 1217.68   52.59
  -3  -6  -4 1281.07   49.10
  -3  -6  -4 1265.47   48.00
  -4  -6  -4 1271.57   48.80
  -4  -6  -4 1257.37   54.59
   4   6   4 1245.18   48.30
  -5  -6  -4  751.82   37.20
  -5  -6  -4  815.32   45.00
   5   6   4  730.53   35.80
  -6  -6  -4  675.53   38.10
  -6  -6  -4  625.94   35.50
  -6  -6  -4  641.74   42.30
   6   6   4  613.74   34.10
   6   6   4  649.64   41.90
  -7  -6  -4   27.00   12.70
  -7  -6  -4    6.80   10.30
  -7  -6  -4   19.40   10.90
   7   6   4   39.90   12.10
  -8  -6  -4 1145.39   62.39
  -8  -6  -4 1031.30   55.09
   8   6   4 1034.80   51.89
  -9  -6  -4  153.28   28.80
  -9  -6  -4  142.29   25.90
   9   6   4  143.19   26.90
   9   6   4  148.09   24.50
 -10  -6  -4  296.67   38.10
 -10  -6  -4  197.28   34.20
  10   6   4  242.98   32.50
  10   6   4  245.68   36.90
   3  -7  -4  262.97   22.40
   3  -7  -4  259.77   34.50
  -3   7   4  270.57   37.10
   2  -7  -4  542.75   39.60
   2  -7  -4  457.75   30.20
  -2   7   4  474.35   37.50
   1  -7  -4  305.97   28.70
   1  -7  -4  343.17   14.10
   1  -7  -4  381.06   35.20
   0  -7  -4  161.48   20.80
   0  -7  -4  174.08   14.60
   0  -7  -4  146.39   23.60
   0  -7  -4  173.98   22.20
  -1  -7  -4  470.25   26.80
  -1  -7  -4  440.56   33.30
  -1  -7  -4  430.96   27.90
  -1  -7  -4  416.76   29.60
  -2  -7  -4 2369.66   80.79
  -2  -7  -4 2318.87   72.09
  -2  -7  -4 2309.97   75.99
  -2  -7  -4 2217.38   78.89
  -3  -7  -4  603.04   37.50
  -3  -7  -4  635.44   37.00
  -3  -7  -4  608.74   35.80
  -3  -7  -4  595.94   30.80
  -4  -7  -4  712.33   38.70
  -4  -7  -4  785.32   44.20
  -5  -7  -4  381.76   28.80
  -5  -7  -4  365.56   31.50
   5   7   4  354.96   27.40
  -6  -7  -4  109.59   18.00
  -6  -7  -4  187.18   24.70
  -6  -7  -4  162.78   25.90
   6   7   4  176.38   23.00
  -7  -7  -4  599.44   39.50
  -7  -7  -4  701.03   48.10
  -7  -7  -4  635.94   39.10
   7   7   4  654.13   39.30
  -8  -7  -4  438.86   40.50
  -8  -7  -4  456.15   36.10
  -8  -7  -4  447.36   35.50
   8   7   4  492.25   36.20
  -9  -7  -4    7.80   14.00
  -9  -7  -4   12.00   11.80
 -10  -7  -4  789.02   57.99
 -10  -7  -4  503.55   43.80
  10   7   4  539.05   43.00
  10   7   4  511.75   49.30
   2  -8  -4   62.69   19.80
   2  -8  -4   35.30   14.30
   2  -8  -4   28.40   11.30
   1  -8  -4  296.57   28.80
   1  -8  -4  353.16   35.80
   0  -8  -4  264.67   26.60
   0  -8  -4  291.07   25.80
   0  -8  -4  262.87   34.00
  -1  -8  -4  772.42   43.60
  -1  -8  -4  770.82   37.90
  -1  -8  -4  723.33   45.50
  -1  -8  -4  721.13   34.90
  -2  -8  -4   18.30    9.20
  -2  -8  -4   43.40   14.80
  -2  -8  -4   13.60    9.30
  -2  -8  -4   31.20    9.10
  -3  -8  -4    6.50   10.00
  -3  -8  -4   23.30    7.60
  -3  -8  -4    8.20    7.50
  -3  -8  -4    7.00    9.40
  -4  -8  -4  707.93   42.00
  -4  -8  -4  753.82   34.30
  -5  -8  -4  105.49   19.90
  -5  -8  -4  142.19   24.60
   5   8   4  105.99   18.90
  -6  -8  -4  929.71   50.39
  -6  -8  -4 1000.00   45.10
  -6  -8  -4  966.30   56.99
   6   8   4  982.10   52.19
  -7  -8  -4    0.00    8.10
  -7  -8  -4    7.10    8.20
  -7  -8  -4   11.40   11.80
   7   8   4  -11.80    9.00
  -8  -8  -4  286.77   34.40
  -8  -8  -4  297.87   28.50
  -8  -8  -4  301.87   40.30
   8   8   4  282.97   29.30
  -9  -8  -4    0.10   12.40
  -9  -8  -4   11.70   12.00
  -9  -8  -4   24.10   14.80
   9   8   4  -10.20    9.30
   1  -9  -4  281.17   27.80
   1  -9  -4  263.67   39.90
   1  -9  -4  260.97   31.90
   0  -9  -4 1099.09   56.89
   0  -9  -4 1002.70   30.00
   0  -9  -4  997.20   30.40
   0  -9  -4 1013.30   60.39
  -1  -9  -4  138.19   18.40
  -1  -9  -4  126.59   25.40
  -1  -9  -4  111.69   15.50
  -1  -9  -4  107.59   21.60
  -2  -9  -4  254.17   23.50
  -2  -9  -4  322.87   32.80
  -2  -9  -4  314.67   31.90
  -2  -9  -4  288.37   20.70
  -3  -9  -4  336.77   21.20
  -3  -9  -4  308.87   36.80
  -3  -9  -4  313.77   28.40
  -3  -9  -4  380.06   33.80
  -4  -9  -4  333.97   33.40
  -4  -9  -4  285.67   38.30
  -4  -9  -4  303.97   19.80
  -4  -9  -4  337.27   31.40
  -5  -9  -4   46.10   10.30
  -5  -9  -4   64.49   19.00
  -5  -9  -4   51.09   10.70
  -5  -9  -4   76.59   18.50
  -6  -9  -4  574.64   31.70
  -6  -9  -4  582.74   42.60
  -6  -9  -4  613.44   48.10
   6   9   4  616.44   42.30
  -7  -9  -4  -19.30   10.10
  -7  -9  -4   33.30   14.70
  -7  -9  -4   11.10    9.70
  -8  -9  -4  126.89   29.30
  -8  -9  -4  137.89   21.00
  -8  -9  -4  132.49   26.60
   8   9   4  112.49   24.30
  -9  -9  -4  -16.40   13.40
  -9  -9  -4   17.70   14.50
  -9  -9  -4    7.20   12.10
   9   9   4   22.70   13.20
  -1 -10  -4   68.39   12.10
  -1 -10  -4   44.30   17.90
  -1 -10  -4   52.79   11.60
  -1 -10  -4   62.39   11.30
  -1 -10  -4   34.30   16.50
  -2 -10  -4  452.55   41.70
  -2 -10  -4  469.95   40.90
  -2 -10  -4  491.55   24.90
  -3 -10  -4   69.49   13.50
  -3 -10  -4   75.49   20.60
  -3 -10  -4   85.69   17.20
  -3 -10  -4   71.79   19.00
  -4 -10  -4  635.34   48.60
  -4 -10  -4  624.44   43.90
  -4 -10  -4  640.94   24.40
  -4 -10  -4  520.15   43.30
  -5 -10  -4   59.29   18.10
  -5 -10  -4   51.19    8.70
  -5 -10  -4   23.30   14.20
  -6 -10  -4  259.67   36.00
  -6 -10  -4  208.38   16.80
  -6 -10  -4  202.88   33.90
  -6 -10  -4  219.48   17.40
  -7 -10  -4   62.59   19.70
  -7 -10  -4   83.29   13.60
   7  10   4   60.99   19.90
   4   8  -5   57.99   10.50
  -4  -8   5   35.90   20.70
  -4  -8   5   54.59   21.70
  -4  -8   5   51.99   20.20
   3   8  -5  922.41   28.60
   3   8  -5 1024.60   67.49
  -3  -8   5 1027.90   63.09
   2   8  -5   48.40   19.30
  -2  -8   5    9.80   12.60
  -2  -8   5   15.20   15.00
  -1  -8   5  523.65   42.70
  -1  -8   5  547.85   47.70
   0  -8   5   27.90   15.30
   0  -8   5   17.20   15.50
   1  -8   5  678.03   45.60
   5   7  -5  191.88   23.60
   5   7  -5  175.48   32.70
  -5  -7   5  163.08   29.00
  -5  -7   5  131.09   30.60
   4   7  -5   22.30   19.40
   4   7  -5    2.30    6.90
  -4  -7   5   -7.00   10.70
  -4  -7   5   -3.00   11.20
  -4  -7   5   -5.90   11.20
   3   7  -5  378.96   38.00
   3   7  -5  387.36   24.20
  -3  -7   5  422.56   40.30
  -3  -7   5  426.76   40.30
   2   7  -5   67.99   19.70
   2   7  -5   83.39   11.60
  -2  -7   5   52.49   19.50
  -2  -7   5   74.69   20.10
   1   7  -5 1148.79   65.59
  -1  -7   5 1156.08   62.79
  -1  -7   5 1168.48   64.69
   0   7  -5   27.60    7.00
   0  -7   5   14.40   14.40
   0  -7   5    6.30   11.20
  -1   7  -5  359.86   20.80
  -1   7  -5  360.26   21.20
   1  -7   5  356.66   41.60
   1  -7   5  389.96   33.70
  -2   7  -5  106.79   14.70
   2  -7   5   70.19   20.30
   2  -7   5  107.89   20.40
   2  -7   5   97.69   24.60
  -3   7  -5  279.67   24.00
   3  -7   5  303.57   27.50
   3  -7   5  257.77   38.10
   3  -7   5  291.97   43.20
   6   6  -5   28.20   17.30
   6   6  -5   11.10   11.60
  -6  -6   5   11.70   16.60
  -6  -6   5   -1.40   11.10
   5   6  -5  561.14   53.59
   5   6  -5  530.95   37.70
  -5  -6   5  596.74   50.19
  -5  -6   5  500.75   45.70
  -5  -6   5  465.35   40.00
   4   6  -5    0.90   12.30
   4   6  -5   -0.20   12.40
  -4  -6   5   53.39   16.90
  -4  -6   5   30.50   16.40
  -4  -6   5    4.00   11.70
   3   6  -5  338.17   24.70
   3   6  -5  284.57   37.20
  -3  -6   5  341.27   35.10
  -3  -6   5  220.78   31.90
   2   6  -5  -10.80    9.50
   2   6  -5    2.30    6.10
  -2  -6   5  -10.90    8.90
  -2  -6   5   -4.20    8.70
   1   6  -5  942.61   37.70
   1   6  -5  866.91   52.99
  -1  -6   5  959.40   55.19
  -1  -6   5  929.31   53.99
   0   6  -5    8.80    6.00
   0  -6   5   10.10    9.40
   0  -6   5   14.00   11.70
  -1   6  -5  240.68   19.40
  -1   6  -5  226.58   18.80
   1  -6   5  200.68   29.30
   1  -6   5  188.58   25.80
  -2   6  -5  296.37   22.90
   2  -6   5  330.57   43.10
   2  -6   5  285.97   28.30
   2  -6   5  309.17   37.20
  -3   6  -5  400.36   31.10
  -3   6  -5  415.96   29.20
   3  -6   5  492.15   44.20
   3  -6   5  402.96   31.60
   3  -6   5  412.76   38.70
  -4   6  -5  183.08   23.90
   4  -6   5  158.38   33.00
   4  -6   5  175.08   22.50
   4  -6   5  164.78   29.90
  -5   6  -5  483.55   36.40
   5  -6   5  429.46   44.00
   6   5  -5    0.40   11.90
   6   5  -5   18.00   14.20
  -6  -5   5   -8.10   11.50
  -6  -5   5  -12.50   13.50
  -6  -5   5    5.00   10.60
  -6  -5   5   17.30   16.10
   5   5  -5  527.45   43.50
   5   5  -5  536.15   43.20
  -5  -5   5  586.54   47.50
  -5  -5   5  588.74   47.20
   4   5  -5   17.50   12.10
   4   5  -5    9.10    9.50
  -4  -5   5    7.20   10.90
  -4  -5   5   -5.60    9.80
   3   5  -5 1476.05   68.49
   3   5  -5 1493.75   59.19
  -3  -5   5 1469.25   71.59
  -3  -5   5 1541.25   70.69
   2   5  -5   90.89   15.40
   2   5  -5  114.89   22.30
  -2  -5   5   97.49   21.00
   1   5  -5  788.52   36.50
   1   5  -5  806.82   47.60
  -1  -5   5  830.72   49.00
  -1  -5   5  768.72   45.90
   0   5  -5  217.98   19.00
   0   5  -5  241.18   29.70
   0   5  -5  247.28   29.90
   0  -5   5  214.48   27.70
   0  -5   5  256.47   37.00
  -1   5  -5 2426.96   87.19
   1  -5   5 2344.67   87.19
   1  -5   5 2479.05   87.69
  -2   5  -5   10.50    7.50
  -2   5  -5   27.80   11.40
   2  -5   5   12.20   10.10
   2  -5   5    5.10   10.00
  -3   5  -5  374.86   28.60
  -3   5  -5  395.46   35.70
   3  -5   5  379.56   29.50
   3  -5   5  395.46   34.70
  -4   5  -5  243.78   23.50
  -4   5  -5  249.38   28.60
   4  -5   5  268.97   35.00
   4  -5   5  325.57   41.90
   4  -5   5  312.47   26.50
  -5   5  -5  229.58   29.40
  -5   5  -5  296.37   24.50
   5  -5   5  292.57   50.29
   5  -5   5  313.17   37.80
  -6   5  -5  223.18   31.00
  -6   5  -5  221.78   20.70
   6  -5   5  253.47   40.30
   6  -5   5  315.77   41.80
   7   4  -5  181.58   31.00
   7   4  -5  166.88   31.00
  -7  -4   5  232.28   46.90
  -7  -4   5  229.88   37.70
  -7  -4   5  171.78   24.00
   6   4  -5   24.70   15.10
   6   4  -5   19.20   14.90
  -6  -4   5   19.60   16.80
  -6  -4   5   23.80   12.90
  -6  -4   5    7.60    9.80
   5   4  -5  962.20   54.09
   5   4  -5  936.01   55.89
  -5  -4   5 1021.20   60.39
  -5  -4   5  915.61   52.69
  -5  -4   5  880.41   57.19
  -5  -4   5  998.90   48.50
   4   4  -5  120.89   22.50
   4   4  -5  119.19   20.70
  -4  -4   5   98.99   22.60
  -4  -4   5   89.29   17.00
   3   4  -5  181.58   26.10
   3   4  -5  145.29   20.20
  -3  -4   5  226.58   30.00
   2   4  -5  324.17   28.20
   2   4  -5  288.57   23.80
  -2  -4   5  345.77   29.80
  -2  -4   5  309.97   29.80
   1   4  -5  401.76   33.40
   1   4  -5  433.96   27.30
   1   4  -5  444.36   31.50
  -1  -4   5  470.45   33.00
  -1  -4   5  398.26   39.60
   0   4  -5  795.22   43.40
   0   4  -5  819.22   37.80
   0   4  -5  753.12   44.20
   0  -4   5  804.92   45.40
  -1   4  -5  366.36   29.10
   1  -4   5  287.07   26.20
  -2   4  -5  511.25   35.20
   2  -4   5  494.35   34.30
   2  -4   5  488.55   37.80
   2  -4   5  542.35   35.20
  -3   4  -5  894.31   44.30
  -3   4  -5  903.11   45.00
   3  -4   5  905.01   48.40
   3  -4   5  892.01   45.40
  -4   4  -5  323.67   28.70
  -4   4  -5  359.76   27.50
   4  -4   5  350.16   27.70
   4  -4   5  282.87   33.40
  -5   4  -5  329.17   26.10
  -5   4  -5  343.87   31.40
   5  -4   5  378.56   44.30
   5  -4   5  407.86   35.90
  -6   4  -5  844.02   40.90
   6  -4   5  906.31   70.49
   6  -4   5  850.31   54.69
  -7   4  -5  140.49   26.10
  -7   4  -5  107.49   16.50
   7  -4   5  100.89   28.90
   7  -4   5   75.39   21.90
   7   3  -5  786.22   56.49
   7   3  -5  767.72   55.99
  -7  -3   5  780.32   57.09
  -7  -3   5  739.73   55.29
   6   3  -5   59.79   20.20
   6   3  -5   41.80   19.60
  -6  -3   5   31.50   15.40
  -6  -3   5   31.50   15.80
  -6  -3   5   29.60    9.90
   5   3  -5  762.42   49.00
   5   3  -5  772.02   49.30
  -5  -3   5  723.93   37.60
  -5  -3   5  721.93   47.10
   4   3  -5  543.45   38.40
   4   3  -5  502.95   37.70
  -4  -3   5  425.56   36.00
  -4  -3   5  548.35   32.10
  -4  -3   5  512.85   44.40
   3   3  -5 1792.82   71.59
   3   3  -5 1857.61   82.79
  -3  -3   5 1927.81   77.89
  -3  -3   5 1889.41   74.99
   2   3  -5   26.50   12.70
   2   3  -5   29.20   11.20
   2   3  -5   24.60   10.10
  -2  -3   5   19.40   10.80
  -2  -3   5   13.90   10.20
   1   3  -5 2895.61   88.49
   1   3  -5 2708.43   84.39
   1   3  -5 2685.53   93.69
  -1  -3   5 2638.04   86.19
  -1  -3   5 2739.23   93.39
   0   3  -5  175.68   21.80
   0   3  -5  141.09   18.50
   0  -3   5  149.69   22.00
   0  -3   5  182.98   21.60
  -1   3  -5 1603.44   60.89
  -1   3  -5 1652.23   64.09
   1  -3   5 1661.03   60.19
   1  -3   5 1746.03   66.19
  -2   3  -5  898.31   44.00
   2  -3   5  885.21   47.80
   2  -3   5  836.82   43.40
   2  -3   5  964.00   43.50
  -3   3  -5  473.15   31.70
   3  -3   5  495.75   32.40
   3  -3   5  472.35   60.99
   3  -3   5  529.25   32.60
  -4   3  -5 1021.00   46.60
  -4   3  -5 1004.60   50.09
   4  -3   5  984.10   49.30
   4  -3   5 1033.90   48.40
  -5   3  -5  220.28   21.80
  -5   3  -5  229.28   41.50
   5  -3   5  238.08   28.60
  -6   3  -5  448.06   36.40
  -6   3  -5  370.36   27.90
   6  -3   5  410.06   35.50
   6  -3   5  498.45   43.30
  -7   3  -5  210.78   32.30
  -7   3  -5  247.38   22.90
  -8   3  -5  563.44   48.60
   8  -3   5  632.84   62.49
   7   2  -5  314.67   41.00
   7   2  -5  371.36   38.50
  -7  -2   5  355.66   24.50
  -7  -2   5  381.96   39.90
  -7  -2   5  405.86   38.50
   6   2  -5   40.30   18.50
   6   2  -5   19.50   14.90
  -6  -2   5   20.40    8.30
  -6  -2   5   11.50   12.60
  -6  -2   5   27.30   13.40
   5   2  -5  441.46   38.80
   5   2  -5  449.26   37.60
  -5  -2   5  352.06   32.90
  -5  -2   5  531.35   40.40
  -5  -2   5  444.66   25.60
   4   2  -5  730.53   45.00
   4   2  -5  580.14   39.50
  -4  -2   5  611.44   41.70
  -4  -2   5  650.53   42.50
  -4  -2   5  637.54   30.60
   3   2  -5  924.01   46.30
   3   2  -5  939.41   48.30
  -3  -2   5  792.32   53.09
  -3  -2   5  862.31   47.00
  -3  -2   5  884.91   37.20
  -3  -2   5  875.61   46.70
   2   2  -5 2013.80   77.89
   2   2  -5 1874.61   68.69
   2   2  -5 2085.79   73.79
  -2  -2   5 2072.99   72.79
  -2  -2   5 2043.50   76.59
   1   2  -5  412.46   27.80
   1   2  -5  379.96   31.00
   1   2  -5  446.76   27.20
  -1  -2   5  397.96   26.20
  -1  -2   5  424.16   31.10
   0   2  -5 2362.36   75.59
   0   2  -5 2263.87   78.59
   0   2  -5 2230.98   70.59
   0  -2   5 2307.07   79.49
   0  -2   5 2388.76   72.19
  -1   2  -5  997.90   40.50
  -1   2  -5  922.11   44.70
   1  -2   5  975.40   44.60
   1  -2   5  948.71   45.30
   1  -2   5 1004.30   39.90
  -2   2  -5 2425.86   79.29
   2  -2   5 2363.36   81.19
   2  -2   5 2411.26   80.49
   2  -2   5 2445.06   73.09
  -3   2  -5  389.56   27.60
   3  -2   5  401.76   30.50
   3  -2   5  372.26   27.70
   3  -2   5  400.26   25.20
  -4   2  -5  820.92   40.90
   4  -2   5  785.52   39.30
   4  -2   5  844.42   42.60
   4  -2   5  760.42   44.80
  -5   2  -5   10.50    9.50
  -5   2  -5   10.50    8.80
   5  -2   5  -13.30    5.30
  -6   2  -5  624.44   43.90
  -6   2  -5  647.24   37.20
  -7   2  -5    3.10   11.30
  -7   2  -5   20.60   10.80
   7  -2   5   22.20   15.20
  -8   2  -5  356.26   28.80
  -8   2  -5  320.77   40.20
   8  -2   5  265.67   39.00
   7   1  -5  194.18   33.20
  -7  -1   5  200.08   17.30
  -7  -1   5  241.88   32.00
  -7  -1   5  181.98   31.80
   6   1  -5  991.00   62.69
   6   1  -5  839.32   55.19
  -6  -1   5  937.61   41.90
  -6  -1   5  862.51   57.79
   5   1  -5  644.84   47.00
   5   1  -5  792.72   49.50
  -5  -1   5  713.43   44.90
  -5  -1   5  692.83   48.00
   4   1  -5  283.37   55.09
   4   1  -5  335.47   38.60
  -4  -1   5  284.67   16.70
  -4  -1   5  301.37   39.40
  -4  -1   5  340.37   31.20
   3   1  -5  552.14   38.90
   3   1  -5  655.63   41.00
   3   1  -5  654.73   37.80
  -3  -1   5  666.53   40.10
  -3  -1   5  585.74   39.50
  -3  -1   5  664.63   25.90
   2   1  -5  461.85   36.00
   2   1  -5  460.05   32.10
   2   1  -5  487.15   29.70
  -2  -1   5  428.56   31.00
  -2  -1   5  486.45   30.70
  -2  -1   5  378.26   29.70
   1   1  -5   46.20   12.20
   1   1  -5   66.69   11.90
   1   1  -5   53.89   13.40
  -1  -1   5   66.29   14.50
  -1  -1   5   79.29   13.80
   0   1  -5 2287.47   77.79
   0   1  -5 2295.97   67.39
   0   1  -5 2361.16   76.69
   0  -1   5 2361.16   69.29
   0  -1   5 2466.15   79.89
   0  -1   5 2269.07   67.29
  -1   1  -5    3.50    4.30
  -1   1  -5   -0.10    6.20
   1  -1   5   -0.80    4.50
   1  -1   5    8.00    5.80
   1  -1   5    3.50    5.90
  -2   1  -5  825.92   39.90
   2  -1   5  769.32   38.10
   2  -1   5  843.12   41.20
  -3   1  -5  405.46   28.00
   3  -1   5  461.15   30.30
   3  -1   5  448.86   23.40
   3  -1   5  453.45   30.10
  -4   1  -5 1523.15   58.79
   4  -1   5 1589.64   64.19
   4  -1   5 1614.14   61.19
   4  -1   5 1509.25   53.09
  -5   1  -5  596.24   34.10
  -5   1  -5  523.85   37.00
   5  -1   5  450.75   42.00
  -6   1  -5 2133.79   84.79
  -6   1  -5 2086.89   74.49
  -7   1  -5   -8.20    6.60
   7  -1   5    4.70   10.20
  -8   1  -5  731.23   52.69
  -8   1  -5  824.02   44.50
   8  -1   5  737.13   53.49
  -9   1  -5   95.09   26.00
  -9   1  -5   78.79   21.20
   9  -1   5  116.19   25.80
   7   0  -5  243.28   37.90
   7   0  -5  181.38   35.00
   6   0  -5  229.68   34.40
   6   0  -5  262.27   40.20
  -6   0   5  210.88   33.90
  -6   0   5  194.48   27.10
   5   0  -5  233.18   32.00
   5   0  -5  180.88   31.00
  -5   0   5  218.68   31.90
  -5   0   5  225.58   27.90
   4   0  -5  946.91   54.29
   4   0  -5  931.41   51.19
  -4   0   5  917.21   48.30
  -4   0   5  892.41   52.69
   3   0  -5  717.33   39.90
   3   0  -5  715.73   43.50
  -3   0   5  629.94   38.20
  -3   0   5  676.93   17.80
  -3   0   5  623.34   41.20
   2   0  -5 1170.18   51.79
   2   0  -5 1104.59   47.00
  -2   0   5 1117.49   30.40
  -2   0   5 1136.69   30.30
  -2   0   5 1084.59   49.80
  -2   0   5 1162.28   53.99
   1   0  -5 2190.98   66.19
   1   0  -5 2155.98   74.79
   1   0  -5 2159.28   74.49
  -1   0   5 2166.78   55.29
  -1   0   5 2057.09   72.49
   0   0  -5  936.61   43.30
   0   0  -5  919.31   42.80
   0   0  -5  975.30   34.30
   0   0   5  909.61   34.20
   0   0   5  975.70   43.70
   0   0   5  855.51   34.60
  -1   0  -5  947.41   43.00
  -1   0  -5  953.80   31.30
   1   0   5  987.30   44.00
   1   0   5 1025.10   37.60
   1   0   5  938.81   31.30
  -2   0  -5 2952.40   88.99
   2   0   5 2997.10   90.49
   2   0   5 2883.21   70.49
   2   0   5 2975.30   84.39
  -3   0  -5  145.79   19.30
  -3   0  -5  161.08   20.20
   3   0   5  141.59   18.60
   3   0   5  165.08   21.60
   3   0   5  140.09   10.90
  -4   0  -5 2099.89   75.39
  -4   0  -5 2275.27   74.59
   4   0   5 2166.68   74.99
   4   0   5 2143.39   75.29
  -5   0  -5  239.68   28.40
  -5   0  -5  224.78   22.70
   5   0   5  297.77   26.40
  -6   0  -5 1053.19   55.59
  -6   0  -5 1047.40   59.39
  -6   0  -5 1087.19   56.19
   6   0   5 1045.90   54.59
  -7   0  -5  146.49   24.50
  -7   0  -5  108.39   20.30
  -7   0  -5   97.99   21.90
  -8   0  -5 1492.55   75.99
  -8   0  -5 1498.75   75.39
  -8   0  -5 1594.74   67.89
   8   0   5 1515.95   74.79
  -9   0  -5  173.48   30.60
  -9   0  -5  164.98   30.90
  -9   0  -5  196.58   29.10
   9   0   5  133.79   29.90
   9   0   5  196.58   31.20
   6  -1  -5   58.69   19.90
   6  -1  -5  145.29   29.60
  -6   1   5   93.99   24.80
  -6   1   5   84.19   18.70
   5  -1  -5  103.09   23.30
   5  -1  -5   94.69   22.20
  -5   1   5  113.49   19.60
   4  -1  -5 1750.72   73.59
   4  -1  -5 1637.94   75.49
  -4   1   5 1702.13   66.19
   3  -1  -5   14.00    9.30
   3  -1  -5   22.80   11.30
   3  -1  -5   25.80   10.60
  -3   1   5   21.60   11.40
  -3   1   5   19.30    9.70
   2  -1  -5 3896.71  109.59
   2  -1  -5 3927.51  112.39
   2  -1  -5 3921.31  118.99
  -2   1   5 3764.32  117.99
  -2   1   5 3761.22  109.39
   1  -1  -5   17.30    8.30
   1  -1  -5   12.90    8.00
   1  -1  -5   16.60    6.90
  -1   1   5    8.90    7.60
   0  -1  -5 2354.56   76.09
   0  -1  -5 2305.37   78.19
   0  -1  -5 2474.95   64.99
   0   1   5 2441.86   58.79
   0   1   5 2323.67   75.89
  -1  -1  -5  149.59    9.20
  -1  -1  -5  138.59   18.40
  -1  -1  -5  136.99   17.90
   1   1   5  120.99   16.50
   1   1   5  161.68   12.60
  -2  -1  -5 8303.27  200.78
  -2  -1  -5 8392.26  193.18
   2   1   5 8503.15  192.98
   2   1   5 8396.26  202.78
  -3  -1  -5  122.89   17.30
  -3  -1  -5  166.58   19.50
   3   1   5  166.58   21.50
   3   1   5  172.98    7.30
   3   1   5  135.39   17.10
  -4  -1  -5 2452.65   80.89
  -4  -1  -5 2467.85   80.89
   4   1   5 2504.55   82.29
   4   1   5 2469.65   79.99
  -5  -1  -5   72.69   18.20
  -5  -1  -5   94.79   17.20
   5   1   5   77.29   15.90
  -6  -1  -5  556.74   40.80
  -6  -1  -5  508.95   41.70
  -6  -1  -5  593.14   39.50
   6   1   5  568.74   39.80
  -7  -1  -5   51.19   16.00
  -7  -1  -5   19.10   11.10
   7   1   5   43.00   12.10
  -8  -1  -5  403.36   38.70
  -8  -1  -5  435.36   35.90
   8   1   5  437.66   38.90
   8   1   5  460.95   34.40
  -9  -1  -5  218.28   30.60
  -9  -1  -5  172.98   31.10
  -9  -1  -5  241.38   35.30
   9   1   5  218.98   34.00
   9   1   5  189.48   27.20
 -10  -1  -5  382.66   37.60
 -10  -1  -5  396.36   48.70
  10   1   5  438.16   44.50
  10   1   5  420.26   39.90
   6  -2  -5  672.23   64.89
   6  -2  -5  702.03   52.89
  -6   2   5  731.33   40.20
  -6   2   5  574.64   50.79
   5  -2  -5   37.40   15.40
   5  -2  -5   22.90   16.20
  -5   2   5   41.80   12.30
  -5   2   5   78.49   20.80
   4  -2  -5  712.03   46.20
   4  -2  -5  731.73   49.40
  -4   2   5  744.13   38.70
   3  -2  -5  134.39   21.70
   3  -2  -5  136.09   19.90
  -3   2   5   92.19   20.20
  -3   2   5  113.59   16.50
   2  -2  -5  665.23   41.40
   2  -2  -5  627.44   35.00
   2  -2  -5  589.24   34.90
  -2   2   5  642.64   34.00
  -2   2   5  690.93   41.90
   1  -2  -5   42.70   10.00
   1  -2  -5   61.99   14.30
   1  -2  -5   50.79   11.80
  -1   2   5   58.29   12.30
   0  -2  -5 1618.24   57.59
   0  -2  -5 1479.35   48.00
   0  -2  -5 1604.84   61.19
   0   2   5 1592.84   57.69
  -1  -2  -5  351.26   24.40
  -1  -2  -5  335.77   17.20
  -1  -2  -5  391.56   27.20
  -1  -2  -5  365.96   15.30
   1   2   5  343.07   24.70
   1   2   5  377.46   17.70
  -2  -2  -5   53.09    9.70
  -2  -2  -5   43.30   10.80
   2   2   5   54.49   11.90
   2   2   5   53.09    9.20
  -3  -2  -5  909.81   42.30
  -3  -2  -5  849.41   37.30
   3   2   5  878.71   37.90
   3   2   5  922.91   43.00
  -4  -2  -5 2318.27   76.69
  -4  -2  -5 2201.28   72.69
   4   2   5 2185.78   50.89
   4   2   5 2016.70   70.79
  -5  -2  -5   64.69   14.70
  -5  -2  -5   62.79   14.90
   5   2   5   69.49   14.60
  -6  -2  -5 1085.29   53.19
  -6  -2  -5 1094.79   53.99
   6   2   5 1133.79   42.70
   6   2   5 1114.49   54.19
  -7  -2  -5  973.90   79.19
  -7  -2  -5 1090.79   58.49
  -7  -2  -5 1184.58   57.29
   7   2   5 1013.70   45.80
  -8  -2  -5  310.37   40.60
  -8  -2  -5  297.27   37.00
   8   2   5  296.87   26.60
  -9  -2  -5  230.38   32.20
  -9  -2  -5  151.68   29.10
  -9  -2  -5  176.28   30.40
   9   2   5  191.38   31.30
   9   2   5  195.78   27.80
 -10  -2  -5  359.76   44.40
 -10  -2  -5  460.25   44.00
 -10  -2  -5  443.26   40.80
  10   2   5  310.17   41.80
  10   2   5  395.66   37.20
   6  -3  -5  687.33   57.49
   6  -3  -5  867.61   61.29
  -6   3   5  757.72   37.80
   5  -3  -5   49.40   18.60
   5  -3  -5   29.60   16.60
  -5   3   5   87.09   23.50
  -5   3   5   39.60   11.20
   4  -3  -5  308.47   37.30
   4  -3  -5  300.77   38.00
  -4   3   5  304.37   39.40
  -4   3   5  293.77   23.00
   3  -3  -5  210.38   29.90
   3  -3  -5  220.78   20.50
  -3   3   5  231.98   20.40
  -3   3   5  233.58   32.20
   2  -3  -5 2313.37   73.19
   2  -3  -5 2127.79   83.29
  -2   3   5 2236.78   71.79
   1  -3  -5    5.40    6.10
   1  -3  -5    3.00    7.80
  -1   3   5    0.80    6.70
  -1   3   5    1.80    5.20
   0  -3  -5 2752.72   83.29
   0  -3  -5 2873.81   90.29
   0  -3  -5 2761.92   62.79
   0   3   5 2796.72   83.89
  -1  -3  -5   32.50   10.20
  -1  -3  -5   33.20    6.30
  -1  -3  -5   35.30   10.20
   1   3   5   32.40    6.60
   1   3   5   39.20   10.10
  -2  -3  -5 1421.66   54.79
  -2  -3  -5 1460.95   47.60
  -2  -3  -5 1437.46   36.00
   2   3   5 1466.25   47.30
   2   3   5 1555.04   57.29
  -3  -3  -5  188.58   17.00
  -3  -3  -5  150.08   19.20
   3   3   5  120.89   15.20
  -4  -3  -5  866.61   41.60
  -4  -3  -5 1028.70   47.20
   4   3   5  936.11   42.20
   4   3   5  961.70   25.00
  -5  -3  -5 1292.27   55.89
  -5  -3  -5 1366.16   60.49
   5   3   5 1380.46   56.69
   5   3   5 1325.37   39.70
  -6  -3  -5  787.62   45.80
  -6  -3  -5  896.11   47.20
   6   3   5  809.42   33.60
   6   3   5  880.91   46.50
  -7  -3  -5  119.39   21.80
  -7  -3  -5   50.19   25.20
  -7  -3  -5  109.69   21.40
   7   3   5  113.19   20.60
   7   3   5   91.29   14.60
  -8  -3  -5  238.28   31.90
  -8  -3  -5  260.87   34.70
  -8  -3  -5  352.06   33.30
   8   3   5  304.47   25.50
  -9  -3  -5  426.16   39.50
  -9  -3  -5  453.55   41.40
  -9  -3  -5  427.26   40.60
   9   3   5  411.26   39.30
   9   3   5  401.86   33.00
 -10  -3  -5   78.59   23.60
 -10  -3  -5   75.79   25.50
 -10  -3  -5  114.99   27.20
  10   3   5   54.49   20.90
   5  -4  -5    5.20   17.00
   5  -4  -5   35.20   23.50
  -5   4   5   25.30   16.30
  -5   4   5   21.70    8.20
   4  -4  -5  740.53   53.19
  -4   4   5  912.01   37.00
  -4   4   5  839.52   55.29
   3  -4  -5  -21.00    8.50
  -3   4   5    8.20    6.30
   2  -4  -5  596.74   40.50
   2  -4  -5  450.85   27.30
  -2   4   5  544.85   29.00
  -2   4   5  541.65   39.30
   1  -4  -5  776.62   44.50
   1  -4  -5  869.51   38.10
  -1   4   5  804.92   37.20
   0  -4  -5  748.43   41.10
   0  -4  -5  745.03   35.60
   0  -4  -5  741.33   25.10
   0   4   5  799.22   37.00
  -1  -4  -5    3.80    6.80
  -1  -4  -5    7.60    4.90
  -1  -4  -5    3.60    5.70
   1   4   5   20.00    7.70
  -2  -4  -5 1438.06   42.80
  -2  -4  -5 1520.65   49.40
  -2  -4  -5 1400.66   55.59
  -2  -4  -5 1468.95   55.99
   2   4   5 1416.86   48.50
  -3  -4  -5  523.45   32.60
  -3  -4  -5  536.15   19.60
  -3  -4  -5  538.95   29.20
   3   4   5  520.45   29.00
  -4  -4  -5  905.61   28.90
  -4  -4  -5  904.31   45.70
  -4  -4  -5  928.71   43.00
   4   4   5  876.41   41.40
   4   4   5  978.80   29.40
  -5  -4  -5  633.34   39.10
  -5  -4  -5  619.24   37.10
   5   4   5  560.84   34.80
  -6  -4  -5  490.65   35.30
  -6  -4  -5  475.35   36.00
   6   4   5  516.95   35.30
   6   4   5  445.66   23.80
  -7  -4  -5   30.00   12.90
  -7  -4  -5   24.90   14.50
   7   4   5   18.70    8.70
   7   4   5   16.30   11.80
  -8  -4  -5  366.36   35.40
  -8  -4  -5  409.36   37.20
  -8  -4  -5  417.46   37.30
   8   4   5  356.46   27.50
  -9  -4  -5  156.38   28.70
  -9  -4  -5  194.38   30.60
  -9  -4  -5  169.28   28.80
   9   4   5  157.28   29.00
 -10  -4  -5   69.79   21.80
 -10  -4  -5   43.70   18.40
 -10  -4  -5   42.90   19.30
  10   4   5    7.30   14.60
   4  -5  -5  465.95   43.20
  -4   5   5  399.86   40.70
   3  -5  -5    5.10   11.20
  -3   5   5   -6.10   12.20
   2  -5  -5  534.35   39.80
   2  -5  -5  493.15   25.60
   2  -5  -5  465.05   16.00
   2  -5  -5  448.36   15.90
  -2   5   5  502.55   40.10
   1  -5  -5   10.30    4.10
   1  -5  -5    4.20    5.90
   1  -5  -5   15.90   10.80
   0  -5  -5  984.30   41.20
   0  -5  -5  992.00   34.40
   0  -5  -5  868.31   54.49
  -1  -5  -5  735.83   38.80
  -1  -5  -5  668.73   33.10
  -1  -5  -5  703.73   35.20
  -1  -5  -5  749.23   31.50
  -2  -5  -5  655.73   29.70
  -2  -5  -5  683.13   32.30
  -2  -5  -5  604.34   34.70
  -2  -5  -5  690.13   36.30
  -3  -5  -5  542.85   30.80
  -3  -5  -5  523.75   32.90
  -4  -5  -5  420.16   29.20
  -4  -5  -5  363.46   33.90
  -4  -5  -5  446.56   21.60
   4   5   5  388.86   27.70
  -5  -5  -5  673.23   29.60
  -5  -5  -5  703.23   42.70
  -5  -5  -5  769.42   43.70
   5   5   5  672.53   28.80
   5   5   5  643.64   38.30
  -6  -5  -5 1056.29   53.89
  -6  -5  -5 1020.70   41.70
  -6  -5  -5 1131.09   57.29
   6   5   5 1061.09   40.90
   6   5   5 1028.50   62.49
  -7  -5  -5 1513.15   68.59
  -7  -5  -5 1710.43   73.59
  -7  -5  -5 1559.64   72.69
   7   5   5 1473.65   68.69
   7   5   5 1543.55   55.99
  -8  -5  -5   -4.20    9.90
  -8  -5  -5    0.00   11.00
  -8  -5  -5   12.70   12.80
   8   5   5    8.50    8.50
  -9  -5  -5  844.72   56.39
  -9  -5  -5  817.52   54.19
  -9  -5  -5  890.91   59.19
   9   5   5  955.40   59.19
 -10  -5  -5   68.99   21.40
 -10  -5  -5  131.69   27.00
  10   5   5   65.89   21.10
   4  -6  -5  484.85   46.10
  -4   6   5  555.24   49.40
   3  -6  -5   43.60    8.90
   3  -6  -5   45.40   17.00
   3  -6  -5   50.79    7.30
  -3   6   5   69.49   20.50
   2  -6  -5  928.91   54.19
   2  -6  -5  881.11   32.50
  -2   6   5  926.81   54.19
   1  -6  -5  323.37   30.10
   1  -6  -5  330.87   20.50
   1  -6  -5  300.37   19.00
   0  -6  -5 1422.46   49.10
   0  -6  -5 1356.56   60.29
   0  -6  -5 1442.56   62.29
   0  -6  -5 1501.55   52.19
  -1  -6  -5  727.73   33.70
  -1  -6  -5  691.53   38.80
  -1  -6  -5  720.13   36.00
  -1  -6  -5  698.93   37.40
  -2  -6  -5  629.14   35.10
  -2  -6  -5  605.54   35.30
  -2  -6  -5  614.74   33.20
  -2  -6  -5  626.54   33.00
  -3  -6  -5  542.95   34.30
  -3  -6  -5  515.65   28.20
  -3  -6  -5  568.94   33.10
  -3  -6  -5  538.95   32.80
  -4  -6  -5  455.15   33.00
  -4  -6  -5  414.96   24.50
  -4  -6  -5  412.96   30.40
  -5  -6  -5  284.17   32.60
  -5  -6  -5  294.77   21.30
  -5  -6  -5  298.87   27.60
   5   6   5  342.77   22.30
   5   6   5  318.47   27.80
  -6  -6  -5    8.50   10.30
  -6  -6  -5    9.50    6.40
   6   6   5    6.40    6.60
   6   6   5    1.80    7.10
  -7  -6  -5  362.66   26.80
  -7  -6  -5  345.07   43.30
  -7  -6  -5  364.16   34.40
  -7  -6  -5  372.06   35.10
   7   6   5  365.56   26.30
   7   6   5  353.56   32.40
  -8  -6  -5  189.88   30.20
  -8  -6  -5  175.28   27.90
   8   6   5  168.48   21.80
   8   6   5  201.58   29.80
  -9  -6  -5   47.00   17.00
  -9  -6  -5   29.50   16.80
   9   6   5   38.70   13.60
   9   6   5   -4.30   12.40
 -10  -6  -5    2.50   12.50
 -10  -6  -5  -30.80   22.00
 -10  -6  -5  -17.40   11.80
  10   6   5   -5.80   12.40
   3  -7  -5  200.58   16.30
   3  -7  -5  187.68   31.90
   3  -7  -5  201.98   16.30
  -3   7   5  219.78   37.20
   2  -7  -5  226.28   18.00
   2  -7  -5  215.48   18.30
   2  -7  -5  230.08   32.20
   1  -7  -5  665.43   33.70
   1  -7  -5  794.92   48.70
   1  -7  -5  706.83   47.50
   0  -7  -5   31.70    8.70
   0  -7  -5   20.10   10.70
   0  -7  -5   26.10   11.90
   0  -7  -5   18.10    7.90
  -1  -7  -5  229.38   21.20
  -1  -7  -5  227.38   20.30
  -1  -7  -5  203.28   26.60
  -1  -7  -5  204.78   39.60
  -2  -7  -5  535.15   33.00
  -2  -7  -5  559.44   33.70
  -2  -7  -5  570.74   34.00
  -2  -7  -5  573.44   34.90
  -3  -7  -5  299.57   35.50
  -3  -7  -5  310.57   27.90
  -3  -7  -5  342.17   25.60
  -3  -7  -5  274.57   23.50
  -4  -7  -5  125.89   18.20
  -4  -7  -5   97.79   18.80
  -4  -7  -5   82.89   14.60
  -4  -7  -5  147.19   22.80
  -5  -7  -5  908.41   50.89
  -5  -7  -5 1010.10   54.69
  -5  -7  -5  990.30   44.50
   5   7   5 1023.60   45.00
  -6  -7  -5  186.98   28.30
  -6  -7  -5  188.18   27.40
  -6  -7  -5  164.28   20.80
   6   7   5  212.18   21.10
  -7  -7  -5  216.68   31.70
  -7  -7  -5  221.88   34.60
  -7  -7  -5  187.38   24.00
   7   7   5  213.68   21.90
  -8  -7  -5  230.48   34.60
  -8  -7  -5  268.37   27.60
  -8  -7  -5  292.17   34.70
   8   7   5  255.87   37.00
   8   7   5  265.57   26.10
  -9  -7  -5  438.46   36.80
  -9  -7  -5  441.86   42.50
   9   7   5  310.87   46.00
   9   7   5  286.37   29.10
 -10  -7  -5   19.00   16.70
 -10  -7  -5   49.40   17.30
  10   7   5    6.50   13.20
  10   7   5   37.30   20.40
   1  -8  -5   99.69   24.20
   1  -8  -5   88.09   16.10
   1  -8  -5   97.99   21.70
   0  -8  -5  534.35   26.70
   0  -8  -5  536.95   41.80
   0  -8  -5  569.14   38.10
  -1  -8  -5  582.44   36.70
  -1  -8  -5  557.94   31.50
  -1  -8  -5  520.25   39.30
  -1  -8  -5  612.64   36.80
  -2  -8  -5  438.36   30.40
  -2  -8  -5  429.56   29.50
  -2  -8  -5  399.76   31.10
  -2  -8  -5  414.66   32.20
  -3  -8  -5  717.83   42.40
  -3  -8  -5  809.32   45.30
  -3  -8  -5  715.53   42.20
  -3  -8  -5  821.82   39.80
  -4  -8  -5  214.08   24.10
  -4  -8  -5  235.98   24.10
  -4  -8  -5  194.08   26.80
  -4  -8  -5  242.48   36.40
  -5  -8  -5  740.23   47.90
  -5  -8  -5  706.33   48.10
  -5  -8  -5  816.52   49.40
  -6  -8  -5  364.66   29.70
  -6  -8  -5  403.26   37.90
  -6  -8  -5  334.17   33.50
   6   8   5  335.77   27.80
  -7  -8  -5 1004.70   51.89
  -7  -8  -5 1118.29   63.59
  -7  -8  -5 1023.50   52.29
   7   8   5 1134.29   53.79
  -8  -8  -5  -17.80    7.70
  -8  -8  -5   -3.10   11.20
  -8  -8  -5    1.40   10.20
   8   8   5   12.80   10.50
  -9  -8  -5  508.55   40.20
  -9  -8  -5  510.25   41.00
  -9  -8  -5  564.34   50.39
   9   8   5  482.15   44.40
   0  -9  -5  161.98   24.20
   0  -9  -5  117.09   25.80
  -1  -9  -5  840.32   53.49
  -1  -9  -5  862.01   38.30
  -1  -9  -5  920.71   46.00
  -1  -9  -5  700.33   72.09
  -2  -9  -5   16.20   11.70
  -2  -9  -5    7.30    8.30
  -2  -9  -5   16.40   12.10
  -3  -9  -5  793.72   39.20
  -3  -9  -5  866.91   49.60
  -3  -9  -5  771.62   47.50
  -3  -9  -5  785.72   45.10
  -4  -9  -5   63.29   16.50
  -4  -9  -5   81.29   19.70
  -4  -9  -5   66.19   13.10
  -4  -9  -5  110.69   21.60
  -5  -9  -5  188.18   28.60
  -5  -9  -5  182.18   21.80
  -5  -9  -5  206.68   28.20
  -5  -9  -5  156.98   25.50
  -6  -9  -5  226.58   32.60
  -6  -9  -5  240.58   33.60
  -6  -9  -5  204.68   29.20
  -6  -9  -5  242.98   23.30
  -7  -9  -5  761.12   47.20
  -7  -9  -5  698.03   41.10
  -7  -9  -5  786.52   53.99
   7   9   5  681.33   44.10
  -8  -9  -5   12.60   16.00
  -8  -9  -5   12.40   10.20
  -8  -9  -5    2.10   10.80
  -9  -9  -5  309.27   45.10
  -2 -10  -5   72.59   16.30
  -2 -10  -5   70.09   19.50
  -2 -10  -5   91.39   15.20
  -2 -10  -5   86.39   22.00
  -3 -10  -5  661.93   33.90
  -3 -10  -5  628.44   46.90
  -3 -10  -5  712.63   44.80
  -3 -10  -5  771.02   49.50
  -4 -10  -5   36.50   14.20
  -4 -10  -5   35.90   15.90
  -4 -10  -5   34.00    9.40
  -4 -10  -5   48.80   17.00
  -5 -10  -5  720.73   51.89
  -5 -10  -5  676.43   47.00
  -5 -10  -5  712.23   34.50
  -5 -10  -5  700.63   49.30
  -6 -10  -5   -4.60    6.10
  -6 -10  -5    5.30   12.40
  -6 -10  -5    5.90   13.60
  -6 -10  -5  -16.40    9.80
  -6 -10  -5  -16.00    6.00
  -7 -10  -5  209.28   32.40
  -7 -10  -5  185.08   22.20
  -7 -10  -5  291.57   63.39
   7  10   5  215.58   30.10
   3   7  -6   29.00   20.00
   3   7  -6   75.29   14.80
  -3  -7   6   50.19   18.80
  -3  -7   6   88.39   23.10
   2   7  -6  390.16   25.00
  -2  -7   6  407.56   41.60
  -2  -7   6  325.37   45.60
   1   7  -6  106.69   24.50
   1   7  -6  103.09   13.80
  -1  -7   6  141.99   25.80
  -1  -7   6   99.59   23.50
   0   7  -6  645.54   30.90
   0  -7   6  646.64   50.19
   0  -7   6  689.63   48.50
  -1   7  -6  175.58   17.90
  -1   7  -6  210.78   19.40
   1  -7   6  249.88   36.30
   1  -7   6  219.88   31.90
  -2   7  -6  514.55   30.40
  -2   7  -6  463.05   29.10
   2  -7   6  417.66   37.60
   2  -7   6  436.76   42.80
   2  -7   6  428.86   66.59
   5   6  -6   -2.30   10.70
   5   6  -6    8.00   15.00
  -5  -6   6   -4.50   12.40
   4   6  -6  447.16   33.70
  -4  -6   6  416.26   42.70
  -4  -6   6  448.76   44.50
  -4  -6   6  450.85   40.10
   3   6  -6    6.80   12.30
   3   6  -6    3.10    7.70
  -3  -6   6   -2.60   15.60
  -3  -6   6    4.10   12.50
   2   6  -6  371.76   37.40
   2   6  -6  342.17   26.00
  -2  -6   6  370.46   37.90
  -2  -6   6  401.46   45.90
   1   6  -6   30.50   13.80
   1   6  -6   41.70   11.00
  -1  -6   6   33.20   14.90
  -1  -6   6   18.30   13.50
   0   6  -6  294.37   22.90
   0  -6   6  296.17   36.70
   0  -6   6  293.67   36.50
  -1   6  -6   27.40    9.60
  -1   6  -6   29.20   15.40
   1  -6   6   58.99   18.60
   1  -6   6   42.70   16.30
  -2   6  -6  868.71   51.59
  -2   6  -6  864.81   42.50
   2  -6   6  822.62   58.69
   2  -6   6  820.62   53.29
   2  -6   6  816.22   50.29
  -3   6  -6   60.09   14.00
  -3   6  -6   38.70   14.90
   3  -6   6   38.90   15.40
   3  -6   6   92.49   22.30
   3  -6   6   85.19   24.10
  -4   6  -6  178.58   25.70
  -4   6  -6  173.58   24.70
   4  -6   6  203.48   33.70
   4  -6   6  215.88   27.70
   4  -6   6  210.28   39.80
   5   5  -6  175.38   35.30
   5   5  -6  134.79   23.90
  -5  -5   6  136.99   28.00
  -5  -5   6  144.29   23.40
  -5  -5   6  117.49   27.30
   4   5  -6  785.42   52.49
  -4  -5   6  926.81   67.69
  -4  -5   6  764.32   53.89
  -4  -5   6  814.52   49.80
   3   5  -6  103.09   22.30
   3   5  -6   85.49   17.80
  -3  -5   6  128.89   26.80
  -3  -5   6   89.49   22.60
   2   5  -6 1339.77   64.99
   2   5  -6 1191.98   62.59
  -2  -5   6 1231.28   66.39
  -2  -5   6 1300.57   64.89
   1   5  -6  521.05   32.40
   1   5  -6  512.95   39.00
   1   5  -6  506.05   41.80
  -1  -5   6  508.95   41.00
  -1  -5   6  495.55   39.30
   0   5  -6 1427.06   67.99
   0   5  -6 1310.27   53.59
   0   5  -6 1343.57   63.99
   0  -5   6 1241.48   68.39
   0  -5   6 1288.27   65.39
  -1   5  -6  865.21   51.09
  -1   5  -6  760.32   40.00
   1  -5   6  799.72   48.20
   1  -5   6  792.52   48.60
   2  -5   6  720.53   45.80
   2  -5   6  725.13   51.49
   2  -5   6  717.53   46.10
  -3   5  -6  792.12   46.70
  -3   5  -6  835.62   44.50
   3  -5   6  814.12   56.59
   3  -5   6  765.32   49.00
   3  -5   6  729.83   45.40
  -4   5  -6  270.67   27.00
  -4   5  -6  230.38   29.30
   4  -5   6  281.97   34.30
   4  -5   6  200.28   51.99
   4  -5   6  289.67   29.10
  -5   5  -6  515.35   35.50
  -5   5  -6  523.05   39.40
   5  -5   6  435.96   58.69
   5  -5   6  516.35   48.30
   5  -5   6  518.15   43.60
   6   4  -6  494.65   45.30
   6   4  -6  452.85   44.20
  -6  -4   6  444.36   41.90
  -6  -4   6  503.65   45.80
  -6  -4   6  475.15   33.90
   5   4  -6  281.97   35.20
   5   4  -6  303.67   37.30
  -5  -4   6  276.07   26.10
  -5  -4   6  300.17   41.20
   4   4  -6  572.84   41.20
   4   4  -6  534.65   40.70
  -4  -4   6  548.95   36.80
  -4  -4   6  598.34   44.90
  -4  -4   6  492.65   44.00
   3   4  -6  614.74   39.40
   3   4  -6  542.15   41.40
  -3  -4   6  631.54   44.10
   2   4  -6  564.54   36.20
   2   4  -6  508.65   38.00
   2   4  -6  716.03   48.70
  -2  -4   6  556.04   39.90
  -2  -4   6  513.95   73.89
   1   4  -6  384.16   35.20
   1   4  -6  294.07   25.90
   1   4  -6  289.07   28.10
  -1  -4   6  349.27   30.20
  -1  -4   6  341.07   38.00
   0   4  -6  222.68   22.00
   0   4  -6  255.77   26.00
   0  -4   6  269.97   32.90
   0  -4   6  280.17   26.60
  -1   4  -6 1244.58   60.49
  -1   4  -6 1373.06   56.09
   1  -4   6 1337.17   58.59
   1  -4   6 1304.37   61.89
   1  -4   6 1308.97   64.79
  -2   4  -6   28.30   13.10
   2  -4   6   34.70   11.90
   2  -4   6   17.90   11.40
   2  -4   6   24.10   13.50
  -3   4  -6 1035.80   52.59
   3  -4   6 1051.19   52.99
  -4   4  -6  306.27   28.50
   4  -4   6  280.17   32.30
   4  -4   6  254.87   36.60
  -5   4  -6  121.39   23.40
  -5   4  -6  119.29   19.20
   5  -4   6   73.79   18.50
   5  -4   6  118.89   20.30
   5  -4   6  112.29   26.40
  -6   4  -6  -15.30   10.70
  -6   4  -6   15.20   10.10
   6  -4   6    8.40   10.60
   6  -4   6   13.70   12.70
   6   3  -6  177.08   31.60
   6   3  -6  162.58   30.50
  -6  -3   6  194.98   34.90
  -6  -3   6  172.08   20.80
   5   3  -6  128.49   24.50
   5   3  -6  127.99   26.40
  -5  -3   6  118.79   25.40
  -5  -3   6   85.49   15.60
  -5  -3   6   98.79   23.90
   4   3  -6  131.59   24.70
   4   3  -6  102.19   22.20
  -4  -3   6  104.99   24.60
  -4  -3   6  124.59   17.70
  -4  -3   6  161.18   27.80
   3   3  -6 1000.00   51.99
   3   3  -6  866.01   49.90
  -3  -3   6  971.90   45.20
  -3  -3   6  983.60   53.89
   2   3  -6  501.95   40.40
   2   3  -6  563.94   36.90
   2   3  -6  534.35   36.00
  -2  -3   6  524.85   37.00
   1   3  -6  480.55   33.00
   1   3  -6  604.64   36.50
   1   3  -6  489.45   39.10
  -1  -3   6  531.15   41.60
  -1  -3   6  502.25   38.40
   0   3  -6   13.60    9.00
   0   3  -6   11.50    8.70
   0   3  -6    9.90    9.40
   0  -3   6    2.10    9.40
   0  -3   6   18.70    9.50
  -1   3  -6  622.74   36.90
  -1   3  -6  556.14   34.20
  -1   3  -6  595.74   39.50
   1  -3   6  673.93   36.40
   1  -3   6  654.33   40.40
   1  -3   6  688.83   42.90
  -2   3  -6  328.97   28.90
   2  -3   6  331.87   26.00
   2  -3   6  390.96   31.90
  -3   3  -6 1237.88   56.49
   3  -3   6 1176.68   52.19
   3  -3   6 1148.69   59.99
   3  -3   6 1193.88   56.69
  -4   3  -6  177.78   24.60
   4  -3   6  203.88   25.10
   4  -3   6  195.98   26.50
  -5   3  -6 1476.05   62.09
  -5   3  -6 1400.06   66.39
   5  -3   6 1419.66   63.29
   5  -3   6 1428.86   63.59
  -6   3  -6    6.80    9.50
   6  -3   6   -5.30   11.00
   6  -3   6   39.40   17.20
  -7   3  -6  341.57   35.60
  -7   3  -6  298.27   28.30
   7  -3   6  336.07   34.20
   7  -3   6  324.77   44.80
   6   2  -6  269.77   39.80
   6   2  -6  303.47   61.79
  -6  -2   6  350.96   21.10
  -6  -2   6  328.57   41.80
  -6  -2   6  310.07   39.30
   5   2  -6  314.97   40.70
   5   2  -6  249.18   34.30
  -5  -2   6  279.87   19.60
  -5  -2   6  286.07   36.40
  -5  -2   6  279.47   38.30
   4   2  -6  362.56   34.80
   4   2  -6  409.96   34.60
  -4  -2   6  440.86   24.80
  -4  -2   6  386.66   36.50
   3   2  -6  518.75   38.70
   3   2  -6  526.55   42.00
  -3  -2   6  468.05   38.00
  -3  -2   6  517.05   38.00
  -3  -2   6  523.45   27.90
   2   2  -6  264.97   33.60
   2   2  -6  262.57   26.90
   2   2  -6  255.37   23.90
  -2  -2   6  253.97   30.90
   1   2  -6 2231.78   74.19
   1   2  -6 2306.27   84.99
   1   2  -6 1879.61  108.69
  -1  -2   6 2247.78   75.29
  -1  -2   6 2053.09   96.49
   0   2  -6 1118.79   51.49
   0   2  -6 1030.40   45.20
   0   2  -6 1116.39   54.49
   0  -2   6 1110.99   46.50
   0  -2   6 1166.98   49.60
   0  -2   6 1233.68   57.09
  -1   2  -6  638.14   32.20
  -1   2  -6  500.95   35.30
   1  -2   6  508.75   35.80
   1  -2   6  566.34   30.40
   1  -2   6  543.25   33.80
  -2   2  -6   15.00   10.10
   2  -2   6    2.00    5.80
   2  -2   6   17.20    9.80
   2  -2   6   14.30    8.90
  -3   2  -6 1058.69   51.09
   3  -2   6 1064.99   52.39
   3  -2   6 1057.59   44.30
   3  -2   6 1015.10   52.89
  -4   2  -6   38.60   12.80
   4  -2   6   40.80   14.10
   4  -2   6   28.70   12.90
   4  -2   6   35.70   11.40
  -5   2  -6 1080.89   51.79
  -5   2  -6  977.40   54.49
   5  -2   6 1150.38   50.99
   5  -2   6  992.50   51.69
  -6   2  -6   73.79   17.40
  -6   2  -6   74.09   19.00
   6  -2   6   65.39   16.40
  -7   2  -6  526.25   36.40
  -7   2  -6  457.45   41.30
   7  -2   6  492.95   44.20
  -8   2  -6   44.40   18.40
   8  -2   6   70.49   23.40
   6   1  -6  138.89   30.70
  -6  -1   6  158.08   32.80
  -6  -1   6  168.28   27.90
   5   1  -6  439.46   38.20
   5   1  -6  395.46   39.70
  -5  -1   6  443.16   41.20
  -5  -1   6  408.06   16.00
  -5  -1   6  363.76   47.10
   4   1  -6   10.00   10.10
   4   1  -6   14.70   13.00
  -4  -1   6    8.10   10.80
  -4  -1   6   13.50    4.50
  -4  -1   6    8.90    9.40
   3   1  -6  691.23   41.10
   3   1  -6  558.84   49.70
  -3  -1   6  655.93   25.60
  -3  -1   6  606.04   42.00
  -3  -1   6  643.84   43.80
   2   1  -6   -2.40    6.60
   2   1  -6   28.20   12.50
   2   1  -6   26.30   13.20
  -2  -1   6   41.10   16.70
   1   1  -6  770.22   37.40
   1   1  -6  777.02   45.30
   1   1  -6  828.42   44.90
  -1  -1   6  850.71   40.00
  -1  -1   6  927.01   48.10
  -1  -1   6  818.72   34.20
   0   1  -6   87.69   16.90
   0   1  -6   98.39   18.10
   0   1  -6  128.49   15.60
   0  -1   6   91.89   13.90
   0  -1   6   95.69   14.00
   0  -1   6  105.19   18.80
  -1   1  -6 2164.38   65.49
  -1   1  -6 2203.08   81.19
  -1   1  -6 2362.56   79.59
   1  -1   6 2100.19   70.89
   1  -1   6 2175.78   79.39
   1  -1   6 2327.07   66.19
   2  -1   6   10.10    8.20
   2  -1   6   22.30    6.90
   2  -1   6   20.10   10.30
   3  -1   6 1041.50   51.09
   3  -1   6 1043.20   38.60
   3  -1   6  939.21   47.10
  -4   1  -6   41.90   12.90
   4  -1   6   47.20   10.00
   4  -1   6   44.50   13.40
   4  -1   6   31.00   12.60
  -5   1  -6 1013.30   50.69
   5  -1   6 1031.00   51.89
   5  -1   6 1086.09   45.20
   5  -1   6 1061.19   55.69
  -6   1  -6   12.50   11.10
  -6   1  -6   28.80   11.80
  -7   1  -6  633.14   47.00
  -7   1  -6  623.64   40.40
  -8   1  -6  312.27   40.40
  -8   1  -6  253.27   30.90
   8  -1   6  295.17   49.00
  -9   1  -6  399.66   48.50
  -9   1  -6  492.85   37.80
   6   0  -6   50.99   25.90
   6   0  -6   74.19   21.90
  -6   0   6   67.59   24.40
  -6   0   6  101.69   21.80
   5   0  -6  490.95   45.70
   5   0  -6  456.55   40.60
  -5   0   6  520.85   45.50
   4   0  -6  561.04   44.90
   4   0  -6  560.04   41.00
  -4   0   6  568.04   40.20
  -4   0   6  525.75   43.30
   3   0  -6  529.05   40.70
   3   0  -6  557.44   37.20
   3   0  -6  518.55   38.90
  -3   0   6  562.84   42.10
  -3   0   6  544.45   38.30
   2   0  -6  220.98   27.60
   2   0  -6  280.17   23.60
   2   0  -6  285.17   33.30
  -2   0   6  309.07   27.80
  -2   0   6  302.87   12.00
  -2   0   6  294.27   11.80
   1   0  -6 1334.47   59.69
   1   0  -6 1458.05   51.59
   1   0  -6 1301.57   58.89
  -1   0   6 1283.97   57.99
  -1   0   6 1368.96   40.40
   0   0  -6   90.29   11.70
   0   0  -6   99.19   18.90
   0   0   6   94.29   16.80
  -1   0  -6 1284.67   41.00
  -1   0  -6 1196.58   53.89
  -1   0  -6 1198.48   53.89
   1   0   6 1278.27   46.00
   1   0   6 1216.08   54.39
   1   0   6 1255.67   40.30
  -2   0  -6    7.80    8.70
   2   0   6   10.10    8.10
   2   0   6   20.80    5.20
   2   0   6   26.10    8.80
  -3   0  -6 2028.20   74.19
   3   0   6 2128.69   54.99
   3   0   6 1984.00   70.39
   3   0   6 2029.30   75.39
  -4   0  -6   -0.20    9.30
   4   0   6    1.30    4.30
   4   0   6   -3.40    6.50
   4   0   6    6.80    7.90
  -5   0  -6 1057.69   55.29
  -5   0  -6 1214.38   54.49
   5   0   6 1193.68   67.19
   5   0   6 1035.70   53.09
   5   0   6 1163.18   42.70
  -6   0  -6 1029.50   51.29
  -6   0  -6  995.30   55.89
   6   0   6  933.51   52.99
  -7   0  -6  577.84   44.60
  -7   0  -6  601.24   40.50
  -8   0  -6   13.70   11.10
  -8   0  -6   22.80   16.30
  -8   0  -6    6.20   11.60
   8   0   6   -0.60   12.00
  -9   0  -6   77.59   23.40
  -9   0  -6   54.69   20.50
  -9   0  -6   77.29   19.90
   9   0   6   49.70   19.70
   6  -1  -6   43.80   18.10
   6  -1  -6   35.10   18.60
   5  -1  -6  550.54   44.10
   5  -1  -6  670.93   53.19
  -5   1   6  500.55   37.80
   4  -1  -6   12.90   12.40
   4  -1  -6   28.00   13.60
  -4   1   6   18.90   12.00
   3  -1  -6 1313.87   61.79
   3  -1  -6 1333.77   59.99
   3  -1  -6 1439.06   69.19
  -3   1   6 1303.77   58.99
   2  -1  -6    1.90    7.20
   2  -1  -6    6.50    7.00
   2  -1  -6   23.50   12.50
  -2   1   6   23.10   10.60
   1  -1  -6 1385.46   61.69
   1  -1  -6 1391.06   50.99
   1  -1  -6 1445.76   87.49
  -1   1   6 1325.27   57.49
   0  -1  -6  252.27   17.20
   0  -1  -6  280.97   25.20
   0  -1  -6  296.57   35.00
   0   1   6  235.88   23.00
   0   1   6  290.87   14.60
  -1  -1  -6 1289.37   55.19
  -1  -1  -6 1285.17   37.90
  -1  -1  -6 1354.06   57.89
   1   1   6 1292.97   56.09
   1   1   6 1353.66   44.00
  -2  -1  -6   30.90   10.70
   2   1   6   36.50    9.40
   2   1   6   38.20   11.60
  -3  -1  -6   40.00   11.00
  -3  -1  -6   51.39   13.80
   3   1   6   60.59   14.20
   3   1   6   40.40   10.70
  -4  -1  -6  724.13   40.00
   4   1   6  834.32   41.70
   4   1   6  825.52   44.50
   4   1   6  705.83   22.90
  -5  -1  -6  334.77   29.70
  -5  -1  -6  316.97   28.30
   5   1   6  377.66   29.90
  -6  -1  -6  114.59   21.90
  -6  -1  -6   86.39   18.50
   6   1   6  122.69   21.40
  -7  -1  -6  399.36   36.30
  -7  -1  -6  348.27   32.40
   7   1   6  379.56   26.90
  -8  -1  -6  203.38   29.30
  -8  -1  -6  198.88   32.30
  -8  -1  -6  201.18   32.00
   8   1   6  162.18   23.00
  -9  -1  -6  270.07   40.00
  -9  -1  -6  260.27   33.90
  -9  -1  -6  290.47   40.80
   9   1   6  308.17   30.20
   9   1   6  309.27   40.70
   5  -2  -6  486.65   44.20
   5  -2  -6  627.14   51.69
  -5   2   6  591.74   38.10
  -5   2   6  521.95   49.10
   4  -2  -6   26.80   15.90
   4  -2  -6   -2.60   10.70
  -4   2   6   27.40   11.10
  -4   2   6   16.80   13.70
   3  -2  -6  404.66   32.50
   3  -2  -6  435.66   38.20
  -3   2   6  397.16   29.90
   2  -2  -6  297.87   41.40
   2  -2  -6  350.66   27.50
  -2   2   6  191.58   28.60
  -2   2   6  328.17   27.40
   1  -2  -6  690.33   34.70
   1  -2  -6  669.13   42.90
   1  -2  -6  694.43   39.70
  -1   2   6  682.53   38.70
   0  -2  -6  180.98   24.40
   0  -2  -6  148.99   20.70
   0  -2  -6  169.28   14.50
   0   2   6  160.68    7.70
   0   2   6  167.78   22.90
  -1  -2  -6 1781.02   47.80
  -1  -2  -6 1781.22   66.99
  -1  -2  -6 1839.92   70.19
   1   2   6 1778.92   67.19
  -2  -2  -6  328.67   20.40
  -2  -2  -6  257.47   23.80
   2   2   6  336.87   26.80
   2   2   6  267.77   19.00
  -3  -2  -6 2409.76   75.59
  -3  -2  -6 2379.26   81.59
   3   2   6 2369.76   82.79
   3   2   6 2471.75   75.39
  -4  -2  -6    6.20    9.10
  -4  -2  -6    6.50    7.60
   4   2   6    1.50    7.00
   4   2   6    1.50    6.60
  -5  -2  -6 1311.07   58.79
  -5  -2  -6 1439.46   61.99
   5   2   6 1333.47   37.20
   5   2   6 1421.66   59.79
  -6  -2  -6   93.69   20.30
  -6  -2  -6   97.29   20.00
   6   2   6  115.99   20.60
   6   2   6  121.69   13.60
  -7  -2  -6 1050.49   57.49
   7   2   6  982.40   53.99
   7   2   6  929.31   40.80
  -8  -2  -6  216.58   32.00
  -8  -2  -6  218.28   30.60
   8   2   6  280.07   24.40
  -9  -2  -6  235.88   36.20
  -9  -2  -6  262.47   34.00
  -9  -2  -6  294.17   39.50
   9   2   6  254.57   36.30
   9   2   6  242.98   35.50
 -10  -2  -6  414.56   40.30
 -10  -2  -6  338.87   45.70
 -10  -2  -6  400.66   54.19
  10   2   6  377.86   46.00
   5  -3  -6  357.76   47.10
  -5   3   6  379.06   48.40
  -5   3   6  308.97   26.90
   4  -3  -6   44.30   16.10
   4  -3  -6   64.29   21.20
  -4   3   6   80.99   21.80
  -4   3   6   67.79   15.40
   3  -3  -6  826.42   45.60
   3  -3  -6  908.71   56.49
   3  -3  -6  866.81   50.49
  -3   3   6  877.71   56.49
  -3   3   6  850.41   43.70
   2  -3  -6  278.17   25.90
   2  -3  -6  255.77   24.10
   2  -3  -6  299.27   30.80
  -2   3   6  256.57   24.10
  -2   3   6  270.27   35.80
   1  -3  -6  999.60   44.60
   1  -3  -6  963.90   45.80
   1  -3  -6  887.51   50.59
  -1   3   6  922.91   44.80
   0  -3  -6  177.18   16.30
   0  -3  -6  207.48   24.30
   0  -3  -6  154.68   23.60
   0   3   6  167.48   22.10
  -1  -3  -6  831.02   51.09
  -1  -3  -6  843.02   28.80
  -1  -3  -6  746.13   32.20
  -1  -3  -6  764.02   40.10
   1   3   6  758.72   27.80
   1   3   6  747.53   40.20
  -2  -3  -6  379.26   11.20
  -2  -3  -6  405.46   28.50
  -2  -3  -6  395.86   22.20
  -2  -3  -6  394.26   11.20
  -2  -3  -6  376.86   29.20
   2   3   6  399.76   29.50
   2   3   6  382.66   21.70
  -3  -3  -6 1420.06   59.59
  -3  -3  -6 1422.26   52.09
   3   3   6 1408.36   60.09
   3   3   6 1463.15   52.09
  -4  -3  -6  584.54   33.40
  -4  -3  -6  535.05   35.60
   4   3   6  499.15   31.00
  -5  -3  -6  862.11   47.60
   5   3   6  869.91   45.00
   5   3   6  864.31   22.30
  -6  -3  -6 2850.21  101.59
  -6  -3  -6 3045.40  101.59
  -7  -3  -6  313.47   31.90
  -7  -3  -6  325.67   31.90
   7   3   6  305.17   20.80
   7   3   6  253.87   32.20
  -8  -3  -6  445.46   39.00
  -8  -3  -6  346.47   35.10
  -8  -3  -6  348.87   35.60
   8   3   6  374.66   26.90
  -9  -3  -6  137.99   28.10
  -9  -3  -6  143.69   28.80
  -9  -3  -6  136.49   26.60
   9   3   6  135.69   26.00
   9   3   6  136.29   21.60
 -10  -3  -6   86.69   25.00
 -10  -3  -6  199.28   32.80
  10   3   6  104.19   24.30
  10   3   6  120.99   21.80
   4  -4  -6   99.89   22.90
   4  -4  -6  111.99   26.80
  -4   4   6   70.29   14.20
  -4   4   6  127.39   28.50
   3  -4  -6 1539.65   75.89
   3  -4  -6 1572.04   72.79
  -3   4   6 1489.65   57.49
  -3   4   6 1377.86   74.39
   2  -4  -6  136.49   25.40
   2  -4  -6  135.09   19.20
  -2   4   6  157.98   21.20
   1  -4  -6 1415.86   84.49
   1  -4  -6 1324.07   53.89
  -1   4   6 1203.68   52.39
   0  -4  -6 1777.02   65.09
   0  -4  -6 1751.52   71.49
   0  -4  -6 1740.83   39.50
   0   4   6 1756.12   65.09
  -1  -4  -6 1965.20   74.99
  -1  -4  -6 2026.20   55.39
  -1  -4  -6 1973.30   70.59
   1   4   6 2028.50   72.29
  -2  -4  -6  124.99   19.20
  -2  -4  -6  173.78   15.10
  -2  -4  -6  152.48   10.70
   2   4   6  183.98   23.30
   2   4   6  175.28   15.40
  -3  -4  -6  829.12   20.10
  -3  -4  -6  845.32   38.20
  -3  -4  -6  734.53   49.60
   3   4   6  845.22   38.10
  -4  -4  -6  142.09   22.70
  -4  -4  -6  132.29   18.80
   4   4   6  146.99   19.40
  -5  -4  -6   66.09   15.90
  -5  -4  -6   65.39   18.20
   5   4   6   67.49   14.80
  -6  -4  -6  764.92   46.90
  -6  -4  -6  616.54   41.30
  -7  -4  -6  155.58   25.10
  -7  -4  -6  218.58   31.10
   7   4   6  184.38   16.20
   7   4   6  221.58   30.30
  -8  -4  -6  468.45   41.20
  -8  -4  -6  481.95   41.00
  -8  -4  -6  418.66   38.30
   8   4   6  432.86   37.90
   8   4   6  443.76   28.20
  -9  -4  -6  188.28   31.30
  -9  -4  -6  124.09   26.00
  -9  -4  -6  231.98   35.70
   9   4   6  178.08   22.60
   9   4   6  209.18   33.30
 -10  -4  -6  167.78   30.80
 -10  -4  -6  156.28   47.40
 -10  -4  -6  100.39   24.70
  10   4   6  143.39   29.50
  10   4   6  111.89   21.00
   4  -5  -6   82.59   41.10
  -4   5   6   70.59   27.70
   3  -5  -6  365.96   44.20
  -3   5   6  408.66   40.40
  -3   5   6  290.77   22.10
   2  -5  -6  557.14   44.10
   2  -5  -6  428.26   27.90
  -2   5   6  474.85   28.90
   1  -5  -6  212.98   20.50
   1  -5  -6  217.88   29.90
  -1   5   6  205.78   20.20
   0  -5  -6   37.80   13.40
   0  -5  -6   33.30    5.60
   0  -5  -6   45.90   11.80
  -1  -5  -6  398.86   21.50
  -1  -5  -6  415.46   29.00
  -1  -5  -6  425.06   32.20
  -1  -5  -6  389.76   24.80
  -2  -5  -6 1746.13   69.29
  -2  -5  -6 1924.31   69.69
  -2  -5  -6 1797.02   58.89
  -2  -5  -6 1846.52   55.49
  -3  -5  -6  874.21   46.30
  -3  -5  -6  869.61   30.50
  -3  -5  -6  938.91   41.50
  -3  -5  -6  908.11   55.99
  -4  -5  -6 1356.76   38.50
  -4  -5  -6 1373.86   56.09
  -4  -5  -6 1255.07   58.99
   4   5   6 1358.76   55.39
  -5  -5  -6  628.14   24.20
  -5  -5  -6  594.74   38.10
  -5  -5  -6  653.93   42.60
   5   5   6  684.93   40.40
  -6  -5  -6  221.38   29.10
  -6  -5  -6  151.08   25.80
   6   5   6  182.28   13.90
   6   5   6  179.18   25.80
  -7  -5  -6  372.66   35.40
  -7  -5  -6  375.86   36.70
   7   5   6  433.86   35.50
   7   5   6  348.87   22.20
  -8  -5  -6  614.94   47.40
  -8  -5  -6  660.83   47.20
  -8  -5  -6  682.13   49.00
   8   5   6  603.54   32.90
   8   5   6  625.54   45.40
  -9  -5  -6    9.70   13.60
  -9  -5  -6   47.10   18.40
  -9  -5  -6   37.90   17.00
   9   5   6   37.20   17.30
   9   5   6   41.60   12.40
 -10  -5  -6  515.95   46.90
 -10  -5  -6  516.65   47.80
  10   5   6  451.45   34.70
  10   5   6  531.55   48.00
   3  -6  -6  397.86   41.20
  -3   6   6  449.16   58.89
   2  -6  -6  304.17   37.80
   2  -6  -6  378.06   23.60
   1  -6  -6  992.30   28.60
   1  -6  -6 1029.80   56.59
   1  -6  -6 1035.40   43.40
   1  -6  -6  959.70   28.50
   0  -6  -6  293.47   23.80
  -1  -6  -6   45.00   14.60
  -1  -6  -6   67.69   11.30
  -1  -6  -6   73.39   14.10
  -1  -6  -6   78.79   14.70
  -2  -6  -6 1022.60   42.90
  -2  -6  -6 1004.30   57.39
  -2  -6  -6 1044.30   50.69
  -2  -6  -6  954.90   41.10
  -3  -6  -6   47.90   14.20
  -3  -6  -6   55.49   14.70
  -3  -6  -6   42.50    9.10
  -3  -6  -6   45.70   12.40
  -4  -6  -6 1356.16   45.10
  -4  -6  -6 1278.07   72.69
  -4  -6  -6 1342.07   61.49
  -5  -6  -6  233.38   16.60
  -5  -6  -6  215.58   26.90
  -5  -6  -6  226.48   30.00
   5   6   6  264.97   26.70
  -6  -6  -6 1278.07   65.49
  -6  -6  -6 1276.07   46.00
   6   6   6 1304.57   45.80
   6   6   6 1323.87   62.59
  -7  -6  -6   87.39   22.00
  -7  -6  -6   98.99   22.50
   7   6   6   72.69   12.30
  -8  -6  -6 1221.38   64.49
  -8  -6  -6 1293.87   68.59
  -8  -6  -6 1226.28   68.79
   8   6   6 1154.28   64.99
   8   6   6 1197.68   49.90
  -9  -6  -6   60.29   19.40
  -9  -6  -6   97.39   24.60
  -9  -6  -6   55.99   20.90
   9   6   6   72.49   14.90
   9   6   6   41.10   17.90
 -10  -6  -6  304.57   53.29
 -10  -6  -6  318.17   42.20
 -10  -6  -6  474.25   45.10
  10   6   6  373.06   47.70
  10   6   6  334.07   30.90
   2  -7  -6  432.06   40.90
   1  -7  -6  312.87   18.80
   1  -7  -6  322.87   33.00
   1  -7  -6  358.96   25.50
   1  -7  -6  360.46   22.50
   0  -7  -6 1010.90   53.49
   0  -7  -6 1048.00   44.80
   0  -7  -6 1065.39   41.50
   0  -7  -6 1073.19   56.59
  -1  -7  -6  161.38   23.90
  -1  -7  -6  179.08   20.00
  -1  -7  -6  170.88   22.00
  -1  -7  -6  165.18   23.00
  -2  -7  -6  549.35   35.00
  -2  -7  -6  462.75   30.20
  -2  -7  -6  466.65   33.70
  -2  -7  -6  440.46   30.20
  -3  -7  -6  355.76   25.30
  -3  -7  -6  377.86   30.80
  -3  -7  -6  378.36   30.00
  -3  -7  -6  350.16   39.40
  -4  -7  -6  270.67   30.20
  -4  -7  -6  303.67   27.10
  -4  -7  -6  248.38   20.50
  -4  -7  -6  297.27   28.70
  -5  -7  -6   34.40   13.90
  -5  -7  -6   49.90   11.70
  -5  -7  -6   48.20   15.20
  -6  -7  -6  582.34   44.40
  -6  -7  -6  640.24   43.90
  -6  -7  -6  546.35   30.90
   6   7   6  546.45   30.40
  -7  -7  -6    7.40   12.50
  -7  -7  -6   27.30   10.30
  -7  -7  -6   26.40   13.40
   7   7   6   12.40   10.80
   7   7   6   12.90    7.50
  -8  -7  -6  179.98   30.10
  -8  -7  -6  129.49   27.90
  -8  -7  -6  174.28   27.70
   8   7   6  178.08   30.10
   8   7   6  222.98   21.90
  -9  -7  -6  256.47   38.50
  -9  -7  -6  298.67   38.60
  -9  -7  -6  259.57   37.50
   9   7   6  344.87   43.40
   9   7   6  305.87   27.50
 -10  -7  -6  543.15   45.20
 -10  -7  -6  610.04   53.49
 -10  -7  -6  420.56   50.39
  10   7   6  509.65   37.60
   1  -8  -6   25.70   14.30
   1  -8  -6   15.10    7.70
   1  -8  -6   20.90    8.80
   1  -8  -6   27.40   15.20
   1  -8  -6   40.80    9.50
   0  -8  -6  711.23   47.50
   0  -8  -6  758.72   47.80
   0  -8  -6  660.63   35.10
   0  -8  -6  680.53   33.30
  -1  -8  -6  184.78   22.40
  -1  -8  -6  196.88   27.30
  -1  -8  -6  200.48   23.10
  -2  -8  -6  694.63   39.80
  -2  -8  -6  664.23   39.60
  -2  -8  -6  637.74   40.30
  -2  -8  -6  673.43   40.70
  -3  -8  -6  107.09   19.30
  -3  -8  -6  128.29   19.90
  -3  -8  -6   98.09   18.30
  -3  -8  -6  110.09   20.20
  -4  -8  -6 2508.95   86.79
  -4  -8  -6 2597.04   84.09
  -4  -8  -6 2648.94   95.49
  -4  -8  -6 2418.36   91.99
  -5  -8  -6    2.90    7.50
  -5  -8  -6    5.40    9.50
  -5  -8  -6   20.00   12.00
  -5  -8  -6   19.60   11.70
  -6  -8  -6 1077.89   48.50
  -6  -8  -6  938.11   56.79
  -6  -8  -6 1040.00   60.69
  -7  -8  -6   -6.80   10.40
  -7  -8  -6   -6.80   10.40
   7   8   6   13.90    8.30
  -8  -8  -6  517.95   45.30
  -8  -8  -6  563.64   37.50
  -8  -8  -6  607.54   50.59
  -8  -8  -6  472.45   39.80
   8   8   6  517.35   35.40
  -9  -8  -6   12.30   18.60
  -9  -8  -6   -6.50   10.40
  -9  -8  -6   10.70   16.60
   9   8   6   -2.80    9.30
  -1  -9  -6   -7.30    8.70
  -1  -9  -6    2.10   10.20
  -1  -9  -6   -3.90   10.50
  -1  -9  -6    1.30    7.10
  -2  -9  -6  525.85   36.00
  -2  -9  -6  449.16   36.60
  -2  -9  -6  399.36   30.70
  -2  -9  -6  391.36   33.80
  -3  -9  -6   25.40   11.50
  -3  -9  -6   -7.30    9.00
  -3  -9  -6   29.70   13.70
  -4  -9  -6  110.79   21.50
  -4  -9  -6   84.29   16.90
  -4  -9  -6   92.39   20.50
  -4  -9  -6   94.59   18.10
  -5  -9  -6  167.08   22.80
  -5  -9  -6  142.49   21.70
  -5  -9  -6  169.28   27.40
  -5  -9  -6  160.08   26.60
  -6  -9  -6  265.97   27.50
  -6  -9  -6  275.97   36.00
  -6  -9  -6  247.98   34.80
  -7  -9  -6  196.08   26.30
  -7  -9  -6  165.88   26.10
  -7  -9  -6  189.08   31.50
  -7  -9  -6  193.28   32.50
  -8  -9  -6   64.09   23.20
  -8  -9  -6  102.69   20.20
  -8  -9  -6  124.59   41.70
   8   9   6   89.19   18.00
  -3 -10  -6    3.20    9.90
  -3 -10  -6  -18.40    9.90
  -3 -10  -6    9.30   12.60
  -3 -10  -6  -10.50    8.30
  -4 -10  -6  220.68   30.80
  -4 -10  -6  183.28   27.00
  -4 -10  -6  172.18   28.70
  -4 -10  -6  206.88   24.90
  -5 -10  -6   26.60   15.30
  -5 -10  -6   25.00   13.00
  -5 -10  -6   14.20   13.70
  -5 -10  -6   -4.60    8.10
  -6 -10  -6  167.88   29.70
  -6 -10  -6  174.68   28.10
  -6 -10  -6  186.48   30.80
  -6 -10  -6  218.98   25.50
   3   6  -7  122.29   26.00
  -3  -6   7  120.79   34.80
  -3  -6   7  122.89   27.40
   2   6  -7  100.69   18.30
   2   6  -7  152.38   27.60
  -2  -6   7   61.19   20.10
  -2  -6   7  133.59   27.00
   1   6  -7  232.48   23.40
   1   6  -7  237.98   33.30
  -1  -6   7  271.97   47.90
  -1  -6   7  227.48   34.80
   0   6  -7  682.33   39.80
   0  -6   7  560.54   47.50
   0  -6   7  675.13   49.00
  -1   6  -7  102.39   16.90
  -1   6  -7   75.69   21.60
   1  -6   7  122.69   27.60
   1  -6   7  105.49   23.70
   1  -6   7   42.40   19.50
  -2   6  -7  347.47   29.10
  -2   6  -7  424.76   32.60
  -2   6  -7  406.86   39.50
   2  -6   7  437.66   50.89
   2  -6   7  360.46   41.40
   2  -6   7  433.26   39.60
  -3   6  -7  328.87   30.50
  -3   6  -7  268.17   33.30
   3  -6   7  259.97   35.60
   3  -6   7  240.28   34.00
   4   5  -7  122.19   28.00
   4   5  -7  129.29   26.30
  -4  -5   7   97.79   24.90
  -4  -5   7  136.89   31.20
  -4  -5   7  121.59   22.60
   3   5  -7  457.05   37.00
   3   5  -7  415.76   39.00
  -3  -5   7  462.85   44.10
  -3  -5   7  440.36   42.00
   2   5  -7  149.99   23.60
   2   5  -7  168.28   26.70
  -2  -5   7  124.69   25.00
  -2  -5   7  152.08   30.30
   1   5  -7   60.49   20.50
   1   5  -7   75.79   19.10
   1   5  -7   24.00   13.00
  -1  -5   7   48.50   17.70
  -1  -5   7   70.29   20.40
   0   5  -7  405.16   36.40
   0   5  -7  408.46   31.10
   0   5  -7  361.06   42.30
   0  -5   7  418.16   35.80
   0  -5   7  420.96   38.70
  -1   5  -7  553.04   35.80
  -1   5  -7  473.85   41.40
   1  -5   7  442.96   41.70
   1  -5   7  513.25   38.80
   1  -5   7  386.06   37.50
  -2   5  -7  150.78   26.80
   2  -5   7  185.28   29.60
   2  -5   7  164.68   30.20
   2  -5   7   83.19   20.30
  -3   5  -7   64.99   19.20
   3  -5   7   43.30   16.40
   3  -5   7   13.20   13.20
  -4   5  -7  799.22   49.10
  -4   5  -7  704.43   46.30
   4  -5   7  743.23   49.30
   4  -5   7  712.63   56.79
   4  -5   7  795.12   51.89
   5   4  -7  246.08   36.50
   5   4  -7  167.08   31.00
  -5  -4   7  220.08   25.70
   4   4  -7  269.97   35.30
   4   4  -7  328.87   33.90
  -4  -4   7  315.97   40.80
  -4  -4   7  218.08   34.70
  -4  -4   7  289.47   27.90
   3   4  -7    9.80   10.90
   3   4  -7   13.60   12.20
  -3  -4   7   29.70   15.60
  -3  -4   7   36.90   15.40
   2   4  -7 1290.67   71.79
   2   4  -7 1260.07   62.99
   2   4  -7 1307.97   62.19
  -2  -4   7 1297.17   64.19
  -2  -4   7 1294.67   70.29
   1   4  -7  234.98   34.60
   1   4  -7  273.27   31.90
   1   4  -7  265.87   26.60
  -1  -4   7  282.27   37.30
   0   4  -7  578.14   37.50
   0   4  -7  516.75   43.20
   0   4  -7  530.35   38.20
   0  -4   7  545.15   41.40
   0  -4   7  590.34   44.70
   0  -4   7  517.15   37.90
  -1   4  -7  179.78   23.80
  -1   4  -7  172.38   28.40
   1  -4   7  182.58   25.40
   1  -4   7  204.68   30.50
   1  -4   7  218.28   30.00
  -2   4  -7  871.81   51.99
   2  -4   7  693.53   43.20
   2  -4   7  812.32   51.19
  -3   4  -7  257.77   32.10
   3  -4   7  314.37   40.10
   3  -4   7  244.08   32.50
   3  -4   7  337.17   30.50
  -4   4  -7   93.99   19.80
   4  -4   7   81.69   20.10
   4  -4   7   75.19   18.80
   4  -4   7   96.29   23.90
  -5   4  -7   94.59   19.90
   5  -4   7   85.99   18.80
   5  -4   7   88.89   20.50
   5  -4   7   96.79   25.70
  -6   4  -7  207.68   31.90
  -6   4  -7  224.48   30.00
   6  -4   7  228.88   32.80
   5   3  -7   19.20   15.50
  -5  -3   7    7.00    7.70
  -5  -3   7    1.70   13.50
   4   3  -7  146.59   27.20
   4   3  -7  117.79   23.90
  -4  -3   7  139.79   19.20
  -4  -3   7  184.08   31.30
   3   3  -7  313.47   31.30
   3   3  -7  379.46   34.70
  -3  -3   7  363.76   34.80
  -3  -3   7  350.76   41.40
  -3  -3   7  317.37   26.10
   2   3  -7   24.90   11.30
   2   3  -7   16.90   15.70
   2   3  -7    9.40   12.70
  -2  -3   7    6.70   10.20
   1   3  -7  251.47   34.40
   1   3  -7  192.28   25.60
   1   3  -7  227.48   26.80
  -1  -3   7  229.78   28.30
   0   3  -7  696.93   41.70
   0   3  -7  555.94   36.30
   0   3  -7  567.64   43.10
   0  -3   7  625.64   40.10
   0  -3   7  547.95   42.30
   0  -3   7  577.14   37.50
  -1   3  -7   20.40   12.00
  -1   3  -7    8.60   10.00
  -1   3  -7    2.50    8.80
   1  -3   7    0.90    8.00
   1  -3   7    1.10    8.80
   1  -3   7   20.40   11.80
  -2   3  -7  630.84   43.70
   2  -3   7  658.23   44.90
   2  -3   7  707.53   38.80
   2  -3   7  665.53   45.20
  -3   3  -7   23.90   12.80
   3  -3   7   38.30   13.70
  -4   3  -7 1219.08   60.69
   4  -3   7 1149.89   61.39
   4  -3   7 1262.27   67.29
   4  -3   7 1249.57   56.09
  -5   3  -7   79.09   18.70
  -5   3  -7   64.09   28.40
   5  -3   7  127.89   22.00
   5  -3   7  111.59   22.40
   5  -3   7  101.19   22.80
  -6   3  -7 1056.49   61.49
  -6   3  -7 1053.59   55.19
   6  -3   7 1084.59   67.79
   6  -3   7 1007.50   55.19
  -7   3  -7   18.60   13.00
  -7   3  -7   33.50   24.10
   7  -3   7    7.50   12.20
   5   2  -7  369.66   44.90
   5   2  -7  310.77   38.50
  -5  -2   7  253.47   37.70
  -5  -2   7  280.07   20.70
  -5  -2   7  242.88   37.60
   4   2  -7  702.23   51.99
   4   2  -7  654.33   46.20
  -4  -2   7  688.73   50.39
  -4  -2   7  659.33   30.20
   3   2  -7  425.36   41.70
   3   2  -7  358.76   35.40
   3   2  -7  371.06   33.30
  -3  -2   7  415.36   25.30
  -3  -2   7  472.75   40.00
   2   2  -7 1471.25   67.19
   2   2  -7 1252.97   67.69
   2   2  -7 1206.78   56.49
  -2  -2   7 1318.97   51.59
  -2  -2   7 1434.76   62.99
   1   2  -7   92.09   19.10
   1   2  -7   53.79   17.00
   1   2  -7  107.89   17.70
  -1  -2   7   71.89   13.80
  -1  -2   7   76.89   16.00
   0   2  -7 1471.75   57.19
   0   2  -7 1481.05   68.89
   0   2  -7 1487.85   65.29
   0  -2   7 1562.14   59.09
   0  -2   7 1451.25   59.29
  -1   2  -7  384.26   26.50
  -1   2  -7  408.86   32.90
   1  -2   7  389.86   26.80
   1  -2   7  396.66   34.20
   1  -2   7  389.96   30.40
  -2   2  -7 1218.98   61.49
   2  -2   7 1153.78   56.69
   2  -2   7 1239.08   48.60
   2  -2   7 1174.68   60.19
  -3   2  -7    2.30    8.90
   3  -2   7   -5.20    7.20
   3  -2   7    7.20    9.50
   3  -2   7    7.40    6.90
  -4   2  -7  739.43   47.10
   4  -2   7  741.73   46.70
   4  -2   7  745.53   46.90
   4  -2   7  646.04   35.80
  -5   2  -7  692.73   51.59
   5  -2   7  645.34   46.20
   5  -2   7  542.45   35.80
   5  -2   7  658.23   44.00
  -6   2  -7  399.16   38.40
  -6   2  -7  361.26   33.10
   6  -2   7  411.16   40.70
   6  -2   7  343.27   29.90
  -7   2  -7   46.40   18.90
  -7   2  -7   26.30   13.30
   7  -2   7   35.80   17.60
   7  -2   7    8.00   11.60
   5   1  -7  337.37   44.60
   5   1  -7  333.27   40.40
  -5  -1   7  267.37   40.60
  -5  -1   7  326.87   39.60
   4   1  -7  454.55   37.70
   4   1  -7  532.65   45.70
  -4  -1   7  531.95   42.70
   3   1  -7   -4.20    8.30
   3   1  -7   -6.60   10.40
   3   1  -7    6.90   11.40
  -3  -1   7   -4.90    2.80
   2   1  -7  965.10   46.50
   2   1  -7  857.41   52.79
   2   1  -7  789.72   49.70
  -2  -1   7  850.61   32.90
  -2  -1   7  779.52   32.10
  -2  -1   7  705.23   47.00
   1   1  -7   97.89   15.80
   1   1  -7  120.49   24.00
   1   1  -7  128.69   23.70
  -1  -1   7   99.69   14.00
  -1  -1   7  109.69   17.60
  -1  -1   7  137.09   23.60
   0   1  -7  917.71   53.19
   0   1  -7  909.81   49.90
   0   1  -7  984.10   41.60
   0  -1   7  925.51   41.20
   0  -1   7  913.41   50.99
   0  -1   7  972.70   42.20
  -1   1  -7    3.10    5.60
  -1   1  -7    5.40    9.10
  -1   1  -7   -7.20    8.20
   1  -1   7    6.10    5.70
   1  -1   7    4.80    8.30
   1  -1   7   -8.60    4.30
  -2   1  -7 1559.04   68.09
   2  -1   7 1590.24   62.79
   2  -1   7 1512.65   50.89
   2  -1   7 1585.94   69.99
  -3   1  -7    2.90    8.00
   3  -1   7   -8.10    3.90
   3  -1   7   -0.20    8.40
   3  -1   7   -6.20    7.20
  -4   1  -7  494.55   36.90
   4  -1   7  477.25   36.90
   4  -1   7  477.55   36.20
   4  -1   7  526.95   27.70
  -5   1  -7   16.60   11.60
   5  -1   7    6.10    6.70
   5  -1   7    6.00    9.40
   5  -1   7   27.10   12.60
  -6   1  -7  296.77   29.80
   6  -1   7  264.27   34.90
   6  -1   7  269.47   24.20
  -7   1  -7    0.90    9.60
  -7   1  -7   30.50   15.80
   7  -1   7  -10.10    8.40
   7  -1   7   13.90   13.20
  -8   1  -7  246.38   33.10
  -8   1  -7  202.18   34.70
   8  -1   7  274.87   39.70
   5   0  -7   75.19   21.20
  -5   0   7   97.69   26.30
  -5   0   7   71.09   20.00
   4   0  -7  823.22   57.39
   4   0  -7  957.30   54.49
  -4   0   7  941.71   60.29
  -4   0   7  871.21   53.19
   3   0  -7    7.20   11.60
   3   0  -7   -2.80   10.00
   3   0  -7   23.00   11.00
  -3   0   7    3.50    9.70
   2   0  -7  596.84   42.40
   2   0  -7  620.14   36.70
   2   0  -7  655.23   45.20
  -2   0   7  512.25   39.50
  -2   0   7  608.44   16.00
  -2   0   7  599.04   16.10
   1   0  -7  334.87   31.60
   1   0  -7  295.97   23.10
   1   0  -7  341.97   43.30
  -1   0   7  299.77   33.70
   0   0  -7 1020.70   40.90
   0   0  -7 1151.58   56.69
   0   0  -7 1038.90   54.79
   0   0   7 1150.38   40.70
   0   0   7 1052.29   54.59
  -1   0  -7  639.14   41.50
  -1   0  -7  683.53   28.70
  -1   0  -7  641.84   41.40
   1   0   7  694.13   29.80
   1   0   7  712.63   33.80
  -2   0  -7 1370.06   61.59
   2   0   7 1353.36   41.20
   2   0   7 1288.87   52.59
   2   0   7 1310.07   72.29
  -3   0  -7  285.57   28.10
   3   0   7  256.07   14.70
   3   0   7  281.67   24.90
  -4   0  -7 1470.75   64.89
   4   0   7 1497.25   63.99
   4   0   7 1501.95   44.50
   4   0   7 1348.47   64.99
  -5   0  -7   66.79   17.10
   5   0   7   72.49   18.10
   5   0   7   63.69   10.60
   5   0   7   50.89   15.90
  -6   0  -7 1838.42   75.89
   6   0   7 1700.53   58.99
  -7   0  -7  572.14   46.60
  -7   0  -7  655.23   44.10
  -7   0  -7  637.34   49.60
   7   0   7  616.64   46.80
  -8   0  -7  811.62   59.09
  -8   0  -7  837.22   51.29
   8   0   7  693.43   67.69
  -9   0  -7   82.19   24.60
  -9   0  -7  139.69   25.90
   9   0   7   87.99   20.50
   5  -1  -7   -6.80   14.40
   5  -1  -7   -4.90   11.30
  -5   1   7   25.10   22.60
  -5   1   7   -9.30    9.50
   4  -1  -7  581.24   49.10
   4  -1  -7  590.84   43.90
   3  -1  -7   19.00   14.50
   3  -1  -7   -4.70    8.60
   3  -1  -7    0.20   10.30
  -3   1   7   -7.00    8.80
   2  -1  -7 1882.01   89.39
   2  -1  -7 1664.73   77.09
   2  -1  -7 1665.43   65.79
  -2   1   7 1774.72   73.49
   1  -1  -7   13.70   11.20
   1  -1  -7   31.80    9.30
   1  -1  -7   19.00   13.10
  -1   1   7    8.60   10.40
   0  -1  -7 1015.00   38.40
   0  -1  -7  970.70   51.59
   0  -1  -7 1026.50   54.39
   0   1   7 1006.60   53.69
   0   1   7  927.21   31.70
  -1  -1  -7  104.49   19.80
  -1  -1  -7   85.19   18.00
   1   1   7   80.39   11.50
   1   1   7   79.79   18.30
  -2  -1  -7 1494.75   63.69
   2   1   7 1364.96   51.19
   2   1   7 1322.37   61.49
  -3  -1  -7  127.39   21.20
   3   1   7  132.39   22.70
   3   1   7  126.49   18.50
  -4  -1  -7  954.60   50.69
  -4  -1  -7  931.71   49.70
   4   1   7  969.00   47.40
   4   1   7  895.61   65.89
  -5  -1  -7  513.15   37.30
  -5  -1  -7  436.96   34.50
   5   1   7  471.85   19.10
   5   1   7  561.34   69.79
   5   1   7  425.26   36.00
  -6  -1  -7   23.20   12.50
  -6  -1  -7   19.80   12.50
   6   1   7   16.60    6.30
   6   1   7   11.40   10.50
   6   1   7   23.10    7.20
  -7  -1  -7  343.17   39.90
  -7  -1  -7  421.76   36.80
   7   1   7  283.37   22.30
   7   1   7  363.66   35.20
  -8  -1  -7   92.49   22.40
  -8  -1  -7   89.79   22.70
  -8  -1  -7   59.49   20.10
   8   1   7   82.69   15.80
   8   1   7   89.59   22.20
  -9  -1  -7  830.82   79.19
  -9  -1  -7  651.33   48.40
  -9  -1  -7  667.93   53.69
   9   1   7  782.42   57.39
   9   1   7  756.82   44.60
   4  -2  -7  375.66   47.00
   4  -2  -7  531.65   42.20
  -4   2   7  435.36   44.20
  -4   2   7  450.75   36.20
   3  -2  -7  108.39   24.20
   3  -2  -7  102.99   21.20
  -3   2   7   96.29   21.10
   2  -2  -7  731.83   41.00
   2  -2  -7  680.93   43.60
   2  -2  -7  678.53   48.10
  -2   2   7  719.33   43.80
   1  -2  -7  842.52   47.80
   1  -2  -7  900.81   52.89
   1  -2  -7  808.92   39.50
  -1   2   7  959.50   51.49
   0  -2  -7  766.72   47.10
   0  -2  -7  851.41   35.00
   0  -2  -7  861.71   46.80
   0   2   7  814.92   46.10
  -1  -2  -7   77.49    9.00
  -1  -2  -7  115.79   21.40
  -1  -2  -7   96.89   19.10
   1   2   7   48.80   14.80
   1   2   7   71.99   10.00
  -2  -2  -7  599.44   39.60
  -2  -2  -7  577.34   38.50
   2   2   7  588.64   29.30
   2   2   7  602.64   39.50
  -3  -2  -7 1705.43   69.49
  -3  -2  -7 1606.94   59.69
   3   2   7 1650.83   59.69
   3   2   7 1607.44   69.39
  -4  -2  -7 2003.50   78.69
  -4  -2  -7 2133.39   74.89
   4   2   7 1985.70   72.29
  -5  -2  -7  579.34   39.90
  -5  -2  -7  559.14   38.00
   5   2   7  508.15   35.90
  -6  -2  -7  456.95   37.50
   6   2   7  518.35   20.40
   6   2   7  483.05   20.00
   6   2   7  495.95   37.00
  -7  -2  -7  477.05   40.00
  -7  -2  -7  511.25   42.50
   7   2   7  502.55   25.70
  -8  -2  -7  189.68   33.30
  -8  -2  -7  205.48   33.70
  -8  -2  -7  196.68   30.40
   8   2   7  201.08   19.80
   8   2   7  155.58   28.30
  -9  -2  -7  300.27   38.70
  -9  -2  -7  249.68   37.50
  -9  -2  -7  287.47   41.30
   9   2   7  216.68   33.80
   9   2   7  276.87   25.70
   4  -3  -7  377.26   36.80
  -4   3   7  341.57   30.80
  -4   3   7  461.55   46.00
   3  -3  -7  474.75   38.80
   3  -3  -7  538.45   38.60
   3  -3  -7  408.86   42.30
  -3   3   7  498.15   35.90
   2  -3  -7  963.30   50.29
   2  -3  -7  923.21   57.79
   2  -3  -7  946.51   50.49
  -2   3   7  959.20   51.19
   1  -3  -7   43.70   14.40
   1  -3  -7   68.19   19.20
   1  -3  -7   55.29   13.70
  -1   3   7   35.30   12.90
   0  -3  -7 1760.62   58.39
   0  -3  -7 1737.83   77.79
   0  -3  -7 1762.42   70.29
   0   3   7 1795.22   71.59
  -1  -3  -7  982.20   52.19
  -1  -3  -7  935.11   40.00
  -1  -3  -7  887.91   47.60
   1   3   7  975.60   49.90
   1   3   7  945.21   31.50
  -2  -3  -7  506.15   35.20
  -2  -3  -7  507.95   36.60
  -2  -3  -7  485.65   25.60
   2   3   7  482.45   35.10
   2   3   7  455.75   24.70
  -3  -3  -7 1094.59   53.49
  -3  -3  -7 1089.29   45.80
   3   3   7 1035.70   53.59
   3   3   7 1080.89   44.50
  -4  -3  -7   13.20    9.90
  -4  -3  -7   15.60    9.00
   4   3   7   14.00    8.80
   4   3   7    3.30    9.00
  -5  -3  -7 1605.44   70.59
  -5  -3  -7 1543.05   64.89
   5   3   7 1566.44   64.69
  -6  -3  -7  801.02   49.50
  -6  -3  -7  718.13   45.00
   6   3   7  702.93   44.00
  -7  -3  -7  556.44   43.00
  -7  -3  -7  658.33   46.40
   7   3   7  601.94   25.50
  -8  -3  -7   -8.60    8.10
  -8  -3  -7   15.60   13.60
  -8  -3  -7   19.20   14.60
   8   3   7   21.30   11.90
  -9  -3  -7  317.47   49.20
  -9  -3  -7  431.96   43.30
  -9  -3  -7  347.47   43.10
   9   3   7  414.56   29.00
   9   3   7  400.86   54.19
 -10  -3  -7   -6.90   12.70
 -10  -3  -7   -4.20   13.20
  10   3   7   -5.80   10.00
   3  -4  -7   94.59   21.10
   3  -4  -7   85.19   18.90
   3  -4  -7   89.79   24.70
  -3   4   7  105.69   18.70
   2  -4  -7   47.50   14.60
   2  -4  -7   36.10   12.60
   2  -4  -7   35.20   17.00
  -2   4   7   23.60   11.00
   1  -4  -7  970.60   49.99
   1  -4  -7 1042.70   58.79
   1  -4  -7 1080.59   50.19
  -1   4   7 1037.80   50.99
   0  -4  -7  116.39   16.60
   0  -4  -7  150.28   22.80
   0  -4  -7  152.68   26.10
   0   4   7  132.99   21.50
  -1  -4  -7  751.62   43.20
  -1  -4  -7  804.92   48.00
  -1  -4  -7  748.93   26.60
  -1  -4  -7  725.53   31.30
   1   4   7  756.72   43.70
  -2  -4  -7   43.90    6.00
  -2  -4  -7   47.20    6.20
  -2  -4  -7   45.30   15.30
  -2  -4  -7   37.50   13.00
  -2  -4  -7   57.49   10.20
   2   4   7   24.30   11.50
   2   4   7   73.49   11.90
  -3  -4  -7  778.62   44.10
  -3  -4  -7  634.74   33.30
   3   4   7  570.24   31.90
  -4  -4  -7   59.59   13.90
  -4  -4  -7   61.89   18.30
   4   4   7   68.69   15.20
  -5  -4  -7  439.06   32.70
   5   4   7  488.05   33.80
  -6  -4  -7   -5.50    9.40
  -6  -4  -7   18.20   11.90
   6   4   7   29.90   13.10
  -7  -4  -7  326.87   32.70
  -7  -4  -7  347.87   40.40
  -8  -4  -7   27.00   15.10
  -8  -4  -7  -22.90    8.80
  -8  -4  -7    2.30   11.10
   8   4   7    6.40    6.50
   8   4   7  -16.90    8.30
  -9  -4  -7  508.35   47.10
  -9  -4  -7  506.05   61.39
  -9  -4  -7  449.46   44.20
   9   4   7  513.75   30.90
 -10  -4  -7    4.00   16.50
 -10  -4  -7   17.90   15.70
 -10  -4  -7   -2.80   14.30
   3  -5  -7  136.29   28.80
   3  -5  -7  100.29   21.80
  -3   5   7   85.49   15.90
   2  -5  -7  430.66   32.20
   2  -5  -7  459.05   42.90
   2  -5  -7  365.66   34.60
  -2   5   7  378.76   29.40
   1  -5  -7  416.46   30.70
   1  -5  -7  319.77   38.70
  -1   5   7  300.77   27.20
   0  -5  -7   46.70   13.30
   0  -5  -7   46.00   16.40
   0   5   7   44.20   12.60
  -1  -5  -7  362.96   23.40
  -1  -5  -7  313.57   30.30
  -1  -5  -7  287.77   16.20
  -1  -5  -7  316.97   28.60
  -2  -5  -7  491.45   26.50
  -2  -5  -7  546.75   38.30
  -2  -5  -7  488.15   34.50
  -3  -5  -7  523.45   30.50
  -3  -5  -7  549.85   37.80
  -3  -5  -7  514.95   37.70
  -3  -5  -7  518.15   18.10
   3   5   7  477.75   29.60
  -4  -5  -7  522.15   38.40
  -4  -5  -7  548.15   34.20
   4   5   7  495.85   32.50
  -5  -5  -7  952.30   54.09
  -5  -5  -7 1043.30   51.49
   5   5   7  983.80   50.29
  -6  -5  -7  135.99   24.80
  -6  -5  -7  102.69   21.30
   6   5   7  130.09   22.40
  -7  -5  -7  725.23   50.79
  -7  -5  -7  724.53   48.30
  -8  -5  -7    4.30   12.10
  -8  -5  -7   11.20   12.10
   8   5   7    5.60    9.40
   8   5   7   10.50    6.60
  -9  -5  -7  274.77   39.00
  -9  -5  -7  335.67   42.90
  -9  -5  -7  364.46   43.60
   9   5   7  314.07   24.30
   9   5   7  241.68   54.59
 -10  -5  -7   -0.50   14.10
 -10  -5  -7  -15.70   12.00
 -10  -5  -7  -25.80   13.20
  10   5   7   -7.90    9.60
   2  -6  -7   52.59   12.50
   2  -6  -7   14.60   15.90
   1  -6  -7  413.36   35.70
   1  -6  -7  386.86   38.20
   0  -6  -7  362.16   35.40
   0  -6  -7  394.16   11.60
   0  -6  -7  388.86   29.90
  -1  -6  -7  869.71   50.79
  -1  -6  -7  788.82   44.10
  -1  -6  -7  810.62   32.00
  -1  -6  -7  820.22   40.00
  -2  -6  -7   24.20    8.90
  -2  -6  -7   12.10   10.10
  -2  -6  -7    9.30    6.20
  -3  -6  -7  980.40   52.09
  -3  -6  -7  993.70   36.00
  -3  -6  -7 1034.60   53.69
  -3  -6  -7  963.10   44.80
  -4  -6  -7  121.19   23.50
  -4  -6  -7  116.69   33.90
  -4  -6  -7  136.79   10.90
  -5  -6  -7  840.12   47.10
  -5  -6  -7  793.42   50.39
  -5  -6  -7  839.92   27.30
   5   6   7  774.42   53.49
  -6  -6  -7   62.89   17.60
  -6  -6  -7   61.19   19.70
   6   6   7   49.60   15.10
  -7  -6  -7  950.50   55.69
  -7  -6  -7  887.21   57.39
   7   6   7  882.91   33.50
  -8  -6  -7   18.90   13.90
  -8  -6  -7   14.30   15.30
   8   6   7   43.30    9.60
   8   6   7   21.10   14.80
  -9  -6  -7  142.19   28.70
  -9  -6  -7  115.39   25.90
  -9  -6  -7  115.69   26.70
   9   6   7  134.69   28.20
   9   6   7  114.89   17.60
 -10  -6  -7  248.48   38.60
 -10  -6  -7  193.18   36.40
 -10  -6  -7  267.87   39.90
  10   6   7  238.08   26.90
   1  -7  -7  294.77   37.60
   1  -7  -7  334.47   24.90
   0  -7  -7   16.30   13.00
   0  -7  -7    5.20    4.00
   0  -7  -7    4.90   11.80
  -1  -7  -7  676.83   45.80
  -1  -7  -7  682.03   40.60
  -1  -7  -7  699.53   32.10
  -1  -7  -7  722.93   41.00
  -2  -7  -7   12.30   11.00
  -2  -7  -7    3.60    8.80
  -2  -7  -7    1.30    6.70
  -2  -7  -7    2.90    7.00
  -3  -7  -7  337.37   33.70
  -3  -7  -7  306.77   22.30
  -3  -7  -7  303.37   26.30
  -4  -7  -7   54.89   13.80
  -4  -7  -7   26.40    8.20
  -4  -7  -7   38.90   15.70
  -4  -7  -7   38.10   15.60
  -5  -7  -7  457.65   35.70
  -5  -7  -7  525.05   41.20
  -5  -7  -7  432.66   23.50
  -6  -7  -7    4.10    5.10
  -6  -7  -7   12.00   14.10
  -6  -7  -7  -14.40    8.70
   6   7   7    8.60    9.70
  -7  -7  -7  111.79   24.30
  -7  -7  -7   99.59   24.10
   7   7   7   89.49   21.00
  -8  -7  -7   -4.80   11.10
  -8  -7  -7   -8.80   10.70
   8   7   7   -3.40   11.50
   8   7   7    7.40    7.40
  -9  -7  -7  221.88   36.40
  -9  -7  -7  262.27   36.00
   9   7   7  265.87   23.80
   9   7   7  271.37   39.80
   0  -8  -7    8.10    6.00
   0  -8  -7  -15.70    6.60
   0  -8  -7   17.60   12.60
   0  -8  -7  -10.30   14.50
  -1  -8  -7  291.57   29.60
  -1  -8  -7  324.77   33.50
  -1  -8  -7  294.67   22.80
  -1  -8  -7  316.57   27.40
  -2  -8  -7   37.70   14.70
  -2  -8  -7   11.30   11.00
  -2  -8  -7   48.00   14.20
  -2  -8  -7   22.10   11.10
  -3  -8  -7  373.36   32.00
  -3  -8  -7  368.16   30.50
  -3  -8  -7  363.66   33.20
  -3  -8  -7  359.26   28.00
  -4  -8  -7   75.39   19.20
  -4  -8  -7   69.49   16.50
  -4  -8  -7   43.90   11.90
  -4  -8  -7   35.30   14.30
  -5  -8  -7  297.17   22.50
  -5  -8  -7  293.07   35.10
  -5  -8  -7  290.27   29.30
  -5  -8  -7  331.77   39.60
  -6  -8  -7   58.69   17.20
  -6  -8  -7   17.80   14.90
  -6  -8  -7   67.19   12.60
  -7  -8  -7  354.66   43.60
  -7  -8  -7  379.86   26.70
  -7  -8  -7  400.06   38.60
  -8  -8  -7  121.29   25.40
  -8  -8  -7  124.49   27.00
  -8  -8  -7  111.79   28.10
   8   8   7  121.69   17.90
  -9  -8  -7  151.88   32.80
  -9  -8  -7  138.99   27.40
  -9  -8  -7  136.09   29.50
   9   8   7   78.09   24.60
   9   8   7  154.18   21.00
  -2  -9  -7   48.00   15.90
  -2  -9  -7   26.20   13.50
  -2  -9  -7   17.00   11.70
  -2  -9  -7   39.40   15.90
  -3  -9  -7  756.12   47.70
  -3  -9  -7  840.62   46.40
  -3  -9  -7  847.42   49.40
  -3  -9  -7  816.82   47.60
  -4  -9  -7   12.30   10.90
  -4  -9  -7    2.20   10.10
  -4  -9  -7    8.30   12.40
  -4  -9  -7   -2.70    8.20
  -5  -9  -7  160.98   21.90
  -5  -9  -7  201.28   28.00
  -5  -9  -7  178.58   29.60
  -5  -9  -7  210.78   30.50
  -6  -9  -7  199.08   32.90
  -6  -9  -7  166.28   26.00
  -6  -9  -7  164.48   29.50
  -7  -9  -7  617.34   37.40
  -7  -9  -7  683.73   51.39
  -7  -9  -7  645.64   52.29
   2   5  -8  438.36   40.40
   2   5  -8  467.15   38.80
  -2  -5   8  490.75   44.40
  -2  -5   8  556.24   82.89
   1   5  -8  340.87   44.70
   1   5  -8  343.97   31.60
   1   5  -8  304.47   37.20
  -1  -5   8  383.76   43.40
  -1  -5   8  419.96   39.80
  -1  -5   8  414.56   50.79
   0   5  -8   53.99   19.30
   0   5  -8   30.40   14.50
   0   5  -8   17.10   13.30
   0  -5   8   22.70   14.30
   0  -5   8   31.90   15.60
   0  -5   8   28.40   17.10
  -1   5  -8  298.17   40.60
  -1   5  -8  239.78   30.60
   1  -5   8  205.78   30.40
   1  -5   8  358.16   42.30
  -2   5  -8  133.09   22.20
  -2   5  -8   79.69   22.40
   2  -5   8   87.19   20.40
   2  -5   8   93.39   24.20
   2  -5   8  125.69   26.90
  -3   5  -8  559.34   46.80
   3  -5   8  552.14   50.19
   3  -5   8  694.13   52.29
   3  -5   8  658.73   46.40
   3   4  -8  614.24   46.00
   3   4  -8  525.45   43.90
  -3  -4   8  639.84   57.49
  -3  -4   8  591.14   46.80
   2   4  -8   80.79   19.30
   2   4  -8   85.39   24.10
   2   4  -8   62.19   18.40
  -2  -4   8   92.19   22.10
  -2  -4   8  124.39   28.60
   1   4  -8  432.86   42.00
   1   4  -8  403.26   36.20
   1   4  -8  367.66   34.50
  -1  -4   8  367.96   34.50
  -1  -4   8  400.76   36.20
   0   4  -8    9.80   12.30
   0   4  -8   -9.80   13.50
   0   4  -8   35.50   13.90
   0  -4   8   -1.10   10.70
   0  -4   8    7.40   12.90
  -1   4  -8  840.32   49.40
  -1   4  -8  761.22   54.09
   1  -4   8  807.02   52.59
   1  -4   8  767.32   54.49
  -2   4  -8   -1.10    9.50
  -2   4  -8    4.70   12.00
   2  -4   8   -9.40    9.80
   2  -4   8    7.50   13.90
  -3   4  -8 1172.28   65.29
   3  -4   8 1207.78   58.49
   3  -4   8 1135.59   68.69
   3  -4   8  996.00   61.59
  -4   4  -8   18.50   13.90
   4  -4   8   -3.30    9.70
   4  -4   8   30.60   16.00
   4  -4   8    6.70   13.40
  -5   4  -8   46.90   17.50
  -5   4  -8   76.79   19.60
   5  -4   8  104.69   23.50
   5  -4   8   84.19   21.00
   4   3  -8  -11.10   11.70
   4   3  -8   -3.80   14.10
  -4  -3   8   -7.80    7.30
  -4  -3   8    8.80    8.80
   3   3  -8  786.82   50.29
   3   3  -8  942.81   58.99
  -3  -3   8  938.41   57.99
  -3  -3   8  898.21   62.49
  -3  -3   8  823.82   43.70
   2   3  -8   29.50   14.70
   2   3  -8   45.60   15.00
   2   3  -8   27.10   18.00
  -2  -3   8   46.30   12.90
  -2  -3   8   90.29   34.30
  -2  -3   8   56.09   17.90
   1   3  -8  577.04   39.40
   1   3  -8  704.43   52.39
   1   3  -8  597.54   43.20
  -1  -3   8  577.64   47.70
  -1  -3   8  649.54   42.90
  -1  -3   8  619.54   40.30
   0   3  -8  179.48   27.40
   0   3  -8  171.48   31.00
   0   3  -8  194.38   25.20
   0  -3   8  155.98   28.60
   0  -3   8  225.58   28.10
   0  -3   8  213.88   28.30
  -1   3  -8 1173.18   65.19
  -1   3  -8 1141.79   58.59
   1  -3   8 1155.28   53.79
   1  -3   8 1126.59   63.89
   1  -3   8 1134.49   59.39
  -2   3  -8    6.80   10.80
  -2   3  -8  -10.50   10.90
   2  -3   8    1.20    7.60
   2  -3   8  -17.20    8.80
  -3   3  -8  672.23   48.30
   3  -3   8  629.84   38.20
   3  -3   8  577.44   45.60
   3  -3   8  676.23   48.00
  -4   3  -8   31.10   14.70
   4  -3   8   37.30   12.80
   4  -3   8   35.90   16.60
   4  -3   8   61.49   18.30
  -5   3  -8  915.71   56.89
   5  -3   8  977.50   51.09
   5  -3   8  914.71   62.29
   5  -3   8 1018.40   59.49
  -6   3  -8    2.70   13.40
  -6   3  -8    5.60   13.30
   6  -3   8   26.70   17.00
   6  -3   8   20.30   11.30
   6  -3   8  -26.60   10.80
   4   2  -8  -19.00    9.90
   4   2  -8  -16.10   11.00
  -4  -2   8   -1.10    5.40
  -4  -2   8    4.80    5.60
  -4  -2   8    1.40   14.60
   3   2  -8  202.88   32.80
   3   2  -8  239.68   30.70
   3   2  -8  218.38   35.40
  -3  -2   8  207.58   18.60
  -3  -2   8  206.18   18.20
   2   2  -8   61.99   20.70
   2   2  -8   52.59   18.20
   2   2  -8   21.40   13.40
  -2  -2   8   57.79   18.50
  -2  -2   8   39.00   10.30
   1   2  -8 2100.99   90.89
   1   2  -8 1948.01   74.49
   1   2  -8 1936.11   83.99
  -1  -2   8 2018.50   77.09
  -1  -2   8 2023.00   90.39
  -1  -2   8 2081.09   72.09
   0   2  -8   96.29   21.60
   0   2  -8  144.29   26.90
   0   2  -8   65.49   14.70
   0  -2   8   87.29   17.40
   0  -2   8   77.79   16.30
  -1   2  -8  298.47   36.80
  -1   2  -8  273.27   32.80
  -1   2  -8  209.58   23.90
   1  -2   8  224.48   33.00
   1  -2   8  239.18   28.70
   1  -2   8  221.08   21.30
  -2   2  -8  473.15   38.40
  -2   2  -8  463.35   39.20
   2  -2   8  432.86   39.50
   2  -2   8  406.46   34.10
   2  -2   8  397.36   27.50
  -3   2  -8  579.64   44.10
   3  -2   8  637.34   46.10
   3  -2   8  685.13   45.30
   3  -2   8  551.14   32.40
  -4   2  -8  311.37   31.70
   4  -2   8  279.07   36.30
   4  -2   8  282.47   23.70
   4  -2   8  260.57   42.30
  -5   2  -8 1175.38   62.69
   5  -2   8 1026.10   56.99
   5  -2   8 1079.39   62.19
   5  -2   8 1066.09   63.69
  -6   2  -8  308.77   39.90
  -6   2  -8  315.47   37.90
   6  -2   8  295.17   41.40
   6  -2   8  349.77   40.80
   6  -2   8  276.27   25.70
  -7   2  -8  122.19   27.60
  -7   2  -8  191.28   29.80
   7  -2   8  170.38   24.50
   7  -2   8  181.48   38.40
   4   1  -8    5.20   14.60
   4   1  -8  -14.00   10.10
  -4  -1   8  -24.50   12.30
   3   1  -8  656.73   44.30
   3   1  -8  742.23   54.49
   3   1  -8  788.72   55.59
  -3  -1   8  688.53   21.30
  -3  -1   8  665.13   49.50
  -3  -1   8  692.13   21.30
   2   1  -8   -5.20   10.70
   2   1  -8    1.10   11.20
   2   1  -8    2.50    9.80
  -2  -1   8   -8.40    9.70
  -2  -1   8   12.70    6.20
  -2  -1   8    9.60    5.80
   1   1  -8  241.48   32.80
   1   1  -8  349.77   35.20
   1   1  -8  258.97   24.80
  -1  -1   8  346.07   22.60
  -1  -1   8  369.16   35.40
   0   1  -8  175.68   27.90
   0   1  -8  159.88   26.60
   0   1  -8  127.99   17.70
   0  -1   8  181.48   21.30
   0  -1   8  176.58   21.90
  -1   1  -8  824.32   50.09
  -1   1  -8  752.02   35.90
  -1   1  -8  837.12   52.19
   1  -1   8  808.22   37.20
   1  -1   8  735.33   39.90
  -2   1  -8   -5.90    9.20
  -2   1  -8   11.70    9.90
   2  -1   8    1.50    5.10
   2  -1   8    9.20    8.10
   2  -1   8   -6.40   10.40
  -3   1  -8  412.46   36.40
   3  -1   8  408.76   33.70
   3  -1   8  437.26   24.50
   3  -1   8  420.56   38.70
  -4   1  -8  113.09   22.30
   4  -1   8  124.79   15.60
   4  -1   8  112.39   24.00
   4  -1   8  131.69   24.00
  -5   1  -8  151.08   25.60
   5  -1   8  104.19   24.00
   5  -1   8  163.78   29.10
   5  -1   8  150.08   17.90
  -6   1  -8  159.18   26.60
   6  -1   8  129.49   25.00
   6  -1   8   88.39   23.10
   6  -1   8   83.59   15.50
  -7   1  -8  404.06   37.40
  -7   1  -8  374.56   47.30
   7  -1   8  453.15   31.90
   7  -1   8  417.76   48.20
  -8   1  -8  276.57   41.20
  -8   1  -8  263.27   35.00
   8  -1   8  244.48   30.00
   4   0  -8   13.10   13.30
   4   0  -8   27.20   18.20
  -4   0   8   17.00   14.60
   3   0  -8  397.56   33.80
   3   0  -8  405.86   40.40
   3   0  -8  398.66   39.10
  -3   0   8  371.26   42.40
   2   0  -8   80.49   17.10
   2   0  -8   85.79   22.50
   2   0  -8  154.98   28.60
  -2   0   8  130.89   25.00
   1   0  -8  289.07   24.10
   1   0  -8  282.07   35.70
   1   0  -8  304.77   37.80
   0   0  -8   27.90   15.10
   0   0  -8   22.80   13.70
   0   0  -8   31.80    9.80
   0   0   8   26.30    8.00
  -1   0  -8 1308.77   66.59
  -1   0  -8 1433.26   47.60
  -1   0  -8 1392.16   66.99
   1   0   8 1392.16   52.79
  -2   0  -8  246.58   32.50
  -2   0  -8  222.08   29.30
   2   0   8  223.88   25.80
   2   0   8  226.38   15.10
  -3   0  -8  996.60   55.59
   3   0   8  933.31   55.59
   3   0   8 1051.49   50.89
   3   0   8  999.20   32.20
  -4   0  -8  484.75   38.60
   4   0   8  413.36   37.60
   4   0   8  432.16   19.60
   4   0   8  466.15   35.60
  -5   0  -8  216.38   29.70
   5   0   8  250.67   30.60
   5   0   8  207.18   30.80
  -6   0  -8  650.83   47.20
   6   0   8  700.13   48.80
   6   0   8  695.63   31.90
  -7   0  -8  303.07   37.80
   7   0   8  327.17   25.10
   7   0   8  409.36   46.70
  -8   0  -8  202.38   30.10
  -8   0  -8  163.58   31.00
   8   0   8  143.29   21.30
   8   0   8  194.28   33.40
   4  -1  -8   92.59   26.00
   4  -1  -8   68.29   19.30
  -4   1   8   81.79   21.50
   3  -1  -8  316.37   41.40
   3  -1  -8  355.56   41.50
   3  -1  -8  309.07   30.60
  -3   1   8  390.86   35.60
   2  -1  -8  113.59   24.90
   2  -1  -8   96.49   23.80
   2  -1  -8  113.59   19.30
   1  -1  -8 1179.38   61.49
   1  -1  -8 1098.29   47.80
   1  -1  -8 1094.39   62.39
   0  -1  -8  895.81   54.19
   0  -1  -8  919.01   53.89
   0  -1  -8  940.61   38.50
   0   1   8  912.01   53.19
  -1  -1  -8  380.66   19.70
  -1  -1  -8  397.76   35.80
  -1  -1  -8  348.67   32.90
   1   1   8  365.56   22.40
   1   1   8  399.16   34.80
  -2  -1  -8  746.43   47.00
  -2  -1  -8  731.33   47.20
   2   1   8  686.93   35.50
  -3  -1  -8   11.30   10.70
   3   1   8   44.00   12.30
  -4  -1  -8 1341.47   64.79
   4   1   8 1258.17   64.99
   4   1   8 1256.87   57.89
  -5  -1  -8  668.43   45.50
   5   1   8  710.53   48.50
   5   1   8  643.44   42.90
  -6  -1  -8  549.74   42.20
  -6  -1  -8  517.15   42.40
   6   1   8  543.85   22.10
   6   1   8  554.34   25.90
  -7  -1  -8  -12.90   10.30
  -7  -1  -8   22.30   14.60
   7   1   8    9.70    6.80
   7   1   8   13.60   10.70
   7   1   8    9.80    6.20
  -8  -1  -8  280.67   36.90
  -8  -1  -8  266.37   40.80
  -8  -1  -8  273.37   39.30
   8   1   8  259.37   37.10
   8   1   8  297.17   23.80
   8   1   8  227.88   21.60
  -9  -1  -8   58.79   20.50
  -9  -1  -8   70.29   25.90
   9   1   8   29.50   12.50
   3  -2  -8  263.37   33.00
   3  -2  -8  171.88   32.80
   3  -2  -8  213.78   32.60
  -3   2   8  172.08   29.20
   2  -2  -8  124.99   24.70
   2  -2  -8  136.39   22.50
   2  -2  -8  161.78   30.80
   1  -2  -8  340.07   37.80
   1  -2  -8  231.48   32.60
   1  -2  -8  305.07   24.30
  -1   2   8  245.48   31.70
   0  -2  -8  112.79   14.50
   0  -2  -8  186.18   29.00
   0  -2  -8  167.38   26.70
   0   2   8  149.09   24.60
  -1  -2  -8   64.29   18.00
  -1  -2  -8   43.50   15.50
   1   2   8   54.99    8.80
   1   2   8   73.99   17.70
  -2  -2  -8  292.67   35.10
  -2  -2  -8  295.07   30.40
   2   2   8  218.68   18.60
   2   2   8  245.38   31.70
  -3  -2  -8  170.98   26.50
   3   2   8  210.28   23.60
   3   2   8  183.98   27.10
  -4  -2  -8   34.50   12.80
  -4  -2  -8   10.50   10.90
   4   2   8   24.40   10.50
  -5  -2  -8    1.10    9.60
  -5  -2  -8    8.30    8.60
   5   2   8    7.70    9.50
   5   2   8   28.10   13.50
  -6  -2  -8  138.79   25.60
  -6  -2  -8  153.88   26.80
   6   2   8  165.68   25.80
  -7  -2  -8   52.09   18.10
  -7  -2  -8  -21.00   11.10
   7   2   8   19.80    7.90
   7   2   8   23.50    5.90
   7   2   8   10.70   11.80
  -8  -2  -8  476.95   45.50
  -8  -2  -8  461.95   42.10
   8   2   8  465.65   43.10
   8   2   8  430.26   24.70
  -9  -2  -8    9.80   15.50
  -9  -2  -8   20.80   14.80
  -9  -2  -8    7.40   15.20
   9   2   8   -6.30    7.00
   9   2   8    5.30   13.40
   3  -3  -8  429.56   51.79
   3  -3  -8  421.76   38.30
   3  -3  -8  418.86   37.10
   2  -3  -8  286.77   34.50
   2  -3  -8  223.68   29.10
   2  -3  -8  274.17   38.80
  -2   3   8  253.57   32.70
   1  -3  -8   13.40   12.80
   1  -3  -8   16.50   12.20
   1  -3  -8   28.40   11.00
  -1   3   8    0.40   10.60
   0  -3  -8  522.35   42.40
   0  -3  -8  559.84   29.50
   0  -3  -8  601.54   41.60
   0   3   8  508.65   39.00
  -1  -3  -8  863.51   33.40
  -1  -3  -8  941.71   53.49
  -1  -3  -8  875.41   53.39
   1   3   8  849.81   28.80
   1   3   8  943.61   52.79
  -2  -3  -8  647.44   45.30
  -2  -3  -8  698.33   46.70
   2   3   8  745.03   32.30
   2   3   8  697.93   45.70
  -3  -3  -8  780.92   48.00
  -3  -3  -8  765.12   38.30
   3   3   8  797.32   49.20
   3   3   8  803.92   38.40
  -4  -3  -8  686.23   45.40
  -4  -3  -8  739.93   48.80
   4   3   8  702.33   39.60
  -5  -3  -8   49.70   16.20
  -5  -3  -8   46.70   14.30
   5   3   8   45.70   16.60
  -6  -3  -8 1177.68   63.49
  -6  -3  -8 1177.88   60.59
   6   3   8 1034.50   56.29
  -7  -3  -8  339.37   40.10
  -7  -3  -8  282.57   37.00
   7   3   8  349.17   40.60
  -8  -3  -8  124.99   26.90
  -8  -3  -8  134.79   27.10
   8   3   8  137.69   26.60
   8   3   8  121.39   12.40
  -9  -3  -8   55.19   19.90
  -9  -3  -8   24.10   17.70
  -9  -3  -8   37.10   18.40
   9   3   8   72.99   13.80
   9   3   8   30.60   17.40
   2  -4  -8   62.49   19.00
   2  -4  -8   69.09   19.50
   2  -4  -8   80.29   24.00
  -2   4   8   91.79   19.10
   1  -4  -8  224.28   30.30
   1  -4  -8  247.78   36.00
   1  -4  -8  225.08   27.30
  -1   4   8  220.98   29.40
   0  -4  -8  593.84   45.10
   0  -4  -8  533.55   30.90
   0  -4  -8  540.95   51.19
   0   4   8  618.74   55.79
  -1  -4  -8   98.59   12.50
  -1  -4  -8   91.19   20.90
   1   4   8   91.49   20.10
  -2  -4  -8  337.07   33.10
  -2  -4  -8  294.67    9.50
  -2  -4  -8  283.67   19.40
  -2  -4  -8  298.67    9.60
  -2  -4  -8  319.57   31.80
   2   4   8  331.57   20.40
   2   4   8  366.56   33.00
  -3  -4  -8  -13.70    8.10
  -3  -4  -8   -3.10    5.80
  -3  -4  -8   14.70   11.50
   3   4   8    7.00    9.00
   3   4   8    2.50    6.30
  -4  -4  -8  509.75   40.00
  -4  -4  -8  503.55   33.50
   4   4   8  505.25   32.80
  -5  -4  -8   11.50    9.70
  -5  -4  -8    3.40   10.60
   5   4   8   -4.20    7.30
  -6  -4  -8  723.23   46.00
  -6  -4  -8  798.22   52.59
   6   4   8  736.43   46.30
  -7  -4  -8   69.19   19.10
  -7  -4  -8   25.20   15.60
  -8  -4  -8  704.93   52.89
  -8  -4  -8  597.14   48.20
   8   4   8  636.44   22.70
   8   4   8  719.43   50.49
  -9  -4  -8   35.70   18.00
  -9  -4  -8   21.40   16.40
  -9  -4  -8   19.60   15.90
   9   4   8    6.80   11.40
   9   4   8   33.10    9.10
   2  -5  -8  360.56   35.20
  -2   5   8  432.26   34.00
   1  -5  -8  480.85   43.10
   1  -5  -8  531.65   38.10
  -1   5   8  484.45   36.60
   0  -5  -8  159.58   21.10
   0  -5  -8  209.68   32.00
   0   5   8  191.48   26.80
  -1  -5  -8   24.90   13.20
  -1  -5  -8   -7.60    5.20
  -1  -5  -8   -4.60    5.00
   1   5   8   -1.90   13.00
  -2  -5  -8 1441.26   65.79
  -2  -5  -8 1362.56   41.00
  -2  -5  -8 1371.06   47.10
  -2  -5  -8 1243.38   64.69
  -3  -5  -8  148.89   25.70
  -3  -5  -8  153.88   24.90
  -3  -5  -8  147.69   18.40
  -4  -5  -8  755.52   47.80
  -4  -5  -8  634.64   39.50
   4   5   8  648.74   37.70
  -5  -5  -8  158.28   24.50
  -5  -5  -8  104.49   23.30
   5   5   8  154.18   24.00
  -6  -5  -8  120.89   23.40
  -6  -5  -8  104.99   23.70
   6   5   8  137.49   23.40
  -7  -5  -8   44.70   17.40
  -7  -5  -8   78.79   21.90
   7   5   8   27.30   17.40
  -8  -5  -8  723.53   54.99
  -8  -5  -8  696.63   51.09
   8   5   8  701.53   21.40
   8   5   8  772.72   53.19
  -9  -5  -8  167.48   32.60
  -9  -5  -8  233.88   35.30
  -9  -5  -8  214.18   35.20
   9   5   8  206.28   16.50
   9   5   8  165.58   31.90
   1  -6  -8   -1.50   12.30
   1  -6  -8    7.30   13.80
   1  -6  -8   27.40   12.10
   0  -6  -8  416.46   35.60
   0  -6  -8  443.46   41.30
  -1  -6  -8   23.20    5.10
  -1  -6  -8   19.90    9.00
  -1  -6  -8   19.80   13.50
  -1  -6  -8   36.60   15.50
  -2  -6  -8  756.82   49.60
  -2  -6  -8  717.63   46.00
  -2  -6  -8  829.32   34.80
  -2  -6  -8  789.52   33.50
  -3  -6  -8    0.30    9.00
  -3  -6  -8   -3.70   10.80
  -3  -6  -8    5.40    7.10
  -3  -6  -8    7.20    4.20
  -4  -6  -8 1550.04   70.89
  -4  -6  -8 1204.08   64.09
  -4  -6  -8 1340.97   58.19
  -5  -6  -8    9.60   11.30
  -5  -6  -8    2.20    7.40
   5   6   8   11.80    8.50
  -6  -6  -8  533.25   40.60
  -6  -6  -8  580.84   46.30
   6   6   8  492.45   38.80
  -7  -6  -8   24.70   15.20
  -7  -6  -8   24.00   14.70
   7   6   8   12.00   13.60
  -8  -6  -8  138.69   29.40
  -8  -6  -8  103.99   24.80
   8   6   8  141.49   27.10
  -9  -6  -8   16.60   17.00
  -9  -6  -8   39.00   20.20
  -9  -6  -8   15.80   17.80
   9   6   8   -2.10   12.20
   9   6   8   20.10    7.50
   0  -7  -8  628.84   40.40
   0  -7  -8  697.33   50.99
  -1  -7  -8   -4.90    3.90
  -1  -7  -8  -11.20    9.10
  -1  -7  -8   -8.10   11.60
  -1  -7  -8    0.80    8.00
  -2  -7  -8  201.28   18.80
  -2  -7  -8  137.89   16.80
  -2  -7  -8  142.59   24.40
  -2  -7  -8  145.89   26.20
  -3  -7  -8   51.59   16.60
  -3  -7  -8   50.69   13.20
  -3  -7  -8   27.70    8.10
  -3  -7  -8   57.59   17.50
  -4  -7  -8  180.08   13.40
  -4  -7  -8  191.18   30.40
  -4  -7  -8  207.98   32.10
  -4  -7  -8  213.78   26.60
  -5  -7  -8  183.28   32.00
  -5  -7  -8  178.48   28.50
  -5  -7  -8  269.07   37.00
  -5  -7  -8  197.88   10.20
  -6  -7  -8  898.91   58.19
  -6  -7  -8  931.01   54.59
  -7  -7  -8   23.10   15.00
  -7  -7  -8   33.60   16.70
   7   7   8   33.90   13.30
  -8  -7  -8  200.98   37.30
  -8  -7  -8  220.78   33.00
   8   7   8  221.18   37.90
  -9  -7  -8  200.98   34.80
  -9  -7  -8  156.68   31.80
  -9  -7  -8  167.98   33.70
   9   7   8  167.18   32.50
   9   7   8  143.89   16.10
  -2  -8  -8  485.25   38.00
  -2  -8  -8  480.65   41.50
  -2  -8  -8  500.35   33.20
  -2  -8  -8  480.95   29.90
  -3  -8  -8   56.19   17.80
  -3  -8  -8   35.50   12.50
  -3  -8  -8   94.79   22.20
  -3  -8  -8   79.89   14.20
  -4  -8  -8  928.51   55.09
  -4  -8  -8  884.11   49.80
  -4  -8  -8  965.80   58.19
  -4  -8  -8  936.11   39.10
  -5  -8  -8   -7.30   11.80
  -5  -8  -8  -10.20    9.70
  -5  -8  -8   -1.40   11.30
  -5  -8  -8    6.00    5.50
  -6  -8  -8  210.08   33.00
  -6  -8  -8  237.58   18.70
  -6  -8  -8  224.68   32.60
  -7  -8  -8   23.80   15.60
  -7  -8  -8   13.10   17.70
  -8  -8  -8  349.96   45.90
  -8  -8  -8  287.97   38.90
  -4  -9  -8  120.79   24.60
  -4  -9  -8  152.38   27.00
  -4  -9  -8  164.88   25.00
  -5  -9  -8  532.45   42.50
  -5  -9  -8  442.36   40.30
  -5  -9  -8  548.85   31.20
  -6  -9  -8  230.68   35.40
  -6  -9  -8  290.37   36.40
  -6  -9  -8  232.88   33.40
  -6  -9  -8  235.68   20.40
   1   4  -9  -25.50   13.90
   1   4  -9  -19.30   11.60
   1   4  -9    7.70   13.30
  -1  -4   9  -21.70   11.20
  -1  -4   9   10.70   14.20
   0   4  -9   49.60   16.50
   0   4  -9   29.90   18.80
   0   4  -9   66.59   19.50
   0  -4   9   62.89   17.50
   0  -4   9   69.79   24.40
   0  -4   9   87.39   20.70
  -1   4  -9   83.99   26.90
  -1   4  -9   88.79   20.50
   1  -4   9   85.59   22.30
   1  -4   9   76.19   17.70
   1  -4   9   88.39   24.90
  -2   4  -9  340.47   39.10
  -2   4  -9  268.97   39.70
   2  -4   9  272.37   55.69
   2  -4   9  259.07   37.60
   2  -4   9  218.08   31.00
  -3   4  -9   21.10   14.20
  -3   4  -9   17.20   16.00
   3  -4   9    6.90   15.80
   3  -4   9    6.10   16.30
   3  -4   9   23.60   12.80
   2   3  -9   60.99   18.30
   2   3  -9   79.69   22.70
   2   3  -9   74.39   24.50
  -2  -3   9   45.20   18.70
  -2  -3   9   68.09   19.20
   1   3  -9  156.48   29.10
   1   3  -9  102.49   20.60
  -1  -3   9  123.89   23.60
  -1  -3   9  182.08   32.80
  -1  -3   9  141.49   24.30
   0   3  -9  433.86   35.20
   0   3  -9  490.25   46.90
   0   3  -9  443.76   39.30
   0  -3   9  469.25   37.10
   0  -3   9  472.95   37.60
   0  -3   9  450.05   44.50
  -1   3  -9   -1.20   12.80
  -1   3  -9    1.60   11.00
   1  -3   9   21.20   13.90
   1  -3   9  -16.60    8.00
  -2   3  -9  414.76   39.50
  -2   3  -9  472.75   43.70
   2  -3   9  431.56   39.50
   2  -3   9  471.35   33.80
  -3   3  -9   20.60   14.00
   3  -3   9   30.40   18.80
   3  -3   9  -13.10   11.40
   3  -3   9   20.40   10.70
  -4   3  -9  391.96   39.20
   4  -3   9  408.06   47.50
   4  -3   9  422.86   32.00
  -5   3  -9   10.50   14.40
   5  -3   9   18.60   15.60
   5  -3   9    8.80   14.90
   2   2  -9  154.98   30.50
   2   2  -9  170.98   25.80
  -2  -2   9  179.08   21.00
  -2  -2   9  160.08   32.20
  -2  -2   9  179.68   21.10
   1   2  -9   25.50   11.20
   1   2  -9   23.90   18.00
   1   2  -9  -12.80   11.30
  -1  -2   9   17.60    8.60
  -1  -2   9    9.00   12.10
  -1  -2   9   33.50   16.80
   0   2  -9  977.60   63.39
   0   2  -9  888.91   56.39
   0   2  -9  925.41   47.50
   0  -2   9  939.21   48.30
   0  -2   9  996.60   96.39
   0  -2   9  974.80   48.60
  -1   2  -9   27.10   14.00
  -1   2  -9   24.70   10.10
  -1   2  -9   39.40   16.90
   1  -2   9   24.30   12.20
   1  -2   9   13.90   10.00
   1  -2   9   44.60   17.80
  -2   2  -9  243.38   35.00
  -2   2  -9  305.97   37.40
   2  -2   9  306.77   31.00
   2  -2   9  276.47   39.50
   2  -2   9  295.27   24.50
  -3   2  -9  190.68   31.80
   3  -2   9  134.09   26.10
   3  -2   9  189.38   32.10
   3  -2   9  171.78   20.90
  -4   2  -9  136.49   27.00
   4  -2   9  146.19   27.90
   4  -2   9  108.99   17.40
   4  -2   9  134.99   27.00
  -5   2  -9  325.77   40.80
   5  -2   9  285.97   39.50
   5  -2   9  375.96   45.80
  -6   2  -9  420.96   40.80
   6  -2   9  450.05   32.00
   6  -2   9  482.75   46.20
   3   1  -9   53.19   21.50
   2   1  -9  525.85   49.90
   2   1  -9  542.35   38.30
   2   1  -9  575.74   49.20
  -2  -1   9  516.15   46.80
  -2  -1   9  546.45   24.00
   1   1  -9  182.98   23.30
   1   1  -9  235.88   37.00
   1   1  -9  274.97   38.30
  -1  -1   9  230.48   19.10
  -1  -1   9  200.38   38.10
   0   1  -9  145.49   26.90
   0   1  -9  181.98   31.60
   0   1  -9  161.88   21.20
   0  -1   9  164.28   20.80
   0  -1   9  173.58   30.30
  -1   1  -9  346.77   35.50
  -1   1  -9  389.76   45.50
  -1   1  -9  347.47   24.60
   1  -1   9  336.07   43.00
   1  -1   9  336.77   24.70
   1  -1   9  338.17   28.20
  -2   1  -9  585.14   46.10
  -2   1  -9  501.85   43.00
   2  -1   9  621.74   48.70
   2  -1   9  560.14   29.20
   2  -1   9  549.15   37.70
  -3   1  -9   64.69   19.70
   3  -1   9   56.79   19.80
   3  -1   9   42.30   14.90
   3  -1   9   63.99   11.10
  -4   1  -9  205.18   32.30
   4  -1   9  304.77   39.90
   4  -1   9  294.77   20.20
  -5   1  -9  252.37   35.10
   5  -1   9  274.57   36.60
   5  -1   9  280.97   20.90
   5  -1   9  306.47   40.90
  -6   1  -9   26.10   14.30
   6  -1   9   -0.60   12.60
   6  -1   9    0.30    7.20
   6  -1   9    2.30   14.70
  -7   1  -9  319.57   43.80
  -7   1  -9  254.47   35.50
   7  -1   9  428.36   56.39
   3   0  -9   44.70   18.70
   3   0  -9    7.70   11.20
   3   0  -9   46.70   21.70
  -3   0   9  -32.90   12.90
   2   0  -9  631.34   51.89
   2   0  -9  579.34   49.50
   2   0  -9  574.84   39.30
   1   0  -9   15.20    9.10
   1   0  -9    5.90   14.20
   1   0  -9   16.70   14.20
  -1   0   9   19.90   14.00
   0   0  -9  156.98   28.20
   0   0  -9   89.69   14.40
   0   0  -9  143.39   27.00
   0   0   9  115.79   25.60
   0   0   9  156.48   15.20
  -1   0  -9  300.87   20.20
  -1   0  -9  309.57   38.10
  -1   0  -9  236.48   34.50
   1   0   9  299.27   38.50
   1   0   9  280.87   23.00
  -2   0  -9  462.95   41.00
  -2   0  -9  520.65   42.60
   2   0   9  469.25   32.50
  -3   0  -9  276.67   36.00
   3   0   9  378.66   38.40
   3   0   9  346.47   30.90
  -4   0  -9  663.53   48.60
   4   0   9  661.33   43.70
   4   0   9  745.33   52.19
   4   0   9  647.64   21.40
  -5   0  -9   17.00   15.00
   5   0   9   89.59   22.10
   5   0   9   62.09    7.80
   5   0   9   58.19   18.60
  -6   0  -9  131.29   26.30
   6   0   9  145.89   13.10
   6   0   9  128.49   27.00
   6   0   9  139.59   26.50
  -7   0  -9  218.88   33.60
   7   0   9  305.97   41.20
   7   0   9  266.87   20.30
   2  -1  -9  269.97   39.20
   2  -1  -9  188.68   24.50
   2  -1  -9  199.98   33.50
  -2   1   9  289.47   37.70
   1  -1  -9  247.48   22.80
   1  -1  -9  196.78   32.30
   1  -1  -9  230.38   35.50
  -1   1   9  215.18   33.00
   0  -1  -9  607.94   47.70
   0  -1  -9  654.83   48.60
   0  -1  -9  658.13   32.30
   0   1   9  576.44   46.80
  -1  -1  -9  398.96   20.30
  -1  -1  -9  350.26   35.90
  -1  -1  -9  367.26   37.00
   1   1   9  279.37   37.70
   1   1   9  347.27   22.70
  -2  -1  -9  112.39   23.90
  -2  -1  -9  113.29   24.40
   2   1   9  136.29   25.90
   2   1   9   89.19   15.20
  -3  -1  -9  760.92   50.69
   3   1   9  663.03   39.60
  -4  -1  -9   11.30   12.60
   4   1   9    5.70    9.90
   4   1   9   17.20   13.00
  -5  -1  -9  485.95   42.20
   5   1   9  541.35   45.40
   5   1   9  484.55   39.00
  -6  -1  -9   50.09   18.60
   6   1   9   57.89   18.80
  -7  -1  -9  328.17   40.80
   7   1   9  278.27   37.20
   7   1   9  294.77   21.00
   7   1   9  315.07   15.70
  -8  -1  -9   74.79   21.90
   8   1   9   62.59   20.40
   8   1   9   47.80   10.00
   8   1   9   45.20   10.00
   2  -2  -9   45.40   25.90
   2  -2  -9   69.39   21.60
   2  -2  -9   46.40   16.10
  -2   2   9   54.49   19.00
   1  -2  -9  558.54   33.80
   1  -2  -9  495.55   46.40
   1  -2  -9  676.53   48.60
  -1   2   9  577.24   46.10
   0  -2  -9  355.46   22.90
   0  -2  -9  297.17   37.30
   0  -2  -9  270.87   36.40
   0   2   9  232.88   34.20
  -1  -2  -9  165.98   29.30
  -1  -2  -9  157.98   28.20
   1   2   9  155.68   27.70
   1   2   9  129.89   12.10
  -2  -2  -9  113.69   22.90
  -2  -2  -9  103.89   23.70
   2   2   9  119.99   24.90
   2   2   9   86.99   13.90
  -3  -2  -9  623.14   46.00
  -3  -2  -9  543.05   43.70
   3   2   9  563.94   34.10
   3   2   9  563.24   43.30
  -4  -2  -9  502.25   42.20
   4   2   9  572.84   37.30
  -5  -2  -9  386.26   37.10
  -5  -2  -9  408.56   35.90
   5   2   9  367.26   37.30
   5   2   9  416.16   34.00
  -6  -2  -9  102.99   23.20
  -6  -2  -9  103.69   22.90
  -7  -2  -9  269.47   37.60
  -7  -2  -9  303.57   38.50
   7   2   9  275.17   36.10
  -8  -2  -9   59.29   19.90
  -8  -2  -9   -5.70   15.40
   8   2   9   22.60   18.20
   8   2   9   23.60    5.50
   8   2   9   31.90    5.90
   2  -3  -9  524.15   45.60
   2  -3  -9  616.64   53.19
   2  -3  -9  565.34   39.60
  -2   3   9  621.54   46.10
   1  -3  -9  162.18   32.00
   1  -3  -9  159.38   21.00
   1  -3  -9  156.48   27.80
  -1   3   9  117.59   24.30
   0  -3  -9   98.39   23.20
   0  -3  -9   59.09   11.30
   0  -3  -9   60.49   20.70
   0   3   9   53.49   17.80
  -1  -3  -9  672.83   47.80
  -1  -3  -9  637.34   48.20
   1   3   9  663.03   48.00
  -2  -3  -9   82.29   20.60
  -2  -3  -9  117.19   24.20
   2   3   9   89.39   12.80
   2   3   9   64.79   21.80
  -3  -3  -9  613.64   45.40
  -3  -3  -9  608.44   46.70
   3   3   9  559.74   44.40
   3   3   9  615.94   34.30
  -4  -3  -9    7.10    9.00
  -4  -3  -9   34.50   15.50
   4   3   9   15.10   13.00
   4   3   9    5.70    8.90
  -5  -3  -9 1704.13   75.29
  -5  -3  -9 1624.14   77.99
   5   3   9 1660.43   70.89
  -6  -3  -9   57.09   18.10
  -6  -3  -9   35.30   16.00
  -7  -3  -9  664.33   50.99
  -7  -3  -9  671.13   49.50
   7   3   9  670.73   49.20
  -8  -3  -9  223.98   37.10
  -8  -3  -9  167.68   30.20
   8   3   9  236.18   35.80
   1  -4  -9 1150.18   62.89
   1  -4  -9 1115.99   52.39
  -1   4   9 1103.79   61.29
   0  -4  -9  143.29   18.70
   0  -4  -9  111.99   23.60
   0  -4  -9  148.59   29.40
   0   4   9  150.48   25.70
  -1  -4  -9 1195.48   62.99
  -1  -4  -9 1021.90   36.60
  -1  -4  -9 1258.57   67.59
   1   4   9  853.11   75.59
  -2  -4  -9    1.90   11.20
  -2  -4  -9    8.60   11.40
   2   4   9   -1.50   12.30
  -3  -4  -9  914.21   55.59
  -3  -4  -9  868.71   56.29
  -3  -4  -9  906.61   41.40
   3   4   9  864.31   54.59
   3   4   9  866.61   40.60
  -4  -4  -9   11.40   12.80
  -4  -4  -9    3.80    9.00
   4   4   9   23.40   10.00
  -5  -4  -9  290.67   37.30
  -5  -4  -9  248.68   30.70
   5   4   9  260.37   30.00
  -6  -4  -9  134.29   26.80
  -6  -4  -9  122.69   24.10
   6   4   9  184.18   32.30
  -7  -4  -9  337.07   40.00
  -7  -4  -9  296.67   40.80
   7   4   9  295.07   37.40
  -8  -4  -9   -9.90   12.80
  -8  -4  -9   15.10   13.20
   8   4   9  -26.30   15.50
  -9  -4  -9  292.27   42.30
  -9  -4  -9  293.97   41.80
   9   4   9  243.58   37.40
   0  -5  -9  121.69   24.50
   0  -5  -9   77.59   15.90
   0  -5  -9   49.30   20.00
   0   5   9  115.09   27.70
  -1  -5  -9  227.28   17.60
  -1  -5  -9  166.58   28.80
  -1  -5  -9  221.98   31.60
  -1  -5  -9  196.68   16.60
  -2  -5  -9   21.20   13.70
  -2  -5  -9   22.60   15.00
  -2  -5  -9   23.00    3.70
  -2  -5  -9   20.70    3.30
   2   5   9   33.80   16.00
  -3  -5  -9  465.15   40.60
  -3  -5  -9  427.46   27.90
  -3  -5  -9  502.15   41.50
  -4  -5  -9   41.50   17.20
  -4  -5  -9   81.39   17.00
  -4  -5  -9   61.99   19.00
   4   5   9   68.19   15.10
  -5  -5  -9  570.64   45.80
  -5  -5  -9  503.65   37.70
   5   5   9  628.54   40.20
  -6  -5  -9   33.80   16.90
  -6  -5  -9   24.80   17.30
   6   5   9   18.20   14.90
  -7  -5  -9  293.17   37.80
  -7  -5  -9  269.37   37.70
   7   5   9  187.28   29.10
  -8  -5  -9   27.60   16.70
  -8  -5  -9   19.80   20.50
   8   5   9   23.70   19.40
   0  -6  -9   11.80   15.60
  -1  -6  -9  438.56   38.40
  -1  -6  -9  386.76   26.20
  -1  -6  -9  378.36   25.80
  -1  -6  -9  326.67   41.30
  -2  -6  -9   18.20   12.90
  -2  -6  -9   24.30   14.50
  -2  -6  -9   21.70    7.10
  -2  -6  -9   19.80    6.10
  -3  -6  -9  243.48   33.80
  -3  -6  -9  209.58   31.70
  -3  -6  -9  258.17   21.90
  -4  -6  -9  137.59   21.80
  -4  -6  -9  147.89   28.20
  -4  -6  -9  170.28   28.80
  -5  -6  -9  600.74   46.90
  -5  -6  -9  545.15   41.30
   5   6   9  579.94   39.80
  -6  -6  -9   64.09   21.10
  -6  -6  -9   51.09   16.20
  -7  -6  -9  589.44   45.80
  -7  -6  -9  561.04   50.49
   7   6   9  587.14   44.90
  -8  -6  -9  187.68   31.00
  -8  -6  -9  255.47   41.20
   8   6   9  243.58   53.19
  -2  -7  -9   22.20   14.00
  -2  -7  -9    2.60   14.80
  -2  -7  -9    4.40    6.80
  -2  -7  -9   12.10    6.20
  -2  -7  -9   25.00    8.10
  -3  -7  -9  212.68   13.50
  -3  -7  -9  207.98   31.10
  -3  -7  -9  227.98   20.90
  -3  -7  -9  237.48   33.10
  -4  -7  -9   53.29   19.40
  -4  -7  -9   49.30   17.30
  -4  -7  -9   44.80   13.80
  -5  -7  -9   91.59   23.40
  -5  -7  -9  104.49   23.80
  -5  -7  -9  111.29   21.00
  -6  -7  -9  161.98   30.80
  -6  -7  -9  123.39   23.90
  -7  -7  -9   64.49   18.80
   7   7   9   39.10   16.90
  -8  -7  -9   90.79   27.50
  -8  -7  -9  101.39   25.30
   8   7   9  123.39   25.50
  -4  -8  -9  155.58   21.80
  -4  -8  -9  214.48   33.10
  -4  -8  -9  126.39   26.90
  -4  -8  -9  133.19   16.00
  -5  -8  -9  168.28   29.50
  -5  -8  -9   84.79   22.20
  -5  -8  -9  111.09   20.40
  -6  -8  -9  513.35   45.30
  -6  -8  -9  564.04   43.30
   0   2 -10   39.60   18.80
   0   2 -10    1.80   15.40
   0   2 -10   22.00   11.20
   0  -2  10    4.80   11.00
  -1   2 -10  471.85   43.40
  -1   2 -10  535.85   49.70
   1  -2  10  492.15   64.49
   1  -2  10  500.25   34.30
   1  -2  10  479.05   38.10
  -2   2 -10  266.97   40.40
  -2   2 -10  254.37   37.40
   2  -2  10  272.57   34.20
   2  -2  10  265.47   24.70
   2  -2  10  231.78   37.40
  -3   2 -10  522.05   47.30
  -3   2 -10  410.26   71.49
   3  -2  10  510.85   31.30
   3  -2  10  475.95   54.29
   3  -2  10  447.36   40.90
  -4   2 -10   86.79   28.90
   4  -2  10  147.79   40.20
   4  -2  10  165.48   33.80
   0   1 -10  873.01   63.19
   0   1 -10  834.82   43.10
   0   1 -10  872.71   60.09
   0  -1  10  858.71   42.70
  -1   1 -10  234.08   43.00
  -1   1 -10  153.38   20.00
  -1   1 -10  226.08   36.30
   1  -1  10  207.78   35.20
  -2   1 -10  348.47   43.00
  -2   1 -10  337.87   43.80
   2  -1  10  320.97   43.50
   2  -1  10  339.07   31.00
  -3   1 -10   13.70   16.00
  -3   1 -10   16.30   16.30
   3  -1  10    8.00   16.60
   3  -1  10   27.30    8.00
  -4   1 -10  167.08   32.60
   4  -1  10  188.38   30.70
   4  -1  10  182.98   15.20
   4  -1  10  224.48   37.40
  -5   1 -10   27.00   19.80
   5  -1  10   32.60    8.70
   5  -1  10   43.30   19.90
   1   0 -10  129.79   29.00
   1   0 -10  117.09   27.40
   1   0 -10  129.89   20.50
  -1   0  10   92.29   25.80
   0   0 -10   59.59   12.90
   0   0 -10   76.79   22.10
   0   0 -10   82.49   23.70
   0   0  10  117.99   26.50
   0   0  10   89.49   13.00
  -1   0 -10  109.19   26.90
  -1   0 -10   89.79   12.70
  -1   0 -10   92.49   24.80
   1   0  10   77.19   14.90
   1   0  10   93.79   25.10
  -2   0 -10  318.37   40.80
  -2   0 -10  301.17   39.50
   2   0  10  358.46   45.90
   2   0  10  288.37   27.30
  -3   0 -10   70.99   23.00
  -3   0 -10   41.60   18.40
   3   0  10   65.89   16.80
   3   0  10  101.59   25.70
  -4   0 -10  589.14   49.99
   4   0  10  573.04   50.99
  -5   0 -10   58.49   21.20
   5   0  10  122.99   27.50
   5   0  10   86.19   21.30
  -6   0 -10  502.85   58.99
   6   0  10  469.15   47.20
   6   0  10  422.06   42.10
   1  -1 -10  125.89   30.40
   1  -1 -10  163.88   21.00
  -1   1  10  158.38   31.40
   0  -1 -10  317.87   22.70
   0  -1 -10  255.97   38.30
   0  -1 -10  288.77   39.80
   0   1  10  294.47   12.40
   0   1  10  311.57   43.20
  -1  -1 -10  113.39   26.40
  -1  -1 -10  123.59   11.80
  -1  -1 -10  142.59   27.50
   1   1  10  122.89   15.90
   1   1  10  179.28   31.10
  -2  -1 -10  235.78   35.90
  -2  -1 -10  281.57   38.70
   2   1  10  274.87   24.10
  -3  -1 -10   31.90   15.20
  -3  -1 -10   21.20   15.70
   3   1  10   -6.10   14.90
  -4  -1 -10  709.23   53.19
   4   1  10  684.33   44.10
  -5  -1 -10   32.10   16.40
   5   1  10   19.80   11.80
   5   1  10   37.60   17.70
  -6  -1 -10  255.57   37.20
   6   1  10  230.58   32.10
   6   1  10  243.98   38.40
  -7  -1 -10  191.08   33.90
   7   1  10  112.49   25.30
   1  -2 -10   -9.00   13.00
   0  -2 -10  715.33   33.10
   0  -2 -10  680.63   52.89
   0   2  10  709.33   54.19
  -1  -2 -10   -5.30   12.10
  -1  -2 -10   -4.20    3.80
  -1  -2 -10   14.80   13.80
   1   2  10    0.60    6.80
   1   2  10  -28.00   14.90
  -2  -2 -10  816.72   56.89
  -2  -2 -10  815.72   57.49
   2   2  10  788.52   56.69
   2   2  10  803.82   37.40
  -3  -2 -10    2.70   14.20
  -3  -2 -10   34.80   18.30
   3   2  10   14.20    9.30
  -4  -2 -10  209.68   33.90
   4   2  10  235.58   41.40
   4   2  10  244.08   29.20
  -5  -2 -10   95.59   24.50
   5   2  10  138.39   30.70
  -6  -2 -10  700.43   53.89
   6   2  10  702.63   49.60
  -7  -2 -10  -13.20   17.90
   7   2  10   -4.90   13.60
   0  -3 -10  324.27   44.40
   0  -3 -10  285.07   38.00
   0  -3 -10  273.47   20.50
  -1  -3 -10   76.09   20.40
  -1  -3 -10   54.39   20.60
  -1  -3 -10   48.20    6.20
   1   3  10   34.70   18.00
  -2  -3 -10  339.57   42.50
  -2  -3 -10  401.06   41.20
   2   3  10  406.86   47.40
   2   3  10  346.27   22.40
  -3  -3 -10   18.20   12.60
  -3  -3 -10    3.00   12.30
   3   3  10   18.70   15.80
   3   3  10   23.00    9.30
  -4  -3 -10  164.68   30.30
  -4  -3 -10  107.99   25.60
   4   3  10   85.99   18.70
   4   3  10  141.19   28.50
  -5  -3 -10  139.99   25.10
  -5  -3 -10  184.48   31.80
   5   3  10  103.69   21.50
  -6  -3 -10  199.58   30.40
  -6  -3 -10  244.18   36.60
   6   3  10  222.98   32.10
  -7  -3 -10   19.10   15.30
   7   3  10   13.30   11.80
   0  -4 -10  181.38   34.30
  -1  -4 -10   93.19    8.80
  -1  -4 -10   54.49   20.20
   1   4  10  101.59   21.40
  -2  -4 -10  253.17   38.90
  -2  -4 -10  274.07   38.40
   2   4  10  254.07   37.10
  -3  -4 -10    8.80   16.40
  -3  -4 -10   35.40   18.50
   3   4  10   -1.90   11.50
   3   4  10   52.79   11.80
  -4  -4 -10  448.16   44.50
  -4  -4 -10  455.65   43.20
  -4  -4 -10  373.86   31.20
   4   4  10  400.86   31.20
   4   4  10  418.76   42.90
  -5  -4 -10   18.00   14.30
  -5  -4 -10    5.30   11.20
   5   4  10   11.00   10.80
  -6  -4 -10  132.59   25.80
  -6  -4 -10   91.69   24.80
   6   4  10   96.99   24.50
  -7  -4 -10  266.87   41.40
  -7  -4 -10  243.28   34.30
   7   4  10  247.08   33.90
  -1  -5 -10   40.30   19.90
  -1  -5 -10   46.00   11.30
  -1  -5 -10   40.40    8.40
  -1  -5 -10   93.69   24.80
   1   5  10   42.80   17.10
  -2  -5 -10  467.45   47.10
  -2  -5 -10  407.26   40.40
   2   5  10  444.06   41.50
  -3  -5 -10   29.70   17.20
  -3  -5 -10   30.40   15.60
  -4  -5 -10  398.46   47.20
  -4  -5 -10  360.26   29.00
  -4  -5 -10  283.37   38.50
   4   5  10  354.06   28.00
  -5  -5 -10   -7.20   10.50
  -5  -5 -10    1.50   10.70
  -5  -5 -10   -9.60   10.90
   5   5  10   13.40   11.80
  -6  -5 -10  183.28   29.60
  -6  -5 -10  183.58   31.90
  -7  -5 -10   72.39   24.30
  -7  -5 -10   78.99   21.30
   7   5  10   64.29   19.20
  -3  -6 -10  298.67   22.20
  -3  -6 -10  373.06   47.30
  -3  -6 -10  319.27   38.80
  -4  -6 -10  354.56   44.00
  -4  -6 -10  322.97   41.10
  -4  -6 -10  364.36   29.60
  -5  -6 -10  419.06   49.99
  -5  -6 -10  362.16   32.90
  -5  -6 -10  373.66   45.30
   5   6  10  362.56   32.40
  -6  -6 -10   54.49   34.10
  -6  -6 -10   83.69   22.70
   6   6  10  117.29   22.90
  -7  -6 -10   75.29   22.40
  -7  -6 -10   49.50   20.90
   7   6  10   20.90   14.10
  -2  -1 -11   59.69   23.10
  -2  -1 -11   62.19   22.90
   2   1  11   72.69   14.90
  -3  -1 -11  239.78   38.80
  -3  -1 -11  247.88   39.60
   3   1  11  298.37   28.10
  -4  -1 -11   46.60   21.90
  -4  -1 -11   22.50   17.70
  -2  -2 -11  -10.20   14.80
  -2  -2 -11  -15.90   12.70
   2   2  11   12.70    8.20
  -3  -2 -11  119.79   29.60
  -3  -2 -11  151.48   31.50
   3   2  11  163.68   33.90
   3   2  11  123.99   21.20
  -4  -2 -11   22.70   18.40
  -4  -2 -11   46.30   20.20
   4   2  11   30.00   14.00
  -5  -2 -11   41.60   18.70
   5   2  11   78.79   19.20
  -3  -3 -11  626.74   53.49
  -3  -3 -11  626.04   53.89
   3   3  11  648.64   35.70
   3   3  11  598.74   54.39
  -4  -3 -11   13.50   16.00
  -4  -3 -11   27.60   18.50
   4   3  11   21.00   12.10
   4   3  11   10.80   18.70
  -5  -3 -11  718.53   55.89
  -4  -4 -11  171.18   34.10
  -4  -4 -11  188.18   34.70
   4   4  11  141.99   26.90
  -5  -4 -11    0.60   13.10
  -5  -4 -11    5.50   15.10
   5   4  11   20.90   14.60
   0   0   0    0.00    0.00

_computing_structure_solution     'SHELXT 2014/5 (Sheldrick, 2014)'
;
_shelx_hkl_checksum              14061
loop_
_space_group_symop_operation_xyz
'x, y, z'
'-x, -y, -z'
loop_
_atom_site_type_symbol
_atom_site_label
_atom_site_fract_x
_atom_site_fract_y
_atom_site_fract_z
_atom_site_U_iso_or_equiv
_atom_site_adp_type
_atom_site_calc_flag
_atom_site_refinement_flags_adp
_atom_site_refinement_flags_occupancy
_atom_site_refinement_flags_posn
_atom_site_occupancy
_atom_site_disorder_assembly
_atom_site_disorder_group
Br Br1 0.23935(3) 0.97392(2) 0.21046(2) 0.01792(7) Uani d . . . 1 . .
O O1 -0.09574(18) 0.67584(19) 0.35473(17) 0.0219(3) Uani d . . . 1 . .
O O2 0.19711(16) 0.60753(17) 0.24406(15) 0.0138(3) Uani d . . . 1 . .
C C1 0.4540(3) 0.2930(2) 0.3057(2) 0.0151(4) Uani d . . . 1 . .
H H1 0.333893 0.303354 0.362261 0.018 Uiso calc U . R 1 . .
C C2 0.5827(3) 0.1344(2) 0.2860(2) 0.0171(4) Uani d . . . 1 . .
H H2 0.550946 0.036683 0.330015 0.021 Uiso calc U . R 1 . .
C C3 0.7588(3) 0.1179(3) 0.2016(2) 0.0177(4) Uani d . . . 1 . .
H H3 0.847518 0.009294 0.186995 0.021 Uiso calc U . R 1 . .
C C4 0.8031(3) 0.2611(3) 0.1394(2) 0.0164(4) Uani d . . . 1 . .
H H4 0.923218 0.249419 0.081454 0.02 Uiso calc U . R 1 . .
C C5 0.6758(2) 0.4232(2) 0.1594(2) 0.0129(4) Uani d . . . 1 . .
C C6 0.4986(2) 0.4384(2) 0.2434(2) 0.0122(4) Uani d . . . 1 . .
C C7 0.7328(2) 0.5750(2) 0.0919(2) 0.0152(4) Uani d . . . 1 . .
H H7A 0.754803 0.590468 -0.026967 0.018 Uiso calc U . R 1 . .
H H7B 0.845847 0.554102 0.113805 0.018 Uiso calc U . R 1 . .
C C8 0.5943(2) 0.7365(2) 0.1642(2) 0.0143(4) Uani d . . . 1 . .
H H8A 0.593139 0.734736 0.276972 0.017 Uiso calc U . R 1 . .
H H8B 0.623527 0.835853 0.100389 0.017 Uiso calc U . R 1 . .
C C9 0.4137(2) 0.7470(2) 0.1611(2) 0.0129(4) Uani d . . . 1 . .
H H9 0.424514 0.729812 0.049073 0.015 Uiso calc U . R 1 . .
C C10 0.3526(2) 0.6099(2) 0.2775(2) 0.0120(4) Uani d . . . 1 . .
C C11 0.2869(2) 0.6390(2) 0.4596(2) 0.0142(4) Uani d . . . 1 . .
H H11A 0.328503 0.532061 0.525932 0.017 Uiso calc U . R 1 . .
H H11B 0.330827 0.721876 0.477926 0.017 Uiso calc U . R 1 . .
C C12 0.0843(2) 0.7067(3) 0.5020(2) 0.0164(4) Uani d . . . 1 . .
H H12A 0.031146 0.651097 0.606518 0.02 Uiso calc U . R 1 . .
H H12B 0.037115 0.830035 0.509187 0.02 Uiso calc U . R 1 . .
C C13 0.0452(3) 0.6652(2) 0.3658(2) 0.0154(4) Uani d . . . 1 . .
loop_
_atom_site_aniso_label
_atom_site_aniso_U_11
_atom_site_aniso_U_22
_atom_site_aniso_U_33
_atom_site_aniso_U_12
_atom_site_aniso_U_13
_atom_site_aniso_U_23
Br1 0.01673(11) 0.01156(10) 0.02045(11) -0.00192(7) -0.00354(7) -0.00028(7)
O1 0.0128(7) 0.0269(8) 0.0263(8) -0.0080(6) -0.0054(6) -0.0016(6)
O2 0.0106(6) 0.0175(7) 0.0147(6) -0.0044(5) -0.0044(5) -0.0037(5)
C1 0.0164(9) 0.0178(10) 0.0125(9) -0.0071(8) -0.0041(7) -0.0020(7)
C2 0.0234(10) 0.0131(10) 0.0172(9) -0.0074(8) -0.0084(8) -0.0002(7)
C3 0.0205(10) 0.0132(10) 0.0174(9) 0.0012(8) -0.0089(8) -0.0049(7)
C4 0.0135(9) 0.0193(10) 0.0155(9) -0.0019(8) -0.0057(7) -0.0046(7)
C5 0.0147(9) 0.0156(10) 0.0099(8) -0.0047(8) -0.0055(7) -0.0017(7)
C6 0.0143(9) 0.0130(9) 0.0100(8) -0.0037(7) -0.0051(7) -0.0020(7)
C7 0.0126(9) 0.0169(10) 0.0153(9) -0.0054(8) -0.0021(7) -0.0026(7)
C8 0.0141(9) 0.0135(9) 0.0164(9) -0.0060(8) -0.0040(7) -0.0016(7)
C9 0.0134(9) 0.0096(9) 0.0128(9) -0.0014(7) -0.0034(7) -0.0007(7)
C10 0.0108(8) 0.0153(9) 0.0121(8) -0.0056(7) -0.0043(7) -0.0017(7)
C11 0.0155(9) 0.0160(10) 0.0106(8) -0.0049(8) -0.0028(7) -0.0028(7)
C12 0.0143(9) 0.0178(10) 0.0142(9) -0.0049(8) -0.0003(7) -0.0036(7)
C13 0.0138(9) 0.0120(9) 0.0171(9) -0.0036(7) -0.0028(7) 0.0006(7)
loop_
_atom_type_symbol
_atom_type_description
_atom_type_scat_dispersion_real
_atom_type_scat_dispersion_imag
_atom_type_scat_source
C C 0.0033 0.0016 'International Tables Vol C Tables 4.2.6.8 and 6.1.1.4'
H H 0.0000 0.0000 'International Tables Vol C Tables 4.2.6.8 and 6.1.1.4'
Br Br -0.2901 2.4595 'International Tables Vol C Tables 4.2.6.8 and 6.1.1.4'
O O 0.0106 0.0060 'International Tables Vol C Tables 4.2.6.8 and 6.1.1.4'
loop_
_geom_angle_atom_site_label_1
_geom_angle_atom_site_label_2
_geom_angle_atom_site_label_3
_geom_angle_site_symmetry_1
_geom_angle_site_symmetry_3
_geom_angle
_geom_angle_publ_flag
C13 O2 C10 . . 112.04(14) ?
C2 C1 C6 . . 120.79(18) ?
C2 C1 H1 . . 119.6 ?
C6 C1 H1 . . 119.6 ?
C1 C2 C3 . . 120.03(18) ?
C1 C2 H2 . . 120.0 ?
C3 C2 H2 . . 120.0 ?
C4 C3 C2 . . 119.32(18) ?
C4 C3 H3 . . 120.3 ?
C2 C3 H3 . . 120.3 ?
C3 C4 C5 . . 121.81(18) ?
C3 C4 H4 . . 119.1 ?
C5 C4 H4 . . 119.1 ?
C4 C5 C6 . . 118.42(17) ?
C4 C5 C7 . . 119.44(17) ?
C6 C5 C7 . . 122.14(17) ?
C1 C6 C5 . . 119.63(17) ?
C1 C6 C10 . . 118.34(16) ?
C5 C6 C10 . . 121.95(16) ?
C5 C7 C8 . . 112.69(15) ?
C5 C7 H7A . . 109.1 ?
C8 C7 H7A . . 109.1 ?
C5 C7 H7B . . 109.1 ?
C8 C7 H7B . . 109.1 ?
H7A C7 H7B . . 107.8 ?
C9 C8 C7 . . 108.26(15) ?
C9 C8 H8A . . 110.0 ?
C7 C8 H8A . . 110.0 ?
C9 C8 H8B . . 110.0 ?
C7 C8 H8B . . 110.0 ?
H8A C8 H8B . . 108.4 ?
C8 C9 C10 . . 111.41(15) ?
C8 C9 Br1 . . 109.68(12) ?
C10 C9 Br1 . . 111.32(12) ?
C8 C9 H9 . . 108.1 ?
C10 C9 H9 . . 108.1 ?
Br1 C9 H9 . . 108.1 ?
O2 C10 C9 . . 107.77(14) ?
O2 C10 C6 . . 107.44(14) ?
C9 C10 C6 . . 109.26(14) ?
O2 C10 C11 . . 104.42(14) ?
C9 C10 C11 . . 115.44(15) ?
C6 C10 C11 . . 112.03(15) ?
C12 C11 C10 . . 104.97(15) ?
C12 C11 H11A . . 110.8 ?
C10 C11 H11A . . 110.8 ?
C12 C11 H11B . . 110.8 ?
C10 C11 H11B . . 110.8 ?
H11A C11 H11B . . 108.8 ?
C13 C12 C11 . . 104.58(15) ?
C13 C12 H12A . . 110.8 ?
C11 C12 H12A . . 110.8 ?
C13 C12 H12B . . 110.8 ?
C11 C12 H12B . . 110.8 ?
H12A C12 H12B . . 108.9 ?
O1 C13 O2 . . 120.31(18) ?
O1 C13 C12 . . 128.93(18) ?
O2 C13 C12 . . 110.76(16) ?
loop_
_geom_bond_atom_site_label_1
_geom_bond_atom_site_label_2
_geom_bond_site_symmetry_2
_geom_bond_distance
_geom_bond_publ_flag
Br1 C9 . 1.9745(18) ?
O1 C13 . 1.207(2) ?
O2 C13 . 1.361(2) ?
O2 C10 . 1.464(2) ?
C1 C2 . 1.384(3) ?
C1 C6 . 1.399(3) ?
C1 H1 . 0.95 ?
C2 C3 . 1.394(3) ?
C2 H2 . 0.95 ?
C3 C4 . 1.380(3) ?
C3 H3 . 0.95 ?
C4 C5 . 1.401(3) ?
C4 H4 . 0.95 ?
C5 C6 . 1.403(3) ?
C5 C7 . 1.508(3) ?
C6 C10 . 1.528(3) ?
C7 C8 . 1.527(3) ?
C7 H7A . 0.99 ?
C7 H7B . 0.99 ?
C8 C9 . 1.518(3) ?
C8 H8A . 0.99 ?
C8 H8B . 0.99 ?
C9 C10 . 1.524(3) ?
C9 H9 . 1.0 ?
C10 C11 . 1.552(2) ?
C11 C12 . 1.527(3) ?
C11 H11A . 0.99 ?
C11 H11B . 0.99 ?
C12 C13 . 1.499(3) ?
C12 H12A . 0.99 ?
C12 H12B . 0.99 ?
loop_
_geom_torsion_atom_site_label_1
_geom_torsion_atom_site_label_2
_geom_torsion_atom_site_label_3
_geom_torsion_atom_site_label_4
_geom_torsion_site_symmetry_1
_geom_torsion_site_symmetry_2
_geom_torsion_site_symmetry_3
_geom_torsion_site_symmetry_4
_geom_torsion
_geom_torsion_publ_flag
C6 C1 C2 C3 . . . . -0.8(3) ?
C1 C2 C3 C4 . . . . 0.5(3) ?
C2 C3 C4 C5 . . . . 0.3(3) ?
C3 C4 C5 C6 . . . . -0.8(3) ?
C3 C4 C5 C7 . . . . 178.67(17) ?
C2 C1 C6 C5 . . . . 0.2(3) ?
C2 C1 C6 C10 . . . . -176.51(17) ?
C4 C5 C6 C1 . . . . 0.5(3) ?
C7 C5 C6 C1 . . . . -178.94(17) ?
C4 C5 C6 C10 . . . . 177.17(16) ?
C7 C5 C6 C10 . . . . -2.3(3) ?
C4 C5 C7 C8 . . . . -163.20(16) ?
C6 C5 C7 C8 . . . . 16.3(2) ?
C5 C7 C8 C9 . . . . -47.0(2) ?
C7 C8 C9 C10 . . . . 67.94(19) ?
C7 C8 C9 Br1 . . . . -168.34(12) ?
C13 O2 C10 C9 . . . . -110.31(16) ?
C13 O2 C10 C6 . . . . 132.06(15) ?
C13 O2 C10 C11 . . . . 12.93(19) ?
C8 C9 C10 O2 . . . . -168.95(14) ?
Br1 C9 C10 O2 . . . . 68.27(16) ?
C8 C9 C10 C6 . . . . -52.50(19) ?
Br1 C9 C10 C6 . . . . -175.28(12) ?
C8 C9 C10 C11 . . . . 74.8(2) ?
Br1 C9 C10 C11 . . . . -47.97(19) ?
C1 C6 C10 O2 . . . . -46.9(2) ?
C5 C6 C10 O2 . . . . 136.47(17) ?
C1 C6 C10 C9 . . . . -163.52(16) ?
C5 C6 C10 C9 . . . . 19.8(2) ?
C1 C6 C10 C11 . . . . 67.3(2) ?
C5 C6 C10 C11 . . . . -109.40(19) ?
O2 C10 C11 C12 . . . . -17.67(18) ?
C9 C10 C11 C12 . . . . 100.46(18) ?
C6 C10 C11 C12 . . . . -133.64(16) ?
C10 C11 C12 C13 . . . . 16.20(19) ?
C10 O2 C13 O1 . . . . 177.85(17) ?
C10 O2 C13 C12 . . . . -2.6(2) ?
C11 C12 C13 O1 . . . . 170.4(2) ?
C11 C12 C13 O2 . . . . -9.1(2) ?
