#------------------------------------------------------------------------------
#$Date: 2021-05-17 10:22:23 +0300 (Mon, 17 May 2021) $
#$Revision: 265263 $
#$URL: file:///home/coder/svn-repositories/cod/cif/1/56/25/1562576.cif $
#------------------------------------------------------------------------------
#
# This file is available in the Crystallography Open Database (COD),
# http://www.crystallography.net/
#
# All data on this site have been placed in the public domain by the
# contributors.
#
data_1562576
loop_
_publ_author_name
'Liu, Samuel'
'Blanchard, Peter E.R.'
'Avdeev, Maxim'
'Kennedy, Brendan J.'
'Ling, Chris D.'
_publ_section_title
;
 Designing new n=2 Sillen--Aurivillius phases by lattice-matched
 substitutions in the halide and [Bi2O2]2+ layers
;
_journal_name_full               'Journal of Solid State Chemistry'
_journal_page_first              165
_journal_page_last               170
_journal_paper_doi               10.1016/j.jssc.2013.07.004
_journal_volume                  205
_journal_year                    2013
_chemical_formula_sum            'Bi3 Br Nb2 O11 Sr2'
_chemical_formula_weight         1243.89
_space_group_IT_number           123
_space_group_name_Hall           '-P 4 2'
_space_group_name_H-M_alt        'P 4/m m m'
_symmetry_cell_setting           tetragonal
_symmetry_space_group_name_H-M   'P 4/m m m'
_cell_angle_alpha                90.0
_cell_angle_beta                 90.0
_cell_angle_gamma                90.0
_cell_formula_units_Z            1
_cell_length_a                   3.92306(7)
_cell_length_b                   3.92306
_cell_length_c                   18.6066(6)
_cell_volume                     286.363(11)
_computing_structure_refinement  GSAS
_diffrn_radiation_probe          neutron
_diffrn_radiation_wavelength     2.4395
_exptl_absorpt_correction_T_max  0.06418
_exptl_absorpt_correction_T_min  0.00334
_exptl_absorpt_process_details
;   GSAS Absorption/surface roughness correction: function number 0
 Debye-Scherrer absorption correction
Term (= MU.r/wave) =      2.0000    
Correction is not refined.
;
_pd_calc_method                  'Rietveld Refinement'
_pd_meas_2theta_range_inc        0.05
_pd_meas_2theta_range_max        163.95
_pd_meas_2theta_range_min        2.75
_pd_meas_number_of_points        3225
_pd_proc_2theta_range_inc        0.05
_pd_proc_2theta_range_max        163.6741
_pd_proc_2theta_range_min        2.4741
_pd_proc_info_datetime           2013-06-03T12:11:39
_pd_proc_ls_background_function
;   GSAS Background function number 1 with 10 terms.
 Shifted Chebyshev function of 1st kind
      1:    450.410     2:    86.2552     3:    24.0147     4:   -8.44090    
      5:    22.9623     6:    1.40729     7:    3.88320     8:    6.64076    
      9:    8.52413    10:    4.06065    
;
_pd_proc_ls_prof_R_factor        0.0557
_pd_proc_ls_prof_wR_expected     0.0370
_pd_proc_ls_prof_wR_factor       0.0759
_pd_proc_number_of_points        3225
_refine_ls_goodness_of_fit_all   2.07
_refine_ls_matrix_type           full
_refine_ls_number_parameters     56
_refine_ls_number_restraints     0
_refine_ls_R_Fsqd_factor         0.06345
_refine_ls_shift/su_max          0.04
_refine_ls_shift/su_mean         0.01
_reflns_d_resolution_high        1.251
_reflns_d_resolution_low         12.553
_reflns_limit_h_max              4
_reflns_limit_h_min              0
_reflns_limit_k_max              4
_reflns_limit_k_min              0
_reflns_limit_l_max              20
_reflns_limit_l_min              0
_reflns_number_total             205
_cod_data_source_file            JSSC-2013-205-165.cif
_cod_data_source_block           SRBR300K
_cod_depositor_comments
;
The following automatic conversions were performed:

data item '_geom_angle_publ_flag' value 'N' was changed to 'n' in
accordance with the built-in table derived from the CIF Core
dictionary named 'cif_core.dic' version 2.4.5 last updated on
2014-11-21 (539 times).

data item '_geom_bond_publ_flag' value 'N' was changed to 'n' in
accordance with the built-in table derived from the CIF Core
dictionary named 'cif_core.dic' version 2.4.5 last updated on
2014-11-21 (180 times).

Automatic conversion script
Id: cif_fix_values 8369 2020-08-20 11:38:08Z andrius 
;
_cod_original_cell_volume        286.364(16)
_cod_original_formula_sum        'Bi3.00 Br Nb2 O11 Sr2.00'
_cod_database_code               1562576
_gsas_exptl_extinct_corr_t_min   1.00000
_gsas_exptl_extinct_corr_t_max   1.00000
loop_
_symmetry_equiv_pos_site_id
_symmetry_equiv_pos_as_xyz
1 +x,+y,+z
2 -y,+x,+z
3 -x,-y,+z
4 +y,-x,+z
5 -x,+y,+z
6 -y,-x,+z
7 +x,-y,+z
8 +y,+x,+z
-1 -x,-y,-z
-2 +y,-x,-z
-3 +x,+y,-z
-4 -y,+x,-z
-5 +x,-y,-z
-6 +y,+x,-z
-7 -x,+y,-z
-8 -y,-x,-z
loop_
_atom_site_aniso_label
_atom_site_aniso_U_11
_atom_site_aniso_U_12
_atom_site_aniso_U_13
_atom_site_aniso_U_22
_atom_site_aniso_U_23
_atom_site_aniso_U_33
Bi1 0.121(4) 0.0 0.0 0.121(4) 0.0 0.123(6)
Bi2 0.1009(31) 0.0 0.0 0.1009(31) 0.0 0.133(5)
Sr1 0.1009(31) 0.0 0.0 0.1009(31) 0.0 0.133(5)
Bi3 0.0701(20) 0.0 0.0 0.0701(20) 0.0 0.0780(31)
Sr2 0.0701(20) 0.0 0.0 0.0701(20) 0.0 0.0780(31)
Nb1 0.0593(21) 0.0 0.0 0.0593(21) 0.0 0.075(4)
Br1 0.062(5) 0.0 0.0 0.062(5) 0.0 0.136(8)
O1 0.121(6) 0.0 0.0 0.121(6) 0.0 0.116(9)
O2 0.107(4) 0.0 0.0 0.146(4) 0.0 0.109(4)
O3 0.099(4) 0.0 0.0 0.099(4) 0.0 0.072(5)
O4 0.066(4) 0.0 0.0 0.094(4) 0.0 0.0765(33)
loop_
_atom_site_type_symbol
_atom_site_label
_atom_site_fract_x
_atom_site_fract_y
_atom_site_fract_z
_atom_site_occupancy
_atom_site_thermal_displace_type
_atom_site_U_iso_or_equiv
_atom_site_symmetry_multiplicity
Bi Bi1 0.0 0.0 0.0 1.0 Uani 0.12145 1
Bi Bi2 0.0 0.0 0.25822(33) 0.5 Uani 0.11168 2
Sr Sr1 0.0 0.0 0.25822(33) 0.5 Uani 0.11168 2
Bi Bi3 0.5 0.5 0.38873(25) 0.5 Uani 0.07275 2
Sr Sr2 0.5 0.5 0.38873(25) 0.5 Uani 0.07275 2
Nb Nb1 0.5 0.5 0.11359(28) 1.0 Uani 0.06454 2
Br Br1 0.0 0.0 0.5 1.0 Uani 0.0864 1
O- O1 0.5 0.5 0.0 1.0 Uani 0.11918 1
O- O2 0.0 0.5 0.1064(4) 1.0 Uani 0.12045 4
O- O3 0.5 0.5 0.21358(31) 1.0 Uani 0.09005 2
O- O4 0.0 0.5 0.33072(22) 1.0 Uani 0.07883 4
loop_
_atom_type_symbol
_atom_type_scat_length_neutron
_atom_type_scat_source
Bi+3 0.8532 International_Tables_Vol_C
Sr+2 0.7020 International_Tables_Vol_C
Nb+5 0.7054 International_Tables_Vol_C
Br-1 0.6795 International_Tables_Vol_C
O-2 0.5803 International_Tables_Vol_C
loop_
_geom_angle_atom_site_label_1
_geom_angle_atom_site_label_2
_geom_angle_atom_site_label_3
_geom_angle
_geom_angle_site_symmetry_1
_geom_angle_site_symmetry_2
_geom_angle_site_symmetry_3
_geom_angle_publ_flag
Sr2 Bi2 Sr2 64.29(10) 1_445 . 1_455 n
Sr2 Bi2 Sr2 64.29(10) 1_445 . 1_545 n
Sr2 Bi2 Sr2 97.60(19) 1_445 . 1_555 n
Sr2 Bi2 O4 35.74(7) 1_445 . 1_545 n
Sr2 Bi2 O4 93.73(20) 1_445 . 1_555 n
Sr2 Bi2 O4 35.74(7) 1_445 . 2_555 n
Sr2 Bi2 O4 93.73(20) 1_445 . 2_655 n
Sr2 Bi2 Sr2 97.60(19) 1_455 . 1_545 n
Sr2 Bi2 Sr2 64.29(10) 1_455 . 1_555 n
Sr2 Bi2 O4 93.73(20) 1_455 . 1_545 n
Sr2 Bi2 O4 35.74(7) 1_455 . 1_555 n
Sr2 Bi2 O4 35.74(7) 1_455 . 2_555 n
Sr2 Bi2 O4 93.73(20) 1_455 . 2_655 n
Sr2 Bi2 Sr2 64.29(10) 1_545 . 1_555 n
Sr2 Bi2 O4 35.74(7) 1_545 . 1_545 n
Sr2 Bi2 O4 93.73(20) 1_545 . 1_555 n
Sr2 Bi2 O4 93.73(20) 1_545 . 2_555 n
Sr2 Bi2 O4 35.74(7) 1_545 . 2_655 n
Sr2 Bi2 O4 93.73(20) 1_555 . 1_545 n
Sr2 Bi2 O4 35.74(7) 1_555 . 1_555 n
Sr2 Bi2 O4 93.73(20) 1_555 . 2_555 n
Sr2 Bi2 O4 35.74(7) 1_555 . 2_655 n
O4 Bi2 O4 110.96(32) 1_545 . 1_555 n
O4 Bi2 O4 71.27(16) 1_545 . 2_555 n
O4 Bi2 O4 71.27(16) 1_545 . 2_655 n
O4 Bi2 O4 71.27(16) 1_555 . 2_555 n
O4 Bi2 O4 71.27(16) 1_555 . 2_655 n
O4 Bi2 O4 110.96(32) 2_555 . 2_655 n
Sr1 Sr1 Sr1 90.0 1_455 . 1_545 n
Sr1 Sr1 Sr1 90.0 1_455 . 1_565 n
Sr1 Sr1 Sr1 180.0 1_455 . 1_655 n
Sr1 Sr1 Bi3 57.86(5) 1_455 . 1_445 n
Sr1 Sr1 Bi3 57.86(5) 1_455 . 1_455 n
Sr1 Sr1 Bi3 122.14(5) 1_455 . 1_545 n
Sr1 Sr1 Bi3 122.14(5) 1_455 . 1_555 n
Sr1 Sr1 Sr2 57.86(5) 1_455 . 1_445 n
Sr1 Sr1 Sr2 57.86(5) 1_455 . 1_455 n
Sr1 Sr1 Sr2 122.14(5) 1_455 . 1_545 n
Sr1 Sr1 Sr2 122.14(5) 1_455 . 1_555 n
Sr1 Sr1 O3 47.36(5) 1_455 . 1_445 n
Sr1 Sr1 O3 47.36(5) 1_455 . 1_455 n
Sr1 Sr1 O3 132.64(5) 1_455 . 1_545 n
Sr1 Sr1 O3 132.64(5) 1_455 . 1_555 n
Sr1 Sr1 O4 90.0 1_455 . 1_545 n
Sr1 Sr1 O4 90.0 1_455 . 1_555 n
Sr1 Sr1 O4 34.52(16) 1_455 . 2_555 n
Sr1 Sr1 O4 145.48(16) 1_455 . 2_655 n
Sr1 Sr1 Sr1 180.0 1_545 . 1_565 n
Sr1 Sr1 Sr1 90.0 1_545 . 1_655 n
Sr1 Sr1 Bi3 57.86(5) 1_545 . 1_445 n
Sr1 Sr1 Bi3 122.14(5) 1_545 . 1_455 n
Sr1 Sr1 Bi3 57.86(5) 1_545 . 1_545 n
Sr1 Sr1 Bi3 122.14(5) 1_545 . 1_555 n
Sr1 Sr1 Sr2 57.86(5) 1_545 . 1_445 n
Sr1 Sr1 Sr2 122.14(5) 1_545 . 1_455 n
Sr1 Sr1 Sr2 57.86(5) 1_545 . 1_545 n
Sr1 Sr1 Sr2 122.14(5) 1_545 . 1_555 n
Sr1 Sr1 O3 47.36(5) 1_545 . 1_445 n
Sr1 Sr1 O3 132.64(5) 1_545 . 1_455 n
Sr1 Sr1 O3 47.36(5) 1_545 . 1_545 n
Sr1 Sr1 O3 132.64(5) 1_545 . 1_555 n
Sr1 Sr1 O4 34.52(16) 1_545 . 1_545 n
Sr1 Sr1 O4 145.48(16) 1_545 . 1_555 n
Sr1 Sr1 O4 90.0 1_545 . 2_555 n
Sr1 Sr1 O4 90.0 1_545 . 2_655 n
Sr1 Sr1 Sr1 90.0 1_565 . 1_655 n
Sr1 Sr1 Bi3 122.14(5) 1_565 . 1_445 n
Sr1 Sr1 Bi3 57.86(5) 1_565 . 1_455 n
Sr1 Sr1 Bi3 122.14(5) 1_565 . 1_545 n
Sr1 Sr1 Bi3 57.86(5) 1_565 . 1_555 n
Sr1 Sr1 Sr2 122.14(5) 1_565 . 1_445 n
Sr1 Sr1 Sr2 57.86(5) 1_565 . 1_455 n
Sr1 Sr1 Sr2 122.14(5) 1_565 . 1_545 n
Sr1 Sr1 Sr2 57.86(5) 1_565 . 1_555 n
Sr1 Sr1 O3 132.64(5) 1_565 . 1_445 n
Sr1 Sr1 O3 47.36(5) 1_565 . 1_455 n
Sr1 Sr1 O3 132.64(5) 1_565 . 1_545 n
Sr1 Sr1 O3 47.36(5) 1_565 . 1_555 n
Sr1 Sr1 O4 145.48(16) 1_565 . 1_545 n
Sr1 Sr1 O4 34.52(16) 1_565 . 1_555 n
Sr1 Sr1 O4 90.0 1_565 . 2_555 n
Sr1 Sr1 O4 90.0 1_565 . 2_655 n
Sr1 Sr1 Bi3 122.14(5) 1_655 . 1_445 n
Sr1 Sr1 Bi3 122.14(5) 1_655 . 1_455 n
Sr1 Sr1 Bi3 57.86(5) 1_655 . 1_545 n
Sr1 Sr1 Bi3 57.86(5) 1_655 . 1_555 n
Sr1 Sr1 Sr2 122.14(5) 1_655 . 1_445 n
Sr1 Sr1 Sr2 122.14(5) 1_655 . 1_455 n
Sr1 Sr1 Sr2 57.86(5) 1_655 . 1_545 n
Sr1 Sr1 Sr2 57.86(5) 1_655 . 1_555 n
Sr1 Sr1 O3 132.64(5) 1_655 . 1_445 n
Sr1 Sr1 O3 132.64(5) 1_655 . 1_455 n
Sr1 Sr1 O3 47.36(5) 1_655 . 1_545 n
Sr1 Sr1 O3 47.36(5) 1_655 . 1_555 n
Sr1 Sr1 O4 90.0 1_655 . 1_545 n
Sr1 Sr1 O4 90.0 1_655 . 1_555 n
Sr1 Sr1 O4 145.48(16) 1_655 . 2_555 n
Sr1 Sr1 O4 34.52(16) 1_655 . 2_655 n
Bi3 Sr1 Bi3 64.29(10) 1_445 . 1_455 n
Bi3 Sr1 Bi3 64.29(10) 1_445 . 1_545 n
Bi3 Sr1 Bi3 97.60(19) 1_445 . 1_555 n
Bi3 Sr1 Sr2 0.0 1_445 . 1_445 n
Bi3 Sr1 Sr2 64.29(10) 1_445 . 1_455 n
Bi3 Sr1 Sr2 64.29(10) 1_445 . 1_545 n
Bi3 Sr1 Sr2 97.60(19) 1_445 . 1_555 n
Bi3 Sr1 O3 57.87(12) 1_445 . 1_445 n
Bi3 Sr1 O3 100.89(9) 1_445 . 1_455 n
Bi3 Sr1 O3 100.89(9) 1_445 . 1_545 n
Bi3 Sr1 O3 155.47(24) 1_445 . 1_555 n
Bi3 Sr1 O4 35.74(7) 1_445 . 1_545 n
Bi3 Sr1 O4 93.73(20) 1_445 . 1_555 n
Bi3 Sr1 O4 35.74(7) 1_445 . 2_555 n
Bi3 Sr1 O4 93.73(20) 1_445 . 2_655 n
Bi3 Sr1 Bi3 97.60(19) 1_455 . 1_545 n
Bi3 Sr1 Bi3 64.29(10) 1_455 . 1_555 n
Bi3 Sr1 Sr2 64.29(10) 1_455 . 1_445 n
Bi3 Sr1 Sr2 0.0 1_455 . 1_455 n
Bi3 Sr1 Sr2 97.60(19) 1_455 . 1_545 n
Bi3 Sr1 Sr2 64.29(10) 1_455 . 1_555 n
Bi3 Sr1 O3 100.89(9) 1_455 . 1_445 n
Bi3 Sr1 O3 57.87(12) 1_455 . 1_455 n
Bi3 Sr1 O3 155.47(24) 1_455 . 1_545 n
Bi3 Sr1 O3 100.89(9) 1_455 . 1_555 n
Bi3 Sr1 O4 93.73(20) 1_455 . 1_545 n
Bi3 Sr1 O4 35.74(7) 1_455 . 1_555 n
Bi3 Sr1 O4 35.74(7) 1_455 . 2_555 n
Bi3 Sr1 O4 93.73(20) 1_455 . 2_655 n
Bi3 Sr1 Bi3 64.29(10) 1_545 . 1_555 n
Bi3 Sr1 Sr2 64.29(10) 1_545 . 1_445 n
Bi3 Sr1 Sr2 97.60(19) 1_545 . 1_455 n
Bi3 Sr1 Sr2 0.0 1_545 . 1_545 n
Bi3 Sr1 Sr2 64.29(10) 1_545 . 1_555 n
Bi3 Sr1 O3 100.89(9) 1_545 . 1_445 n
Bi3 Sr1 O3 155.47(24) 1_545 . 1_455 n
Bi3 Sr1 O3 57.87(12) 1_545 . 1_545 n
Bi3 Sr1 O3 100.89(9) 1_545 . 1_555 n
Bi3 Sr1 O4 35.74(7) 1_545 . 1_545 n
Bi3 Sr1 O4 93.73(20) 1_545 . 1_555 n
Bi3 Sr1 O4 93.73(20) 1_545 . 2_555 n
Bi3 Sr1 O4 35.74(7) 1_545 . 2_655 n
Bi3 Sr1 Sr2 97.60(19) 1_555 . 1_445 n
Bi3 Sr1 Sr2 64.29(10) 1_555 . 1_455 n
Bi3 Sr1 Sr2 64.29(10) 1_555 . 1_545 n
Bi3 Sr1 Sr2 0.0 1_555 . 1_555 n
Bi3 Sr1 O3 155.47(24) 1_555 . 1_445 n
Bi3 Sr1 O3 100.89(9) 1_555 . 1_455 n
Bi3 Sr1 O3 100.89(9) 1_555 . 1_545 n
Bi3 Sr1 O3 57.87(12) 1_555 . 1_555 n
Bi3 Sr1 O4 93.73(20) 1_555 . 1_545 n
Bi3 Sr1 O4 35.74(7) 1_555 . 1_555 n
Bi3 Sr1 O4 93.73(20) 1_555 . 2_555 n
Bi3 Sr1 O4 35.74(7) 1_555 . 2_655 n
Sr2 Sr1 Sr2 64.29(10) 1_445 . 1_455 n
Sr2 Sr1 Sr2 64.29(10) 1_445 . 1_545 n
Sr2 Sr1 Sr2 97.60(19) 1_445 . 1_555 n
Sr2 Sr1 O3 57.87(12) 1_445 . 1_445 n
Sr2 Sr1 O3 100.89(9) 1_445 . 1_455 n
Sr2 Sr1 O3 100.89(9) 1_445 . 1_545 n
Sr2 Sr1 O3 155.47(24) 1_445 . 1_555 n
Sr2 Sr1 O4 35.74(7) 1_445 . 1_545 n
Sr2 Sr1 O4 93.73(20) 1_445 . 1_555 n
Sr2 Sr1 O4 35.74(7) 1_445 . 2_555 n
Sr2 Sr1 O4 93.73(20) 1_445 . 2_655 n
Sr2 Sr1 Sr2 97.60(19) 1_455 . 1_545 n
Sr2 Sr1 Sr2 64.29(10) 1_455 . 1_555 n
Sr2 Sr1 O3 100.89(9) 1_455 . 1_445 n
Sr2 Sr1 O3 57.87(12) 1_455 . 1_455 n
Sr2 Sr1 O3 155.47(24) 1_455 . 1_545 n
Sr2 Sr1 O3 100.89(9) 1_455 . 1_555 n
Sr2 Sr1 O4 93.73(20) 1_455 . 1_545 n
Sr2 Sr1 O4 35.74(7) 1_455 . 1_555 n
Sr2 Sr1 O4 35.74(7) 1_455 . 2_555 n
Sr2 Sr1 O4 93.73(20) 1_455 . 2_655 n
Sr2 Sr1 Sr2 64.29(10) 1_545 . 1_555 n
Sr2 Sr1 O3 100.89(9) 1_545 . 1_445 n
Sr2 Sr1 O3 155.47(24) 1_545 . 1_455 n
Sr2 Sr1 O3 57.87(12) 1_545 . 1_545 n
Sr2 Sr1 O3 100.89(9) 1_545 . 1_555 n
Sr2 Sr1 O4 35.74(7) 1_545 . 1_545 n
Sr2 Sr1 O4 93.73(20) 1_545 . 1_555 n
Sr2 Sr1 O4 93.73(20) 1_545 . 2_555 n
Sr2 Sr1 O4 35.74(7) 1_545 . 2_655 n
Sr2 Sr1 O3 155.47(24) 1_555 . 1_445 n
Sr2 Sr1 O3 100.89(9) 1_555 . 1_455 n
Sr2 Sr1 O3 100.89(9) 1_555 . 1_545 n
Sr2 Sr1 O3 57.87(12) 1_555 . 1_555 n
Sr2 Sr1 O4 93.73(20) 1_555 . 1_545 n
Sr2 Sr1 O4 35.74(7) 1_555 . 1_555 n
Sr2 Sr1 O4 93.73(20) 1_555 . 2_555 n
Sr2 Sr1 O4 35.74(7) 1_555 . 2_655 n
O3 Sr1 O3 85.28(9) 1_445 . 1_455 n
O3 Sr1 O3 85.28(9) 1_445 . 1_545 n
O3 Sr1 O3 146.67(33) 1_445 . 1_555 n
O3 Sr1 O4 66.70(10) 1_445 . 1_545 n
O3 Sr1 O4 136.11(11) 1_445 . 1_555 n
O3 Sr1 O4 66.70(10) 1_445 . 2_555 n
O3 Sr1 O4 136.11(11) 1_445 . 2_655 n
O3 Sr1 O3 146.67(33) 1_455 . 1_545 n
O3 Sr1 O3 85.28(9) 1_455 . 1_555 n
O3 Sr1 O4 136.11(11) 1_455 . 1_545 n
O3 Sr1 O4 66.70(10) 1_455 . 1_555 n
O3 Sr1 O4 66.70(10) 1_455 . 2_555 n
O3 Sr1 O4 136.11(11) 1_455 . 2_655 n
O3 Sr1 O3 85.28(9) 1_545 . 1_555 n
O3 Sr1 O4 66.70(10) 1_545 . 1_545 n
O3 Sr1 O4 136.11(11) 1_545 . 1_555 n
O3 Sr1 O4 136.11(11) 1_545 . 2_555 n
O3 Sr1 O4 66.70(10) 1_545 . 2_655 n
O3 Sr1 O4 136.11(11) 1_555 . 1_545 n
O3 Sr1 O4 66.70(10) 1_555 . 1_555 n
O3 Sr1 O4 136.11(11) 1_555 . 2_555 n
O3 Sr1 O4 66.70(10) 1_555 . 2_655 n
O4 Sr1 O4 110.96(32) 1_545 . 1_555 n
O4 Sr1 O4 71.27(16) 1_545 . 2_555 n
O4 Sr1 O4 71.27(16) 1_545 . 2_655 n
O4 Sr1 O4 71.27(16) 1_555 . 2_555 n
O4 Sr1 O4 71.27(16) 1_555 . 2_655 n
O4 Sr1 O4 110.96(32) 2_555 . 2_655 n
Sr1 Bi3 Sr1 64.29(10) 1_555 . 1_565 n
Sr1 Bi3 Sr1 64.29(10) 1_555 . 1_655 n
Sr1 Bi3 Sr1 97.60(19) 1_555 . 1_665 n
Sr1 Bi3 O4 38.40(7) 1_555 . 1_555 n
Sr1 Bi3 O4 98.55(15) 1_555 . 1_655 n
Sr1 Bi3 O4 38.40(7) 1_555 . 2_655 n
Sr1 Bi3 O4 98.55(15) 1_555 . 2_665 n
Sr1 Bi3 Sr1 97.60(19) 1_565 . 1_655 n
Sr1 Bi3 Sr1 64.29(10) 1_565 . 1_665 n
Sr1 Bi3 O4 38.40(7) 1_565 . 1_555 n
Sr1 Bi3 O4 98.55(15) 1_565 . 1_655 n
Sr1 Bi3 O4 98.55(15) 1_565 . 2_655 n
Sr1 Bi3 O4 38.40(7) 1_565 . 2_665 n
Sr1 Bi3 Sr1 64.29(10) 1_655 . 1_665 n
Sr1 Bi3 O4 98.55(15) 1_655 . 1_555 n
Sr1 Bi3 O4 38.40(7) 1_655 . 1_655 n
Sr1 Bi3 O4 38.40(7) 1_655 . 2_655 n
Sr1 Bi3 O4 98.55(15) 1_655 . 2_665 n
Sr1 Bi3 O4 98.55(15) 1_665 . 1_555 n
Sr1 Bi3 O4 38.40(7) 1_665 . 1_655 n
Sr1 Bi3 O4 98.55(15) 1_665 . 2_655 n
Sr1 Bi3 O4 38.40(7) 1_665 . 2_665 n
O4 Bi3 O4 122.36(26) 1_555 . 1_655 n
O4 Bi3 O4 76.56(11) 1_555 . 2_655 n
O4 Bi3 O4 76.56(11) 1_555 . 2_665 n
O4 Bi3 O4 76.56(11) 1_655 . 2_655 n
O4 Bi3 O4 76.56(11) 1_655 . 2_665 n
O4 Bi3 O4 122.36(26) 2_655 . 2_665 n
Bi2 Sr2 Bi2 64.29(10) 1_555 . 1_565 n
Bi2 Sr2 Bi2 64.29(10) 1_555 . 1_655 n
Bi2 Sr2 Bi2 97.60(19) 1_555 . 1_665 n
Bi2 Sr2 Sr1 0.0 1_555 . 1_555 n
Bi2 Sr2 Sr1 64.29(10) 1_555 . 1_565 n
Bi2 Sr2 Sr1 64.29(10) 1_555 . 1_655 n
Bi2 Sr2 Sr1 97.60(19) 1_555 . 1_665 n
Bi2 Sr2 Sr2 57.86(5) 1_555 . 1_455 n
Bi2 Sr2 Sr2 57.86(5) 1_555 . 1_545 n
Bi2 Sr2 Sr2 122.14(5) 1_555 . 1_565 n
Bi2 Sr2 Sr2 122.14(5) 1_555 . 1_655 n
Bi2 Sr2 Sr2 131.20(9) 1_555 . -1_666 n
Bi2 Sr2 Br1 77.93(7) 1_555 . 1_555 n
Bi2 Sr2 Br1 113.20(4) 1_555 . 1_565 n
Bi2 Sr2 Br1 113.20(4) 1_555 . 1_655 n
Bi2 Sr2 Br1 175.54(14) 1_555 . 1_665 n
Bi2 Sr2 O4 38.40(7) 1_555 . 1_555 n
Bi2 Sr2 O4 98.55(15) 1_555 . 1_655 n
Bi2 Sr2 O4 38.40(7) 1_555 . 2_655 n
Bi2 Sr2 O4 98.55(15) 1_555 . 2_665 n
Bi2 Sr2 Bi2 97.60(19) 1_565 . 1_655 n
Bi2 Sr2 Bi2 64.29(10) 1_565 . 1_665 n
Bi2 Sr2 Sr1 64.29(10) 1_565 . 1_555 n
Bi2 Sr2 Sr1 0.0 1_565 . 1_565 n
Bi2 Sr2 Sr1 97.60(19) 1_565 . 1_655 n
Bi2 Sr2 Sr1 64.29(10) 1_565 . 1_665 n
Bi2 Sr2 Sr2 57.86(5) 1_565 . 1_455 n
Bi2 Sr2 Sr2 122.14(5) 1_565 . 1_545 n
Bi2 Sr2 Sr2 57.86(5) 1_565 . 1_565 n
Bi2 Sr2 Sr2 122.14(5) 1_565 . 1_655 n
Bi2 Sr2 Sr2 131.20(9) 1_565 . -1_666 n
Bi2 Sr2 Br1 113.20(4) 1_565 . 1_555 n
Bi2 Sr2 Br1 77.93(7) 1_565 . 1_565 n
Bi2 Sr2 Br1 175.54(14) 1_565 . 1_655 n
Bi2 Sr2 Br1 113.20(4) 1_565 . 1_665 n
Bi2 Sr2 O4 38.40(7) 1_565 . 1_555 n
Bi2 Sr2 O4 98.55(15) 1_565 . 1_655 n
Bi2 Sr2 O4 98.55(15) 1_565 . 2_655 n
Bi2 Sr2 O4 38.40(7) 1_565 . 2_665 n
Bi2 Sr2 Bi2 64.29(10) 1_655 . 1_665 n
Bi2 Sr2 Sr1 64.29(10) 1_655 . 1_555 n
Bi2 Sr2 Sr1 97.60(19) 1_655 . 1_565 n
Bi2 Sr2 Sr1 0.0 1_655 . 1_655 n
Bi2 Sr2 Sr1 64.29(10) 1_655 . 1_665 n
Bi2 Sr2 Sr2 122.14(5) 1_655 . 1_455 n
Bi2 Sr2 Sr2 57.86(5) 1_655 . 1_545 n
Bi2 Sr2 Sr2 122.14(5) 1_655 . 1_565 n
Bi2 Sr2 Sr2 57.86(5) 1_655 . 1_655 n
Bi2 Sr2 Sr2 131.20(9) 1_655 . -1_666 n
Bi2 Sr2 Br1 113.20(4) 1_655 . 1_555 n
Bi2 Sr2 Br1 175.54(14) 1_655 . 1_565 n
Bi2 Sr2 Br1 77.93(7) 1_655 . 1_655 n
Bi2 Sr2 Br1 113.20(4) 1_655 . 1_665 n
Bi2 Sr2 O4 98.55(15) 1_655 . 1_555 n
Bi2 Sr2 O4 38.40(7) 1_655 . 1_655 n
Bi2 Sr2 O4 38.40(7) 1_655 . 2_655 n
Bi2 Sr2 O4 98.55(15) 1_655 . 2_665 n
Bi2 Sr2 Sr1 97.60(19) 1_665 . 1_555 n
Bi2 Sr2 Sr1 64.29(10) 1_665 . 1_565 n
Bi2 Sr2 Sr1 64.29(10) 1_665 . 1_655 n
Bi2 Sr2 Sr1 0.0 1_665 . 1_665 n
Bi2 Sr2 Sr2 122.14(5) 1_665 . 1_455 n
Bi2 Sr2 Sr2 122.14(5) 1_665 . 1_545 n
Bi2 Sr2 Sr2 57.86(5) 1_665 . 1_565 n
Bi2 Sr2 Sr2 57.86(5) 1_665 . 1_655 n
Bi2 Sr2 Sr2 131.20(9) 1_665 . -1_666 n
Bi2 Sr2 Br1 175.54(14) 1_665 . 1_555 n
Bi2 Sr2 Br1 113.20(4) 1_665 . 1_565 n
Bi2 Sr2 Br1 113.20(4) 1_665 . 1_655 n
Bi2 Sr2 Br1 77.93(7) 1_665 . 1_665 n
Bi2 Sr2 O4 98.55(15) 1_665 . 1_555 n
Bi2 Sr2 O4 38.40(7) 1_665 . 1_655 n
Bi2 Sr2 O4 98.55(15) 1_665 . 2_655 n
Bi2 Sr2 O4 38.40(7) 1_665 . 2_665 n
Sr1 Sr2 Sr1 64.29(10) 1_555 . 1_565 n
Sr1 Sr2 Sr1 64.29(10) 1_555 . 1_655 n
Sr1 Sr2 Sr1 97.60(19) 1_555 . 1_665 n
Sr1 Sr2 Sr2 57.86(5) 1_555 . 1_455 n
Sr1 Sr2 Sr2 57.86(5) 1_555 . 1_545 n
Sr1 Sr2 Sr2 122.14(5) 1_555 . 1_565 n
Sr1 Sr2 Sr2 122.14(5) 1_555 . 1_655 n
Sr1 Sr2 Sr2 131.20(9) 1_555 . -1_666 n
Sr1 Sr2 Br1 77.93(7) 1_555 . 1_555 n
Sr1 Sr2 Br1 113.20(4) 1_555 . 1_565 n
Sr1 Sr2 Br1 113.20(4) 1_555 . 1_655 n
Sr1 Sr2 Br1 175.54(14) 1_555 . 1_665 n
Sr1 Sr2 O4 38.40(7) 1_555 . 1_555 n
Sr1 Sr2 O4 98.55(15) 1_555 . 1_655 n
Sr1 Sr2 O4 38.40(7) 1_555 . 2_655 n
Sr1 Sr2 O4 98.55(15) 1_555 . 2_665 n
Sr1 Sr2 Sr1 97.60(19) 1_565 . 1_655 n
Sr1 Sr2 Sr1 64.29(10) 1_565 . 1_665 n
Sr1 Sr2 Sr2 57.86(5) 1_565 . 1_455 n
Sr1 Sr2 Sr2 122.14(5) 1_565 . 1_545 n
Sr1 Sr2 Sr2 57.86(5) 1_565 . 1_565 n
Sr1 Sr2 Sr2 122.14(5) 1_565 . 1_655 n
Sr1 Sr2 Sr2 131.20(9) 1_565 . -1_666 n
Sr1 Sr2 Br1 113.20(4) 1_565 . 1_555 n
Sr1 Sr2 Br1 77.93(7) 1_565 . 1_565 n
Sr1 Sr2 Br1 175.54(14) 1_565 . 1_655 n
Sr1 Sr2 Br1 113.20(4) 1_565 . 1_665 n
Sr1 Sr2 O4 38.40(7) 1_565 . 1_555 n
Sr1 Sr2 O4 98.55(15) 1_565 . 1_655 n
Sr1 Sr2 O4 98.55(15) 1_565 . 2_655 n
Sr1 Sr2 O4 38.40(7) 1_565 . 2_665 n
Sr1 Sr2 Sr1 64.29(10) 1_655 . 1_665 n
Sr1 Sr2 Sr2 122.14(5) 1_655 . 1_455 n
Sr1 Sr2 Sr2 57.86(5) 1_655 . 1_545 n
Sr1 Sr2 Sr2 122.14(5) 1_655 . 1_565 n
Sr1 Sr2 Sr2 57.86(5) 1_655 . 1_655 n
Sr1 Sr2 Sr2 131.20(9) 1_655 . -1_666 n
Sr1 Sr2 Br1 113.20(4) 1_655 . 1_555 n
Sr1 Sr2 Br1 175.54(14) 1_655 . 1_565 n
Sr1 Sr2 Br1 77.93(7) 1_655 . 1_655 n
Sr1 Sr2 Br1 113.20(4) 1_655 . 1_665 n
Sr1 Sr2 O4 98.55(15) 1_655 . 1_555 n
Sr1 Sr2 O4 38.40(7) 1_655 . 1_655 n
Sr1 Sr2 O4 38.40(7) 1_655 . 2_655 n
Sr1 Sr2 O4 98.55(15) 1_655 . 2_665 n
Sr1 Sr2 Sr2 122.14(5) 1_665 . 1_455 n
Sr1 Sr2 Sr2 122.14(5) 1_665 . 1_545 n
Sr1 Sr2 Sr2 57.86(5) 1_665 . 1_565 n
Sr1 Sr2 Sr2 57.86(5) 1_665 . 1_655 n
Sr1 Sr2 Sr2 131.20(9) 1_665 . -1_666 n
Sr1 Sr2 Br1 175.54(14) 1_665 . 1_555 n
Sr1 Sr2 Br1 113.20(4) 1_665 . 1_565 n
Sr1 Sr2 Br1 113.20(4) 1_665 . 1_655 n
Sr1 Sr2 Br1 77.93(7) 1_665 . 1_665 n
Sr1 Sr2 O4 98.55(15) 1_665 . 1_555 n
Sr1 Sr2 O4 38.40(7) 1_665 . 1_655 n
Sr1 Sr2 O4 98.55(15) 1_665 . 2_655 n
Sr1 Sr2 O4 38.40(7) 1_665 . 2_665 n
Sr2 Sr2 Sr2 90.0 1_455 . 1_545 n
Sr2 Sr2 Sr2 90.0 1_455 . 1_565 n
Sr2 Sr2 Sr2 180.0 1_455 . 1_655 n
Sr2 Sr2 Sr2 90.0 1_455 . -1_666 n
Sr2 Sr2 Br1 55.481(32) 1_455 . 1_555 n
Sr2 Sr2 Br1 55.481(32) 1_455 . 1_565 n
Sr2 Sr2 Br1 124.519(32) 1_455 . 1_655 n
Sr2 Sr2 Br1 124.519(32) 1_455 . 1_665 n
Sr2 Sr2 O4 28.82(13) 1_455 . 1_555 n
Sr2 Sr2 O4 151.18(13) 1_455 . 1_655 n
Sr2 Sr2 O4 90.0 1_455 . 2_655 n
Sr2 Sr2 O4 90.0 1_455 . 2_665 n
Sr2 Sr2 Sr2 180.0 1_545 . 1_565 n
Sr2 Sr2 Sr2 90.0 1_545 . 1_655 n
Sr2 Sr2 Sr2 90.0 1_545 . -1_666 n
Sr2 Sr2 Br1 55.481(32) 1_545 . 1_555 n
Sr2 Sr2 Br1 124.519(32) 1_545 . 1_565 n
Sr2 Sr2 Br1 55.481(32) 1_545 . 1_655 n
Sr2 Sr2 Br1 124.519(32) 1_545 . 1_665 n
Sr2 Sr2 O4 90.0 1_545 . 1_555 n
Sr2 Sr2 O4 90.0 1_545 . 1_655 n
Sr2 Sr2 O4 28.82(13) 1_545 . 2_655 n
Sr2 Sr2 O4 151.18(13) 1_545 . 2_665 n
Sr2 Sr2 Sr2 90.0 1_565 . 1_655 n
Sr2 Sr2 Sr2 90.0 1_565 . -1_666 n
Sr2 Sr2 Br1 124.519(32) 1_565 . 1_555 n
Sr2 Sr2 Br1 55.481(32) 1_565 . 1_565 n
Sr2 Sr2 Br1 124.519(32) 1_565 . 1_655 n
Sr2 Sr2 Br1 55.481(32) 1_565 . 1_665 n
Sr2 Sr2 O4 90.0 1_565 . 1_555 n
Sr2 Sr2 O4 90.0 1_565 . 1_655 n
Sr2 Sr2 O4 151.18(13) 1_565 . 2_655 n
Sr2 Sr2 O4 28.82(13) 1_565 . 2_665 n
Sr2 Sr2 Sr2 90.0 1_655 . -1_666 n
Sr2 Sr2 Br1 124.519(32) 1_655 . 1_555 n
Sr2 Sr2 Br1 124.519(32) 1_655 . 1_565 n
Sr2 Sr2 Br1 55.481(32) 1_655 . 1_655 n
Sr2 Sr2 Br1 55.481(32) 1_655 . 1_665 n
Sr2 Sr2 O4 151.18(13) 1_655 . 1_555 n
Sr2 Sr2 O4 28.82(13) 1_655 . 1_655 n
Sr2 Sr2 O4 90.0 1_655 . 2_655 n
Sr2 Sr2 O4 90.0 1_655 . 2_665 n
Sr2 Sr2 Br1 53.26(6) -1_666 . 1_555 n
Sr2 Sr2 Br1 53.26(6) -1_666 . 1_565 n
Sr2 Sr2 Br1 53.26(6) -1_666 . 1_655 n
Sr2 Sr2 Br1 53.26(6) -1_666 . 1_665 n
Sr2 Sr2 O4 118.82(13) -1_666 . 1_555 n
Sr2 Sr2 O4 118.82(13) -1_666 . 1_655 n
Sr2 Sr2 O4 118.82(13) -1_666 . 2_655 n
Sr2 Sr2 O4 118.82(13) -1_666 . 2_665 n
Br1 Sr2 Br1 69.04(6) 1_555 . 1_565 n
Br1 Sr2 Br1 69.04(6) 1_555 . 1_655 n
Br1 Sr2 Br1 106.53(12) 1_555 . 1_665 n
Br1 Sr2 O4 77.99(8) 1_555 . 1_555 n
Br1 Sr2 O4 141.70(5) 1_555 . 1_655 n
Br1 Sr2 O4 77.99(8) 1_555 . 2_655 n
Br1 Sr2 O4 141.70(5) 1_555 . 2_665 n
Br1 Sr2 Br1 106.53(12) 1_565 . 1_655 n
Br1 Sr2 Br1 69.04(6) 1_565 . 1_665 n
Br1 Sr2 O4 77.99(8) 1_565 . 1_555 n
Br1 Sr2 O4 141.70(5) 1_565 . 1_655 n
Br1 Sr2 O4 141.70(5) 1_565 . 2_655 n
Br1 Sr2 O4 77.99(8) 1_565 . 2_665 n
Br1 Sr2 Br1 69.04(6) 1_655 . 1_665 n
Br1 Sr2 O4 141.70(5) 1_655 . 1_555 n
Br1 Sr2 O4 77.99(8) 1_655 . 1_655 n
Br1 Sr2 O4 77.99(8) 1_655 . 2_655 n
Br1 Sr2 O4 141.70(5) 1_655 . 2_665 n
Br1 Sr2 O4 141.70(5) 1_665 . 1_555 n
Br1 Sr2 O4 77.99(8) 1_665 . 1_655 n
Br1 Sr2 O4 141.70(5) 1_665 . 2_655 n
Br1 Sr2 O4 77.99(8) 1_665 . 2_665 n
O4 Sr2 O4 122.36(26) 1_555 . 1_655 n
O4 Sr2 O4 76.56(11) 1_555 . 2_655 n
O4 Sr2 O4 76.56(11) 1_555 . 2_665 n
O4 Sr2 O4 76.56(11) 1_655 . 2_655 n
O4 Sr2 O4 76.56(11) 1_655 . 2_665 n
O4 Sr2 O4 122.36(26) 2_655 . 2_665 n
O1 Nb1 O2 86.10(23) 1_555 . 1_555 n
O1 Nb1 O2 86.10(23) 1_555 . 1_655 n
O1 Nb1 O2 86.10(23) 1_555 . 2_655 n
O1 Nb1 O2 86.10(23) 1_555 . 2_665 n
O1 Nb1 O3 180.0 1_555 . 1_555 n
O2 Nb1 O2 172.2(5) 1_555 . 1_655 n
O2 Nb1 O2 89.735(31) 1_555 . 2_655 n
O2 Nb1 O2 89.735(31) 1_555 . 2_665 n
O2 Nb1 O3 93.90(23) 1_555 . 1_555 n
O2 Nb1 O2 89.735(31) 1_655 . 2_655 n
O2 Nb1 O2 89.735(31) 1_655 . 2_665 n
O2 Nb1 O3 93.90(23) 1_655 . 1_555 n
O2 Nb1 O2 172.2(5) 2_655 . 2_665 n
O2 Nb1 O3 93.90(23) 2_655 . 1_555 n
O2 Nb1 O3 93.90(23) 2_665 . 1_555 n
Sr2 Br1 Sr2 69.04(6) 1_445 . 1_455 n
Sr2 Br1 Sr2 69.04(6) 1_445 . 1_545 n
Sr2 Br1 Sr2 106.53(12) 1_445 . 1_555 n
Sr2 Br1 Sr2 73.47(12) 1_445 . -1_556 n
Sr2 Br1 Sr2 110.96(6) 1_445 . -1_566 n
Sr2 Br1 Sr2 110.96(6) 1_445 . -1_656 n
Sr2 Br1 Sr2 180.0 1_445 . -1_666 n
Sr2 Br1 Sr2 106.53(12) 1_455 . 1_545 n
Sr2 Br1 Sr2 69.04(6) 1_455 . 1_555 n
Sr2 Br1 Sr2 110.96(6) 1_455 . -1_556 n
Sr2 Br1 Sr2 73.47(12) 1_455 . -1_566 n
Sr2 Br1 Sr2 180.0 1_455 . -1_656 n
Sr2 Br1 Sr2 110.96(6) 1_455 . -1_666 n
Sr2 Br1 Sr2 69.04(6) 1_545 . 1_555 n
Sr2 Br1 Sr2 110.96(6) 1_545 . -1_556 n
Sr2 Br1 Sr2 180.0 1_545 . -1_566 n
Sr2 Br1 Sr2 73.47(12) 1_545 . -1_656 n
Sr2 Br1 Sr2 110.96(6) 1_545 . -1_666 n
Sr2 Br1 Sr2 180.0 1_555 . -1_556 n
Sr2 Br1 Sr2 110.96(6) 1_555 . -1_566 n
Sr2 Br1 Sr2 110.96(6) 1_555 . -1_656 n
Sr2 Br1 Sr2 73.47(12) 1_555 . -1_666 n
Sr2 Br1 Sr2 69.04(6) -1_556 . -1_566 n
Sr2 Br1 Sr2 69.04(6) -1_556 . -1_656 n
Sr2 Br1 Sr2 106.53(12) -1_556 . -1_666 n
Sr2 Br1 Sr2 106.53(12) -1_566 . -1_656 n
Sr2 Br1 Sr2 69.04(6) -1_566 . -1_666 n
Sr2 Br1 Sr2 69.04(6) -1_656 . -1_666 n
Nb1 O1 Nb1 180.0 1_555 . -1_665 n
Nb1 O2 Nb1 172.2(5) 1_455 . 1_555 n
Sr1 O3 Sr1 85.28(9) 1_555 . 1_565 n
Sr1 O3 Sr1 85.28(9) 1_555 . 1_655 n
Sr1 O3 Sr1 146.67(33) 1_555 . 1_665 n
Sr1 O3 Nb1 106.67(17) 1_555 . 1_555 n
Sr1 O3 Sr1 146.67(33) 1_565 . 1_655 n
Sr1 O3 Sr1 85.28(9) 1_565 . 1_665 n
Sr1 O3 Nb1 106.67(17) 1_565 . 1_555 n
Sr1 O3 Sr1 85.28(9) 1_655 . 1_665 n
Sr1 O3 Nb1 106.67(17) 1_655 . 1_555 n
Sr1 O3 Nb1 106.67(17) 1_665 . 1_555 n
Bi2 O4 Bi2 110.96(32) 1_555 . 1_565 n
Bi2 O4 Sr1 0.0 1_555 . 1_555 n
Bi2 O4 Sr1 110.96(32) 1_555 . 1_565 n
Bi2 O4 Bi3 105.85(7) 1_555 . 1_455 n
Bi2 O4 Bi3 105.85(7) 1_555 . 1_555 n
Bi2 O4 Sr2 105.85(7) 1_555 . 1_455 n
Bi2 O4 Sr2 105.85(7) 1_555 . 1_555 n
Bi2 O4 Sr1 110.96(32) 1_565 . 1_555 n
Bi2 O4 Sr1 0.0 1_565 . 1_565 n
Bi2 O4 Bi3 105.85(7) 1_565 . 1_455 n
Bi2 O4 Bi3 105.85(7) 1_565 . 1_555 n
Bi2 O4 Sr2 105.85(7) 1_565 . 1_455 n
Bi2 O4 Sr2 105.85(7) 1_565 . 1_555 n
Sr1 O4 Sr1 110.96(32) 1_555 . 1_565 n
Sr1 O4 Bi3 105.85(7) 1_555 . 1_455 n
Sr1 O4 Bi3 105.85(7) 1_555 . 1_555 n
Sr1 O4 Sr2 105.85(7) 1_555 . 1_455 n
Sr1 O4 Sr2 105.85(7) 1_555 . 1_555 n
Sr1 O4 Bi3 105.85(7) 1_565 . 1_455 n
Sr1 O4 Bi3 105.85(7) 1_565 . 1_555 n
Sr1 O4 Sr2 105.85(7) 1_565 . 1_455 n
Sr1 O4 Sr2 105.85(7) 1_565 . 1_555 n
Bi3 O4 Bi3 122.36(26) 1_455 . 1_555 n
Bi3 O4 Sr2 0.0 1_455 . 1_455 n
Bi3 O4 Sr2 122.36(26) 1_455 . 1_555 n
Bi3 O4 Sr2 122.36(26) 1_555 . 1_455 n
Bi3 O4 Sr2 0.0 1_555 . 1_555 n
Sr2 O4 Sr2 122.36(26) 1_455 . 1_555 n
loop_
_geom_bond_atom_site_label_1
_geom_bond_atom_site_label_2
_geom_bond_distance
_geom_bond_site_symmetry_1
_geom_bond_site_symmetry_2
_geom_bond_publ_flag
Bi1 Nb1 3.4874(32) . 1_445 n
Bi1 Nb1 3.4874(32) . 1_455 n
Bi1 Nb1 3.4874(32) . 1_545 n
Bi1 Nb1 3.4874(32) . 1_555 n
Bi1 Nb1 3.4874(32) . -1_555 n
Bi1 Nb1 3.4874(32) . -1_565 n
Bi1 Nb1 3.4874(32) . -1_655 n
Bi1 Nb1 3.4874(32) . -1_665 n
Bi1 O1 2.77403(5) . 1_445 n
Bi1 O1 2.77403(5) . 1_455 n
Bi1 O1 2.77403(5) . 1_545 n
Bi1 O1 2.77403(5) . 1_555 n
Bi1 O2 2.787(5) . 1_545 n
Bi1 O2 2.787(5) . 1_555 n
Bi1 O2 2.787(5) . 2_555 n
Bi1 O2 2.787(5) . 2_655 n
Bi1 O2 2.787(5) . -1_555 n
Bi1 O2 2.787(5) . -1_565 n
Bi1 O2 2.787(5) . -2_455 n
Bi1 O2 2.787(5) . -2_555 n
Bi2 Sr1 3.92306(7) . 1_455 n
Bi2 Sr1 3.92306(7) . 1_545 n
Bi2 Sr1 3.92306(7) . 1_565 n
Bi2 Sr1 3.92306(7) . 1_655 n
Bi2 Bi3 3.687(5) . 1_445 n
Bi2 Bi3 3.687(5) . 1_455 n
Bi2 Bi3 3.687(5) . 1_545 n
Bi2 Bi3 3.687(5) . 1_555 n
Bi2 Sr2 3.687(5) . 1_445 n
Bi2 Sr2 3.687(5) . 1_455 n
Bi2 Sr2 3.687(5) . 1_545 n
Bi2 Sr2 3.687(5) . 1_555 n
Bi2 O3 2.8957(25) . 1_445 n
Bi2 O3 2.8957(25) . 1_455 n
Bi2 O3 2.8957(25) . 1_545 n
Bi2 O3 2.8957(25) . 1_555 n
Bi2 O4 2.381(5) . 1_545 n
Bi2 O4 2.381(5) . 1_555 n
Bi2 O4 2.381(5) . 2_555 n
Bi2 O4 2.381(5) . 2_655 n
Sr1 Bi2 3.92306(7) . 1_455 n
Sr1 Bi2 3.92306(7) . 1_545 n
Sr1 Bi2 3.92306(7) . 1_565 n
Sr1 Bi2 3.92306(7) . 1_655 n
Sr1 Sr1 3.92306(7) . 1_455 n
Sr1 Sr1 3.92306(7) . 1_545 n
Sr1 Sr1 3.92306(7) . 1_565 n
Sr1 Sr1 3.92306(7) . 1_655 n
Sr1 Bi3 3.687(5) . 1_445 n
Sr1 Bi3 3.687(5) . 1_455 n
Sr1 Bi3 3.687(5) . 1_545 n
Sr1 Bi3 3.687(5) . 1_555 n
Sr1 Sr2 3.687(5) . 1_445 n
Sr1 Sr2 3.687(5) . 1_455 n
Sr1 Sr2 3.687(5) . 1_545 n
Sr1 Sr2 3.687(5) . 1_555 n
Sr1 Nb1 3.865(5) . 1_445 n
Sr1 Nb1 3.865(5) . 1_455 n
Sr1 Nb1 3.865(5) . 1_545 n
Sr1 Nb1 3.865(5) . 1_555 n
Sr1 O2 3.439(7) . 1_545 n
Sr1 O2 3.439(7) . 1_555 n
Sr1 O2 3.439(7) . 2_555 n
Sr1 O2 3.439(7) . 2_655 n
Sr1 O3 2.8957(25) . 1_445 n
Sr1 O3 2.8957(25) . 1_455 n
Sr1 O3 2.8957(25) . 1_545 n
Sr1 O3 2.8957(25) . 1_555 n
Sr1 O4 2.381(5) . 1_545 n
Sr1 O4 2.381(5) . 1_555 n
Sr1 O4 2.381(5) . 2_555 n
Sr1 O4 2.381(5) . 2_655 n
Bi3 Bi2 3.687(5) . 1_555 n
Bi3 Bi2 3.687(5) . 1_565 n
Bi3 Bi2 3.687(5) . 1_655 n
Bi3 Bi2 3.687(5) . 1_665 n
Bi3 Sr1 3.687(5) . 1_555 n
Bi3 Sr1 3.687(5) . 1_565 n
Bi3 Sr1 3.687(5) . 1_655 n
Bi3 Sr1 3.687(5) . 1_665 n
Bi3 Sr2 3.92306(7) . 1_455 n
Bi3 Sr2 3.92306(7) . 1_545 n
Bi3 Sr2 3.92306(7) . 1_565 n
Bi3 Sr2 3.92306(7) . 1_655 n
Bi3 Sr2 4.141(9) . -1_666 n
Bi3 Br1 3.4614(28) . 1_555 n
Bi3 Br1 3.4614(28) . 1_565 n
Bi3 Br1 3.4614(28) . 1_655 n
Bi3 Br1 3.4614(28) . 1_665 n
Bi3 O4 2.2389(28) . 1_555 n
Bi3 O4 2.2389(28) . 1_655 n
Bi3 O4 2.2389(28) . 2_655 n
Bi3 O4 2.2389(28) . 2_665 n
Sr2 Bi2 3.687(5) . 1_555 n
Sr2 Bi2 3.687(5) . 1_565 n
Sr2 Bi2 3.687(5) . 1_655 n
Sr2 Bi2 3.687(5) . 1_665 n
Sr2 Sr1 3.687(5) . 1_555 n
Sr2 Sr1 3.687(5) . 1_565 n
Sr2 Sr1 3.687(5) . 1_655 n
Sr2 Sr1 3.687(5) . 1_665 n
Sr2 Bi3 3.92306(7) . 1_455 n
Sr2 Bi3 3.92306(7) . 1_545 n
Sr2 Bi3 3.92306(7) . 1_565 n
Sr2 Bi3 3.92306(7) . 1_655 n
Sr2 Bi3 4.141(9) . -1_666 n
Sr2 Sr2 3.92306(7) . 1_455 n
Sr2 Sr2 3.92306(7) . 1_545 n
Sr2 Sr2 3.92306(7) . 1_565 n
Sr2 Sr2 3.92306(7) . 1_655 n
Sr2 Sr2 4.141(9) . -1_666 n
Sr2 Br1 3.4614(28) . 1_555 n
Sr2 Br1 3.4614(28) . 1_565 n
Sr2 Br1 3.4614(28) . 1_655 n
Sr2 Br1 3.4614(28) . 1_665 n
Sr2 O3 3.259(7) . 1_555 n
Sr2 O4 2.2389(28) . 1_555 n
Sr2 O4 2.2389(28) . 1_655 n
Sr2 O4 2.2389(28) . 2_655 n
Sr2 O4 2.2389(28) . 2_665 n
Nb1 Bi1 3.4874(32) . 1_555 n
Nb1 Bi1 3.4874(32) . 1_565 n
Nb1 Bi1 3.4874(32) . 1_655 n
Nb1 Bi1 3.4874(32) . 1_665 n
Nb1 Sr1 3.865(5) . 1_555 n
Nb1 Sr1 3.865(5) . 1_565 n
Nb1 Sr1 3.865(5) . 1_655 n
Nb1 Sr1 3.865(5) . 1_665 n
Nb1 O1 2.114(5) . 1_555 n
Nb1 O2 1.9661(5) . 1_555 n
Nb1 O2 1.9661(5) . 1_655 n
Nb1 O2 1.9661(5) . 2_655 n
Nb1 O2 1.9661(5) . 2_665 n
Nb1 O3 1.861(8) . 1_555 n
Br1 Bi3 3.4614(28) . 1_445 n
Br1 Bi3 3.4614(28) . 1_455 n
Br1 Bi3 3.4614(28) . 1_545 n
Br1 Bi3 3.4614(28) . 1_555 n
Br1 Bi3 3.4614(28) . -1_556 n
Br1 Bi3 3.4614(28) . -1_566 n
Br1 Bi3 3.4614(28) . -1_656 n
Br1 Bi3 3.4614(28) . -1_666 n
Br1 Sr2 3.4614(28) . 1_445 n
Br1 Sr2 3.4614(28) . 1_455 n
Br1 Sr2 3.4614(28) . 1_545 n
Br1 Sr2 3.4614(28) . 1_555 n
Br1 Sr2 3.4614(28) . -1_556 n
Br1 Sr2 3.4614(28) . -1_566 n
Br1 Sr2 3.4614(28) . -1_656 n
Br1 Sr2 3.4614(28) . -1_666 n
O1 Bi1 2.77403(5) . 1_555 n
O1 Bi1 2.77403(5) . 1_565 n
O1 Bi1 2.77403(5) . 1_655 n
O1 Bi1 2.77403(5) . 1_665 n
O1 Nb1 2.114(5) . 1_555 n
O1 Nb1 2.114(5) . -1_665 n
O2 Bi1 2.787(5) . 1_555 n
O2 Bi1 2.787(5) . 1_565 n
O2 Sr1 3.439(7) . 1_555 n
O2 Sr1 3.439(7) . 1_565 n
O2 Nb1 1.9661(5) . 1_455 n
O2 Nb1 1.9661(5) . 1_555 n
O3 Bi2 2.8957(25) . 1_555 n
O3 Bi2 2.8957(25) . 1_565 n
O3 Bi2 2.8957(25) . 1_655 n
O3 Bi2 2.8957(25) . 1_665 n
O3 Sr1 2.8957(25) . 1_555 n
O3 Sr1 2.8957(25) . 1_565 n
O3 Sr1 2.8957(25) . 1_655 n
O3 Sr1 2.8957(25) . 1_665 n
O3 Sr2 3.259(7) . 1_555 n
O3 Nb1 1.861(8) . 1_555 n
O4 Bi2 2.381(5) . 1_555 n
O4 Bi2 2.381(5) . 1_565 n
O4 Sr1 2.381(5) . 1_555 n
O4 Sr1 2.381(5) . 1_565 n
O4 Bi3 2.2389(28) . 1_455 n
O4 Bi3 2.2389(28) . 1_555 n
O4 Sr2 2.2389(28) . 1_455 n
O4 Sr2 2.2389(28) . 1_555 n
loop_
_pd_meas_counts_total
_pd_proc_ls_weight
_pd_proc_intensity_bkg_calc
_pd_calc_intensity_total
29.0 0.0 461.80746 .
20.0 0.0 461.61520 .
20.0 0.0 461.42029 .
16.0 0.0 461.22275 .
14.0 0.0 461.02258 .
18.0 0.0 460.81982 .
21.0 0.0 460.61456 .
22.0 0.0 460.40680 .
16.0 0.0 460.19656 .
25.0 0.0 459.98389 .
24.0 0.0 459.76883 .
26.0 0.0 459.55142 .
27.0 0.0 459.33167 .
21.0 0.0 459.10965 .
17.0 0.0 458.88538 .
16.0 0.0 458.65884 .
21.0 0.0 458.43018 .
22.0 0.0 458.19931 .
22.0 0.0 457.96637 .
21.0 0.0 457.73129 .
17.0 0.0 457.49420 .
16.0 0.0 457.25507 .
27.0 0.0 457.01392 .
15.0 0.0 456.77084 .
11.0 0.0 456.52582 .
24.0 0.0 456.27890 .
25.0 0.0 456.03012 .
26.0 0.0 455.77948 .
26.0 0.0 455.52707 .
34.0 0.0 455.27289 .
39.0 0.0 455.01694 .
50.0 0.0 454.75928 .
66.0 0.0 454.49994 .
83.0 0.0 454.23895 .
118.0 0.0 453.97632 .
129.0 0.0 453.71210 .
122.0 0.0 453.44632 .
142.0 0.0 453.17899 .
209.0 0.0 452.91016 .
277.0 0.0 452.63983 .
330.0 0.0 452.36804 .
413.0 0.0 452.09485 .
427.0 0.0 451.82025 .
504.0 0.0 451.54425 .
520.0 0.0 451.26694 .
575.0 0.0 450.98828 .
615.0 0.0 450.70834 .
642.0 0.0 450.42712 .
656.0 0.0 450.14468 .
714.0 0.0 449.86102 .
830.0 0.0 449.57617 .
863.0 0.0 449.29013 .
869.0 0.0 449.00296 .
862.0 0.0 448.71469 .
878.0 0.0 448.42535 .
890.0 0.0 448.13492 .
873.0 0.0 447.84344 .
933.0 0.0 447.55096 .
907.0 0.0 447.25748 .
957.0 0.0 446.96304 .
981.0 0.0 446.66763 .
994.0 0.0 446.37134 .
960.0 0.0 446.07413 .
970.0 0.0 445.77603 .
963.0 0.0 445.47708 .
1011.0 0.0 445.17731 .
1037.0 0.0 444.87674 .
953.0 0.0 444.57538 .
1082.0 0.0 444.27328 .
1002.0 0.0 443.97040 .
1038.0 0.0 443.66681 .
1036.0 0.0 443.36252 .
1077.0 0.0 443.05756 .
1072.0 0.0 442.75192 .
1064.0 0.0 442.44568 .
1078.0 0.0 442.13882 .
1073.0 0.0 441.83136 .
1145.0 0.0 441.52332 .
1101.0 0.0 441.21472 .
1110.0 0.0 440.90561 .
1120.0 0.0 440.59595 .
1131.0 0.0 440.28583 .
1169.0 0.0 439.97522 .
1205.0 0.0 439.66415 .
1235.0 0.0 439.35266 .
1252.0 0.0 439.04071 .
1258.0 0.0 438.72842 .
1217.0 0.0 438.41571 .
1316.0 0.0 438.10263 .
1330.0 0.0 437.78925 .
1356.0 0.0 437.47552 .
1433.0 0.0 437.16147 .
1468.0 0.0 436.84714 .
1605.0 0.0 436.53256 .
1626.0 0.0 436.21768 .
1662.0 0.0 435.90262 .
1689.0 0.0 435.58728 .
1634.0 0.0 435.27176 .
1592.0 0.0 434.95605 .
1549.0 0.0 434.64017 .
1470.0 0.0 434.32416 .
1376.0 0.0 434.00797 .
1247.0 0.0 433.69168 .
1089.0 0.0 433.37527 .
968.0 0.0 433.05881 .
882.0 0.0 432.74222 .
771.0 0.0 432.42560 .
660.0 0.0 432.10892 .
593.0 0.0 431.79224 .
595.0 0.0 431.47552 .
569.0 0.0 431.15881 .
534.0 0.0 430.84210 .
544.0 0.0 430.52545 .
531.0 0.0 430.20883 .
542.0 0.0 429.89227 .
527.0 0.0 429.57578 .
515.0 0.0 429.25937 .
498.0 0.0 428.94305 .
505.0 0.0 428.62689 .
513.0 0.0 428.31082 .
520.0 0.0 427.99490 .
518.0 0.0 427.67914 .
493.0 0.0 427.36356 .
461.0 0.0 427.04813 .
458.0 0.0 426.73291 .
467.0 0.0 426.41791 .
474.0 0.0 426.10309 .
495.0 0.0 425.78854 .
475.0 0.0 425.47421 .
454.0 0.0 425.16016 .
469.0 0.0 424.84634 .
466.0 0.0 424.53284 .
462.0 0.0 424.21960 .
455.0 0.0 423.90668 .
464.0 0.0 423.59409 .
463.0 0.0 423.28180 .
448.0 0.0 422.96985 .
481.0 0.0 422.65823 .
478.0 0.0 422.34702 .
472.0 0.0 422.03613 .
452.0 0.0 421.72565 .
483.0 0.0 421.41556 .
421.0 0.0 421.10587 .
448.0 0.0 420.79660 .
445.0 0.0 420.48773 .
442.0 0.0 420.17932 .
443.0 0.002257 419.87134 425.67950
460.0 0.002174 419.56381 425.19623
434.0 0.002304 419.25674 424.72568
436.0 0.002294 418.95013 424.26709
444.0 0.002252 418.64404 423.82004
484.0 0.002066 418.33841 423.38397
404.0 0.002475 418.03329 422.95859
423.0 0.002364 417.72870 422.54346
451.0 0.002217 417.42459 422.13846
457.0 0.002188 417.12103 421.74362
428.0 0.002336 416.81802 421.35886
403.0 0.002481 416.51553 420.98453
448.0 0.002232 416.21362 420.62100
457.0 0.002188 415.91226 420.26883
422.0 0.002370 415.61145 419.92868
426.0 0.002347 415.31125 419.60129
415.0 0.002410 415.01163 419.28723
391.0 0.002558 414.71259 418.98669
412.0 0.002427 414.41418 418.69897
423.0 0.002364 414.11636 418.42233
409.0 0.002445 413.81915 418.15329
419.0 0.002387 413.52258 417.88666
417.0 0.002398 413.22668 417.61542
445.0 0.002247 412.93140 417.33066
403.0 0.002481 412.63675 417.02255
443.0 0.002257 412.34277 416.68124
408.0 0.002451 412.04944 416.29855
390.0 0.002564 411.75681 415.87134
410.0 0.002439 411.46484 415.40369
436.0 0.002294 411.17355 414.90723
381.0 0.002625 410.88297 414.39761
423.0 0.002364 410.59308 413.89011
406.0 0.002463 410.30389 413.39624
398.0 0.002513 410.01541 412.92355
438.0 0.002283 409.72766 412.47574
408.0 0.002451 409.44064 412.05359
423.0 0.002364 409.15433 411.65573
378.0 0.002646 408.86877 411.27942
403.0 0.002481 408.58395 410.92130
411.0 0.002433 408.29987 410.57791
395.0 0.002532 408.01654 410.24615
420.0 0.002381 407.73401 409.92352
414.0 0.002415 407.45221 409.60806
427.0 0.002342 407.17120 409.29837
381.0 0.002625 406.89096 408.99347
367.0 0.002725 406.61148 408.69284
414.0 0.002415 406.33282 408.39603
402.0 0.002488 406.05493 408.10294
402.0 0.002488 405.77786 407.81345
379.0 0.002639 405.50159 407.52756
383.0 0.002611 405.22610 407.24536
365.0 0.002740 404.95145 406.96698
384.0 0.002604 404.67761 406.69260
386.0 0.002591 404.40460 406.42245
404.0 0.002475 404.13242 406.15698
388.0 0.002577 403.86105 405.89673
420.0 0.002381 403.59055 405.64258
396.0 0.002525 403.32086 405.39542
397.0 0.002519 403.05203 405.15683
363.0 0.002755 402.78406 404.92868
377.0 0.002653 402.51691 404.71332
403.0 0.002481 402.25064 404.51367
371.0 0.002695 401.98523 404.33337
417.0 0.002398 401.72070 404.17609
398.0 0.002513 401.45703 404.04626
394.0 0.002538 401.19421 403.94827
350.0 0.002857 400.93228 403.88608
396.0 0.002525 400.67126 403.86316
416.0 0.002404 400.41110 403.88153
390.0 0.002564 400.15182 403.94214
424.0 0.002358 399.89343 404.04581
391.0 0.002558 399.63596 404.19412
392.0 0.002551 399.37936 404.38922
423.0 0.002364 399.12369 404.63049
390.0 0.002564 398.86890 404.91440
382.0 0.002618 398.61502 405.23782
388.0 0.002577 398.36206 405.60242
411.0 0.002433 398.11002 406.01389
414.0 0.002415 397.85886 406.47528
391.0 0.002558 397.60864 406.98447
415.0 0.002410 397.35934 407.54001
401.0 0.002494 397.11096 408.14902
415.0 0.002410 396.86353 408.82318
401.0 0.002494 396.61700 409.56931
423.0 0.002364 396.37143 410.38818
424.0 0.002358 396.12677 411.28589
433.0 0.002309 395.88306 412.28006
416.0 0.002404 395.64029 413.39081
437.0 0.002288 395.39847 414.63187
413.0 0.002421 395.15756 416.01889
473.0 0.002114 394.91763 417.58167
449.0 0.002227 394.67862 419.35831
454.0 0.002203 394.44058 421.38196
457.0 0.002188 394.20349 423.68204
468.0 0.002137 393.96735 426.28992
489.0 0.002045 393.73215 429.22501
530.0 0.001887 393.49792 432.47406
459.0 0.002179 393.26465 435.98361
483.0 0.002070 393.03232 439.65182
516.0 0.001938 392.80096 443.31277
486.0 0.002058 392.57059 446.73080
543.0 0.001842 392.34116 449.60858
524.0 0.001908 392.11270 451.60022
517.0 0.001934 391.88519 452.34174
555.0 0.001802 391.65869 451.51242
528.0 0.001894 391.43314 448.93182
525.0 0.001905 391.20856 444.66782
511.0 0.001957 390.98492 439.07544
436.0 0.002294 390.76230 432.70389
442.0 0.002262 390.54062 426.12628
418.0 0.002392 390.31995 419.80872
382.0 0.002618 390.10022 414.06543
425.0 0.002353 389.88150 409.06979
409.0 0.002445 389.66373 404.88260
387.0 0.002584 389.44696 401.48166
393.0 0.002545 389.23114 398.23459
405.0 0.002469 389.01633 396.14877
344.0 0.002907 388.80249 394.73956
351.0 0.002849 388.58963 393.50809
349.0 0.002865 388.37775 392.54901
389.0 0.002571 388.16687 391.78439
345.0 0.002899 387.95694 391.15570
372.0 0.002688 387.74802 390.62115
359.0 0.002786 387.54007 390.15775
382.0 0.002618 387.33310 389.73544
381.0 0.002625 387.12714 389.34744
379.0 0.002639 386.92212 388.98566
389.0 0.002571 386.71811 388.64481
362.0 0.002762 386.51508 388.32120
401.0 0.002494 386.31305 388.01212
361.0 0.002770 386.11200 387.71570
366.0 0.002732 385.91193 387.43018
375.0 0.002667 385.71283 387.15439
362.0 0.002762 385.51471 386.88715
386.0 0.002591 385.31760 386.62769
358.0 0.002793 385.12146 386.37512
349.0 0.002865 384.92630 386.12885
366.0 0.002732 384.73215 385.88828
361.0 0.002770 384.53894 385.65292
361.0 0.002770 384.34674 385.42236
397.0 0.002519 384.15552 385.19620
408.0 0.002451 383.96527 384.97415
372.0 0.002688 383.77603 384.75589
356.0 0.002809 383.58774 384.54123
335.0 0.002985 383.40045 384.32983
369.0 0.002710 383.21414 384.12161
361.0 0.002770 383.02881 383.91635
392.0 0.002551 382.84445 383.71396
398.0 0.002513 382.66107 383.51419
397.0 0.002519 382.47867 383.31705
365.0 0.002740 382.29724 383.12234
395.0 0.002532 382.11679 382.92999
375.0 0.002667 381.93732 382.73990
359.0 0.002786 381.75882 382.55197
381.0 0.002625 381.58130 382.36621
364.0 0.002747 381.40475 382.18250
346.0 0.002890 381.22916 382.00082
367.0 0.002725 381.05457 381.82111
372.0 0.002688 380.88092 381.64328
357.0 0.002801 380.70825 381.46741
367.0 0.002725 380.53653 381.29333
388.0 0.002577 380.36578 381.12109
367.0 0.002725 380.19604 380.95068
406.0 0.002463 380.02722 380.78052
365.0 0.002740 379.85938 380.61362
374.0 0.002674 379.69250 380.44849
365.0 0.002740 379.52658 380.28510
394.0 0.002538 379.36160 380.12344
375.0 0.002667 379.19760 379.96347
375.0 0.002667 379.03458 379.80527
360.0 0.002778 378.87247 379.64880
368.0 0.002717 378.71133 379.49399
387.0 0.002584 378.55115 379.34094
349.0 0.002865 378.39191 379.18964
361.0 0.002770 378.23364 379.04004
367.0 0.002725 378.07629 378.89221
384.0 0.002604 377.91992 378.74615
358.0 0.002793 377.76447 378.60190
374.0 0.002674 377.60999 378.45947
374.0 0.002674 377.45642 378.31888
353.0 0.002833 377.30380 378.18015
389.0 0.002571 377.15213 378.04327
375.0 0.002667 377.00140 377.90842
376.0 0.002660 376.85159 377.77545
371.0 0.002695 376.70273 377.64456
359.0 0.002786 376.55478 377.51569
374.0 0.002674 376.40778 377.38895
381.0 0.002625 376.26169 377.26437
357.0 0.002801 376.11655 377.14203
382.0 0.002618 375.97232 377.02194
421.0 0.002375 375.82901 376.90430
393.0 0.002545 375.68665 376.78903
356.0 0.002809 375.54517 376.67639
384.0 0.002604 375.40463 376.56635
401.0 0.002494 375.26501 376.45908
363.0 0.002755 375.12628 376.35464
385.0 0.002597 374.98849 376.25320
392.0 0.002551 374.85159 376.15497
359.0 0.002786 374.71561 376.05997
361.0 0.002770 374.58054 375.96921
356.0 0.002809 374.44635 375.88141
369.0 0.002710 374.31308 375.79742
391.0 0.002558 374.18073 375.71756
348.0 0.002874 374.04926 375.64200
364.0 0.002747 373.91867 375.57114
358.0 0.002793 373.78897 375.50519
342.0 0.002924 373.66019 375.44461
349.0 0.002865 373.53229 375.38971
355.0 0.002817 373.40527 375.34100
394.0 0.002538 373.27914 375.29898
369.0 0.002710 373.15390 375.26410
368.0 0.002717 373.02951 375.23715
366.0 0.002732 372.90604 375.21881
351.0 0.002849 372.78342 375.20990
380.0 0.002632 372.66168 375.21143
388.0 0.002577 372.54080 375.22452
362.0 0.002762 372.42081 375.25049
363.0 0.002755 372.30167 375.29099
396.0 0.002525 372.18341 375.34805
341.0 0.002933 372.06598 375.42426
357.0 0.002801 371.94946 375.52301
366.0 0.002732 371.83377 375.64877
384.0 0.002604 371.71893 375.80765
380.0 0.002632 371.60495 376.00769
396.0 0.002525 371.49182 376.26010
381.0 0.002625 371.37955 376.57950
363.0 0.002755 371.26810 376.98483
375.0 0.002667 371.15750 377.50000
375.0 0.002667 371.04776 378.15405
391.0 0.002558 370.93884 378.98132
391.0 0.002558 370.83078 380.02112
412.0 0.002427 370.72351 381.31717
375.0 0.002667 370.61710 382.91608
415.0 0.002410 370.51151 384.86447
426.0 0.002347 370.40677 387.20395
431.0 0.002320 370.30283 389.96762
405.0 0.002469 370.19971 393.18301
445.0 0.002247 370.09741 396.88528
461.0 0.002169 369.99594 401.13025
432.0 0.002315 369.89526 405.98737
442.0 0.002262 369.79541 411.51376
510.0 0.001961 369.69638 417.74329
470.0 0.002128 369.59814 424.66208
507.0 0.001972 369.50070 432.49564
504.0 0.001984 369.40405 441.35614
494.0 0.002024 369.30823 451.39886
518.0 0.001931 369.21317 462.69653
590.0 0.001695 369.11893 475.26205
593.0 0.001686 369.02545 489.09116
611.0 0.001637 368.93280 504.08856
634.0 0.001577 368.84091 519.91638
606.0 0.001650 368.74979 535.94684
677.0 0.001477 368.65948 551.33594
667.0 0.001499 368.56992 565.04712
714.0 0.001401 368.48114 575.81604
646.0 0.001548 368.39316 582.22864
699.0 0.001431 368.30591 582.94403
637.0 0.001570 368.21945 577.02362
680.0 0.001471 368.13373 564.37115
613.0 0.001631 368.04880 546.03979
576.0 0.001736 367.96463 524.02191
552.0 0.001812 367.88120 500.59567
461.0 0.002169 367.79852 477.71277
471.0 0.002123 367.71658 456.73468
419.0 0.002387 367.63541 438.44479
412.0 0.002427 367.55499 423.15921
425.0 0.002353 367.47528 410.84796
448.0 0.002232 367.39633 401.24670
377.0 0.002653 367.31812 393.95715
397.0 0.002519 367.24063 388.53186
436.0 0.002294 367.16388 384.53833
401.0 0.002494 367.08786 381.59943
403.0 0.002481 367.01257 379.56284
400.0 0.002500 366.93802 377.89960
429.0 0.002331 366.86417 376.59555
387.0 0.002584 366.79102 375.53955
411.0 0.002433 366.71860 374.65805
408.0 0.002451 366.64691 373.90344
399.0 0.002506 366.57590 373.24490
387.0 0.002584 366.50562 372.66193
361.0 0.002770 366.43604 372.14047
379.0 0.002639 366.36716 371.67044
352.0 0.002841 366.29898 371.24423
390.0 0.002564 366.23148 370.85562
388.0 0.002577 366.16467 370.49985
340.0 0.002941 366.09857 370.17273
362.0 0.002762 366.03314 369.87088
358.0 0.002793 365.96841 369.59143
357.0 0.002801 365.90436 369.33173
395.0 0.002532 365.84100 369.08981
357.0 0.002801 365.77832 368.86627
371.0 0.002695 365.71628 368.65451
351.0 0.002849 365.65494 368.45557
355.0 0.002817 365.59424 368.26831
351.0 0.002849 365.53424 368.09164
320.0 0.003125 365.47488 367.92465
347.0 0.002882 365.41620 367.76654
363.0 0.002755 365.35815 367.61667
325.0 0.003077 365.30078 367.47433
325.0 0.003077 365.24405 367.33911
326.0 0.003067 365.18799 367.21060
349.0 0.002865 365.13254 367.08844
358.0 0.002793 365.07776 366.97238
328.0 0.003049 365.02359 366.86224
352.0 0.002841 364.97009 366.75800
354.0 0.002825 364.91724 366.65955
360.0 0.002778 364.86499 366.56693
347.0 0.002882 364.81339 366.48016
353.0 0.002833 364.76239 366.39932
352.0 0.002841 364.71204 366.32452
321.0 0.003115 364.66229 366.25577
352.0 0.002841 364.61319 366.19324
337.0 0.002967 364.56467 366.13727
323.0 0.003096 364.51678 366.08810
385.0 0.002597 364.46951 366.04611
344.0 0.002907 364.42285 366.01157
343.0 0.002915 364.37680 365.98517
320.0 0.003125 364.33133 365.96732
332.0 0.003012 364.28647 365.95804
343.0 0.002915 364.24222 365.95660
323.0 0.003096 364.19858 365.96185
343.0 0.002915 364.15549 365.97141
353.0 0.002833 364.11301 365.98141
354.0 0.002825 364.07111 365.98697
349.0 0.002865 364.02982 365.98203
324.0 0.003086 363.98907 365.96008
347.0 0.002882 363.94894 365.91492
348.0 0.002874 363.90936 365.84238
314.0 0.003185 363.87036 365.74261
369.0 0.002710 363.83194 365.62109
346.0 0.002890 363.79410 365.48694
352.0 0.002841 363.75681 365.35010
358.0 0.002793 363.72006 365.21848
338.0 0.002959 363.68390 365.09750
352.0 0.002841 363.64828 364.98999
361.0 0.002770 363.61322 364.89688
342.0 0.002924 363.57874 364.81775
338.0 0.002959 363.54477 364.75110
311.0 0.003215 363.51138 364.69510
326.0 0.003067 363.47852 364.64780
347.0 0.002882 363.44620 364.60733
361.0 0.002770 363.41443 364.57224
319.0 0.003135 363.38321 364.54153
314.0 0.003185 363.35251 364.51425
324.0 0.003086 363.32233 364.48993
329.0 0.003040 363.29269 364.46817
352.0 0.002841 363.26358 364.44891
325.0 0.003077 363.23499 364.43195
332.0 0.003012 363.20691 364.41727
301.0 0.003322 363.17938 364.40488
304.0 0.003289 363.15234 364.39478
340.0 0.002941 363.12582 364.38708
346.0 0.002890 363.09982 364.38171
343.0 0.002915 363.07434 364.40625
324.0 0.003086 363.04935 364.40646
308.0 0.003247 363.02487 364.40939
331.0 0.003021 363.00089 364.41504
383.0 0.002611 362.97742 364.42374
355.0 0.002817 362.95444 364.43549
346.0 0.002890 362.93195 364.45050
362.0 0.002762 362.90994 364.46902
358.0 0.002793 362.88846 364.49118
339.0 0.002950 362.86743 364.51727
351.0 0.002849 362.84689 364.54758
338.0 0.002959 362.82687 364.58234
323.0 0.003096 362.80728 364.62198
337.0 0.002967 362.78821 364.66681
375.0 0.002667 362.76959 364.71732
352.0 0.002841 362.75143 364.77399
345.0 0.002899 362.73376 364.83725
375.0 0.002667 362.71658 364.90793
325.0 0.003077 362.69983 364.98654
359.0 0.002786 362.68356 365.07407
345.0 0.002899 362.66776 365.17133
366.0 0.002732 362.65240 365.27945
334.0 0.002994 362.63751 365.39960
338.0 0.002959 362.62308 365.53329
350.0 0.002857 362.60907 365.68216
393.0 0.002545 362.59555 365.84830
345.0 0.002899 362.58246 366.03412
352.0 0.002841 362.56979 366.24274
326.0 0.003067 362.55762 366.47815
380.0 0.002632 362.54584 366.74561
367.0 0.002725 362.53452 367.05255
352.0 0.002841 362.52362 367.40884
368.0 0.002717 362.51318 367.82867
367.0 0.002725 362.50314 368.33124
348.0 0.002874 362.49356 368.94293
384.0 0.002604 362.48441 369.69830
383.0 0.002611 362.47565 370.64236
380.0 0.002632 362.46735 371.83096
409.0 0.002445 362.45944 373.33246
429.0 0.002331 362.45197 375.22791
432.0 0.002315 362.44492 377.61087
414.0 0.002415 362.43826 380.39633
414.0 0.002415 362.43201 384.07706
410.0 0.002439 362.42621 388.57324
430.0 0.002326 362.42078 393.99707
431.0 0.002320 362.41577 400.47150
471.0 0.002123 362.41116 408.14999
466.0 0.002146 362.40695 417.20761
476.0 0.002101 362.40314 427.77802
474.0 0.002110 362.39972 439.87811
524.0 0.001908 362.39670 453.39487
516.0 0.001938 362.39407 468.12234
570.0 0.001754 362.39185 483.72836
598.0 0.001672 362.39001 499.61078
613.0 0.001631 362.38855 514.81049
656.0 0.001524 362.38748 528.10675
672.0 0.001488 362.38678 538.15485
688.0 0.001453 362.38647 543.55804
608.0 0.001645 362.38657 543.08453
650.0 0.001538 362.38699 536.14716
632.0 0.001582 362.38782 523.24127
596.0 0.001678 362.38901 505.97354
566.0 0.001767 362.39059 486.37473
529.0 0.001890 362.39252 466.45547
471.0 0.002123 362.39484 447.67590
451.0 0.002217 362.39749 430.93332
416.0 0.002404 362.40051 416.66360
388.0 0.002577 362.40393 404.96292
398.0 0.002513 362.40768 395.69067
417.0 0.002398 362.41177 388.55569
393.0 0.002545 362.41626 383.19193
413.0 0.002421 362.42105 379.22250
369.0 0.002710 362.42624 376.30417
368.0 0.002717 362.43176 374.15118
360.0 0.002778 362.43762 372.54187
390.0 0.002564 362.44385 371.31326
357.0 0.002801 362.45041 370.35083
353.0 0.002833 362.45731 369.57642
377.0 0.002653 362.46454 368.93781
347.0 0.002882 362.47214 368.70682
373.0 0.002681 362.48004 368.25354
368.0 0.002717 362.48831 367.86230
358.0 0.002793 362.49689 367.52182
359.0 0.002786 362.50580 367.22385
372.0 0.002688 362.51508 366.96207
376.0 0.002660 362.52466 366.81894
389.0 0.002571 362.53455 366.61755
372.0 0.002688 362.54477 366.44031
358.0 0.002793 362.55533 366.46805
347.0 0.002882 362.56622 366.33463
362.0 0.002762 362.57742 366.22052
372.0 0.002688 362.58893 366.12045
340.0 0.002941 362.60077 366.03500
338.0 0.002959 362.61292 365.96304
368.0 0.002717 362.62537 365.90384
304.0 0.003289 362.63815 365.85657
339.0 0.002950 362.65121 365.82080
343.0 0.002915 362.66461 365.79614
335.0 0.002985 362.67831 365.78241
367.0 0.002725 362.69232 365.77966
335.0 0.002985 362.70663 365.78751
343.0 0.002915 362.72125 365.80789
352.0 0.002841 362.73615 365.84119
374.0 0.002674 362.75137 365.88904
382.0 0.002618 362.76688 365.95386
361.0 0.002770 362.78268 366.03961
375.0 0.002667 362.79877 366.15170
348.0 0.002874 362.81516 366.29776
383.0 0.002611 362.83185 366.48785
378.0 0.002646 362.84882 366.73557
360.0 0.002778 362.86609 367.05746
382.0 0.002618 362.88364 367.47446
382.0 0.002618 362.90146 368.01111
371.0 0.002695 362.91959 368.69614
362.0 0.002762 362.93799 369.56073
365.0 0.002740 362.95667 370.63776
364.0 0.002747 362.97565 371.95987
366.0 0.002732 362.99487 373.56097
374.0 0.002674 363.01440 375.47455
372.0 0.002688 363.03421 377.72482
373.0 0.002681 363.05426 380.30841
394.0 0.002538 363.07462 383.18311
420.0 0.002381 363.09521 386.26901
424.0 0.002358 363.11612 389.44308
376.0 0.002660 363.13727 392.51944
442.0 0.002262 363.15869 395.24530
429.0 0.002331 363.18039 397.32916
402.0 0.002488 363.20233 398.47534
421.0 0.002375 363.22455 398.43542
390.0 0.002564 363.24704 397.10431
404.0 0.002475 363.26978 394.61026
413.0 0.002421 363.29276 391.29834
400.0 0.002500 363.31601 387.60886
397.0 0.002519 363.33954 383.93640
399.0 0.002506 363.36331 380.56256
381.0 0.002625 363.38736 377.65292
388.0 0.002577 363.41162 375.27765
388.0 0.002577 363.43616 373.43585
384.0 0.002604 363.46097 372.07904
351.0 0.002849 363.48599 371.13248
415.0 0.002410 363.51126 370.51331
370.0 0.002703 363.53680 370.14377
386.0 0.002591 363.56259 369.95834
413.0 0.002421 363.58862 369.90720
388.0 0.002577 363.61490 369.95520
400.0 0.002500 363.64139 370.07977
403.0 0.002481 363.66815 370.26776
444.0 0.002252 363.69516 370.51297
413.0 0.002421 363.72238 370.81448
453.0 0.002208 363.74988 371.17548
459.0 0.002179 363.77759 371.60355
456.0 0.002193 363.80554 372.11197
436.0 0.002294 363.83371 372.72186
404.0 0.002475 363.86215 373.46661
428.0 0.002336 363.89081 374.39706
459.0 0.002179 363.91968 375.58887
466.0 0.002146 363.94882 377.15057
415.0 0.002410 363.97815 379.23203
430.0 0.002326 364.00775 382.03244
448.0 0.002232 364.03757 385.80685
444.0 0.002252 364.06760 390.87027
460.0 0.002174 364.09787 397.59735
439.0 0.002278 364.12836 406.41669
482.0 0.002075 364.15906 417.79871
514.0 0.001946 364.19000 432.24155
555.0 0.001802 364.22116 450.24362
578.0 0.001730 364.25253 472.22620
652.0 0.001534 364.28415 498.40384
665.0 0.001504 364.31598 528.63434
710.0 0.001408 364.34802 562.21808
821.0 0.001218 364.38028 597.68878
848.0 0.001179 364.41275 632.73004
915.0 0.001093 364.44547 664.22351
929.0 0.001076 364.47836 688.48688
897.0 0.001115 364.51151 701.79956
912.0 0.001096 364.54483 701.29858
859.0 0.001164 364.57840 686.24921
805.0 0.001242 364.61215 658.98309
702.0 0.001425 364.64615 624.37061
637.0 0.001570 364.68033 587.99902
572.0 0.001748 364.71472 554.56958
514.0 0.001946 364.74933 527.26422
477.0 0.002096 364.78415 507.72375
491.0 0.002037 364.81918 496.24374
500.0 0.002000 364.85440 491.89429
470.0 0.002128 364.88986 493.57080
542.0 0.001845 364.92551 499.22043
494.0 0.002024 364.96133 506.72867
494.0 0.002024 364.99741 513.93292
509.0 0.001965 365.03366 518.86383
481.0 0.002079 365.07013 519.96027
465.0 0.002151 365.10678 516.26154
519.0 0.001927 365.14365 507.59128
473.0 0.002114 365.18069 494.66080
440.0 0.002273 365.21796 478.98563
389.0 0.002571 365.25543 462.43494
411.0 0.002433 365.29309 446.69019
373.0 0.002681 365.33096 433.01147
409.0 0.002445 365.36902 422.01376
386.0 0.002591 365.40726 414.06372
387.0 0.002584 365.44571 409.19855
354.0 0.002825 365.48434 407.29742
395.0 0.002532 365.52319 408.18826
378.0 0.002646 365.56223 411.72220
407.0 0.002457 365.60144 417.80450
437.0 0.002288 365.64087 426.38339
408.0 0.002451 365.68048 437.41776
453.0 0.002208 365.72028 450.84244
441.0 0.002268 365.76028 466.50891
480.0 0.002083 365.80048 484.05576
539.0 0.001855 365.84085 502.76047
472.0 0.002119 365.88141 521.51770
524.0 0.001908 365.92218 538.94879
531.0 0.001883 365.96310 553.45850
526.0 0.001901 366.00424 563.23193
519.0 0.001927 366.04556 566.48993
546.0 0.001832 366.08707 562.08899
477.0 0.002096 366.12878 550.12848
501.0 0.001996 366.17065 532.13110
459.0 0.002179 366.21271 510.54962
443.0 0.002257 366.25497 487.90414
426.0 0.002347 366.29739 466.17200
365.0 0.002740 366.34003 446.62631
328.0 0.003049 366.38284 429.92572
357.0 0.002801 366.42581 416.26059
346.0 0.002890 366.46899 405.49194
320.0 0.003125 366.51236 397.27393
355.0 0.002817 366.55588 391.16092
340.0 0.002941 366.59961 386.69119
324.0 0.003086 366.64349 383.44519
343.0 0.002915 366.68759 381.07584
326.0 0.003067 366.73184 379.31714
329.0 0.003040 366.77628 377.97705
335.0 0.002985 366.82092 376.92426
363.0 0.002755 366.86572 376.07172
380.0 0.002632 366.91071 375.36310
379.0 0.002639 366.95584 374.76193
370.0 0.002703 367.00119 374.24432
346.0 0.002890 367.04672 373.79373
387.0 0.002584 367.09241 373.39825
329.0 0.003040 367.13828 373.04962
347.0 0.002882 367.18433 372.74179
373.0 0.002681 367.23056 372.47037
355.0 0.002817 367.27695 372.20035
338.0 0.002959 367.32355 371.99509
360.0 0.002778 367.37030 371.82001
375.0 0.002667 367.41721 371.67444
371.0 0.002695 367.46432 371.55740
385.0 0.002597 367.51160 371.46823
351.0 0.002849 367.55908 371.41333
360.0 0.002778 367.60669 371.37653
389.0 0.002571 367.65451 371.36295
385.0 0.002597 367.70248 371.36893
377.0 0.002653 367.75064 371.38910
364.0 0.002747 367.79898 371.41592
340.0 0.002941 367.84747 371.44080
326.0 0.003067 367.89615 371.45392
337.0 0.002967 367.94498 371.44504
346.0 0.002890 367.99402 371.40601
313.0 0.003195 368.04321 371.33411
358.0 0.002793 368.09256 371.23395
334.0 0.002994 368.14212 371.11679
378.0 0.002646 368.19183 370.99539
352.0 0.002841 368.24170 370.88074
335.0 0.002985 368.29175 370.78018
347.0 0.002882 368.34198 370.69757
350.0 0.002857 368.39236 370.63437
379.0 0.002639 368.44296 370.79721
339.0 0.002950 368.49368 370.77319
331.0 0.003021 368.54459 370.76395
374.0 0.002674 368.59567 370.76682
308.0 0.003247 368.64694 370.77951
370.0 0.002703 368.69836 370.80032
298.0 0.003356 368.74994 370.82776
342.0 0.002924 368.80173 370.86090
352.0 0.002841 368.85364 370.89911
310.0 0.003226 368.90576 370.94220
346.0 0.002890 368.95804 370.98981
364.0 0.002747 369.01047 371.04208
367.0 0.002725 369.06308 371.09915
345.0 0.002899 369.11588 371.16110
344.0 0.002907 369.16882 371.22824
342.0 0.002924 369.22195 371.30096
343.0 0.002915 369.27524 371.37964
390.0 0.002564 369.32870 371.46481
364.0 0.002747 369.38232 371.55704
367.0 0.002725 369.43613 371.65726
377.0 0.002653 369.49011 371.76642
393.0 0.002545 369.54425 371.88559
435.0 0.002299 369.59857 372.01660
438.0 0.002283 369.65305 372.16135
428.0 0.002336 369.70767 372.32526
442.0 0.002262 369.76251 372.50772
461.0 0.002169 369.81747 372.71735
503.0 0.001988 369.87265 376.29556
479.0 0.002088 369.92798 376.65045
554.0 0.001805 369.98346 377.07800
538.0 0.001859 370.03912 377.60800
572.0 0.001748 370.09494 378.28235
608.0 0.001645 370.15097 379.15784
582.0 0.001718 370.20712 380.30887
610.0 0.001639 370.26346 381.82840
577.0 0.001733 370.31998 383.82623
550.0 0.001818 370.37665 386.42184
483.0 0.002070 370.43350 389.72882
459.0 0.002179 370.49051 393.83139
402.0 0.002488 370.54770 398.75882
396.0 0.002525 370.60504 404.46292
422.0 0.002370 370.66257 410.78674
405.0 0.002469 370.72028 417.42175
403.0 0.002481 370.77811 423.89294
368.0 0.002717 370.83615 429.59967
360.0 0.002778 370.89435 433.86844
354.0 0.002825 370.95273 436.01913
381.0 0.002625 371.01126 435.54688
363.0 0.002755 371.06998 432.14133
391.0 0.002558 371.12885 426.76154
403.0 0.002481 371.18790 420.04123
398.0 0.002513 371.24710 412.90619
386.0 0.002591 371.30649 406.08603
367.0 0.002725 371.36606 400.04691
397.0 0.002519 371.42578 395.02219
401.0 0.002494 371.48569 391.06537
375.0 0.002667 371.54575 388.10510
354.0 0.002825 371.60599 385.99561
361.0 0.002770 371.66638 384.56204
385.0 0.002597 371.72699 383.63367
383.0 0.002611 371.78772 383.06464
350.0 0.002857 371.84863 382.74179
344.0 0.002907 371.90973 382.58423
354.0 0.002825 371.97101 382.53781
351.0 0.002849 372.03241 382.56818
370.0 0.002703 372.09402 382.65454
349.0 0.002865 372.15579 382.78415
347.0 0.002882 372.21774 382.94949
372.0 0.002688 372.27988 383.14609
361.0 0.002770 372.34216 383.37109
357.0 0.002801 372.40463 383.62274
353.0 0.002833 372.46725 383.89981
350.0 0.002857 372.53006 384.20187
330.0 0.003030 372.59305 384.52859
347.0 0.002882 372.65619 384.88022
366.0 0.002732 372.71951 385.07547
334.0 0.002994 372.78299 385.48166
354.0 0.002825 372.84668 385.91556
382.0 0.002618 372.91049 386.37894
368.0 0.002717 372.97452 386.87439
341.0 0.002933 373.03870 387.40549
366.0 0.002732 373.10306 387.97687
342.0 0.002924 373.16760 388.59509
355.0 0.002817 373.23230 389.26840
357.0 0.002801 373.29718 390.00790
357.0 0.002801 373.36221 390.82718
350.0 0.002857 373.42746 391.74277
385.0 0.002597 373.49286 392.77362
389.0 0.002571 373.55844 393.93954
392.0 0.002551 373.62418 395.25909
383.0 0.002611 373.69009 396.74545
402.0 0.002488 373.75620 398.40247
418.0 0.002392 373.82248 400.22284
395.0 0.002532 373.88892 402.18796
399.0 0.002506 373.95554 404.26593
427.0 0.002342 374.02234 406.40720
393.0 0.002545 374.08932 408.54849
391.0 0.002558 374.15646 410.63318
392.0 0.002551 374.22379 412.64038
374.0 0.002674 374.29129 414.61508
372.0 0.002688 374.35898 416.69836
387.0 0.002584 374.42685 419.13535
397.0 0.002519 374.49487 422.25070
415.0 0.002410 374.56308 426.41998
426.0 0.002347 374.63147 432.06052
412.0 0.002427 374.70004 439.62912
410.0 0.002439 374.76877 449.60458
461.0 0.002169 374.83771 462.44608
502.0 0.001992 374.90680 478.50281
491.0 0.002037 374.97607 497.89819
499.0 0.002004 375.04550 520.41180
535.0 0.001869 375.11514 545.42426
583.0 0.001715 375.18497 571.90271
622.0 0.001608 375.25494 598.30292
644.0 0.001553 375.32510 622.43475
671.0 0.001490 375.39545 641.63751
696.0 0.001437 375.46597 653.38519
689.0 0.001451 375.53668 656.04102
667.0 0.001499 375.60757 649.50452
648.0 0.001543 375.67862 635.62341
608.0 0.001645 375.74988 617.75128
578.0 0.001730 375.82129 599.38965
574.0 0.001742 375.89291 583.35632
549.0 0.001821 375.96469 571.62274
534.0 0.001873 376.03665 565.52020
528.0 0.001894 376.10880 566.04077
536.0 0.001866 376.18112 574.16656
571.0 0.001751 376.25363 591.22485
599.0 0.001669 376.32632 619.25854
708.0 0.001412 376.39920 661.37830
802.0 0.001247 376.47226 722.04730
852.0 0.001174 376.54547 808.13629
976.0 0.001025 376.61890 925.17651
1193.0 0.000838 376.69250 1082.26782
1508.0 0.000663 376.76630 1287.36633
1785.0 0.000560 376.84024 1546.31226
2107.0 0.000475 376.91440 1860.34814
2413.0 0.000414 376.98874 2223.78906
2764.0 0.000362 377.06326 2622.93726
3235.0 0.0003091 377.13794 3035.71484
3601.0 0.0002777 377.21283 3429.94141
3820.0 0.0002618 377.28790 3762.83276
4022.0 0.0002486 377.36316 3984.01270
4073.0 0.0002455 377.43860 4051.94360
3935.0 0.0002541 377.51422 3945.29028
3690.0 0.0002710 377.59000 3675.56396
3199.0 0.0003126 377.66599 3287.64453
2686.0 0.000372 377.74219 2841.91504
2255.0 0.000443 377.81854 2392.59204
1746.0 0.000573 377.89508 1977.66516
1334.0 0.000750 377.97180 1618.75256
1040.0 0.000962 378.04874 1324.58142
823.0 0.001215 378.12582 1094.42322
667.0 0.001499 378.20313 921.42181
618.0 0.001618 378.28061 795.55615
564.0 0.001773 378.35825 706.05725
543.0 0.001842 378.43610 643.07300
506.0 0.001976 378.51413 598.54315
460.0 0.002174 378.59238 566.42517
471.0 0.002123 378.67078 542.50092
463.0 0.002160 378.74936 523.98834
454.0 0.002203 378.82816 509.12787
473.0 0.002114 378.90714 496.77997
447.0 0.002237 378.98627 486.37228
482.0 0.002075 379.06561 477.42358
458.0 0.002183 379.14517 469.64612
489.0 0.002045 379.22488 462.83508
495.0 0.002020 379.30481 456.83664
488.0 0.002049 379.38489 451.56824
476.0 0.002101 379.46518 446.85599
444.0 0.002252 379.54565 442.75128
476.0 0.002101 379.62634 439.00116
479.0 0.002088 379.70718 435.64175
438.0 0.002283 379.78824 432.62573
425.0 0.002353 379.86948 429.91312
433.0 0.002309 379.95090 427.46979
445.0 0.002247 380.03250 425.26645
431.0 0.002320 380.11432 423.27814
440.0 0.002273 380.19632 421.48337
405.0 0.002469 380.27850 419.86362
391.0 0.002558 380.36087 418.40292
424.0 0.002358 380.44342 417.08746
408.0 0.002451 380.52618 415.90540
402.0 0.002488 380.60913 414.84662
454.0 0.002203 380.69229 413.90228
423.0 0.002364 380.77560 413.06494
414.0 0.002415 380.85913 412.32825
413.0 0.002421 380.94284 411.68723
444.0 0.002252 381.02673 411.13754
428.0 0.002336 381.11084 410.67572
442.0 0.002262 381.19513 410.29962
447.0 0.002237 381.27960 410.00760
486.0 0.002058 381.36426 409.79898
506.0 0.001976 381.44913 409.67410
487.0 0.002053 381.53418 409.63406
501.0 0.001996 381.61942 409.68118
484.0 0.002066 381.70486 409.81863
521.0 0.001919 381.79050 410.05099
475.0 0.002105 381.87631 410.38431
479.0 0.002088 381.96231 410.82614
456.0 0.002193 382.04852 411.38605
479.0 0.002088 382.13492 412.07605
476.0 0.002101 382.22153 412.91074
465.0 0.002151 382.30832 413.90860
464.0 0.002155 382.39529 415.09290
449.0 0.002227 382.48245 416.49362
439.0 0.002278 382.56982 418.15118
471.0 0.002123 382.65738 420.12268
493.0 0.002028 382.74512 422.49414
468.0 0.002137 382.83307 425.40143
501.0 0.001996 382.92120 429.06665
481.0 0.002079 383.00952 433.85474
484.0 0.002066 383.09805 440.35742
533.0 0.001876 383.18680 449.50571
520.0 0.001923 383.27570 462.69495
550.0 0.001818 383.36481 481.94003
550.0 0.001818 383.45410 509.90491
636.0 0.001572 383.54358 549.86615
667.0 0.001499 383.63327 605.40222
736.0 0.001359 383.72314 679.74847
831.0 0.001203 383.81323 774.78015
947.0 0.001056 383.90347 889.77887
1076.0 0.000929 383.99396 1020.35297
1166.0 0.000858 384.08459 1157.76257
1289.0 0.000776 384.17545 1288.77917
1455.0 0.000687 384.26648 1396.68689
1452.0 0.000689 384.35773 1463.87537
1463.0 0.000684 384.44916 1476.16528
1321.0 0.000757 384.54077 1429.08667
1268.0 0.000789 384.63260 1332.27991
1156.0 0.000865 384.72461 1204.66589
1061.0 0.000943 384.81680 1067.39563
922.0 0.001085 384.90921 936.62140
781.0 0.001280 385.00180 822.08099
665.0 0.001504 385.09460 727.88757
559.0 0.001789 385.18756 654.13605
509.0 0.001965 385.28076 598.42578
491.0 0.002037 385.37411 557.95447
468.0 0.002137 385.46768 529.16321
447.0 0.002237 385.56143 509.04898
448.0 0.002232 385.65540 495.29492
471.0 0.002123 385.74951 486.41339
470.0 0.002128 385.84387 481.58691
468.0 0.002137 385.93842 480.68127
499.0 0.002004 386.03311 484.02106
505.0 0.001980 386.12805 492.34918
561.0 0.001783 386.22314 506.78366
568.0 0.001761 386.31845 528.74524
622.0 0.001608 386.41394 559.80481
678.0 0.001475 386.50964 601.41321
725.0 0.001379 386.60553 654.48431
803.0 0.001245 386.70160 718.82703
882.0 0.001134 386.79788 792.48761
952.0 0.001050 386.89435 871.29572
1069.0 0.000935 386.99100 949.00342
1154.0 0.000867 387.08783 1018.17169
1183.0 0.000845 387.18488 1070.55164
1229.0 0.000814 387.28214 1097.16614
1175.0 0.000851 387.37955 1090.60364
1122.0 0.000891 387.47717 1046.63525
1062.0 0.000942 387.57498 979.49255
965.0 0.001036 387.67297 897.99805
853.0 0.001172 387.77118 813.62744
740.0 0.001351 387.86957 734.67108
610.0 0.001639 387.96814 666.22736
565.0 0.001770 388.06689 610.86993
500.0 0.002000 388.16586 569.30353
533.0 0.001876 388.26501 540.93939
455.0 0.002198 388.36438 524.39111
466.0 0.002146 388.46390 517.85150
448.0 0.002232 388.56363 519.30383
467.0 0.002141 388.66354 526.80182
487.0 0.002053 388.76367 537.67291
507.0 0.001972 388.86395 549.74902
515.0 0.001942 388.96445 560.55164
496.0 0.002016 389.06512 567.60687
499.0 0.002004 389.16599 568.93414
539.0 0.001855 389.26706 563.80737
537.0 0.001862 389.36829 553.21826
490.0 0.002041 389.46973 539.36749
467.0 0.002141 389.57135 524.56738
478.0 0.002092 389.67316 510.44110
466.0 0.002146 389.77518 497.78101
433.0 0.002309 389.87738 486.67596
480.0 0.002083 389.97974 476.70645
471.0 0.002123 390.08231 467.29877
444.0 0.002252 390.18506 458.14597
435.0 0.002299 390.28802 449.34152
435.0 0.002299 390.39114 441.16980
391.0 0.002558 390.49448 433.87704
410.0 0.002439 390.59796 427.59482
423.0 0.002364 390.70166 422.35391
430.0 0.002326 390.80554 418.11057
406.0 0.002463 390.90961 414.76801
405.0 0.002469 391.01385 412.19547
409.0 0.002445 391.11829 410.24902
410.0 0.002439 391.22293 408.78989
414.0 0.002415 391.32773 407.69669
392.0 0.002551 391.43271 406.87244
396.0 0.002525 391.53790 408.14270
395.0 0.002532 391.64325 407.69507
380.0 0.002632 391.74881 407.36118
402.0 0.002488 391.85452 407.11938
395.0 0.002532 391.96045 406.95587
391.0 0.002558 392.06653 406.86218
386.0 0.002591 392.17282 406.83316
407.0 0.002457 392.27927 406.86630
378.0 0.002646 392.38593 406.96036
376.0 0.002660 392.49274 407.11560
396.0 0.002525 392.59976 407.33395
378.0 0.002646 392.70694 407.64618
361.0 0.002770 392.81430 408.00201
403.0 0.002481 392.92188 408.43506
364.0 0.002747 393.02960 408.95410
410.0 0.002439 393.13751 409.57095
395.0 0.002532 393.24557 410.30215
381.0 0.002625 393.35385 411.17166
396.0 0.002525 393.46231 412.21579
409.0 0.002445 393.57092 413.49286
394.0 0.002538 393.67975 415.09695
396.0 0.002525 393.78873 417.18060
404.0 0.002475 393.89786 420.73447
423.0 0.002364 394.00720 424.63782
420.0 0.002381 394.11673 430.15579
405.0 0.002469 394.22641 437.99774
430.0 0.002326 394.33627 449.04343
469.0 0.002132 394.44632 464.27402
454.0 0.002203 394.55652 484.62576
499.0 0.002004 394.66693 510.75558
555.0 0.001802 394.77750 542.71594
570.0 0.001754 394.88821 579.57910
595.0 0.001681 394.99911 619.12433
667.0 0.001499 395.11023 657.83771
728.0 0.001374 395.22147 691.34283
737.0 0.001357 395.33289 714.87579
729.0 0.001372 395.44449 723.82074
709.0 0.001410 395.55627 715.44739
671.0 0.001490 395.66821 691.19458
628.0 0.001592 395.78033 656.41376
594.0 0.001684 395.89261 617.52313
574.0 0.001742 396.00504 579.68341
531.0 0.001883 396.11765 546.16449
532.0 0.001880 396.23047 518.56903
516.0 0.001938 396.34341 497.21082
466.0 0.002146 396.45654 481.49918
451.0 0.002217 396.56982 470.31360
443.0 0.002257 396.68326 462.66083
444.0 0.002252 396.79691 457.14746
464.0 0.002155 396.91068 452.73416
452.0 0.002212 397.02463 449.44907
410.0 0.002439 397.13873 446.73627
401.0 0.002494 397.25302 445.68201
403.0 0.002481 397.36746 445.62842
405.0 0.002469 397.48206 446.36560
443.0 0.002257 397.59683 447.56195
434.0 0.002304 397.71176 448.79938
432.0 0.002315 397.82684 449.62222
452.0 0.002212 397.94211 449.61496
461.0 0.002169 398.05750 448.56873
447.0 0.002237 398.17307 446.63501
450.0 0.002222 398.28879 444.25687
432.0 0.002315 398.40469 441.93735
463.0 0.002160 398.52072 440.07214
451.0 0.002217 398.63693 438.90509
475.0 0.002105 398.75330 438.54080
479.0 0.002088 398.86981 438.96393
456.0 0.002193 398.98645 440.06458
488.0 0.002049 399.10330 441.67099
513.0 0.001949 399.22028 443.65860
524.0 0.001908 399.33740 445.69553
528.0 0.001894 399.45468 447.74771
525.0 0.001905 399.57211 449.85651
545.0 0.001835 399.68970 452.19571
530.0 0.001887 399.80743 454.34140
590.0 0.001695 399.92532 457.84094
558.0 0.001792 400.04337 462.28909
572.0 0.001748 400.16156 468.00931
566.0 0.001767 400.27988 475.45212
575.0 0.001739 400.39838 485.25684
593.0 0.001686 400.51700 498.12018
633.0 0.001580 400.63577 514.58960
604.0 0.001656 400.75470 534.79785
605.0 0.001653 400.87378 558.23492
580.0 0.001724 400.99298 583.57318
580.0 0.001724 401.11234 608.63007
609.0 0.001642 401.23184 630.56403
564.0 0.001773 401.35147 646.23401
577.0 0.001733 401.47125 652.76501
590.0 0.001695 401.59119 648.70319
598.0 0.001672 401.71124 635.17786
587.0 0.001704 401.83145 615.52771
568.0 0.001761 401.95178 593.60693
586.0 0.001706 402.07227 572.47888
541.0 0.001848 402.19290 554.09924
529.0 0.001890 402.31366 539.50378
503.0 0.001988 402.43454 529.09363
527.0 0.001898 402.55557 522.89594
538.0 0.001859 402.67673 523.42285
539.0 0.001855 402.79803 525.29974
566.0 0.001767 402.91943 531.19751
542.0 0.001845 403.04102 541.59064
603.0 0.001658 403.16269 557.60858
658.0 0.001520 403.28452 581.44196
668.0 0.001497 403.40646 615.94543
745.0 0.001342 403.52856 666.14807
845.0 0.001183 403.65076 737.92780
947.0 0.001056 403.77310 838.23376
1085.0 0.000922 403.89557 974.07678
1273.0 0.000786 404.01816 1150.93835
1535.0 0.000651 404.14087 1370.62378
1696.0 0.000590 404.26370 1628.65186
1958.0 0.000511 404.38666 1911.60901
2240.0 0.000446 404.50977 2195.60278
2499.0 0.000400 404.63297 2447.54688
2631.0 0.000380 404.75629 2629.43628
2731.0 0.000366 404.87973 2705.00659
2826.0 0.000354 405.00330 2652.52734
2576.0 0.000388 405.12701 2480.36353
2298.0 0.000435 405.25079 2226.04932
1993.0 0.000502 405.37473 1936.36780
1663.0 0.000601 405.49875 1649.74841
1464.0 0.000683 405.62292 1391.04382
1144.0 0.000874 405.74719 1173.12183
909.0 0.001100 405.87158 999.75854
846.0 0.001182 405.99606 868.38074
708.0 0.001412 406.12067 772.61517
691.0 0.001447 406.24539 704.58551
631.0 0.001585 406.37021 656.75458
634.0 0.001577 406.49515 623.04590
612.0 0.001634 406.62021 599.12305
612.0 0.001634 406.74536 582.13220
596.0 0.001678 406.87061 570.32867
626.0 0.001597 406.99600 562.77612
593.0 0.001686 407.12146 559.14423
648.0 0.001543 407.24704 559.59753
593.0 0.001686 407.37271 564.76416
595.0 0.001681 407.49847 575.74640
611.0 0.001637 407.62436 594.11676
695.0 0.001439 407.75034 621.83795
674.0 0.001484 407.87643 661.05255
835.0 0.001198 408.00259 713.71484
782.0 0.001279 408.12888 781.07660
884.0 0.001131 408.25525 863.06439
937.0 0.001067 408.38171 957.57019
1026.0 0.000975 408.50830 1059.59314
1043.0 0.000959 408.63495 1160.21033
1277.0 0.000783 408.76169 1245.94946
1257.0 0.000796 408.88855 1300.56848
1195.0 0.000837 409.01547 1311.34229
1288.0 0.000776 409.14249 1276.90991
1250.0 0.000800 409.26959 1208.67358
1230.0 0.000813 409.39679 1124.12390
1167.0 0.000857 409.52408 1039.56787
1094.0 0.000914 409.65146 967.17267
1026.0 0.000975 409.77893 915.01642
990.0 0.001010 409.90646 887.77509
945.0 0.001058 410.03409 886.91687
943.0 0.001060 410.16180 911.74976
959.0 0.001043 410.28958 958.01251
993.0 0.001007 410.41745 1018.55017
1022.0 0.000978 410.54541 1082.67432
1075.0 0.000930 410.67340 1136.29883
1089.0 0.000918 410.80151 1164.41345
1119.0 0.000894 410.92969 1156.89526
1141.0 0.000876 411.05795 1113.66589
1142.0 0.000876 411.18628 1044.04285
1039.0 0.000962 411.31467 960.78662
1023.0 0.000978 411.44315 874.95190
931.0 0.001074 411.57169 794.27942
831.0 0.001203 411.70032 723.43610
752.0 0.001330 411.82898 664.70337
676.0 0.001479 411.95773 618.45856
622.0 0.001608 412.08655 583.79626
633.0 0.001580 412.21542 559.10657
558.0 0.001792 412.34436 542.67639
566.0 0.001767 412.47339 532.86316
541.0 0.001848 412.60245 528.34607
613.0 0.001631 412.73160 528.10120
523.0 0.001912 412.86078 531.30450
556.0 0.001799 412.99002 537.18903
639.0 0.001565 413.11935 544.88904
613.0 0.001631 413.24872 553.24243
574.0 0.001742 413.37814 560.72174
608.0 0.001645 413.50760 565.55322
594.0 0.001684 413.63715 566.37201
562.0 0.001779 413.76675 563.02588
585.0 0.001709 413.89636 556.70148
544.0 0.001838 414.02606 549.09100
521.0 0.001919 414.15579 541.69287
531.0 0.001883 414.28558 535.54803
549.0 0.001821 414.41541 531.28442
557.0 0.001795 414.54529 529.22443
521.0 0.001919 414.67520 529.46973
536.0 0.001866 414.80518 532.20740
556.0 0.001799 414.93518 537.05530
539.0 0.001855 415.06525 544.19489
522.0 0.001916 415.19534 553.79285
589.0 0.001698 415.32547 566.28271
615.0 0.001626 415.45563 582.53241
586.0 0.001706 415.58585 604.09619
662.0 0.001511 415.71609 633.56354
718.0 0.001393 415.84634 674.98492
716.0 0.001397 415.97668 735.06226
854.0 0.001171 416.10703 819.97424
990.0 0.001010 416.23740 940.60059
1064.0 0.000940 416.36780 1107.10205
1281.0 0.000781 416.49823 1328.56970
1552.0 0.000644 416.62869 1610.06750
1823.0 0.000549 416.75919 1949.38696
2237.0 0.000447 416.88971 2333.51855
2624.0 0.000381 417.02026 2734.67529
3046.0 0.0003283 417.15079 3106.24023
3351.0 0.0002984 417.28140 3383.24292
3561.0 0.0002808 417.41199 3499.48730
3652.0 0.0002738 417.54263 3420.60864
3436.0 0.0002910 417.67328 3171.05835
3238.0 0.0003088 417.80392 2814.62109
2958.0 0.0003381 417.93460 2418.67236
2442.0 0.000410 418.06528 2033.69299
1878.0 0.000532 418.19601 1690.83752
1488.0 0.000672 418.32672 1405.73413
1246.0 0.000803 418.45746 1182.56543
1001.0 0.000999 418.58820 1017.67633
887.0 0.001127 418.71893 902.81274
770.0 0.001299 418.84970 827.77686
733.0 0.001364 418.98047 782.27106
699.0 0.001431 419.11124 756.86407
664.0 0.001506 419.24200 743.18658
617.0 0.001621 419.37277 733.77789
618.0 0.001618 419.50357 722.37299
635.0 0.001575 419.63434 705.09247
593.0 0.001686 419.76511 679.56451
583.0 0.001715 419.89590 651.80579
589.0 0.001698 420.02667 622.84247
571.0 0.001751 420.15744 595.06232
545.0 0.001835 420.28821 569.96375
537.0 0.001862 420.41898 548.29541
491.0 0.002037 420.54971 530.25507
508.0 0.001969 420.68045 515.65710
506.0 0.001976 420.81119 504.07855
473.0 0.002114 420.94193 494.98666
470.0 0.002128 421.07260 487.84174
463.0 0.002160 421.20331 482.13712
502.0 0.001992 421.33398 477.55832
448.0 0.002232 421.46463 473.75171
456.0 0.002193 421.59531 470.52844
430.0 0.002326 421.72589 467.74701
418.0 0.002392 421.85651 465.31216
421.0 0.002375 421.98709 463.15854
445.0 0.002247 422.11765 461.24060
425.0 0.002353 422.24820 459.52472
423.0 0.002364 422.37869 457.98499
461.0 0.002169 422.50919 456.60089
429.0 0.002331 422.63962 455.35522
456.0 0.002193 422.77005 454.23376
448.0 0.002232 422.90045 453.22446
433.0 0.002309 423.03082 452.31686
442.0 0.002262 423.16116 451.50223
444.0 0.002252 423.29144 450.77283
465.0 0.002151 423.42172 450.12830
452.0 0.002212 423.55194 449.55112
427.0 0.002342 423.68213 449.04254
447.0 0.002237 423.81229 448.59860
451.0 0.002217 423.94238 448.21616
454.0 0.002203 424.07245 447.89276
484.0 0.002066 424.20248 447.62677
442.0 0.002262 424.33246 447.41721
478.0 0.002092 424.46240 447.26431
428.0 0.002336 424.59225 447.16986
465.0 0.002151 424.72211 447.13809
499.0 0.002004 424.85190 447.17682
513.0 0.001949 424.98163 447.29892
507.0 0.001972 425.11133 447.52554
532.0 0.001880 425.24097 447.88705
523.0 0.001912 425.37054 448.42505
526.0 0.001901 425.50009 448.44983
471.0 0.002123 425.62955 449.51208
500.0 0.002000 425.75894 450.91251
512.0 0.001953 425.88831 452.38785
508.0 0.001969 426.01758 454.22635
490.0 0.002041 426.14682 456.72781
513.0 0.001949 426.27597 459.44635
472.0 0.002119 426.40509 462.14459
478.0 0.002092 426.53412 464.54095
456.0 0.002193 426.66309 466.23047
457.0 0.002188 426.79199 466.94601
479.0 0.002088 426.92081 466.72409
514.0 0.001946 427.04956 465.90179
508.0 0.001969 427.17825 464.89917
471.0 0.002123 427.30685 464.08539
474.0 0.002110 427.43539 463.70575
473.0 0.002114 427.56387 463.89716
470.0 0.002128 427.69226 464.70874
465.0 0.002151 427.82056 466.11758
462.0 0.002165 427.94876 468.04327
476.0 0.002101 428.07693 470.36862
492.0 0.002033 428.20499 472.99323
457.0 0.002188 428.33295 475.94067
476.0 0.002101 428.46085 479.47067
488.0 0.002049 428.58865 484.09186
486.0 0.002058 428.71637 490.39545
496.0 0.002016 428.84399 499.23172
502.0 0.001992 428.97156 511.16739
526.0 0.001901 429.09897 526.66003
541.0 0.001848 429.22635 545.83746
560.0 0.001786 429.35361 568.32574
581.0 0.001721 429.48077 593.69543
617.0 0.001621 429.60785 618.62170
627.0 0.001595 429.73480 640.58197
620.0 0.001613 429.86169 655.70209
617.0 0.001621 429.98846 660.98987
607.0 0.001647 430.11511 656.31787
598.0 0.001672 430.24170 644.63708
600.0 0.001667 430.36813 630.17883
605.0 0.001653 430.49451 616.77747
582.0 0.001718 430.62076 607.40930
581.0 0.001721 430.74689 604.46924
556.0 0.001799 430.87292 610.17615
574.0 0.001742 430.99884 626.96021
618.0 0.001618 431.12466 657.69421
648.0 0.001543 431.25037 705.75067
723.0 0.001383 431.37592 774.76038
752.0 0.001330 431.50140 868.01770
862.0 0.001160 431.62674 987.54999
1003.0 0.000997 431.75198 1132.92505
1231.0 0.000812 431.87711 1299.82959
1402.0 0.000713 432.00208 1486.68005
1543.0 0.000648 432.12695 1659.14587
1734.0 0.000577 432.25168 1798.93079
1879.0 0.000532 432.37631 1872.75134
1997.0 0.000501 432.50079 1864.87952
2039.0 0.000490 432.62515 1774.90076
2007.0 0.000498 432.74939 1626.77832
1945.0 0.000514 432.87350 1451.09106
1808.0 0.000553 432.99747 1272.82434
1602.0 0.000624 433.12134 1108.20044
1475.0 0.000678 433.24503 965.78833
1393.0 0.000718 433.36862 848.78375
1190.0 0.000840 433.49203 756.84875
1057.0 0.000946 433.61536 687.22998
909.0 0.001100 433.73853 636.00879
806.0 0.001241 433.86154 599.02484
750.0 0.001333 433.98441 572.49921
694.0 0.001441 434.10715 553.35175
707.0 0.001414 434.22974 539.27612
583.0 0.001715 434.35220 528.65814
523.0 0.001912 434.47449 520.42889
520.0 0.001923 434.59668 513.91089
528.0 0.001894 434.71866 508.68936
473.0 0.002114 434.84052 504.51935
485.0 0.002062 434.96225 501.26135
484.0 0.002066 435.08380 498.83905
503.0 0.001988 435.20520 497.20779
499.0 0.002004 435.32645 496.32910
448.0 0.002232 435.44754 496.14728
485.0 0.002062 435.56848 496.56598
429.0 0.002331 435.68924 497.33841
446.0 0.002242 435.80984 498.37881
497.0 0.002012 435.93030 499.22897
490.0 0.002041 436.05060 499.46143
488.0 0.002049 436.17075 498.77133
480.0 0.002083 436.29068 497.16675
434.0 0.002304 436.41049 494.95102
459.0 0.002179 436.53012 492.51874
453.0 0.002208 436.64960 490.19168
463.0 0.002160 436.76889 488.17426
439.0 0.002278 436.88800 486.57401
460.0 0.002174 437.00696 485.42880
467.0 0.002141 437.12573 484.72803
453.0 0.002208 437.24432 484.43274
471.0 0.002123 437.36276 484.49054
461.0 0.002169 437.48102 484.84854
438.0 0.002283 437.59909 485.46286
442.0 0.002262 437.71698 486.30231
468.0 0.002137 437.83469 487.35028
462.0 0.002165 437.95224 488.60397
450.0 0.002222 438.06958 490.07211
497.0 0.002012 438.18674 491.77240
460.0 0.002174 438.30371 493.72672
449.0 0.002227 438.42053 495.95773
415.0 0.002410 438.53714 498.48190
464.0 0.002155 438.65353 501.30417
471.0 0.002123 438.76978 504.41052
459.0 0.002179 438.88580 507.75848
514.0 0.001946 439.00168 511.71609
479.0 0.002088 439.11731 515.27563
471.0 0.002123 439.23276 518.76257
495.0 0.002020 439.34805 522.13721
494.0 0.002024 439.46310 525.48438
453.0 0.002208 439.57797 528.97668
530.0 0.001887 439.69266 532.79919
521.0 0.001919 439.80710 537.10681
510.0 0.001961 439.92139 542.02063
457.0 0.002188 440.03543 547.64032
534.0 0.001873 440.14932 554.08344
565.0 0.001770 440.26297 561.38287
555.0 0.001802 440.37643 569.66449
560.0 0.001786 440.48969 579.04517
493.0 0.002028 440.60269 589.66913
572.0 0.001748 440.71555 601.71844
532.0 0.001880 440.82816 615.52466
524.0 0.001908 440.94055 631.29492
570.0 0.001754 441.05276 649.26227
553.0 0.001808 441.16473 670.02142
570.0 0.001754 441.27652 694.21088
603.0 0.001658 441.38806 722.73499
643.0 0.001555 441.49939 756.98047
632.0 0.001582 441.61050 799.49792
730.0 0.001370 441.72141 853.80273
819.0 0.001221 441.83209 927.23297
953.0 0.001049 441.94257 1031.96008
1127.0 0.000887 442.05276 1187.65186
1421.0 0.000704 442.16281 1423.56433
1785.0 0.000560 442.27258 1778.78113
2186.0 0.000457 442.38214 2298.61108
2896.0 0.0003453 442.49149 3025.71484
3849.0 0.0002598 442.60059 3985.80054
4778.0 0.0002093 442.70947 5170.02539
6191.0 0.0001615 442.81812 6517.09326
7400.0 0.0001351 442.92654 7896.35889
8274.0 0.0001209 443.03473 9095.62793
8962.0 0.0001116 443.14267 9842.42871
9316.0 0.0001073 443.25040 9913.94043
8897.0 0.0001124 443.35788 9293.74609
8131.0 0.0001230 443.46515 8187.12500
7166.0 0.0001395 443.57214 6872.52783
5731.0 0.0001745 443.67892 5576.83838
4410.0 0.0002268 443.78546 4444.33008
3433.0 0.0002913 443.89175 3544.99829
2729.0 0.000366 443.99780 2891.00488
2342.0 0.000427 444.10364 2453.36719
2118.0 0.000472 444.20920 2177.55078
1927.0 0.000519 444.31454 2000.77673
1787.0 0.000560 444.41962 1865.70691
1700.0 0.000588 444.52444 1733.76587
1601.0 0.000625 444.62906 1590.69543
1456.0 0.000687 444.73340 1440.28284
1360.0 0.000735 444.83749 1292.67517
1220.0 0.000820 444.94131 1156.67346
1082.0 0.000924 445.04492 1037.57666
940.0 0.001064 445.14828 937.50562
808.0 0.001238 445.25134 856.21747
704.0 0.001420 445.35419 791.88794
690.0 0.001449 445.45679 741.84113
660.0 0.001515 445.55911 703.19159
638.0 0.001567 445.66119 673.29901
647.0 0.001546 445.76300 649.98859
607.0 0.001647 445.86456 631.60223
622.0 0.001608 445.96585 616.96991
589.0 0.001698 446.06689 605.34515
602.0 0.001661 446.16766 596.33417
566.0 0.001767 446.26819 589.83508
573.0 0.001745 446.36844 585.98834
553.0 0.001808 446.46841 585.12103
567.0 0.001764 446.56815 587.66925
565.0 0.001770 446.66760 594.05853
567.0 0.001764 446.76682 603.28461
616.0 0.001623 446.86572 617.78662
689.0 0.001451 446.96439 635.57483
669.0 0.001495 447.06277 655.04810
654.0 0.001529 447.16092 673.39624
704.0 0.001420 447.25876 686.56152
703.0 0.001422 447.35635 690.26978
716.0 0.001397 447.45364 682.37073
708.0 0.001412 447.55069 664.42249
679.0 0.001473 447.64746 640.47845
679.0 0.001473 447.74393 615.02606
648.0 0.001543 447.84015 590.36115
633.0 0.001580 447.93607 568.54767
577.0 0.001733 448.03174 550.40350
607.0 0.001647 448.12714 535.92242
581.0 0.001721 448.22223 524.85199
605.0 0.001653 448.31705 516.54486
592.0 0.001689 448.41159 510.41037
621.0 0.001610 448.50586 505.87155
594.0 0.001684 448.59985 502.46088
606.0 0.001650 448.69354 499.83359
561.0 0.001783 448.78696 497.75299
516.0 0.001938 448.88010 496.06488
541.0 0.001848 448.97293 494.67279
493.0 0.002028 449.06549 493.51660
485.0 0.002062 449.15778 492.55902
491.0 0.002037 449.24976 491.77615
509.0 0.001965 449.34146 491.15250
518.0 0.001931 449.43289 490.67789
534.0 0.001873 449.52402 492.96960
472.0 0.002119 449.61484 492.80417
495.0 0.002020 449.70538 492.79446
468.0 0.002137 449.79562 492.92722
455.0 0.002198 449.88562 493.20718
474.0 0.002110 449.97528 493.64209
479.0 0.002088 450.06464 494.24249
438.0 0.002283 450.15375 495.02316
429.0 0.002331 450.24252 496.00311
486.0 0.002058 450.33102 497.20761
481.0 0.002079 450.41922 498.67172
491.0 0.002037 450.50711 500.44513
480.0 0.002083 450.59473 502.60318
485.0 0.002062 450.68204 505.26553
533.0 0.001876 450.76904 508.62564
474.0 0.002110 450.85577 512.99286
539.0 0.001855 450.94217 518.84491
513.0 0.001949 451.02829 526.87347
532.0 0.001880 451.11407 538.00031
504.0 0.001984 451.19958 553.36163
567.0 0.001764 451.28482 574.03265
632.0 0.001582 451.36972 600.98267
613.0 0.001631 451.45432 634.62708
675.0 0.001481 451.53860 674.50690
761.0 0.001314 451.62262 718.90247
814.0 0.001229 451.70630 764.39557
814.0 0.001229 451.78967 805.70752
866.0 0.001155 451.87277 837.04932
911.0 0.001098 451.95554 855.84814
932.0 0.001073 452.03799 865.70605
902.0 0.001109 452.12015 874.72876
883.0 0.001133 452.20200 891.03699
906.0 0.001104 452.28354 920.08630
965.0 0.001036 452.36478 963.93237
1001.0 0.000999 452.44571 1020.89850
1032.0 0.000969 452.52634 1085.02478
1066.0 0.000938 452.60663 1145.99304
1154.0 0.000867 452.68661 1191.33948
1166.0 0.000858 452.76630 1211.78845
1164.0 0.000859 452.84567 1205.88171
1176.0 0.000850 452.92474 1178.53516
1123.0 0.000890 453.00348 1135.29517
1046.0 0.000956 453.08191 1079.13086
1044.0 0.000958 453.16003 1012.15277
930.0 0.001075 453.23782 938.48077
834.0 0.001199 453.31534 864.19666
761.0 0.001314 453.39249 794.99487
726.0 0.001377 453.46936 734.49518
674.0 0.001484 453.54590 684.14642
606.0 0.001650 453.62213 643.86292
622.0 0.001608 453.69806 612.65295
598.0 0.001672 453.77365 589.07037
599.0 0.001669 453.84894 571.54211
546.0 0.001832 453.92389 558.63501
528.0 0.001894 453.99854 549.16528
543.0 0.001842 454.07288 542.34198
568.0 0.001761 454.14688 537.51917
539.0 0.001855 454.22055 534.40094
552.0 0.001812 454.29391 532.83258
513.0 0.001949 454.36697 532.84833
528.0 0.001894 454.43973 534.66217
556.0 0.001799 454.51212 538.66772
559.0 0.001789 454.58423 545.42877
538.0 0.001859 454.65598 555.64014
566.0 0.001767 454.72745 570.04388
568.0 0.001761 454.79855 589.43317
590.0 0.001695 454.86935 614.59436
624.0 0.001603 454.93985 644.16382
625.0 0.001600 455.01001 677.88586
657.0 0.001522 455.07986 713.62280
755.0 0.001325 455.14938 747.88763
774.0 0.001292 455.21857 774.32916
723.0 0.001383 455.28745 787.12122
754.0 0.001326 455.35599 782.70636
766.0 0.001305 455.42422 762.61188
704.0 0.001420 455.49213 731.68298
672.0 0.001488 455.55972 697.40295
656.0 0.001524 455.62698 663.75098
636.0 0.001572 455.69391 633.49969
585.0 0.001709 455.76050 607.99353
580.0 0.001724 455.82678 587.64929
599.0 0.001669 455.89276 572.33453
537.0 0.001862 455.95837 561.62854
564.0 0.001773 456.02368 555.02252
543.0 0.001842 456.08868 552.10040
582.0 0.001718 456.15335 549.21533
558.0 0.001792 456.21768 553.59515
551.0 0.001815 456.28168 562.35492
564.0 0.001773 456.34537 576.54517
578.0 0.001730 456.40872 597.46997
628.0 0.001592 456.47177 626.39471
642.0 0.001558 456.53445 664.12720
662.0 0.001511 456.59686 710.50232
727.0 0.001376 456.65891 763.79791
779.0 0.001284 456.72064 820.03058
818.0 0.001222 456.78204 872.19135
923.0 0.001083 456.84311 910.33105
889.0 0.001125 456.90387 924.64270
823.0 0.001215 456.96429 911.54071
877.0 0.001140 457.02441 876.54272
825.0 0.001212 457.08417 830.17767
780.0 0.001282 457.14362 782.19226
700.0 0.001429 457.20276 739.24158
706.0 0.001416 457.26154 705.10950
664.0 0.001506 457.32001 681.29156
637.0 0.001570 457.37817 668.28363
650.0 0.001538 457.43597 665.07068
636.0 0.001572 457.49347 670.19556
625.0 0.001600 457.55063 681.84290
635.0 0.001575 457.60748 698.00476
635.0 0.001575 457.66400 716.68372
690.0 0.001449 457.72018 736.42285
686.0 0.001458 457.77606 757.00482
689.0 0.001451 457.83160 779.83344
709.0 0.001410 457.88681 808.04919
778.0 0.001285 457.94171 846.73914
846.0 0.001182 457.99628 902.92590
949.0 0.001054 458.05051 985.05005
1010.0 0.000990 458.10443 1102.15820
1149.0 0.000870 458.15802 1262.84082
1358.0 0.000736 458.21130 1473.71472
1565.0 0.000639 458.26422 1737.37756
1947.0 0.000514 458.31686 2050.62720
2247.0 0.000445 458.36914 2397.77710
2569.0 0.000389 458.42111 2750.76904
2923.0 0.0003421 458.47278 3061.50366
3204.0 0.0003121 458.52408 3266.32959
3224.0 0.0003102 458.57510 3309.26294
3124.0 0.0003201 458.62576 3176.70166
2904.0 0.0003444 458.67612 2907.53711
2671.0 0.000374 458.72617 2565.72876
2286.0 0.000437 458.77588 2208.20898
1986.0 0.000504 458.82526 1872.64478
1627.0 0.000615 458.87433 1579.42639
1410.0 0.000709 458.92310 1336.79956
1210.0 0.000826 458.97150 1144.92468
1040.0 0.000962 459.01962 998.98804
969.0 0.001032 459.06738 891.54791
884.0 0.001131 459.11487 814.44049
774.0 0.001292 459.16202 760.08093
712.0 0.001404 459.20883 722.15967
759.0 0.001318 459.25534 695.82324
692.0 0.001445 459.30151 677.50684
681.0 0.001468 459.34738 664.59930
709.0 0.001410 459.39294 655.05701
723.0 0.001383 459.43817 647.24292
698.0 0.001433 459.48309 640.03540
712.0 0.001404 459.52768 633.15717
690.0 0.001449 459.57196 627.21075
674.0 0.001484 459.61594 623.32672
675.0 0.001481 459.65958 622.85156
712.0 0.001404 459.70291 627.31885
735.0 0.001361 459.74594 638.54291
733.0 0.001364 459.78864 658.60144
789.0 0.001267 459.83102 689.61066
862.0 0.001160 459.87311 733.30005
900.0 0.001111 459.91486 791.21820
992.0 0.001008 459.95630 860.89490
1066.0 0.000938 459.99744 938.94348
1144.0 0.000874 460.03827 1016.59955
1171.0 0.000854 460.07877 1079.54102
1205.0 0.000830 460.11896 1110.70862
1139.0 0.000878 460.15887 1099.68188
1067.0 0.000937 460.19846 1051.53625
1000.0 0.001000 460.23770 983.01080
954.0 0.001048 460.27667 911.51910
874.0 0.001144 460.31534 849.17047
813.0 0.001230 460.35367 802.19275
799.0 0.001252 460.39172 771.81500
758.0 0.001319 460.42944 755.12708
721.0 0.001387 460.46686 746.06824
698.0 0.001433 460.50400 737.39911
690.0 0.001449 460.54080 724.26721
660.0 0.001515 460.57730 706.37524
664.0 0.001506 460.61353 687.40942
614.0 0.001629 460.64941 671.42847
644.0 0.001553 460.68503 661.09070
673.0 0.001486 460.72031 660.40381
709.0 0.001410 460.75531 669.96399
707.0 0.001414 460.79001 690.21954
743.0 0.001346 460.82440 720.62970
788.0 0.001269 460.85849 759.69373
820.0 0.001220 460.89230 805.06525
858.0 0.001166 460.92578 853.36719
882.0 0.001134 460.95898 899.39594
933.0 0.001072 460.99191 935.48187
981.0 0.001019 461.02451 953.39795
926.0 0.001080 461.05682 949.42267
907.0 0.001103 461.08884 927.39612
833.0 0.001200 461.12057 895.35706
860.0 0.001163 461.15201 859.94867
825.0 0.001212 461.18314 823.88965
834.0 0.001199 461.21399 786.89844
741.0 0.001350 461.24454 748.28296
706.0 0.001416 461.27481 708.96558
699.0 0.001431 461.30478 671.21027
650.0 0.001538 461.33444 637.10632
641.0 0.001560 461.36386 607.74298
642.0 0.001558 461.39297 583.31769
601.0 0.001664 461.42178 563.23749
599.0 0.001669 461.45035 547.51678
537.0 0.001862 461.47858 535.22650
564.0 0.001773 461.50656 525.71759
520.0 0.001923 461.53424 518.39697
567.0 0.001764 461.56165 516.93018
516.0 0.001938 461.58878 512.62744
524.0 0.001908 461.61560 509.26456
527.0 0.001898 461.64218 506.60736
494.0 0.002024 461.66846 504.48282
531.0 0.001883 461.69446 502.77286
511.0 0.001957 461.72021 501.39798
487.0 0.002053 461.74567 500.30615
518.0 0.001931 461.77084 499.46652
497.0 0.002012 461.79575 498.52332
495.0 0.002020 461.82037 498.16541
486.0 0.002058 461.84473 498.05646
478.0 0.002092 461.86880 498.21454
494.0 0.002024 461.89261 498.66086
495.0 0.002020 461.91617 499.41061
460.0 0.002174 461.93945 500.46497
524.0 0.001908 461.96246 501.79816
508.0 0.001969 461.98520 503.34146
526.0 0.001901 462.00766 504.96658
493.0 0.002028 462.02988 506.47791
524.0 0.001908 462.05182 507.64185
527.0 0.001898 462.07352 508.26599
512.0 0.001953 462.09494 508.30090
528.0 0.001894 462.11609 507.88223
490.0 0.002041 462.13699 507.25644
476.0 0.002101 462.15765 506.66434
501.0 0.001996 462.17804 506.27762
497.0 0.002012 462.19815 506.21933
535.0 0.001869 462.21805 506.50156
525.0 0.001905 462.23764 507.16812
508.0 0.001969 462.25702 508.22647
523.0 0.001912 462.27612 509.67947
529.0 0.001890 462.29498 511.53412
506.0 0.001976 462.31360 513.80957
521.0 0.001919 462.33197 516.49255
502.0 0.001992 462.35007 519.74231
520.0 0.001923 462.36795 523.55280
531.0 0.001883 462.38556 528.11896
567.0 0.001764 462.40295 533.54480
581.0 0.001721 462.42007 540.00739
600.0 0.001667 462.43698 547.72363
572.0 0.001748 462.45361 556.98041
621.0 0.001610 462.47003 568.20551
616.0 0.001623 462.48621 582.00598
691.0 0.001447 462.50214 599.26788
712.0 0.001404 462.51782 621.12665
689.0 0.001451 462.53329 649.03601
769.0 0.001300 462.54852 684.92224
825.0 0.001212 462.56351 731.19702
830.0 0.001205 462.57828 790.31750
939.0 0.001065 462.59280 861.42188
952.0 0.001050 462.60712 949.98828
1114.0 0.000898 462.62119 1051.23853
1203.0 0.000831 462.63504 1159.36987
1265.0 0.000791 462.64865 1263.44971
1346.0 0.000743 462.66205 1346.72400
1390.0 0.000719 462.67523 1390.13049
1339.0 0.000747 462.68820 1381.46326
1321.0 0.000757 462.70093 1323.59985
1249.0 0.000801 462.71344 1232.38452
1104.0 0.000906 462.72574 1126.79138
1044.0 0.000958 462.73782 1021.56281
905.0 0.001105 462.74969 925.61890
834.0 0.001199 462.76132 843.31757
752.0 0.001330 462.77277 775.97729
703.0 0.001422 462.78400 722.99536
641.0 0.001560 462.79501 682.66748
639.0 0.001565 462.80582 652.84467
619.0 0.001616 462.81644 631.39276
591.0 0.001692 462.82681 616.40204
582.0 0.001718 462.83701 606.41119
553.0 0.001808 462.84698 600.22681
561.0 0.001783 462.85678 597.03033
554.0 0.001805 462.86636 596.28864
569.0 0.001757 462.87573 597.69470
567.0 0.001764 462.88495 601.12158
534.0 0.001873 462.89392 606.61371
585.0 0.001709 462.90271 614.43530
611.0 0.001637 462.91132 625.58356
623.0 0.001605 462.91974 640.35925
608.0 0.001645 462.92795 660.76721
634.0 0.001577 462.93600 688.88812
697.0 0.001435 462.94385 727.08838
715.0 0.001399 462.95148 777.74432
767.0 0.001304 462.95895 842.84387
882.0 0.001134 462.96625 923.44458
1012.0 0.000988 462.97336 1018.96338
1034.0 0.000967 462.98029 1126.18640
1201.0 0.000833 462.98703 1237.83960
1376.0 0.000727 462.99359 1341.03845
1414.0 0.000707 463.00000 1417.60730
1535.0 0.000651 463.00623 1449.74097
1490.0 0.000671 463.01227 1430.24561
1368.0 0.000731 463.01813 1367.78979
1299.0 0.000770 463.02383 1280.86829
1206.0 0.000829 463.02939 1187.48230
1063.0 0.000941 463.03476 1100.78149
989.0 0.001011 463.03995 1028.61768
924.0 0.001082 463.04498 975.11505
887.0 0.001127 463.04987 942.02234
849.0 0.001178 463.05460 929.70392
915.0 0.001093 463.05914 937.99744
919.0 0.001088 463.06354 967.00702
981.0 0.001019 463.06778 1017.70154
1128.0 0.000887 463.07187 1092.74512
1239.0 0.000807 463.07581 1196.78210
1432.0 0.000698 463.07959 1337.18066
1604.0 0.000623 463.08322 1524.41064
1892.0 0.000529 463.08670 1772.12610
2169.0 0.000461 463.09006 2094.89453
2585.0 0.000387 463.09323 2503.21313
3143.0 0.0003182 463.09628 2996.48828
3741.0 0.0002673 463.09921 3554.76123
4255.0 0.0002350 463.10196 4128.98877
4574.0 0.0002186 463.10461 4632.02783
4885.0 0.0002047 463.10709 4945.12842
4848.0 0.0002063 463.10947 4969.12451
4531.0 0.0002207 463.11166 4689.81201
4051.0 0.0002469 463.11377 4192.01367
3468.0 0.0002884 463.11572 3595.42407
2965.0 0.0003373 463.11755 2996.64136
2390.0 0.000418 463.11926 2454.44434
1970.0 0.000508 463.12085 1997.14893
1661.0 0.000602 463.12231 1632.46777
1398.0 0.000715 463.12366 1354.74341
1179.0 0.000848 463.12485 1150.80786
1031.0 0.000970 463.12595 1004.70813
904.0 0.001106 463.12692 901.09705
801.0 0.001248 463.12781 827.14484
764.0 0.001309 463.12854 773.17761
760.0 0.001316 463.12918 732.46936
725.0 0.001379 463.12970 701.12628
690.0 0.001449 463.13013 675.38135
680.0 0.001471 463.13043 654.01636
664.0 0.001506 463.13065 635.94775
627.0 0.001595 463.13077 620.46094
590.0 0.001695 463.13077 607.05664
582.0 0.001718 463.13065 595.36658
549.0 0.001821 463.13046 585.10736
532.0 0.001880 463.13016 576.05463
544.0 0.001838 463.12979 568.02734
545.0 0.001835 463.12930 560.87787
555.0 0.001802 463.12872 554.48431
532.0 0.001880 463.12808 548.74567
540.0 0.001852 463.12732 543.57764
550.0 0.001818 463.12650 538.90881
528.0 0.001894 463.12558 534.67615
538.0 0.001859 463.12457 530.83453
517.0 0.001934 463.12350 527.32837
524.0 0.001908 463.12234 524.13794
547.0 0.001828 463.12112 521.22162
540.0 0.001852 463.11981 518.55206
548.0 0.001825 463.11841 516.10468
551.0 0.001815 463.11697 513.85852
552.0 0.001812 463.11545 511.81247
559.0 0.001789 463.11386 509.91681
571.0 0.001751 463.11218 508.17444
556.0 0.001799 463.11047 506.71280
539.0 0.001855 463.10867 505.24478
551.0 0.001815 463.10684 503.89877
555.0 0.001802 463.10492 502.66736
577.0 0.001733 463.10297 501.54401
607.0 0.001647 463.10095 500.52390
610.0 0.001639 463.09888 499.60864
570.0 0.001754 463.09677 498.78571
572.0 0.001748 463.09460 498.06024
556.0 0.001799 463.09238 497.43512
537.0 0.001862 463.09012 496.91669
545.0 0.001835 463.08780 496.53229
505.0 0.001980 463.08545 496.26581
540.0 0.001852 463.08307 496.15524
503.0 0.001988 463.08063 496.22861
533.0 0.001876 463.07819 496.51587
495.0 0.002020 463.07568 497.04669
500.0 0.002000 463.07315 497.84393
518.0 0.001931 463.07059 498.91663
477.0 0.002096 463.06799 500.25104
529.0 0.001890 463.06537 501.79449
521.0 0.001919 463.06271 503.43893
497.0 0.002012 463.06006 505.01202
512.0 0.001953 463.05737 506.32043
527.0 0.001898 463.05466 507.27979
520.0 0.001923 463.05194 507.99625
539.0 0.001855 463.04919 508.74167
496.0 0.002016 463.04645 509.81317
501.0 0.001996 463.04367 511.43338
503.0 0.001988 463.04089 513.72192
508.0 0.001969 463.03809 516.67786
513.0 0.001949 463.03531 520.18951
520.0 0.001923 463.03250 524.00714
522.0 0.001916 463.02969 528.08112
526.0 0.001901 463.02692 531.58685
503.0 0.001988 463.02411 534.96613
525.0 0.001905 463.02130 538.89221
542.0 0.001845 463.01852 544.50934
595.0 0.001681 463.01575 552.39032
566.0 0.001767 463.01297 565.75488
588.0 0.001701 463.01019 585.44214
619.0 0.001616 463.00745 613.08673
678.0 0.001475 463.00470 650.00262
737.0 0.001357 463.00198 696.77075
702.0 0.001425 462.99930 752.70068
824.0 0.001214 462.99661 815.10522
864.0 0.001157 462.99396 878.28711
906.0 0.001104 462.99130 932.62238
939.0 0.001065 462.98871 965.64673
929.0 0.001076 462.98611 967.46313
862.0 0.001160 462.98358 937.68097
774.0 0.001292 462.98108 885.77942
775.0 0.001290 462.97858 824.40796
707.0 0.001414 462.97614 763.64978
618.0 0.001618 462.97372 709.67914
673.0 0.001486 462.97134 665.60254
598.0 0.001672 462.96902 632.51135
608.0 0.001645 462.96674 610.01550
613.0 0.001631 462.96451 597.01575
599.0 0.001669 462.96231 591.80963
619.0 0.001616 462.96017 592.36743
592.0 0.001689 462.95810 596.40070
623.0 0.001605 462.95605 601.17706
636.0 0.001572 462.95407 603.68140
619.0 0.001616 462.95215 601.45404
583.0 0.001715 462.95029 593.80365
591.0 0.001692 462.94849 582.04559
526.0 0.001901 462.94675 568.39038
523.0 0.001912 462.94507 554.76392
546.0 0.001832 462.94348 542.39905
540.0 0.001852 462.94193 531.94116
496.0 0.002016 462.94046 523.64496
512.0 0.001953 462.93909 516.77393
489.0 0.002045 462.93777 512.71985
503.0 0.001988 462.93652 510.52448
524.0 0.001908 462.93536 509.95840
481.0 0.002079 462.93427 510.81561
468.0 0.002137 462.93329 512.84064
457.0 0.002188 462.93237 515.73322
469.0 0.002132 462.93155 520.57690
461.0 0.002169 462.93079 523.91370
453.0 0.002208 462.93015 526.61298
496.0 0.002016 462.92960 528.08911
504.0 0.001984 462.92914 527.89673
519.0 0.001927 462.92877 525.96857
498.0 0.002008 462.92850 522.61053
482.0 0.002075 462.92831 518.52411
517.0 0.001934 462.92825 514.36755
489.0 0.002045 462.92831 510.50513
472.0 0.002119 462.92844 507.38513
487.0 0.002053 462.92868 504.94052
483.0 0.002070 462.92905 503.34375
500.0 0.002000 462.92953 502.48822
472.0 0.002119 462.93011 502.32819
487.0 0.002053 462.93082 502.82483
497.0 0.002012 462.93164 503.96597
491.0 0.002037 462.93259 505.78214
457.0 0.002188 462.93365 508.35706
474.0 0.002110 462.93481 511.84225
481.0 0.002079 462.93613 516.42023
523.0 0.001912 462.93759 522.34674
504.0 0.001984 462.93915 529.89478
499.0 0.002004 462.94083 539.32831
518.0 0.001931 462.94266 550.85681
503.0 0.001988 462.94464 564.56830
553.0 0.001808 462.94675 580.33356
560.0 0.001786 462.94897 595.08160
610.0 0.001639 462.95135 612.94470
579.0 0.001727 462.95389 629.63818
580.0 0.001724 462.95654 643.23499
615.0 0.001626 462.95935 652.54071
643.0 0.001555 462.96231 658.01086
691.0 0.001447 462.96542 661.64142
663.0 0.001508 462.96869 665.79895
643.0 0.001555 462.97211 672.71655
659.0 0.001517 462.97568 684.15234
720.0 0.001389 462.97940 702.04419
741.0 0.001350 462.98331 728.33276
776.0 0.001289 462.98737 764.59613
797.0 0.001255 462.99158 811.49866
914.0 0.001094 462.99594 868.24933
910.0 0.001099 463.00049 931.92065
950.0 0.001053 463.00522 996.50690
1013.0 0.000987 463.01010 1052.24658
1018.0 0.000982 463.01514 1086.95190
1023.0 0.000978 463.02039 1090.94043
994.0 0.001006 463.02579 1063.04846
978.0 0.001022 463.03137 1011.49500
935.0 0.001070 463.03714 948.57684
902.0 0.001109 463.04309 885.03375
847.0 0.001181 463.04922 827.93195
832.0 0.001202 463.05554 781.06598
809.0 0.001236 463.06204 745.91962
800.0 0.001250 463.06873 722.36823
780.0 0.001282 463.07559 709.07635
796.0 0.001256 463.08267 703.73499
756.0 0.001323 463.08994 703.23816
747.0 0.001339 463.09741 703.84528
741.0 0.001350 463.10507 701.59778
700.0 0.001429 463.11295 693.46222
668.0 0.001497 463.12100 678.76367
605.0 0.001653 463.12927 659.33008
595.0 0.001681 463.13776 638.04883
631.0 0.001585 463.14642 617.39294
576.0 0.001736 463.15530 598.92102
572.0 0.001748 463.16443 583.44647
594.0 0.001684 463.17374 571.34326
581.0 0.001721 463.18326 562.77344
567.0 0.001764 463.19299 557.83325
572.0 0.001748 463.20294 556.66571
581.0 0.001721 463.21313 559.53662
596.0 0.001678 463.22351 566.88538
589.0 0.001698 463.23416 579.28101
662.0 0.001511 463.24500 597.30829
665.0 0.001504 463.25607 621.37256
694.0 0.001441 463.26736 651.43463
676.0 0.001479 463.27890 686.66791
750.0 0.001333 463.29065 724.98676
737.0 0.001357 463.30264 762.53064
783.0 0.001277 463.31488 792.83966
810.0 0.001235 463.32733 808.64606
789.0 0.001267 463.34006 805.00092
760.0 0.001316 463.35300 782.85370
791.0 0.001264 463.36618 748.32556
703.0 0.001422 463.37961 708.75250
690.0 0.001449 463.39328 669.76105
676.0 0.001479 463.40720 634.68933
673.0 0.001486 463.42136 605.11090
638.0 0.001567 463.43576 581.43951
576.0 0.001736 463.45044 563.36401
581.0 0.001721 463.46536 550.14752
570.0 0.001754 463.48053 540.84528
539.0 0.001855 463.49594 534.45294
528.0 0.001894 463.51166 530.01251
547.0 0.001828 463.52759 526.71344
524.0 0.001908 463.54379 524.00098
526.0 0.001901 463.56027 521.61566
514.0 0.001946 463.57700 519.49939
527.0 0.001898 463.59399 517.64923
547.0 0.001828 463.61127 516.04016
546.0 0.001832 463.62881 514.64349
541.0 0.001848 463.64661 513.45496
549.0 0.001821 463.66470 512.52930
548.0 0.001825 463.68304 511.97208
558.0 0.001792 463.70169 511.74988
537.0 0.001862 463.72058 511.92648
547.0 0.001828 463.73978 512.50854
561.0 0.001783 463.75922 513.49756
543.0 0.001842 463.77896 516.03741
535.0 0.001869 463.79901 517.87036
559.0 0.001789 463.81931 520.14435
551.0 0.001815 463.83990 522.89630
582.0 0.001718 463.86078 526.18286
570.0 0.001754 463.88196 530.08838
534.0 0.001873 463.90341 534.73047
571.0 0.001751 463.92517 540.27063
561.0 0.001783 463.94720 546.92078
576.0 0.001736 463.96954 554.95166
582.0 0.001718 463.99219 564.69794
575.0 0.001739 464.01511 576.56146
574.0 0.001742 464.03836 591.01440
588.0 0.001701 464.06189 608.60437
599.0 0.001669 464.08572 629.96478
622.0 0.001608 464.10983 655.86523
649.0 0.001541 464.13428 687.04517
722.0 0.001385 464.15903 724.41327
729.0 0.001372 464.18408 769.02295
802.0 0.001247 464.20944 822.30920
833.0 0.001200 464.23511 886.44995
991.0 0.001009 464.26108 964.46619
1112.0 0.000899 464.28735 1059.88354
1288.0 0.000776 464.31396 1175.97913
1409.0 0.000710 464.34088 1314.47559
1562.0 0.000640 464.36813 1473.55652
1745.0 0.000573 464.39569 1645.26196
1879.0 0.000532 464.42355 1812.51807
2088.0 0.000479 464.45175 1947.78125
2030.0 0.000493 464.48026 2018.51367
1992.0 0.000502 464.50909 2002.53760
1881.0 0.000532 464.53824 1902.84363
1650.0 0.000606 464.56772 1745.31506
1616.0 0.000619 464.59753 1562.23987
1398.0 0.000715 464.62766 1379.04114
1225.0 0.000816 464.65814 1211.05469
1052.0 0.000951 464.68893 1065.68494
960.0 0.001042 464.72003 945.20435
901.0 0.001110 464.75150 848.75427
859.0 0.001164 464.78329 773.66974
763.0 0.001311 464.81543 716.42419
720.0 0.001389 464.84787 673.63019
698.0 0.001433 464.88068 641.24738
646.0 0.001548 464.91379 616.74591
625.0 0.001600 464.94727 597.91180
609.0 0.001642 464.98108 583.12531
585.0 0.001709 465.01523 571.25287
563.0 0.001776 465.04971 561.52783
596.0 0.001678 465.08456 553.44061
547.0 0.001828 465.11975 546.65320
583.0 0.001715 465.15527 542.19312
579.0 0.001727 465.19113 537.41418
522.0 0.001916 465.22736 533.44543
512.0 0.001953 465.26392 530.20453
553.0 0.001808 465.30084 527.62463
530.0 0.001887 465.33810 525.64221
520.0 0.001923 465.37573 524.18439
540.0 0.001852 465.41370 523.15472
522.0 0.001916 465.45203 522.41583
548.0 0.001825 465.49069 521.78619
510.0 0.001961 465.52972 521.08124
551.0 0.001815 465.56912 520.20728
537.0 0.001862 465.60886 519.24084
495.0 0.002020 465.64896 518.41437
517.0 0.001934 465.68942 518.02277
538.0 0.001859 465.73026 518.35345
512.0 0.001953 465.77142 519.66180
523.0 0.001912 465.81296 522.16956
510.0 0.001961 465.85486 526.06012
500.0 0.002000 465.89713 531.45618
536.0 0.001866 465.93976 538.37970
543.0 0.001842 465.98276 546.68762
537.0 0.001862 466.02609 555.97137
538.0 0.001859 466.06982 565.44220
567.0 0.001764 466.11392 573.87195
551.0 0.001815 466.15839 579.76001
559.0 0.001789 466.20322 581.78613
544.0 0.001838 466.24841 579.36041
533.0 0.001876 466.29398 572.92316
567.0 0.001764 466.33990 563.74902
555.0 0.001802 466.38620 553.36945
542.0 0.001845 466.43289 543.04523
532.0 0.001880 466.47995 533.57538
524.0 0.001908 466.52737 525.35986
540.0 0.001852 466.57516 518.52771
552.0 0.001812 466.62332 513.04492
514.0 0.001946 466.67188 508.78415
484.0 0.002066 466.72079 505.57407
512.0 0.001953 466.77008 503.23401
504.0 0.001984 466.81976 501.59625
508.0 0.001969 466.86981 500.52097
496.0 0.002016 466.92026 499.90317
495.0 0.002020 466.97104 499.67453
468.0 0.002137 467.02225 499.80487
518.0 0.001931 467.07379 500.30161
525.0 0.001905 467.12573 501.22668
510.0 0.001961 467.17807 502.64890
509.0 0.001965 467.23077 504.72543
515.0 0.001942 467.28384 507.65192
494.0 0.002024 467.33731 511.66833
559.0 0.001789 467.39117 517.04083
520.0 0.001923 467.44540 524.02747
506.0 0.001976 467.50000 532.82874
546.0 0.001832 467.55502 543.51892
556.0 0.001799 467.61038 555.95221
547.0 0.001828 467.66617 569.62067
556.0 0.001799 467.72232 583.44934
565.0 0.001770 467.77884 595.62451
597.0 0.001675 467.83575 603.76666
631.0 0.001585 467.89307 605.82764
599.0 0.001669 467.95074 601.32318
546.0 0.001832 468.00882 591.66064
579.0 0.001727 468.06729 579.20691
566.0 0.001767 468.12613 565.99713
573.0 0.001745 468.18536 553.48468
597.0 0.001675 468.24500 542.45105
626.0 0.001597 468.30499 533.22998
645.0 0.001550 468.36539 525.86621
627.0 0.001595 468.42618 520.22675
601.0 0.001664 468.48734 516.08270
609.0 0.001642 468.54889 513.16992
638.0 0.001567 468.61084 511.23172
609.0 0.001642 468.67316 510.04449
597.0 0.001675 468.73587 509.42953
599.0 0.001669 468.79898 509.25381
612.0 0.001634 468.86246 509.42471
626.0 0.001597 468.92636 509.88150
591.0 0.001692 468.99063 510.58752
570.0 0.001754 469.05527 511.52393
559.0 0.001789 469.12033 512.68420
567.0 0.001764 469.18576 514.07977
573.0 0.001745 469.25159 515.70599
592.0 0.001689 469.31778 517.58813
582.0 0.001718 469.38437 519.74963
577.0 0.001733 469.45135 522.21735
567.0 0.001764 469.51874 525.02313
559.0 0.001789 469.58652 528.20038
562.0 0.001779 469.65463 531.78253
573.0 0.001745 469.72318 535.80145
549.0 0.001821 469.79208 540.28223
547.0 0.001828 469.86142 545.24042
574.0 0.001742 469.93112 550.68726
589.0 0.001698 470.00119 556.65851
564.0 0.001773 470.07166 563.26624
576.0 0.001736 470.14249 570.74231
583.0 0.001715 470.21375 579.44238
578.0 0.001730 470.28537 589.84497
585.0 0.001709 470.35739 602.57605
600.0 0.001667 470.42978 618.30005
614.0 0.001629 470.50256 638.01593
684.0 0.001462 470.57571 662.91931
718.0 0.001393 470.64926 694.46130
748.0 0.001337 470.72321 734.31610
791.0 0.001264 470.79752 784.27911
863.0 0.001159 470.87222 846.08221
960.0 0.001042 470.94730 921.11383
1091.0 0.000917 471.02277 1010.08112
1194.0 0.000838 471.09860 1112.66553
1331.0 0.000751 471.17484 1227.14111
1463.0 0.000684 471.25143 1349.64294
1563.0 0.000640 471.32843 1472.72888
1645.0 0.000608 471.40579 1583.76453
1661.0 0.000602 471.48352 1665.20959
1627.0 0.000615 471.56168 1699.43054
1600.0 0.000625 471.64017 1677.26355
1531.0 0.000653 471.71902 1603.87622
1415.0 0.000707 471.79831 1495.18823
1356.0 0.000737 471.87793 1370.34485
1248.0 0.000801 471.95795 1244.56873
1093.0 0.000915 472.03833 1127.46484
998.0 0.001002 472.11908 1024.20142
933.0 0.001072 472.20023 936.21722
882.0 0.001134 472.28171 863.70453
787.0 0.001271 472.36359 805.54376
783.0 0.001277 472.44583 760.01086
708.0 0.001412 472.52847 725.10876
671.0 0.001490 472.61145 702.61053
670.0 0.001493 472.69479 682.98657
617.0 0.001621 472.77853 668.27814
636.0 0.001572 472.86261 657.11804
613.0 0.001631 472.94708 648.61237
617.0 0.001621 473.03192 642.31464
612.0 0.001634 473.11710 638.09772
596.0 0.001678 473.20267 635.95758
618.0 0.001618 473.28857 635.90106
579.0 0.001727 473.37488 637.90326
583.0 0.001715 473.46152 641.87659
598.0 0.001672 473.54852 647.63959
621.0 0.001610 473.63589 654.87842
618.0 0.001618 473.72360 663.11908
677.0 0.001477 473.81168 671.86621
682.0 0.001466 473.90015 680.86157
647.0 0.001546 473.98892 690.42029
669.0 0.001495 474.07806 701.53827
699.0 0.001431 474.16757 715.68176
682.0 0.001466 474.25742 734.45441
758.0 0.001319 474.34763 759.37640
799.0 0.001252 474.43817 791.80792
790.0 0.001266 474.52908 832.92255
838.0 0.001193 474.62033 883.63330
911.0 0.001098 474.71194 944.38702
982.0 0.001018 474.80389 1014.77081
1082.0 0.000924 474.89618 1093.02490
1204.0 0.000831 474.98880 1175.94592
1284.0 0.000779 475.08179 1260.01526
1395.0 0.000717 475.17511 1343.81592
1504.0 0.000665 475.26877 1429.81299
1627.0 0.000615 475.36273 1523.15686
1743.0 0.000574 475.45706 1627.97717
1850.0 0.000541 475.55173 1743.52527
1956.0 0.000511 475.64673 1861.37817
2024.0 0.000494 475.74207 1964.17346
1981.0 0.000505 475.83774 2028.03052
1948.0 0.000513 475.93372 2031.16003
1878.0 0.000532 476.03003 1965.98499
1728.0 0.000579 476.12668 1843.89233
1535.0 0.000651 476.22366 1687.83386
1381.0 0.000724 476.32095 1520.78601
1258.0 0.000795 476.41858 1359.34790
1118.0 0.000894 476.51651 1213.01050
1021.0 0.000979 476.61478 1086.06262
915.0 0.001093 476.71338 979.51025
810.0 0.001235 476.81226 892.40125
765.0 0.001307 476.91147 823.05084
765.0 0.001307 477.01099 768.10938
698.0 0.001433 477.11084 725.23138
671.0 0.001490 477.21100 691.86047
633.0 0.001580 477.31143 665.77722
599.0 0.001669 477.41220 645.17163
636.0 0.001572 477.51328 628.64252
620.0 0.001613 477.61462 615.14832
573.0 0.001745 477.71631 603.93756
576.0 0.001736 477.81830 594.47791
569.0 0.001757 477.92056 586.39301
526.0 0.001901 478.02313 579.41522
510.0 0.001961 478.12598 573.34900
517.0 0.001934 478.22916 568.04877
507.0 0.001972 478.33258 563.40247
498.0 0.002008 478.43634 559.32074
527.0 0.001898 478.54034 555.73389
509.0 0.001965 478.64465 552.58374
508.0 0.001969 478.74927 549.82452
507.0 0.001972 478.85413 547.42053
517.0 0.001934 478.95929 545.34393
514.0 0.001946 479.06470 543.57532
493.0 0.002028 479.17044 542.10315
505.0 0.001980 479.27643 540.92242
526.0 0.001901 479.38266 540.03418
512.0 0.001953 479.48920 539.44373
460.0 0.002174 479.59598 539.15820
509.0 0.001965 479.70306 540.10565
530.0 0.001887 479.81039 540.45251
545.0 0.001835 479.91797 541.10101
526.0 0.001901 480.02582 542.02075
500.0 0.002000 480.13391 543.14789
508.0 0.001969 480.24228 544.42816
545.0 0.001835 480.35089 545.57684
514.0 0.001946 480.45975 546.45343
539.0 0.001855 480.56885 546.90381
545.0 0.001835 480.67822 546.90692
527.0 0.001898 480.78781 546.59503
497.0 0.002012 480.89767 546.30548
504.0 0.001984 481.00775 546.03693
512.0 0.001953 481.11810 546.08862
487.0 0.002053 481.22864 546.60236
510.0 0.001961 481.33945 547.68658
530.0 0.001887 481.45047 549.44592
545.0 0.001835 481.56171 551.91479
547.0 0.001828 481.67322 555.22821
527.0 0.001898 481.78491 559.25616
557.0 0.001795 481.89682 564.03210
563.0 0.001776 482.00897 569.43610
547.0 0.001828 482.12134 575.22052
553.0 0.001808 482.23392 580.95721
601.0 0.001664 482.34671 586.03040
554.0 0.001805 482.45972 589.77002
541.0 0.001848 482.57294 591.74799
545.0 0.001835 482.68634 592.03247
530.0 0.001887 482.79996 591.15851
542.0 0.001845 482.91376 589.83459
544.0 0.001838 483.02777 588.67432
565.0 0.001770 483.14197 588.11548
547.0 0.001828 483.25635 588.37872
540.0 0.001852 483.37094 589.61633
562.0 0.001779 483.48572 591.89453
559.0 0.001789 483.60068 595.24054
563.0 0.001776 483.71582 599.65796
564.0 0.001773 483.83112 605.14252
582.0 0.001718 483.94662 611.68677
586.0 0.001706 484.06229 619.28223
573.0 0.001745 484.17813 627.91785
580.0 0.001724 484.29413 637.58514
590.0 0.001695 484.41031 648.30176
599.0 0.001669 484.52664 660.19562
619.0 0.001616 484.64313 673.44604
623.0 0.001605 484.75977 688.92285
639.0 0.001565 484.87659 706.30432
690.0 0.001449 484.99353 726.75696
711.0 0.001406 485.11066 751.27350
700.0 0.001429 485.22787 781.28802
769.0 0.001300 485.34528 818.95764
828.0 0.001208 485.46283 867.74561
928.0 0.001078 485.58047 932.02673
1026.0 0.000975 485.69830 1018.75537
1149.0 0.000870 485.81622 1136.86060
1316.0 0.000760 485.93430 1297.27490
1586.0 0.000631 486.05249 1512.11768
1860.0 0.000538 486.17078 1793.10229
2346.0 0.000426 486.28922 2149.11523
2892.0 0.0003458 486.40778 2582.97949
3344.0 0.0002990 486.52643 3087.13379
3891.0 0.0002570 486.64523 3637.53931
4423.0 0.0002261 486.76410 4185.88477
4805.0 0.0002081 486.88309 4655.76807
4963.0 0.0002015 487.00217 4957.35645
5096.0 0.0001962 487.12134 5028.16162
4908.0 0.0002037 487.24063 4868.46240
4657.0 0.0002147 487.36002 4530.20801
4138.0 0.0002417 487.47946 4079.20386
3792.0 0.0002637 487.59900 3575.29761
3225.0 0.0003101 487.71863 3069.94824
2712.0 0.000369 487.83835 2602.59912
2377.0 0.000421 487.95813 2196.57275
2025.0 0.000494 488.07800 1860.14783
1778.0 0.000562 488.19794 1591.21436
1570.0 0.000637 488.31793 1382.05811
1309.0 0.000764 488.43799 1222.77466
1203.0 0.000831 488.55811 1103.34143
1114.0 0.000898 488.67831 1014.76825
1016.0 0.000984 488.79852 949.64874
911.0 0.001098 488.91882 902.29327
842.0 0.001188 489.03915 868.60327
822.0 0.001217 489.15952 845.79480
839.0 0.001192 489.27994 832.05707
845.0 0.001183 489.40039 826.22943
814.0 0.001229 489.52087 827.52338
819.0 0.001221 489.64142 835.30121
843.0 0.001186 489.76193 848.74255
822.0 0.001217 489.88254 866.69922
853.0 0.001172 490.00311 887.45587
935.0 0.001070 490.12372 908.60956
952.0 0.001050 490.24435 926.91003
965.0 0.001036 490.36499 940.06122
963.0 0.001038 490.48563 946.27924
918.0 0.001089 490.60626 944.41510
928.0 0.001078 490.72693 933.65521
914.0 0.001094 490.84756 913.79590
880.0 0.001136 490.96820 885.92462
836.0 0.001196 491.08884 852.55792
733.0 0.001364 491.20944 816.87952
741.0 0.001350 491.33005 781.75433
706.0 0.001416 491.45062 749.19141
673.0 0.001486 491.57117 720.32251
636.0 0.001572 491.69171 695.61200
606.0 0.001650 491.81219 675.08569
614.0 0.001629 491.93265 658.50403
632.0 0.001582 492.05310 645.47699
636.0 0.001572 492.17346 635.54120
602.0 0.001661 492.29379 628.19098
591.0 0.001692 492.41409 622.85889
580.0 0.001724 492.53433 618.87518
579.0 0.001727 492.65451 615.46930
593.0 0.001686 492.77463 611.89606
606.0 0.001650 492.89468 607.67700
615.0 0.001626 493.01465 602.74835
579.0 0.001727 493.13458 597.30658
591.0 0.001692 493.25443 591.65521
591.0 0.001692 493.37421 586.06348
566.0 0.001767 493.49387 580.78394
565.0 0.001770 493.61346 575.98425
582.0 0.001718 493.73300 571.80408
574.0 0.001742 493.85242 568.29431
574.0 0.001742 493.97174 565.44867
559.0 0.001789 494.09097 563.23309
526.0 0.001901 494.21008 561.62769
580.0 0.001724 494.32910 560.54620
571.0 0.001751 494.44800 559.99408
573.0 0.001745 494.56677 559.96985
562.0 0.001779 494.68546 560.49182
560.0 0.001786 494.80399 561.59735
581.0 0.001721 494.92242 563.34705
595.0 0.001681 495.04071 565.79266
578.0 0.001730 495.15887 569.00549
560.0 0.001786 495.27692 573.04077
576.0 0.001736 495.39478 577.92676
563.0 0.001776 495.51251 583.64221
554.0 0.001805 495.63013 590.10925
573.0 0.001745 495.74753 597.04468
603.0 0.001658 495.86484 604.05615
600.0 0.001667 495.98193 610.50848
612.0 0.001634 496.09891 615.60577
605.0 0.001653 496.21570 618.59106
587.0 0.001704 496.33231 619.04028
592.0 0.001689 496.44876 617.07013
584.0 0.001712 496.56503 613.28351
607.0 0.001647 496.68112 608.50299
565.0 0.001770 496.79703 603.49481
553.0 0.001808 496.91272 598.82568
576.0 0.001736 497.02823 594.85291
551.0 0.001815 497.14355 591.77142
567.0 0.001764 497.25867 589.66913
573.0 0.001745 497.37360 588.56909
592.0 0.001689 497.48828 588.46021
607.0 0.001647 497.60278 589.31604
611.0 0.001637 497.71704 591.11359
578.0 0.001730 497.83112 593.84485
614.0 0.001629 497.94492 597.53241
595.0 0.001681 498.05853 602.24084
602.0 0.001661 498.17188 608.09039
590.0 0.001695 498.28500 615.27063
630.0 0.001587 498.39792 624.05042
638.0 0.001567 498.51056 634.79401
656.0 0.001524 498.62299 647.96204
651.0 0.001536 498.73511 664.11255
714.0 0.001401 498.84702 683.88293
790.0 0.001266 498.95865 707.96338
770.0 0.001299 499.07004 737.04706
817.0 0.001224 499.18115 771.76489
863.0 0.001159 499.29196 812.59631
928.0 0.001078 499.40253 859.74292
998.0 0.001002 499.51282 912.94281
1048.0 0.000954 499.62283 971.20306
1092.0 0.000916 499.73254 1032.49377
1159.0 0.000863 499.84195 1093.58350
1161.0 0.000861 499.95111 1150.31006
1291.0 0.000775 500.05994 1198.46582
1219.0 0.000820 500.16849 1234.76074
1251.0 0.000799 500.27673 1258.43176
1267.0 0.000789 500.38464 1271.19629
1272.0 0.000786 500.49225 1277.75244
1294.0 0.000773 500.59955 1284.38672
1379.0 0.000725 500.70654 1297.10071
1441.0 0.000694 500.81320 1320.14490
1528.0 0.000654 500.91949 1355.83240
1527.0 0.000655 501.02551 1403.86267
1608.0 0.000622 501.13116 1461.35059
1617.0 0.000618 501.23651 1522.25513
1642.0 0.000609 501.34149 1577.29895
1683.0 0.000594 501.44611 1615.02991
1653.0 0.000605 501.55038 1624.82263
1624.0 0.000616 501.65433 1600.94849
1509.0 0.000663 501.75790 1545.20447
1366.0 0.000732 501.86115 1465.74292
1301.0 0.000769 501.96396 1373.27405
1197.0 0.000835 502.06644 1277.50073
1168.0 0.000856 502.16855 1185.43176
1114.0 0.000898 502.27029 1101.33167
1047.0 0.000955 502.37167 1027.34888
960.0 0.001042 502.47260 964.18750
916.0 0.001092 502.57321 911.61975
879.0 0.001138 502.67340 868.84497
890.0 0.001124 502.77322 834.75427
831.0 0.001203 502.87262 808.11279
791.0 0.001264 502.97159 787.66144
781.0 0.001280 503.07022 772.14862
799.0 0.001252 503.16840 760.34808
771.0 0.001297 503.26617 751.09692
770.0 0.001299 503.36356 743.35034
771.0 0.001297 503.46048 736.26263
762.0 0.001312 503.55701 729.29285
751.0 0.001332 503.65311 722.30139
749.0 0.001335 503.74878 715.54364
736.0 0.001359 503.84399 709.53082
727.0 0.001376 503.93878 704.83978
751.0 0.001332 504.03314 701.95148
753.0 0.001328 504.12704 701.20789
765.0 0.001307 504.22052 702.78931
782.0 0.001279 504.31354 706.72180
790.0 0.001266 504.40610 712.86810
832.0 0.001202 504.49820 720.91394
830.0 0.001205 504.58984 730.38477
831.0 0.001203 504.68103 740.76025
810.0 0.001235 504.77173 751.71045
829.0 0.001206 504.86197 763.36285
789.0 0.001267 504.95172 776.41223
889.0 0.001125 505.04102 791.95270
876.0 0.001142 505.12985 811.13879
964.0 0.001037 505.21817 834.86224
937.0 0.001067 505.30597 863.52545
921.0 0.001086 505.39334 896.87457
966.0 0.001035 505.48019 933.82776
967.0 0.001034 505.56656 972.09125
1002.0 0.000998 505.65240 1008.14014
987.0 0.001013 505.73773 1037.27881
966.0 0.001035 505.82260 1054.42957
1008.0 0.000992 505.90695 1055.99170
930.0 0.001075 505.99078 1041.27515
867.0 0.001153 506.07410 1013.72833
912.0 0.001096 506.15686 976.20270
878.0 0.001139 506.23914 934.47473
834.0 0.001199 506.32089 892.52368
808.0 0.001238 506.40210 853.03802
801.0 0.001248 506.48279 817.51697
788.0 0.001269 506.56293 786.61218
740.0 0.001351 506.64255 760.36456
760.0 0.001316 506.72165 738.43134
718.0 0.001393 506.80017 720.28412
691.0 0.001447 506.87817 705.40387
674.0 0.001484 506.95560 693.42517
713.0 0.001403 507.03250 684.19104
717.0 0.001395 507.10883 677.88818
701.0 0.001427 507.18463 674.31787
693.0 0.001443 507.25986 673.85065
732.0 0.001366 507.33450 676.74341
733.0 0.001364 507.40860 683.30048
676.0 0.001479 507.48215 693.86029
745.0 0.001342 507.55511 708.76923
750.0 0.001333 507.62750 728.31622
774.0 0.001292 507.69931 752.69403
824.0 0.001214 507.77054 781.89752
812.0 0.001232 507.84122 815.59729
827.0 0.001209 507.91129 852.98309
881.0 0.001135 507.98080 892.44775
900.0 0.001111 508.04968 931.52777
907.0 0.001103 508.11801 966.86932
937.0 0.001067 508.18573 994.77966
976.0 0.001025 508.25287 1012.20233
976.0 0.001025 508.31940 1017.50098
948.0 0.001055 508.38535 1010.60242
886.0 0.001129 508.45068 992.64362
868.0 0.001152 508.51541 965.28577
883.0 0.001133 508.57956 930.95880
859.0 0.001164 508.64310 892.42841
837.0 0.001195 508.70599 852.48389
824.0 0.001214 508.76831 813.49542
763.0 0.001311 508.83002 777.15326
771.0 0.001297 508.89108 744.45184
743.0 0.001346 508.95157 715.82581
679.0 0.001473 509.01138 691.32416
692.0 0.001445 509.07062 670.80981
663.0 0.001508 509.12924 653.85516
638.0 0.001567 509.18723 640.10938
603.0 0.001658 509.24457 629.16675
658.0 0.001520 509.30130 620.61768
678.0 0.001475 509.35739 614.14185
652.0 0.001534 509.41287 609.21295
613.0 0.001631 509.46771 605.56134
646.0 0.001548 509.52191 602.77393
577.0 0.001733 509.57547 600.53174
608.0 0.001645 509.62842 598.54333
639.0 0.001565 509.68073 596.62817
623.0 0.001605 509.73239 594.73181
610.0 0.001639 509.78339 592.95673
592.0 0.001689 509.83377 591.49023
590.0 0.001695 509.88351 590.54626
615.0 0.001626 509.93259 590.31830
577.0 0.001733 509.98105 590.95972
573.0 0.001745 510.02887 592.60809
635.0 0.001575 510.07602 595.26135
618.0 0.001618 510.12253 598.95911
589.0 0.001698 510.16840 603.65143
626.0 0.001597 510.21359 609.19757
630.0 0.001587 510.25815 615.34882
611.0 0.001637 510.30206 621.70032
671.0 0.001490 510.34534 627.66998
622.0 0.001608 510.38794 632.54218
611.0 0.001637 510.42990 635.48962
616.0 0.001623 510.47119 635.92035
573.0 0.001745 510.51184 633.59753
625.0 0.001600 510.55182 628.77637
580.0 0.001724 510.59116 622.00940
574.0 0.001742 510.62985 614.06989
619.0 0.001616 510.66788 605.65680
586.0 0.001706 510.70526 597.31128
556.0 0.001799 510.74197 589.39673
584.0 0.001712 510.77805 582.17212
576.0 0.001736 510.81345 575.65961
573.0 0.001745 510.84821 569.98682
564.0 0.001773 510.88229 565.04120
558.0 0.001792 510.91574 560.82800
552.0 0.001812 510.94852 557.28430
576.0 0.001736 510.98065 554.33783
539.0 0.001855 511.01215 551.91290
561.0 0.001783 511.04294 549.93616
561.0 0.001783 511.07312 548.33954
555.0 0.001802 511.10263 547.06354
547.0 0.001828 511.13150 546.05688
573.0 0.001745 511.15970 545.27997
556.0 0.001799 511.18726 544.69928
578.0 0.001730 511.21417 544.29266
554.0 0.001805 511.24042 544.04395
568.0 0.001761 511.26605 543.94366
556.0 0.001799 511.29099 543.99005
587.0 0.001704 511.31531 545.00214
562.0 0.001779 511.33899 545.36011
590.0 0.001695 511.36200 545.89044
552.0 0.001812 511.38437 546.61261
557.0 0.001795 511.40613 547.55408
581.0 0.001721 511.42722 548.74872
568.0 0.001761 511.44766 550.24066
558.0 0.001792 511.46750 552.08258
542.0 0.001845 511.48669 554.33771
579.0 0.001727 511.50522 557.08020
584.0 0.001712 511.52313 560.39209
591.0 0.001692 511.54044 564.54706
608.0 0.001645 511.55707 569.25830
600.0 0.001667 511.57312 574.78192
603.0 0.001658 511.58850 581.16107
585.0 0.001709 511.60327 588.39465
633.0 0.001580 511.61743 596.42798
621.0 0.001610 511.63098 605.14789
633.0 0.001580 511.64392 614.38300
623.0 0.001605 511.65622 624.00818
625.0 0.001600 511.66791 633.46375
623.0 0.001605 511.67902 642.38031
636.0 0.001572 511.68948 650.11554
635.0 0.001575 511.69937 655.96185
622.0 0.001608 511.70865 659.37250
630.0 0.001587 511.71732 660.21667
632.0 0.001582 511.72540 658.86188
655.0 0.001527 511.73291 656.00037
629.0 0.001590 511.73981 652.37927
613.0 0.001631 511.74612 648.60797
647.0 0.001546 511.75186 645.11963
652.0 0.001534 511.75702 642.21002
621.0 0.001610 511.76160 640.06250
589.0 0.001698 511.76563 638.72357
608.0 0.001645 511.76904 638.07745
626.0 0.001597 511.77194 637.83765
640.0 0.001563 511.77426 637.59698
636.0 0.001572 511.77600 636.90320
616.0 0.001623 511.77722 635.37085
638.0 0.001567 511.77789 632.80255
639.0 0.001565 511.77802 629.26270
622.0 0.001608 511.77759 625.04596
659.0 0.001517 511.77664 620.55737
715.0 0.001399 511.77515 616.18500
703.0 0.001422 511.77313 612.24042
665.0 0.001504 511.77060 608.97668
660.0 0.001515 511.76755 606.63251
689.0 0.001451 511.76398 605.45496
718.0 0.001393 511.75992 605.68890
728.0 0.001374 511.75534 607.55573
688.0 0.001453 511.75027 611.22986
706.0 0.001416 511.74472 616.83142
740.0 0.001351 511.73868 624.42072
748.0 0.001337 511.73218 633.98553
737.0 0.001357 511.72516 645.42566
730.0 0.001370 511.71771 658.52051
699.0 0.001431 511.70978 672.87958
727.0 0.001376 511.70139 687.88483
772.0 0.001295 511.69257 702.64508
782.0 0.001279 511.68326 716.00165
717.0 0.001395 511.67355 726.66278
721.0 0.001387 511.66342 733.48999
750.0 0.001333 511.65283 735.83057
718.0 0.001393 511.64185 733.72131
729.0 0.001372 511.63043 727.79651
718.0 0.001393 511.61862 718.98370
692.0 0.001445 511.60641 708.18628
700.0 0.001429 511.59381 696.13287
700.0 0.001429 511.58084 683.39813
677.0 0.001477 511.56747 670.48975
725.0 0.001379 511.55374 657.90851
713.0 0.001403 511.53964 646.10248
675.0 0.001481 511.52521 635.46637
672.0 0.001488 511.51041 626.27765
667.0 0.001499 511.49527 618.70642
633.0 0.001580 511.47980 612.83563
692.0 0.001445 511.46402 608.68732
672.0 0.001488 511.44791 606.24774
674.0 0.001484 511.43152 605.48572
737.0 0.001357 511.41483 606.35822
681.0 0.001468 511.39783 608.81647
657.0 0.001522 511.38055 613.38190
640.0 0.001563 511.36301 618.83807
665.0 0.001504 511.34521 625.67004
676.0 0.001479 511.32715 633.75507
708.0 0.001412 511.30884 642.91370
687.0 0.001456 511.29031 652.88702
678.0 0.001475 511.27155 663.30811
720.0 0.001389 511.25256 673.68353
761.0 0.001314 511.23340 683.39526
686.0 0.001458 511.21402 691.73639
624.0 0.001603 511.19446 697.99359
702.0 0.001425 511.17471 701.55713
707.0 0.001414 511.15482 702.03925
701.0 0.001427 511.13477 699.36719
678.0 0.001475 511.11456 693.80603
673.0 0.001486 511.09424 685.90228
635.0 0.001575 511.07379 676.36237
629.0 0.001590 511.05322 665.90570
640.0 0.001563 511.03256 655.16162
627.0 0.001595 511.01181 644.60706
630.0 0.001587 510.99097 634.56042
645.0 0.001550 510.97009 625.20050
604.0 0.001656 510.94913 616.59888
580.0 0.001724 510.92813 608.75537
573.0 0.001745 510.90714 601.62946
588.0 0.001701 510.88608 595.17291
591.0 0.001692 510.86505 589.34265
583.0 0.001715 510.84402 584.10602
586.0 0.001706 510.82300 579.43835
557.0 0.001795 510.80203 575.31500
564.0 0.001773 510.78110 571.70605
571.0 0.001751 510.76019 568.57629
538.0 0.001859 510.73941 565.88525
544.0 0.001838 510.71869 563.59003
574.0 0.001742 510.69806 561.64813
554.0 0.001805 510.67755 560.02008
563.0 0.001776 510.65720 558.66968
568.0 0.001761 510.63693 557.56683
542.0 0.001845 510.61688 556.68268
552.0 0.001812 510.59695 555.99438
551.0 0.001815 510.57724 555.48181
543.0 0.001842 510.55771 555.12860
532.0 0.001880 510.53839 554.92078
531.0 0.001883 510.51932 554.84753
550.0 0.001818 510.50049 554.90076
545.0 0.001835 510.48190 555.07251
530.0 0.001887 510.46359 555.35956
515.0 0.001942 510.44556 555.75763
560.0 0.001786 510.42786 556.26648
563.0 0.001776 510.41049 556.88513
538.0 0.001859 510.39343 557.61530
547.0 0.001828 510.37677 558.45850
555.0 0.001802 510.36044 559.41943
555.0 0.001802 510.34451 560.50049
523.0 0.001912 510.32901 561.70740
554.0 0.001805 510.31390 563.04517
554.0 0.001805 510.29926 564.51935
541.0 0.001848 510.28506 566.13477
556.0 0.001799 510.27133 567.89740
544.0 0.001838 510.25812 569.80981
524.0 0.001908 510.24542 571.87585
530.0 0.001887 510.23325 574.09833
545.0 0.001835 510.22162 576.48047
540.0 0.001852 510.21054 579.02911
546.0 0.001832 510.20007 581.75806
557.0 0.001795 510.19019 584.69159
525.0 0.001905 510.18094 587.86450
548.0 0.001825 510.17233 591.32037
588.0 0.001701 510.16440 595.10895
564.0 0.001773 510.15717 599.28406
547.0 0.001828 510.15060 603.89703
540.0 0.001852 510.14478 608.99878
562.0 0.001779 510.13971 614.63477
598.0 0.001672 510.13538 620.84662
592.0 0.001689 510.13184 627.66858
608.0 0.001645 510.12912 635.12701
632.0 0.001582 510.12723 643.23999
609.0 0.001642 510.12619 652.01483
587.0 0.001704 510.12601 661.45593
609.0 0.001642 510.12674 671.57788
617.0 0.001621 510.12836 682.42108
638.0 0.001567 510.13095 694.07928
667.0 0.001499 510.13446 706.71613
678.0 0.001475 510.13898 720.57837
688.0 0.001453 510.14450 735.98669
750.0 0.001333 510.15106 753.32819
730.0 0.001370 510.15866 773.02936
754.0 0.001326 510.16733 795.53638
793.0 0.001261 510.17712 821.28711
855.0 0.001170 510.18802 850.68109
872.0 0.001147 510.20007 884.05219
915.0 0.001093 510.21329 921.64001
953.0 0.001049 510.22769 963.56543
1009.0 0.000991 510.24335 1009.79297
1092.0 0.000916 510.26022 1060.08594
1130.0 0.000885 510.27838 1113.94128
1170.0 0.000855 510.29782 1170.50513
1236.0 0.000809 510.31860 1228.48535
1292.0 0.000774 510.34076 1286.07739
1330.0 0.000752 510.36426 1340.95850
1381.0 0.000724 510.38916 1390.39966
1435.0 0.000697 510.41550 1431.54675
1443.0 0.000693 510.44330 1461.85522
1427.0 0.000701 510.47256 1479.57275
1469.0 0.000681 510.50336 1484.09802
1491.0 0.000671 510.53568 1476.03918
1475.0 0.000678 510.56955 1456.96118
1413.0 0.000708 510.60504 1428.92554
1400.0 0.000714 510.64218 1394.03784
1337.0 0.000748 510.68091 1354.15186
1310.0 0.000763 510.72137 1310.78528
1345.0 0.000743 510.76352 1265.19153
1281.0 0.000781 510.80743 1218.47375
1155.0 0.000866 510.85309 1171.66919
1100.0 0.000909 510.90054 1125.75806
1074.0 0.000931 510.94983 1081.62524
1014.0 0.000986 511.00098 1040.00745
956.0 0.001046 511.05402 1001.47217
942.0 0.001062 511.10901 966.41406
902.0 0.001109 511.16589 935.07300
908.0 0.001101 511.22479 907.55804
893.0 0.001120 511.28571 883.86505
878.0 0.001139 511.34869 863.89563
839.0 0.001192 511.41373 847.47247
810.0 0.001235 511.48087 834.35370
783.0 0.001277 511.55017 824.24341
780.0 0.001282 511.62167 816.79987
789.0 0.001267 511.69537 811.63306
792.0 0.001263 511.77130 808.29980
760.0 0.001316 511.84952 806.29492
757.0 0.001321 511.93005 805.05371
765.0 0.001307 512.01294 803.96539
746.0 0.001340 512.09821 802.41016
694.0 0.001441 512.18591 799.81763
682.0 0.001466 512.27600 795.73602
699.0 0.001431 512.36865 789.89716
748.0 0.001337 512.46381 782.24585
740.0 0.001351 512.56152 772.93213
731.0 0.001368 512.66180 762.26349
697.0 0.001435 512.76477 750.63336
691.0 0.001447 512.87036 738.45911
685.0 0.001460 512.97870 726.12695
637.0 0.001570 513.08978 713.96362
630.0 0.001587 513.20361 702.22748
648.0 0.001543 513.32031 691.10736
651.0 0.001536 513.43982 680.73590
646.0 0.001548 513.56226 671.19482
648.0 0.001543 513.68768 662.52960
638.0 0.001567 513.81604 654.75751
622.0 0.001608 513.94739 647.87323
588.0 0.001701 514.08179 641.85669
597.0 0.001675 514.21936 636.67328
581.0 0.001721 514.35999 632.27942
566.0 0.001767 514.50385 628.62091
606.0 0.001650 514.65088 625.63538
609.0 0.001642 514.80121 623.25079
628.0 0.001592 514.95490 621.38934
614.0 0.001629 515.11188 619.96368
611.0 0.001637 515.27228 618.88074
599.0 0.001669 515.43604 618.04578
545.0 0.001835 515.60333 617.36530
608.0 0.001645 515.77411 616.75629
628.0 0.001592 515.94849 616.15192
618.0 0.001618 516.12646 615.50983
671.0 0.001490 516.30804 614.80927
687.0 0.001456 516.49335 614.05237
655.0 0.001527 516.68243 613.25604
657.0 0.001522 516.87531 612.44769
641.0 0.001560 517.07196 611.65570
651.0 0.001536 517.27246 610.90900
656.0 0.001524 517.47699 610.23450
667.0 0.001499 517.68542 609.65680
674.0 0.001484 517.89795 609.20160
709.0 0.001410 518.11450 608.89490
685.0 0.001460 518.33508 608.76208
675.0 0.001481 518.55988 608.83105
630.0 0.001587 518.78894 609.12701
657.0 0.001522 519.02222 609.67554
643.0 0.001555 519.25983 610.50195
644.0 0.001553 519.50177 611.63013
681.0 0.001468 519.74811 613.08514
660.0 0.001515 519.99896 614.89343
648.0 0.001543 520.25433 617.08514
643.0 0.001555 520.51422 619.69482
631.0 0.001585 520.77869 622.76404
632.0 0.001582 521.04785 626.34283
645.0 0.001550 521.32178 630.49243
648.0 0.001543 521.60040 635.28662
652.0 0.001534 521.88391 640.81372
666.0 0.001502 522.17218 647.17963
634.0 0.001577 522.46552 654.50793
640.0 0.001563 522.76379 662.94104
676.0 0.001479 523.06708 672.64203
671.0 0.001490 523.37555 683.79340
706.0 0.001416 523.68903 696.59656
702.0 0.001425 524.00775 711.26898
716.0 0.001397 524.33179 728.04144
736.0 0.001359 524.66107 747.15564
734.0 0.001362 524.99579 768.85443
753.0 0.001328 525.33582 793.37848
807.0 0.001239 525.68146 820.95508
838.0 0.001193 526.03265 851.78394
875.0 0.001143 526.38940 886.02631
951.0 0.001052 526.75183 923.78497
999.0 0.001001 527.11987 965.08801
1034.0 0.000967 527.49377 1009.86206
1092.0 0.000916 527.87354 1057.90808
1120.0 0.000893 528.25922 1108.86682
1170.0 0.000855 528.65082 1162.18079
1184.0 0.000845 529.04834 1217.04907
1260.0 0.000794 529.45209 1272.38928
1350.0 0.000741 529.86194 1326.80896
1361.0 0.000735 530.27802 1378.62036
1419.0 0.000705 530.70038 1425.91321
1422.0 0.000703 531.12891 1466.70923
1447.0 0.000691 531.56403 1499.19092
1486.0 0.000673 532.00555 1521.96265
1470.0 0.000680 532.45361 1534.26440
1484.0 0.000674 532.90826 1536.06848
1462.0 0.000684 533.36945 1528.01965
1464.0 0.000683 533.83746 1511.23975
1510.0 0.000662 534.31226 1487.07617
1433.0 0.000698 534.79388 1456.87903
1438.0 0.000695 535.28247 1421.85425
1433.0 0.000698 535.77789 1383.01953
1386.0 0.000722 536.28052 1341.23120
1316.0 0.000760 536.79028 1297.25500
1314.0 0.000761 537.30725 1251.83545
1279.0 0.000782 537.83142 1205.73047
1155.0 0.000866 538.36279 1159.71106
1157.0 0.000864 538.90173 1114.52271
1156.0 0.000865 539.44812 1070.83643
1092.0 0.000916 540.00208 1029.20911
1014.0 0.000986 540.56360 990.06042
995.0 0.001005 541.13269 953.66760
1030.0 0.000971 541.70972 920.17963
956.0 0.001046 542.29456 889.63422
915.0 0.001093 542.88727 861.98145
911.0 0.001098 543.48798 837.10449
858.0 0.001166 544.09656 814.83789
804.0 0.001244 544.71344 794.98920
794.0 0.001259 545.33856 777.34875
797.0 0.001255 545.97192 761.70557
825.0 0.001212 546.61365 747.85480
769.0 0.001300 547.26361 735.60730
740.0 0.001351 547.92230 724.79224
724.0 0.001381 548.58954 715.25555
703.0 0.001422 549.26544 706.86053
693.0 0.001443 549.95013 699.48535
693.0 0.001443 550.64337 693.02051
685.0 0.001460 551.34576 687.36621
704.0 0.001420 552.05713 682.43390
711.0 0.001406 552.77753 678.14160
709.0 0.001410 553.50708 674.41718
683.0 0.001464 554.24561 671.19568
684.0 0.001462 554.99371 668.42029
699.0 0.001431 555.75116 666.03937
675.0 0.001481 556.51813 664.00470
688.0 0.001453 557.29462 662.27155
708.0 0.001412 558.08051 660.79346
719.0 0.001391 558.87640 659.52771
713.0 0.001403 559.68207 658.42902
694.0 0.001441 560.49762 657.45245
715.0 0.001399 561.32318 656.55920
715.0 0.001399 562.15851 655.71155
698.0 0.001433 563.00427 654.88214
695.0 0.001439 563.86023 654.04901
711.0 0.001406 564.72656 653.20209
689.0 0.001451 565.60333 652.33813
689.0 0.001451 566.49030 651.45959
667.0 0.001499 567.38818 650.57562
666.0 0.001502 568.29669 649.69464
645.0 0.001550 569.21600 648.82745
654.0 0.001529 570.14618 647.98279
661.0 0.001513 571.08704 647.17041
658.0 0.001520 572.03925 646.39691
667.0 0.001499 573.00262 645.67078
677.0 0.001477 573.97723 644.99982
681.0 0.001468 574.96313 644.39203
662.0 0.001511 575.96021 643.85571
667.0 0.001499 576.96906 643.40082
646.0 0.001548 577.98950 643.03558
628.0 0.001592 579.02179 642.76654
643.0 0.001555 580.06580 642.60175
638.0 0.001567 581.12140 642.54608
617.0 0.001621 582.18933 642.60431
628.0 0.001592 583.26947 642.78094
616.0 0.001623 584.36169 643.07721
608.0 0.001645 585.46631 643.49689
595.0 0.001681 586.58295 644.04102
627.0 0.001595 587.71246 644.71112
641.0 0.001560 588.85455 645.50867
609.0 0.001642 590.00934 646.43420
603.0 0.001658 591.17700 647.49011
593.0 0.001686 592.35718 648.67743
584.0 0.001712 593.55078 649.99896
595.0 0.001681 594.75751 651.45648
573.0 0.001745 595.97742 653.05322
564.0 0.001773 597.21069 654.79315
595.0 0.001681 598.45703 656.67914
633.0 0.001580 599.71735 658.71765
590.0 . . .
565.0 . . .
563.0 . . .
580.0 . . .
557.0 . . .
545.0 . . .
567.0 . . .
607.0 . . .
594.0 . . .
575.0 . . .
572.0 . . .
568.0 . . .
592.0 . . .
561.0 . . .
586.0 . . .
585.0 . . .
567.0 . . .
576.0 . . .
588.0 . . .
588.0 . . .
598.0 . . .
582.0 . . .
606.0 . . .
619.0 . . .
581.0 . . .
609.0 . . .
625.0 . . .
607.0 . . .
609.0 . . .
631.0 . . .
602.0 . . .
611.0 . . .
588.0 . . .
577.0 . . .
645.0 . . .
613.0 . . .
619.0 . . .
624.0 . . .
648.0 . . .
626.0 . . .
622.0 . . .
676.0 . . .
675.0 . . .
650.0 . . .
672.0 . . .
711.0 . . .
742.0 . . .
755.0 . . .
756.0 . . .
744.0 . . .
786.0 . . .
776.0 . . .
823.0 . . .
871.0 . . .
880.0 . . .
918.0 . . .
917.0 . . .
940.0 . . .
944.0 . . .
970.0 . . .
953.0 . . .
983.0 . . .
997.0 . . .
996.0 . . .
1005.0 . . .
1059.0 . . .
1072.0 . . .
1039.0 . . .
1045.0 . . .
1103.0 . . .
1104.0 . . .
1044.0 . . .
1050.0 . . .
1059.0 . . .
1053.0 . . .
1017.0 . . .
1003.0 . . .
1038.0 . . .
1067.0 . . .
1034.0 . . .
1011.0 . . .
978.0 . . .
974.0 . . .
1015.0 . . .
1026.0 . . .
957.0 . . .
898.0 . . .
888.0 . . .
938.0 . . .
873.0 . . .
874.0 . . .
866.0 . . .
781.0 . . .
804.0 . . .
807.0 . . .
780.0 . . .
765.0 . . .
761.0 . . .
737.0 . . .
764.0 . . .
728.0 . . .
751.0 . . .
687.0 . . .
708.0 . . .
682.0 . . .
732.0 . . .
727.0 . . .
693.0 . . .
688.0 . . .
728.0 . . .
692.0 . . .
687.0 . . .
664.0 . . .
684.0 . . .
720.0 . . .
728.0 . . .
701.0 . . .
716.0 . . .
788.0 . . .
697.0 . . .
671.0 . . .
738.0 . . .
760.0 . . .
716.0 . . .
730.0 . . .
733.0 . . .
780.0 . . .
746.0 . . .
781.0 . . .
781.0 . . .
754.0 . . .
809.0 . . .
782.0 . . .
801.0 . . .
821.0 . . .
374.0 . . .
385.0 . . .
404.0 . . .
407.0 . . .
419.0 . . .
417.0 . . .
416.0 . . .
392.0 . . .
377.0 . . .
402.0 . . .
414.0 . . .
443.0 . . .
424.0 . . .
410.0 . . .
424.0 . . .
413.0 . . .
387.0 . . .
404.0 . . .
392.0 . . .
417.0 . . .
416.0 . . .
426.0 . . .
386.0 . . .
427.0 . . .
410.0 . . .
loop_
_refln_index_h
_refln_index_k
_refln_index_l
_pd_refln_phase_id
_refln_observed_status
_refln_F_squared_meas
_refln_F_squared_calc
_refln_phase_calc
_refln_d_spacing
_gsas_i100_meas
0 0 2 2 o 1.006 0.851 0.00 12.55331 0.04
0 0 2 1 o 0.609 0.478 180.00 9.30330 1.62
0 0 3 1 o 2.981 2.406 0.00 6.20220 4.82
0 0 4 2 o 8.519 5.885 0.00 6.27665 0.15
0 1 1 2 o 0.000 0.474 180.00 5.38722 0.00
0 0 4 1 o 3.147 2.452 180.00 4.65165 3.87
0 1 3 2 o 2.133 1.831 0.00 4.60541 0.06
0 0 6 2 o 65.969 42.240 180.00 4.18444 0.80
1 1 1 2 o 14.593 15.103 -111.98 3.85213 0.67
1 0 0 1 o 3.485 2.063 180.00 3.92306 7.54
1 0 1 1 o 0.278 0.329 180.00 3.83867 1.18
0 0 5 1 o 1.627 2.922 180.00 3.72132 1.70
0 1 5 2 o 0.761 1.625 180.00 3.71311 0.02
1 1 3 2 o 0.000 0.317 120.27 3.53373 0.00
1 0 2 1 o 0.000 0.000 180.00 3.61482 0.00
1 0 3 1 o 0.340 0.215 0.00 3.31549 1.33
0 0 8 2 o 6.164 10.550 180.00 3.13833 0.06
0 0 6 1 o 0.005 0.005 180.00 3.10110 0.00
1 1 5 2 o 76.611 77.468 81.60 3.07926 3.08
0 1 7 2 o 1.908 1.827 0.00 3.00685 0.04
1 0 4 1 o 13.863 13.864 0.00 2.99893 51.59
0 2 0 2 o 31.848 34.794 180.00 2.75785 0.31
2 0 0 2 o 46.410 52.045 -10.12 2.75517 0.45
1 1 0 1 o 7.494 7.156 0.00 2.77402 13.53
1 0 5 1 o 2.940 2.680 180.00 2.69988 10.53
1 1 1 1 o 0.016 0.019 0.00 2.74370 0.06
0 2 2 2 o 0.254 0.246 180.00 2.69361 0.00
2 0 2 2 o 4.667 4.667 66.38 2.69112 0.09
0 0 7 1 o 0.371 0.514 180.00 2.65809 0.33
1 1 7 2 o 10.981 14.880 -109.09 2.63946 0.42
1 1 2 1 o 0.278 0.390 0.00 2.65836 0.99
0 2 4 2 o 0.008 0.009 0.00 2.52487 0.00
2 0 4 2 o 1.156 1.253 -139.10 2.52282 0.02
1 1 3 1 o 1.082 1.162 180.00 2.53228 3.81
0 0 10 2 o 25.759 30.647 0.00 2.51066 0.24
0 1 9 2 o 19.313 19.879 0.00 2.48935 0.36
1 2 0 2 o 17.454 8.649 152.94 2.46621 0.33
2 1 1 2 o 9.973 4.911 40.79 2.45299 0.37
1 0 6 1 o 0.898 0.826 0.00 2.43281 3.13
1 2 2 2 o 1.980 1.907 -164.07 2.41996 0.07
1 1 4 1 o 9.048 8.540 0.00 2.38253 31.48
2 1 3 2 o 10.826 10.434 -20.64 2.36437 0.40
0 0 8 1 o 14.032 13.295 0.00 2.32583 12.17
0 2 6 2 o 246.958 229.061 180.00 2.30271 4.57
2 0 6 2 o 268.924 246.273 -20.59 2.30115 4.97
1 2 4 2 o 9.630 8.237 -88.95 2.29538 0.36
1 1 9 2 o 32.522 27.877 90.39 2.26860 1.20
1 1 5 1 o 11.804 11.339 0.00 2.22408 40.82
1 0 7 1 o 0.522 0.630 0.00 2.20054 1.80
2 1 5 2 o 3.470 3.452 -126.56 2.21259 0.13
1 2 6 2 o 10.641 6.473 11.82 2.12465 0.39
0 1 11 2 o 6.318 5.739 0.00 2.10899 0.12
0 0 12 2 o 232.199 250.786 0.00 2.09222 2.15
0 0 9 1 o 16.333 13.608 0.00 2.06740 14.17
0 2 8 2 o 0.008 0.008 0.00 2.07162 0.00
2 0 8 2 o 0.270 0.254 -124.30 2.07049 0.01
1 1 6 1 o 2.619 2.203 180.00 2.06753 9.09
2 1 7 2 o 3.965 6.500 -158.82 2.03136 0.15
1 0 8 1 o 0.015 0.027 180.00 2.00065 0.05
1 1 11 2 o 2.135 2.405 -138.53 1.96965 0.08
2 2 0 2 o 525.224 539.739 159.75 1.94915 9.84
1 2 8 2 o 1.435 1.533 -26.04 1.93911 0.05
2 0 0 1 o 57.097 60.564 0.00 1.96153 100.00
2 2 2 2 o 0.450 0.455 94.59 1.92607 0.02
1 1 7 1 o 0.490 0.416 0.00 1.91923 1.73
2 0 1 1 o 0.290 0.299 0.00 1.95072 1.02
2 0 2 1 o 0.264 0.226 180.00 1.91933 0.93
0 0 10 1 o 8.122 8.362 0.00 1.86066 7.24
2 2 4 2 o 11.056 11.373 -162.66 1.86146 0.42
0 2 10 2 o 93.753 96.559 180.00 1.85656 1.79
2 0 10 2 o 92.997 95.743 -7.08 1.85574 1.77
2 0 3 1 o 0.935 0.905 0.00 1.87023 3.32
2 1 9 2 o 1.569 1.569 165.90 1.84709 0.06
0 3 1 2 o 0.306 0.330 180.00 1.83365 0.01
1 0 9 1 o 1.043 1.120 180.00 1.82897 3.75
0 1 13 2 o 2.058 2.133 180.00 1.82277 0.04
2 0 4 1 o 1.275 1.380 180.00 1.80741 4.61
0 3 3 2 o 32.356 38.444 180.00 1.79574 0.63
0 0 14 2 o 52.613 62.161 0.00 1.79333 0.51
1 1 8 1 o 10.452 10.610 0.00 1.78227 38.06
2 2 6 2 o 15.570 12.494 -35.90 1.76686 0.61
1 2 10 2 o 11.969 9.353 -102.88 1.75938 0.47
1 3 1 2 o 4.705 4.577 57.95 1.73985 0.19
3 1 1 2 o 13.802 13.379 -150.00 1.73851 0.55
1 1 13 2 o 56.431 52.342 -103.61 1.73055 2.24
2 1 1 1 o 0.246 0.253 180.00 1.74670 1.82
2 1 0 1 o 2.016 1.758 180.00 1.75445 7.41
2 0 5 1 o 1.312 1.281 180.00 1.73523 4.86
0 3 5 2 o 1.190 0.995 0.00 1.72647 0.02
2 1 2 1 o 0.002 0.002 0.00 1.72406 0.02
1 3 3 2 o 1.127 1.070 -47.17 1.70737 0.05
3 1 3 2 o 3.327 3.141 109.68 1.70610 0.13
0 0 11 1 o 0.065 0.051 180.00 1.69151 0.06
1 0 10 1 o 3.509 3.394 180.00 1.68116 13.32
2 1 3 1 o 0.034 0.027 0.00 1.68820 0.25
2 1 11 2 o 1.804 1.964 99.70 1.67468 0.07
0 2 12 2 o 2.365 2.842 0.00 1.66683 0.05
2 0 12 2 o 1.397 1.667 118.77 1.66624 0.03
1 1 9 1 o 3.087 3.166 180.00 1.65768 11.87
2 2 8 2 o 3.928 4.010 -66.82 1.65578 0.16
2 0 6 1 o 0.002 0.002 0.00 1.65774 0.01
1 3 5 2 o 39.102 38.247 -94.86 1.64750 1.62
3 1 5 2 o 31.295 30.393 71.99 1.64636 1.29
0 3 7 2 o 2.866 2.789 0.00 1.63613 0.06
2 1 4 1 o 7.351 7.270 0.00 1.64157 57.10
0 1 15 2 o 8.517 7.004 180.00 1.60165 0.18
1 2 12 2 o 6.743 6.804 119.23 1.59544 0.29
2 1 5 1 o 0.746 0.794 180.00 1.58692 6.02
2 0 7 1 o 0.320 0.334 180.00 1.57831 1.30
0 0 16 2 o 4.771 9.585 0.00 1.56916 0.05
1 3 7 2 o 0.782 1.540 86.84 1.56845 0.03
3 1 7 2 o 4.878 9.116 -139.21 1.56746 0.21
1 0 11 1 o 0.328 0.396 0.00 1.55328 1.36
0 0 12 1 o 0.487 0.528 0.00 1.55055 0.51
1 1 10 1 o 2.068 2.105 0.00 1.54525 8.66
2 2 10 2 o 6.327 5.739 141.51 1.53963 0.28
1 1 15 2 o 50.580 47.326 78.73 1.53800 2.28
0 3 9 2 o 1.522 1.445 180.00 1.53514 0.03
3 2 0 2 o 2.731 2.463 -18.26 1.52875 0.06
2 3 1 2 o 6.973 6.297 4.55 1.52649 0.32
3 2 2 2 o 1.866 1.362 -97.46 1.51754 0.09
2 1 6 1 o 0.526 0.480 0.00 1.52701 4.49
2 1 13 2 o 4.016 3.260 19.26 1.52020 0.18
2 3 3 2 o 16.062 15.637 157.69 1.50441 0.75
0 2 14 2 o 19.212 18.468 180.00 1.50342 0.45
2 0 14 2 o 21.158 20.203 -5.13 1.50299 0.50
2 0 8 1 o 5.388 5.081 0.00 1.49946 23.75
3 2 4 2 o 3.447 3.153 -137.30 1.48533 0.17
1 3 9 2 o 11.626 12.466 -110.91 1.47882 0.56
3 1 9 2 o 16.325 17.184 70.69 1.47800 0.79
2 3 5 2 o 1.221 0.825 -117.08 1.46297 0.06
2 1 7 1 o 0.223 0.181 0.00 1.46425 2.07
1 2 14 2 o 1.853 1.424 -170.34 1.45041 0.09
1 1 11 1 o 0.164 0.151 0.00 1.44420 0.78
1 0 12 1 o 4.285 4.137 0.00 1.44200 20.57
0 0 13 1 o 0.623 0.698 180.00 1.43128 0.76
3 2 6 2 o 4.515 4.997 104.45 1.43592 0.23
0 3 11 2 o 0.010 0.012 180.00 1.43181 0.00
0 1 17 2 o 2.480 2.548 180.00 1.42661 0.07
2 2 12 2 o 108.894 111.192 160.69 1.42615 5.75
2 0 9 1 o 4.379 4.635 0.00 1.42297 21.78
2 3 7 2 o 2.548 3.974 -172.42 1.40678 0.14
2 1 8 1 o 0.045 0.064 180.00 1.40064 0.47
0 0 18 2 o 7.059 9.374 180.00 1.39481 0.10
1 3 11 2 o 0.284 0.274 100.95 1.38579 0.02
3 1 11 2 o 2.235 2.140 -171.58 1.38511 0.13
2 1 15 2 o 16.240 15.491 -18.92 1.38468 0.94
1 1 17 2 o 0.639 0.643 73.53 1.38107 0.04
0 4 0 2 o 192.512 199.268 0.00 1.37892 2.83
4 0 0 2 o 251.866 268.889 -38.18 1.37759 3.71
2 2 0 1 o 24.968 24.313 0.00 1.38701 67.30
3 2 8 2 o 0.986 1.135 156.52 1.37436 0.06
4 0 2 2 o 0.384 0.391 -157.90 1.36937 0.01
2 2 1 1 o 0.016 0.015 0.00 1.38317 0.09
0 4 2 2 o 0.189 0.198 0.00 1.37068 0.01
2 2 2 1 o 0.082 0.090 180.00 1.37185 0.46
0 2 16 2 o 15.422 17.336 0.00 1.36385 0.47
2 0 16 2 o 20.916 23.678 168.15 1.36353 0.64
1 1 12 1 o 1.535 1.441 180.00 1.35347 9.12
2 0 10 1 o 3.270 3.139 0.00 1.34994 19.67
1 0 13 1 o 0.230 0.204 180.00 1.34459 1.41
0 4 4 2 o 9.537 8.972 0.00 1.34681 0.31
2 2 3 1 o 0.352 0.328 0.00 1.35358 2.09
4 0 4 2 o 11.502 10.488 15.82 1.34556 0.37
2 3 9 2 o 29.419 24.764 159.86 1.34102 1.95
1 4 0 2 o 10.475 10.422 -172.52 1.33768 0.35
4 1 1 2 o 9.689 9.434 173.24 1.33464 0.66
2 1 9 1 o 0.716 0.714 180.00 1.33769 9.00
0 0 14 1 o 2.895 2.924 180.00 1.32904 4.71
0 3 13 2 o 0.593 0.571 180.00 1.33163 0.02
1 4 2 2 o 3.065 3.083 121.78 1.33015 0.21
1 2 16 2 o 7.284 6.481 -111.37 1.32390 0.52
4 1 3 2 o 0.649 0.649 -52.09 1.31981 0.05
2 2 14 2 o 27.406 27.508 158.73 1.31973 1.99
2 2 4 1 o 0.749 0.766 180.00 1.32918 4.87
0 4 6 2 o 11.013 9.654 180.00 1.30965 0.42
4 0 6 2 o 1.019 0.964 94.96 1.30850 0.04
1 4 4 2 o 9.262 8.829 65.87 1.30829 0.71
3 2 10 2 o 9.461 8.367 -128.46 1.30574 0.74
3 3 1 2 o 0.342 0.259 11.05 1.29769 0.03
1 3 13 2 o 18.067 16.358 66.78 1.29437 1.50
2 2 5 1 o 0.731 0.585 180.00 1.29967 5.51
3 1 13 2 o 33.435 31.838 -135.56 1.29382 2.79
3 0 0 1 o 0.382 0.378 180.00 1.30769 1.37
3 0 1 1 o 0.161 0.129 180.00 1.30447 1.18
4 1 5 2 o 3.260 3.495 10.83 1.29156 0.28
0 1 19 2 o 0.005 0.007 180.00 1.28504 0.00
3 3 3 2 o 0.829 1.251 -87.05 1.28404 0.07
3 0 2 1 o 0.001 0.000 180.00 1.29496 0.00
2 0 11 1 o 0.082 0.103 180.00 1.28099 0.70
1 4 6 2 o 11.465 12.183 -46.01 1.27415 1.11
2 1 10 1 o 1.494 1.557 180.00 1.27648 26.59
1 1 13 1 o 0.491 0.566 0.00 1.27195 4.55
2 3 11 2 o 1.515 1.761 130.21 1.27049 0.15
2 1 17 2 o 8.693 7.727 -33.83 1.26685 0.90
3 0 3 1 o 0.028 0.033 0.00 1.27956 0.25
0 4 8 2 o 0.017 0.015 180.00 1.26244 0.00
4 0 8 2 o 4.315 4.159 75.17 1.26141 0.24
1 0 14 1 o 0.270 0.257 0.00 1.25877 2.88
3 3 5 2 o 9.211 8.718 -94.17 1.25799 1.06
2 2 6 1 o 0.007 0.005 0.00 1.26614 0.07
0 0 20 2 o 34.735 30.647 0.00 1.25533 1.04
4 1 7 2 o 8.896 7.644 -7.12 1.25240 1.11
1 1 19 2 o 0.903 0.843 -127.87 1.25146 0.11
3 0 4 1 o 2.797 2.715 0.00 1.25889 29.86
