#------------------------------------------------------------------------------
#$Date: 2021-04-30 12:13:07 +0300 (Fri, 30 Apr 2021) $
#$Revision: 264724 $
#$URL: file:///home/coder/svn-repositories/cod/cif/1/56/23/1562327.cif $
#------------------------------------------------------------------------------
#
# This file is available in the Crystallography Open Database (COD),
# http://www.crystallography.net/
#
# All data on this site have been placed in the public domain by the
# contributors.
#
data_1562327
loop_
_publ_author_name
'Oh, George N.'
'Burns, Peter C.'
_publ_section_title
;
 Solid-state actinide acid phosphites from phosphorous acid melts
;
_journal_name_full               'Journal of Solid State Chemistry'
_journal_page_first              50
_journal_page_last               56
_journal_paper_doi               10.1016/j.jssc.2014.03.029
_journal_volume                  215
_journal_year                    2014
_chemical_formula_sum            'C2 H6 N O4 P'
_chemical_formula_weight         139.05
_chemical_name_common
; 
 Phosphoric acid-acetonitrile 
;
_chemical_name_systematic
; 
 Phosphoric acid-acetonitrile 
;
_space_group_crystal_system      monoclinic
_space_group_IT_number           14
_space_group_name_Hall           '-P 2ybc'
_space_group_name_H-M_alt        'P 1 21/c 1'
_atom_sites_solution_hydrogens   difmap
_atom_sites_solution_primary     direct
_atom_sites_solution_secondary   difmap
_audit_creation_method           SHELXL-97
_cell_angle_alpha                90.00
_cell_angle_beta                 117.9695(9)
_cell_angle_gamma                90.00
_cell_formula_units_Z            4
_cell_length_a                   8.0754(7)
_cell_length_b                   9.5524(8)
_cell_length_c                   8.5213(7)
_cell_measurement_temperature    120(2)
_cell_volume                     580.55(8)
_computing_cell_refinement       APEX2
_computing_data_reduction        APEX2
_computing_molecular_graphics    .
_computing_publication_material  .
_computing_structure_refinement  'SHELXL-2013 (Sheldrick, 2013)'
_computing_structure_solution    'SHELXL-2013 (Sheldrick, 2013)'
_diffrn_ambient_temperature      120(2)
_diffrn_measured_fraction_theta_full 0.994
_diffrn_measured_fraction_theta_max 0.936
_diffrn_measurement_device_type  'Bruker APEX2 KAPPA'
_diffrn_measurement_method       APEX2
_diffrn_radiation_monochromator  graphite
_diffrn_radiation_source         'fine-focus sealed tube'
_diffrn_radiation_type           MoK\a
_diffrn_radiation_wavelength     0.71073
_diffrn_reflns_av_R_equivalents  0.0183
_diffrn_reflns_av_sigmaI/netI    0.0137
_diffrn_reflns_limit_h_max       11
_diffrn_reflns_limit_h_min       -11
_diffrn_reflns_limit_k_max       8
_diffrn_reflns_limit_k_min       -13
_diffrn_reflns_limit_l_max       11
_diffrn_reflns_limit_l_min       -11
_diffrn_reflns_number            8272
_diffrn_reflns_theta_full        25.00
_diffrn_reflns_theta_max         30.360
_diffrn_reflns_theta_min         3.446
_exptl_absorpt_coefficient_mu    0.404
_exptl_absorpt_correction_T_max  0.783
_exptl_absorpt_correction_T_min  0.732
_exptl_absorpt_correction_type   numerical
_exptl_absorpt_process_details   SADABS
_exptl_crystal_colour            colorless
_exptl_crystal_density_diffrn    1.591
_exptl_crystal_density_meas      .
_exptl_crystal_density_method    'not measured'
_exptl_crystal_description       'rectangular block'
_exptl_crystal_F_000             288
_refine_diff_density_max         0.347
_refine_diff_density_min         -0.334
_refine_diff_density_rms         0.048
_refine_ls_extinction_method     none
_refine_ls_goodness_of_fit_ref   1.066
_refine_ls_hydrogen_treatment    refall
_refine_ls_matrix_type           full
_refine_ls_number_parameters     97
_refine_ls_number_reflns         1645
_refine_ls_number_restraints     0
_refine_ls_restrained_S_all      1.066
_refine_ls_R_factor_all          0.0239
_refine_ls_R_factor_gt           0.0221
_refine_ls_shift/su_max          0.001
_refine_ls_shift/su_mean         0.000
_refine_ls_structure_factor_coef Fsqd
_refine_ls_weighting_details
'calc w=1/[\s^2^(Fo^2^)+(0.0306P)^2^+0.1771P] where P=(Fo^2^+2Fc^2^)/3'
_refine_ls_weighting_scheme      calc
_refine_ls_wR_factor_gt          0.0586
_refine_ls_wR_factor_ref         0.0597
_cod_data_source_file            JSSC-2014-215-50.cif
_cod_data_source_block           hpo4mecn
_cod_original_sg_symbol_H-M      'P 21/c'
_cod_database_code               1562327
_shelxl_version_number           2013-3
_shelx_res_file
;
TITL H3PO4_MeCN from GaH3PO3
CELL 0.71073   8.07540   9.55240   8.52130  90.0000 117.9695  90.0000
ZERR    4.00   0.00070   0.00080   0.00070   0.0000   0.0009   0.0000
LATT  1
SYMM -X, 0.5+Y, 0.5-Z
SFAC C H N O P
UNIT 8 24 4 16 4
TEMP -153.160
 
L.S. 4
BOND
FMAP 2
PLAN 20
ACTA
 
WGHT    0.030600    0.177100
FVAR       1.34066
P1    5    0.522088    0.187197    0.701589    11.00000    0.01695    0.00942 =
         0.01099   -0.00061    0.00727    0.00073
O1    4    0.564164    0.324836    0.796780    11.00000    0.02609    0.00882 =
         0.01604   -0.00075    0.01228   -0.00024
O2    4    0.323877    0.182433    0.537612    11.00000    0.01869    0.02905 =
         0.01799   -0.00586    0.00554    0.00332
O3    4    0.657850    0.148214    0.628077    11.00000    0.02109    0.02422 =
         0.01358    0.00100    0.00972    0.00693
O4    4    0.540315    0.072878    0.837824    11.00000    0.03467    0.00997 =
         0.01747   -0.00048    0.01392   -0.00392
N1    3   -0.052389   -0.187258    0.920099    11.00000    0.02658    0.03107 =
         0.03031   -0.00219    0.01366   -0.00695
C1    1    0.005690   -0.115932    0.850282    11.00000    0.01790    0.02273 =
         0.02174   -0.00317    0.00769   -0.00046
C2    1    0.078564   -0.025293    0.760601    11.00000    0.02414    0.02640 =
         0.02616    0.00239    0.01366    0.00100
H1    2    0.623281    0.161431    0.524239    11.00000    0.04004
H2    2    0.250007    0.221787    0.555390    11.00000    0.04840
H3    2    0.511828    0.004567    0.799030    11.00000    0.04853
H4    2   -0.014057    0.036568    0.693386    11.00000    0.05540
H5    2    0.185814    0.013891    0.842385    11.00000    0.05356
H6    2    0.106709   -0.081857    0.688013    11.00000    0.05461
HKLF 4
 
REM  H3PO4_MeCN from GaH3PO3
REM R1 =  0.0221 for   1549 Fo > 4sig(Fo)  and  0.0239 for all   1645 data
REM     97 parameters refined using      0 restraints
 
END  
     
WGHT      0.0306      0.1771 
REM Highest difference peak  0.347,  deepest hole -0.334,  1-sigma level  0.048
Q1    1   0.4203  0.1888  0.6202  11.00000  0.05    0.35
Q2    1   0.5576  0.2619  0.7597  11.00000  0.05    0.33
Q3    1   0.5932  0.1719  0.6650  11.00000  0.05    0.32
Q4    1   0.5373  0.1298  0.7787  11.00000  0.05    0.29
Q5    1   0.0348 -0.0744  0.8082  11.00000  0.05    0.19
Q6    1   0.1469  0.0695  0.8325  11.00000  0.05    0.19
Q7    1   0.0430  0.0704  0.7596  11.00000  0.05    0.16
Q8    1   0.0039 -0.1125  0.9154  11.00000  0.05    0.15
Q9    1  -0.0020 -0.1812  0.8630  11.00000  0.05    0.15
Q10   1  -0.0773 -0.1449  0.8255  11.00000  0.05    0.13
Q11   1  -0.1234 -0.2094  0.9602  11.00000  0.05    0.13
Q12   1   0.5166  0.0998  0.9001  11.00000  0.05    0.12
Q13   1   0.7409  0.1438  0.6932  11.00000  0.05    0.12
Q14   1   0.3240  0.1363  0.4734  11.00000  0.05    0.10
Q15   1   0.6529  0.0845  0.9459  11.00000  0.05    0.09
Q16   1   0.1695 -0.0514  0.7563  11.00000  0.05    0.09
Q17   1   0.5425  0.0103  0.5167  11.00000  0.05    0.08
Q18   1   0.6242  0.0217  0.4535  11.00000  0.05    0.08
Q19   1   0.6724  0.4122  0.8027  11.00000  0.05    0.08
Q20   1   0.1699  0.2808  0.3252  11.00000  0.05    0.08
;
_shelx_res_checksum              69252
_shelx_hkl_file
;
   3   0   0 74.2660 2.12350   4
  -3   0   0 79.9249 2.78825   1
   3   0   0 79.0699 2.67585   3
  -3   0   0 82.5592 2.85606   5
   4   0   0 1559.78 29.7514   6
  -4   0   0 1532.39 29.9387   1
   4   0   0 1549.29 27.8741   4
  -4   0   0 1503.77 28.5565   5
   4   0   0 1548.26 28.6181   3
  -5   0   0 1420.79 28.8375   1
  -5   0   0 1437.55 27.6997   5
   5   0   0 1454.51 28.8155   6
   5   0   0 1445.80 27.6587   3
   5   0   0 1459.62 26.3368   4
   6   0   0 1079.51 23.1586   6
  -6   0   0 1077.86 23.0390   1
  -6   0   0 1086.51 22.2933   5
   6   0   0 1075.54 22.0595   3
   7   0   0 314.004 9.11594   3
  -7   0   0 310.509 9.38925   1
   7   0   0 312.840 9.67515   6
  -7   0   0 295.864 9.18375   5
  -8   0   0 43.2797 3.98517   5
  -8   0   0 48.6831 3.86186   1
   8   0   0 45.2096 3.73521   3
   8   0   0 44.1083 4.06225   6
   9   0   0 89.6315 6.02420   6
  -9   0   0 92.7006 5.98732   1
  -9   0   0 88.9231 5.77523   5
   9   0   0 85.4769 5.46409   3
   1  -1   0 204.134 4.25986   3
   1  -1   0 205.170 4.33017   6
  -1  -1   0 196.365 4.24184   5
  -1  -1   0 200.944 4.21869   1
   1   1   0 207.559 4.14934   3
  -1   1   0 198.820 4.10039   5
   2  -1   0 3593.71 62.9761   6
  -2  -1   0 3371.36 60.4719   5
  -2  -1   0 3433.14 63.8103   1
   2  -1   0 3621.87 61.0798   3
  -2   1   0 3501.18 60.3552   5
   2   1   0 3528.45 61.1249   3
  -2   1   0 3419.76 64.0582   1
   2   1   0 3479.64 63.0333   6
  -3  -1   0 2311.32 41.3857   5
   3  -1   0 2385.52 41.6153   3
   3  -1   0 2346.47 42.9573   6
   3  -1   0 2301.78 42.0790   4
  -3  -1   0 2326.47 43.2794   1
  -3   1   0 2287.59 43.7147   1
   3   1   0 2294.65 43.0387   6
   3   1   0 2344.89 41.5181   3
  -3   1   0 2333.97 41.2376   5
   4  -1   0 3904.29 68.3452   3
  -4  -1   0 3774.08 67.8412   5
  -4  -1   0 3897.41 71.3418   1
   4  -1   0 3976.88 70.6848   6
   4  -1   0 3859.47 69.0200   4
  -4   1   0 3828.58 67.7765   5
   4   1   0 3770.83 70.7152   6
   4   1   0 3903.18 68.3150   3
  -4   1   0 3788.03 71.7751   1
   5  -1   0 765.738 16.8278   6
   5  -1   0 799.013 16.2843   3
   5  -1   0 771.180 15.3622   4
  -5  -1   0 772.705 16.6561   1
  -5  -1   0 770.485 16.3856   5
  -5   1   0 790.279 16.3606   5
  -5   1   0 775.701 17.1197   1
   5   1   0 771.057 17.0297   6
   5   1   0 790.100 16.2301   3
   6  -1   0 959.148 19.9779   3
   6  -1   0 940.288 20.7466   6
  -6  -1   0 968.675 20.6151   1
  -6  -1   0 946.375 20.2105   5
  -6   1   0 920.638 20.0344   5
  -6   1   0 966.288 21.1373   1
   6   1   0 960.510 21.0539   6
   6   1   0 985.960 20.0787   3
   7  -1   0 329.280 9.55875   3
   7  -1   0 341.054 10.1712   6
  -7  -1   0 334.324 9.88662   5
  -7  -1   0 327.385 9.61785   1
  -7   1   0 341.921 9.89746   5
   7   1   0 342.570 9.63605   3
  -7   1   0 326.671 9.98544   1
   7   1   0 326.373 10.2400   6
   8  -1   0 513.947 14.5940   6
  -8  -1   0 538.006 14.1787   1
   8  -1   0 522.973 13.9164   3
  -8  -1   0 529.743 14.2464   5
  -8   1   0 529.633 14.6281   1
   8   1   0 543.854 14.0702   3
  -8   1   0 530.421 14.2706   5
   8   1   0 524.863 14.8264   6
   9  -1   0 380.545 11.8538   3
  -9  -1   0 384.197 12.3616   5
   9  -1   0 396.527 12.7138   6
  -9   1   0 359.983 12.1173   1
   9   1   0 368.022 12.6597   6
  -9   1   0 383.201 12.1899   5
   9   1   0 365.500 11.7392   3
  -1  -2   0 4553.93 81.2288   1
  -1  -2   0 4375.55 76.7147   5
   1  -2   0 4619.30 80.0929   6
  -1   2   0 4295.74 76.9087   5
   2  -2   0 233.397 5.33334   6
  -2  -2   0 222.673 5.31133   5
   2  -2   0 226.271 5.25929   3
  -2  -2   0 220.456 5.05675   1
  -2   2   0 210.421 5.56246   1
  -2   2   0 218.273 5.03082   5
   2   2   0 214.348 5.05049   3
   3  -2   0 23.0554 1.74640   4
  -3  -2   0 28.7612 1.56718   1
   3  -2   0 27.3068 1.74176   3
  -3  -2   0 23.5034 1.78505   5
   3   2   0 28.1994 1.71312   3
   3   2   0 26.1652 1.83993   6
  -3   2   0 25.1043 1.64110   5
  -3   2   0 27.1340 1.94175   1
  -4  -2   0 245.214 6.26495   1
   4  -2   0 250.454 6.45864   3
  -4  -2   0 245.848 6.65050   5
   4  -2   0 246.918 6.38051   4
   4  -2   0 250.128 6.61854   6
  -4   2   0 247.891 7.00293   1
   4   2   0 244.020 6.39887   3
  -4   2   0 239.456 6.42056   5
   4   2   0 252.244 6.91884   6
  -5  -2   0 281.790 7.31081   1
   5  -2   0 268.358 7.00228   4
  -5  -2   0 266.539 7.60397   5
   5  -2   0 281.965 7.46855   3
   5  -2   0 276.181 7.67909   6
   5   2   0 270.846 7.94832   6
  -5   2   0 269.996 8.00138   1
  -5   2   0 276.060 7.52881   5
   5   2   0 274.883 7.39271   3
   6  -2   0 465.041 11.5930   3
   6  -2   0 484.582 12.1772   6
  -6  -2   0 489.516 11.7294   1
  -6  -2   0 480.831 12.0132   5
   6  -2   0 486.104 10.8975   4
  -6   2   0 488.480 11.9379   5
   6   2   0 481.353 11.7514   3
  -6   2   0 481.466 12.5983   1
   6   2   0 452.537 12.3802   6
   7  -2   0 54.2995 3.91207   6
  -7  -2   0 55.1194 3.48348   1
  -7  -2   0 57.5237 4.10553   5
   7  -2   0 59.5769 3.88427   3
  -7   2   0 55.2847 3.81103   5
   7   2   0 55.0743 4.12589   6
   7   2   0 56.5765 3.80272   3
  -7   2   0 55.3822 3.99883   1
   8  -2   0 8.03486 2.12219   3
  -8  -2   0 1.52202 1.67020   1
   8  -2   0 2.73694 1.79494   6
  -8  -2   0 1.34874 1.96138   2
  -8  -2   0 0.83965 1.76276   5
   8   2   0 -0.0679 1.55205   6
   8   2   0 -0.0286 1.28840   3
  -8   2   0 0.85371 1.53869   5
  -8   2   0 -0.3594 1.43567   1
  -9  -2   0 -0.9160 1.96679   5
   9  -2   0 -0.7459 1.59393   3
   9  -2   0 2.10079 2.12374   6
  -9   2   0 -0.4852 1.72186   1
  -9   2   0 3.16996 2.02510   5
   9   2   0 1.28181 2.01282   6
   9   2   0 -1.8661 1.38218   3
 -10   2   0 3.94154 2.50823   5
   1  -3   0 998.250 19.6544   6
  -1  -3   0 1005.78 18.9719   5
   1  -3   0 1008.35 19.2899   2
   1  -3   0 1041.43 19.2647   3
  -1  -3   0 1051.56 19.8039   1
  -2  -3   0 33.0057 1.62364   1
   2  -3   0 34.0832 1.87808   3
  -2  -3   0 31.6833 1.83160   5
  -2   3   0 34.8970 1.69994   5
  -3  -3   0 353.899 8.36078   5
  -3  -3   0 359.869 6.71739   4
  -3  -3   0 344.974 7.94434   1
   3  -3   0 348.814 8.21263   3
   3  -3   0 371.659 8.36708   6
   3   3   0 335.285 8.01398   3
  -3   3   0 344.376 8.85200   1
  -3   3   0 353.859 7.98340   5
   4  -3   0 279.133 7.47902   4
   4  -3   0 290.582 7.46438   6
  -4  -3   0 284.845 7.02235   1
  -4  -3   0 280.515 7.50003   5
  -4   3   0 293.648 7.34806   5
  -4   3   0 276.404 7.96783   1
   4   3   0 272.820 7.20620   3
   5  -3   0 2.28934 1.11956   4
   5  -3   0 2.65777 1.08871   3
  -5  -3   0 1.34002 1.24127   5
   5  -3   0 1.65142 1.01698   6
  -5  -3   0 5.32605 1.15253   1
   5   3   0 2.23607 1.28731   6
  -5   3   0 5.91468 1.54903   1
   5   3   0 9.05420 1.57660   3
  -5   3   0 1.61207 1.01100   5
   6  -3   0 48.8683 3.30286   3
  -6  -3   0 46.6338 3.53400   5
  -6  -3   0 46.8869 2.94794   1
   6  -3   0 53.8251 3.18179   4
   6  -3   0 43.8708 3.29250   6
  -6   3   0 49.8439 3.73018   1
   6   3   0 46.2039 3.17337   3
  -6   3   0 48.3288 3.31437   5
   6   3   0 46.7885 3.49780   6
  -7  -3   0 10.0968 2.14611   5
   7  -3   0 9.48899 2.01086   3
   7  -3   0 12.9107 2.28957   6
  -7  -3   0 10.0218 1.83201   1
   7   3   0 9.82831 1.99856   3
  -7   3   0 12.4996 2.32984   1
   7   3   0 13.6990 2.46183   6
  -7   3   0 13.3035 2.34444   5
   8  -3   0 1.26186 1.67538   6
   8  -3   0 0.48641 1.59783   3
  -8  -3   0 1.29414 2.02492   2
  -8  -3   0 1.63100 1.90404   5
  -8   3   0 2.38774 1.75888   1
   8   3   0 1.83113 1.49070   3
  -8   3   0 1.79739 1.63198   5
   9  -3   0 8.55710 2.46378   3
   9  -3   0 7.42524 2.56031   6
  -9  -3   0 6.37604 2.52441   5
   9   3   0 7.00155 2.23803   3
  -9   3   0 7.01975 2.50859   5
   0  -4   0 1829.88 33.5655   3
   0  -4   0 1833.07 34.6270   6
   1  -4   0 614.427 12.5922   2
   1  -4   0 623.844 13.1528   6
  -1  -4   0 627.669 13.1409   1
   1  -4   0 630.085 12.9464   3
   2  -4   0 102.239 2.37855   2
   2  -4   0 103.116 3.56191   6
  -2  -4   0 97.4533 3.60464   5
  -2  -4   0 103.624 3.36514   1
   2  -4   0 100.024 3.64611   3
  -2   4   0 97.3552 3.27779   5
  -3  -4   0 563.864 12.0051   1
   3  -4   0 557.433 12.3128   6
   3  -4   0 567.284 12.2630   3
  -3  -4   0 554.569 12.2395   5
  -3   4   0 545.537 11.7358   5
   4  -4   0 6.73949 1.33612   3
   4  -4   0 10.2374 1.52968   6
  -4  -4   0 9.10853 1.51862   5
  -4  -4   0 7.95780 1.17944   1
   4  -4   0 7.82624 1.54518   4
  -4   4   0 10.6299 1.48393   5
   5  -4   0 70.7403 3.62071   6
   5  -4   0 71.6135 3.78944   4
  -5  -4   0 67.7283 3.15006   1
   5  -4   0 71.1373 3.65113   3
  -5  -4   0 63.4714 3.64057   5
   5   4   0 65.6993 3.53313   3
  -5   4   0 65.6883 3.48023   5
  -6  -4   0 291.482 9.05366   5
   6  -4   0 295.116 8.71308   3
   6  -4   0 298.798 8.87114   6
   6  -4   0 303.188 8.75355   4
  -6  -4   0 299.948 8.26001   1
  -6   4   0 308.760 8.92261   5
   6   4   0 286.096 8.75669   3
   7  -4   0 32.1526 3.34729   3
  -7  -4   0 29.3424 3.36751   5
   7  -4   0 35.4800 3.40550   6
  -7   4   0 33.5782 3.41581   5
   7   4   0 31.0342 3.32298   3
  -8  -4   0 10.0517 2.73889   5
   8  -4   0 11.0914 2.56995   6
   8  -4   0 15.5360 2.63782   3
  -8  -4   0 12.7503 3.34165   2
   8   4   0 15.5961 2.68605   3
  -8   4   0 19.5139 3.03068   5
   9  -4   0 78.7248 5.65716   6
   9  -4   0 82.9713 5.59080   3
  -9  -4   0 83.2044 6.05597   5
  -9  -4   0 82.9987 6.73033   2
   9   4   0 83.8474 5.70911   3
   0  -5   0 -0.5000 0.62518   3
   0  -5   0 -0.7036 0.63377   6
   1  -5   0 60.3808 2.80810   6
   1  -5   0 54.5209 2.33522   2
   1  -5   0 55.9195 2.77979   3
   2  -5   0 841.835 17.2737   3
   2  -5   0 841.803 17.4472   6
  -2  -5   0 840.891 17.2846   1
   2  -5   0 823.781 16.0492   2
  -2  -5   0 826.853 16.9771   5
  -3  -5   0 3.96682 0.84058   4
  -3  -5   0 3.13430 1.18546   5
   3  -5   0 4.83862 1.10888   6
   3  -5   0 2.02023 0.96197   3
  -3  -5   0 3.54080 0.92256   1
  -3   5   0 4.48445 1.02370   5
   4  -5   0 214.231 7.11074   4
  -4  -5   0 221.552 6.16812   1
  -4  -5   0 204.381 6.63429   5
   4  -5   0 215.373 6.52188   6
  -4   5   0 213.849 6.36493   5
   5  -5   0 29.9504 2.76227   3
   5  -5   0 19.9403 2.52251   4
  -5  -5   0 25.7289 2.11352   1
  -5  -5   0 24.6211 2.77050   5
   5  -5   0 21.2760 2.40385   6
  -5   5   0 23.7421 2.50222   5
   6  -5   0 8.97991 1.99548   3
   6  -5   0 7.93174 1.85075   6
  -6  -5   0 8.10433 1.92536   5
  -6  -5   0 6.70182 1.45759   1
   6  -5   0 5.54211 1.87492   4
  -6   5   0 5.50541 1.65978   5
   7  -5   0 32.7695 3.38036   3
  -7  -5   0 34.5543 3.81166   5
   7  -5   0 38.4463 3.54233   6
  -7   5   0 33.3616 3.46516   5
  -8  -5   0 20.8449 4.00927   2
   8  -5   0 22.1122 3.10183   3
   8  -5   0 27.0788 3.58731   6
  -8  -5   0 32.1366 4.09292   5
   9  -5   0 86.6997 5.98200   6
  -9  -5   0 99.0359 7.68123   2
   0  -6   0 5023.48 89.3590   3
   0  -6   0 4988.37 92.2566   6
   0  -6   0 5082.32 94.0569   2
   1  -6   0 1198.97 23.6415   3
   1  -6   0 1189.25 23.6644   2
   1  -6   0 1169.60 24.0987   6
  -2  -6   0 355.143 8.90484   1
   2  -6   0 356.082 7.79227   2
  -2  -6   0 357.511 9.06083   5
   2  -6   0 372.093 9.35626   3
   2  -6   0 347.126 9.13908   6
   3  -6   0 4.56263 1.38994   3
  -3  -6   0 4.34474 1.04050   4
   3  -6   0 3.47309 1.56973   4
   3  -6   0 5.27095 1.32588   6
  -3  -6   0 5.03298 1.43218   5
  -3  -6   0 3.97916 1.06344   1
  -4  -6   0 12.9968 2.14089   5
   4  -6   0 13.8990 2.38885   4
   4  -6   0 11.3237 1.88705   3
   4  -6   0 12.4733 1.85997   6
  -4  -6   0 12.2708 1.64851   1
  -4   6   0 10.8251 1.65844   5
  -5  -6   0 545.562 13.5712   5
  -5  -6   0 531.577 12.5395   1
   5  -6   0 528.873 13.1834   6
   5  -6   0 531.890 13.9466   4
   5  -6   0 536.507 13.2793   3
  -5   6   0 521.907 12.9313   5
   6  -6   0 118.451 5.57202   3
   6  -6   0 121.196 5.99217   4
  -6  -6   0 124.949 5.96010   5
   6  -6   0 119.457 5.52297   6
  -6   6   0 121.533 5.53490   5
   7  -6   0 196.853 7.78021   6
   7  -6   0 211.039 8.08356   4
   7  -6   0 204.023 7.91934   3
  -7  -6   0 215.800 8.41016   5
  -7  -6   0 208.392 9.71375   2
   8  -6   0 47.2063 4.35035   6
   8  -6   0 39.0439 4.19797   3
  -8  -6   0 40.7310 5.16678   2
  -8  -6   0 45.7123 4.74631   5
   0  -7   0 0.12790 0.94567   2
   0  -7   0 1.05000 0.95028   6
   0  -7   0 0.75206 0.96022   3
   1  -7   0 20.8878 2.22220   3
   1  -7   0 9.65443 1.62575   6
   1  -7   0 8.54158 1.38216   2
  -2  -7   0 175.208 6.00673   5
  -2  -7   0 179.714 5.85247   1
   2  -7   0 165.159 5.89593   6
   2  -7   0 187.604 6.31004   3
  -3  -7   0 612.289 14.5049   5
  -3  -7   0 625.399 13.6285   4
  -3  -7   0 619.297 14.2270   1
   3  -7   0 616.064 14.5425   6
   3  -7   0 627.137 14.6567   3
   3  -7   0 604.944 15.4333   4
   4  -7   0 1090.25 23.4568   6
  -4  -7   0 1113.24 23.4305   5
   4  -7   0 1107.34 23.3700   3
  -4  -7   0 1112.49 23.0737   1
   4  -7   0 1074.45 24.4376   4
   5  -7   0 567.393 14.3427   3
   5  -7   0 568.831 14.2965   6
  -5  -7   0 581.381 14.6224   5
   5  -7   0 574.771 15.2988   4
   6  -7   0 525.699 14.5768   4
   6  -7   0 515.367 13.6421   6
  -6  -7   0 503.856 13.9898   5
   6  -7   0 512.672 13.7849   3
   7  -7   0 81.6513 5.60354   4
  -7  -7   0 82.8814 5.55373   5
   7  -7   0 74.4455 4.84824   6
  -7  -7   0 71.6715 6.30201   2
   7  -7   0 78.8722 5.24074   3
   8  -7   0 266.205 9.90707   6
  -8  -7   0 279.738 10.7552   5
   8  -7   0 245.891 10.5699   3
  -8  -7   0 272.759 12.1229   2
   0  -8   0 3901.48 70.8111   3
   0  -8   0 3838.05 73.0075   6
   0  -8   0 3871.14 74.0413   2
   1  -8   0 3213.11 61.5920   4
   1  -8   0 3234.29 59.8824   3
  -1  -8   0 3263.68 59.7787   3
   1  -8   0 3235.25 61.5292   6
  -1  -8   0 3199.05 63.1146   2
  -1  -8   0 3313.91 58.9941   5
  -1  -8   0 3189.63 60.8153   4
   1  -8   0 3240.49 61.5738   2
  -1  -8   0 3198.31 61.9085   6
  -1  -8   0 3174.50 62.0937   1
  -2  -8   0 1791.73 35.5216   1
   2  -8   0 1722.23 36.0930   4
   2  -8   0 1758.24 34.8345   3
  -2  -8   0 1793.75 34.8165   4
  -2  -8   0 1754.13 34.1716   5
   2  -8   0 1728.51 35.3496   6
   3  -8   0 1187.39 26.9511   4
   3  -8   0 1228.81 25.8463   3
  -3  -8   0 1258.46 25.7153   5
  -3  -8   0 1244.63 25.5570   4
  -3  -8   0 1226.40 25.7766   1
   3  -8   0 1219.57 25.9416   6
  -4  -8   0 608.197 15.2888   5
   4  -8   0 625.630 15.3379   3
   4  -8   0 614.880 15.0912   6
  -4  -8   0 625.721 14.6016   1
   4  -8   0 596.683 16.2365   4
   5  -8   0 703.444 18.4668   4
   5  -8   0 721.100 17.2800   6
  -5  -8   0 709.766 17.5322   5
   5  -8   0 726.000 17.4955   3
   6  -8   0 90.1896 5.46692   3
  -6  -8   0 97.1708 6.96373   2
  -6  -8   0 96.8263 5.86648   5
   6  -8   0 101.161 6.17766   4
   6  -8   0 92.2889 5.29783   6
   7  -8   0 79.9403 5.15830   6
   7  -8   0 79.7967 5.48538   3
  -7  -8   0 71.6930 6.60499   2
   7  -8   0 71.9568 5.68450   4
  -7  -8   0 72.0732 5.55591   5
   8  -8   0 54.7017 4.80068   6
   0  -9   0 1.76470 1.26105   2
   0  -9   0 0.00107 1.10006   6
   0  -9   0 -0.8490 0.99486   3
   0  -9   0 -0.8217 1.30328   4
  -1  -9   0 60.9198 4.15390   4
  -1  -9   0 61.0230 4.11575   6
   1  -9   0 66.3625 4.11838   3
  -1  -9   0 60.0856 3.86279   1
   1  -9   0 64.1807 4.61505   4
  -1  -9   0 62.1214 3.92747   5
  -1  -9   0 67.8494 4.10069   3
   1  -9   0 51.6746 3.77936   6
  -1  -9   0 69.4472 4.36405   2
  -2  -9   0 119.575 6.13839   2
   2  -9   0 121.252 5.65358   3
   2  -9   0 123.150 6.25395   4
  -2  -9   0 125.036 5.50655   5
  -2  -9   0 119.873 5.25852   1
  -2  -9   0 126.727 5.60182   4
   2  -9   0 143.692 5.88036   6
   3  -9   0 89.9230 5.04447   3
  -3  -9   0 93.4343 4.53617   1
  -3  -9   0 83.1411 4.75753   5
  -3  -9   0 80.6153 5.50640   2
   3  -9   0 81.8692 5.47257   4
   3  -9   0 86.3849 4.59461   6
   4  -9   0 1496.45 31.2961   3
   4  -9   0 1509.15 31.4719   6
  -4  -9   0 1504.47 31.2289   5
  -4  -9   0 1472.22 34.4728   2
   4  -9   0 1489.39 32.8978   4
   5  -9   0 520.776 14.2252   3
  -5  -9   0 525.947 16.6420   2
   5  -9   0 497.309 13.7268   6
  -5  -9   0 508.286 14.2610   5
   5  -9   0 507.777 15.2011   4
  -6  -9   0 600.707 16.6582   5
   6  -9   0 628.927 16.1638   6
   6  -9   0 613.445 17.6060   4
   6  -9   0 593.829 16.2344   3
  -6  -9   0 617.472 19.2070   2
   7  -9   0 108.809 7.19239   4
   7  -9   0 114.986 6.38469   6
   0 -10   0 437.260 12.4486   3
   0 -10   0 443.112 12.9385   4
   0 -10   0 435.145 12.7066   6
   1 -10   0 104.008 5.40379   3
  -1 -10   0 88.1594 5.13573   2
  -1 -10   0 98.7145 5.25858   1
  -1 -10   0 92.6478 4.94760   5
   1 -10   0 90.9467 5.07680   6
  -1 -10   0 96.5280 5.23638   3
  -1 -10   0 93.6857 5.30906   4
   1 -10   0 88.2405 5.56980   4
  -1 -10   0 89.1520 5.33143   6
  -2 -10   0 598.411 15.0004   4
   2 -10   0 575.659 15.1844   3
  -2 -10   0 577.749 15.0506   3
   2 -10   0 568.271 16.1121   4
   2 -10   0 587.042 15.2357   6
  -2 -10   0 590.262 16.1402   6
  -2 -10   0 554.982 14.7497   1
  -2 -10   0 586.045 14.8300   5
  -2 -10   0 560.947 16.1355   2
  -3 -10   0 203.426 9.00185   2
   3 -10   0 225.292 8.43524   3
   3 -10   0 211.219 9.01901   4
   3 -10   0 216.534 7.95538   6
  -3 -10   0 215.154 8.09978   5
  -4 -10   0 404.486 12.2838   5
   4 -10   0 409.121 13.4470   4
   4 -10   0 413.793 12.4032   3
   4 -10   0 403.180 11.9396   6
  -4 -10   0 389.195 13.8116   2
  -5 -10   0 81.6762 6.64442   2
   5 -10   0 72.0503 5.31201   3
   5 -10   0 65.3044 4.72094   6
   5 -10   0 75.5079 6.19435   4
  -5 -10   0 74.6482 5.35777   5
   6 -10   0 60.4349 5.16818   3
   6 -10   0 75.0508 6.42423   4
   6 -10   0 68.6793 5.21105   6
  -6 -10   0 65.1814 5.54222   5
  -6 -10   0 67.1797 7.33652   2
   0 -11   0 -1.5486 1.47022   4
   0 -11   0 0.99939 1.41331   3
   0 -11   0 -1.0361 1.29550   6
  -1 -11   0 21.6303 3.09371   3
  -1 -11   0 17.0274 2.97185   2
  -1 -11   0 19.8669 3.24292   6
  -1 -11   0 20.1447 2.93147   1
  -1 -11   0 14.4456 2.61166   5
  -1 -11   0 22.1960 3.20543   4
   1 -11   0 15.4821 2.84860   3
   1 -11   0 18.8996 2.95440   6
   1 -11   0 17.0970 3.14398   4
  -2 -11   0 103.212 6.25296   6
   2 -11   0 108.780 6.07949   3
   2 -11   0 106.709 5.72995   6
  -2 -11   0 106.389 6.35092   2
  -2 -11   0 110.083 5.81794   5
  -2 -11   0 116.746 6.08191   3
  -2 -11   0 116.594 5.89768   1
   2 -11   0 118.547 6.82220   4
  -3 -11   0 3.10823 1.95911   5
   3 -11   0 3.09275 1.93375   3
   3 -11   0 0.99858 1.63234   6
  -3 -11   0 -0.1018 2.03410   2
   3 -11   0 -0.6532 1.94706   4
  -4 -11   0 14.2305 3.01752   5
   4 -11   0 6.66990 2.74551   4
   4 -11   0 8.27297 2.50954   3
  -4 -11   0 8.30828 2.97484   2
  -5 -11   0 3.20595 2.19968   5
   5 -11   0 2.82824 2.15096   3
  -5 -11   0 4.54840 3.12289   2
   0 -12   0 112.651 6.20858   3
   0 -12   0 96.7302 6.14367   1
   0 -12   0 106.265 6.68604   4
   1 -12   0 240.174 10.2177   4
  -1 -12   0 255.501 9.76405   1
  -1 -12   0 263.429 9.82860   3
   1 -12   0 257.005 9.79544   3
  -1 -12   0 260.238 10.0229   4
   2 -12   0 9.31522 2.98078   4
   2 -12   0 10.1870 2.64881   3
  -2 -12   0 9.23810 2.79326   2
   3 -12   0 54.2838 5.03661   3
  -3 -12   0 48.9864 4.81522   5
   3 -12   0 55.4330 5.63574   4
  -3 -12   0 52.2979 5.67694   2
  -4 -12   0 -0.6840 2.47370   2
  -4 -12   0 1.11302 2.13503   5
   4 -12   0 2.65075 2.13865   3
   0 -13   0 2.50006 2.52108   4
   0 -13   0 1.46082 1.90273   1
   1 -13   0 0.63061 2.03343   3
   1 -13   0 -0.9670 2.25808   4
   2 -13   0 1.11753 2.03506   3
  10   0  -1 1.19830 1.79623   3
  10   0  -1 1.66385 2.22952   6
 -10   0   1 -1.2632 1.88630   5
 -10   0   1 1.61865 1.89928   1
   9   0  -1 -0.3944 1.68654   6
  -9   0   1 0.82943 1.66550   1
  -9   0   1 -0.1475 1.75125   5
   9   0  -1 2.81052 1.69085   3
  -8   0   1 -1.2502 1.40366   5
   8   0  -1 0.27720 1.39887   6
   8   0  -1 -1.3998 1.12227   3
  -8   0   1 0.08583 1.38332   1
   7   0  -1 -1.0267 1.26283   6
  -7   0   1 0.08300 1.22349   1
  -7   0   1 1.41457 1.49756   5
   7   0  -1 -0.1842 1.12688   3
  -6   0   1 -0.9866 1.08487   5
  -6   0   1 1.85095 1.18103   1
   6   0  -1 -0.0229 1.15641   6
   6   0  -1 -0.7826 0.89685   3
   5   0  -1 -0.2898 0.52966   4
   5   0  -1 -0.3315 0.63976   3
  -5   0   1 -0.5274 0.76067   5
  -5   0   1 1.66352 0.96043   1
   5   0  -1 -1.0505 0.76290   6
  -4   0   1 0.57184 0.64967   1
   4   0  -1 -0.0807 0.53761   3
  -4   0   1 0.78643 0.69416   5
   4   0  -1 0.14646 0.66585   6
  -3   0   1 0.20598 0.46270   5
   3   0  -1 0.21809 0.39896   3
  -3   0   1 2.54584 0.67449   1
   3   0  -1 -0.2143 0.43234   6
   2   0  -1 -2.1253 0.43827   3
   2   0  -1 -3.5154 0.48418   6
  -2   0   1 -3.0751 0.54974   1
  -2   0   1 -3.3479 0.46838   5
   2   0  -1 -2.7952 0.56794   2
  -1   0   1 4.89928 0.47455   1
   1   0  -1 3.48457 0.36945   6
  -1   0   1 4.12490 0.35704   3
   0   0   1 -5.0473 0.48210   4
   0   0  -1 -6.4521 0.45962   2
   0   0   1 -6.9305 0.35199   3
   1   0   1 -8.7815 0.51624   4
  -1   0  -1 -9.9624 0.49826   1
  -1   0  -1 -10.060 0.63328   5
   1   0   1 -9.8270 0.56835   6
  -1   0  -1 -9.7890 0.66011   2
  -2   0  -1 -1.0039 0.55260   2
   2   0   1 0.63408 0.56714   6
  -2   0  -1 -0.9261 0.55571   5
  -2   0  -1 -0.5580 0.44646   1
   2   0   1 -0.9568 0.47318   3
   2   0   1 -1.2086 0.34083   4
  -3   0  -1 0.68034 0.66089   1
  -3   0  -1 0.40599 0.81399   2
   3   0   1 0.13546 0.69157   6
   3   0   1 -0.6688 0.56858   3
  -3   0  -1 -1.2209 0.73721   5
   3   0   1 0.08544 0.41814   4
  -4   0  -1 0.74375 1.02640   5
   4   0   1 0.48059 0.89968   6
  -4   0  -1 -0.3943 0.88149   2
   4   0   1 -0.1479 0.75744   3
  -4   0  -1 1.10983 0.84824   1
   4   0   1 -0.4480 0.48185   4
  -5   0  -1 -0.2175 1.02167   2
  -5   0  -1 0.25428 0.91257   1
   5   0   1 -0.4467 0.90430   3
  -5   0  -1 0.26437 1.03352   5
   5   0   1 -0.6250 0.93665   6
  -6   0  -1 0.56406 1.33414   5
   6   0   1 2.09725 1.37790   3
  -6   0  -1 0.21091 1.03012   1
  -6   0  -1 -0.2681 1.19937   2
   6   0   1 0.18424 1.26750   6
  -7   0  -1 0.19422 1.55310   5
  -7   0  -1 -0.3653 1.18639   1
   7   0   1 -0.5623 1.34481   6
   7   0   1 -0.4732 1.20858   3
   8   0   1 1.97406 1.81347   6
  -8   0  -1 -1.1047 1.79271   5
   8   0   1 -0.4286 1.45911   3
   9   0   1 -0.3422 1.75452   3
  -9   0  -1 -2.3863 1.97101   5
   9   0   1 -1.2522 1.80883   6
 -10  -1   1 21.3862 3.66681   5
  10  -1  -1 24.1212 3.42407   3
 -10   1   1 19.9418 3.37110   1
  10   1  -1 15.7158 2.94379   3
 -10   1   1 20.6776 3.61936   5
  -9  -1   1 162.810 7.26459   1
  -9  -1   1 151.522 7.14661   5
   9  -1  -1 168.699 7.78776   6
   9  -1  -1 154.410 6.91391   3
  -9   1   1 165.112 7.58629   1
   9   1  -1 171.504 7.10782   3
   9   1  -1 163.455 7.71783   6
  -9   1   1 158.411 7.13367   5
  -8  -1   1 98.4499 5.24157   5
  -8  -1   1 95.8477 5.03064   1
   8  -1  -1 97.3373 5.34106   6
   8  -1  -1 94.6898 4.84573   3
   8   1  -1 97.4352 5.45767   6
   8   1  -1 96.0589 4.90371   3
  -8   1   1 96.1688 5.28683   1
  -8   1   1 96.8859 5.15522   5
  -7  -1   1 474.638 12.4755   1
  -7  -1   1 483.207 12.2640   5
   7  -1  -1 488.959 12.7242   6
   7  -1  -1 469.357 11.8083   3
   7   1  -1 479.187 11.8530   3
  -7   1   1 484.478 12.0599   5
   7   1  -1 476.083 12.6938   6
  -7   1   1 484.421 12.8810   1
  -6  -1   1 438.941 10.7742   5
  -6  -1   1 448.443 11.0672   1
   6  -1  -1 436.096 11.1642   6
   6  -1  -1 432.250 10.4482   3
  -6   1   1 443.594 10.6580   5
   6   1  -1 441.682 11.3364   6
   6   1  -1 423.877 10.3819   3
  -6   1   1 438.988 11.4273   1
   5  -1  -1 191.816 5.86732   6
  -5  -1   1 187.993 5.72316   1
   5  -1  -1 195.195 5.52393   3
   5   1  -1 190.375 5.39312   3
  -5   1   1 191.154 5.51404   5
  -5   1   1 199.835 6.10331   1
   5   1  -1 183.056 5.86936   6
   4  -1  -1 0.86609 0.64862   3
   4  -1  -1 1.21043 0.71227   6
  -4  -1   1 2.78622 0.79552   1
  -4  -1   1 -0.0215 0.68155   5
   4   1  -1 0.51518 0.59068   3
  -4   1   1 0.60734 0.72879   1
  -4   1   1 0.02244 0.61506   5
   4   1  -1 0.10923 0.67202   6
   3  -1  -1 365.774 7.69150   3
   3  -1  -1 362.333 8.03957   6
  -3  -1   1 355.419 7.80573   5
  -3  -1   1 360.025 8.04409   1
   3   1  -1 360.098 6.68750   4
  -3   1   1 359.849 7.42480   5
   3   1  -1 363.435 7.37631   3
  -2  -1   1 27.5126 1.42348   5
  -2  -1   1 25.9278 0.88905   4
   2  -1  -1 29.9235 1.36984   3
   2  -1  -1 29.7936 1.46328   6
  -2  -1   1 27.7848 1.39974   1
   2  -1  -1 29.1799 1.22574   2
  -2   1   1 28.1096 1.08384   5
  -2   1   1 24.2237 1.37912   1
   2   1  -1 27.2764 1.03461   3
   2   1  -1 30.7323 1.31658   6
   1  -1  -1 1128.77 20.2647   6
  -1  -1   1 1083.68 18.7991   3
  -1  -1   1 1109.36 19.5333   4
   1  -1  -1 1101.68 19.5577   3
   1  -1  -1 1124.01 20.5137   2
  -1  -1   1 1085.51 20.4326   1
  -1   1   1 1056.98 20.2623   1
   1   1  -1 1037.67 20.6747   2
   1   1  -1 1076.42 19.6471   6
   0  -1  -1 18.8100 0.74234   5
   0  -1   1 14.3079 0.83881   4
   0  -1   1 16.2258 0.51644   6
   0  -1  -1 14.7191 0.99655   2
   0  -1   1 16.1770 0.68373   3
   0   1  -1 15.8763 0.77402   2
   0   1  -1 14.4659 0.93610   5
   0   1  -1 14.5613 0.54698   6
   1  -1   1 1011.92 17.9921   3
  -1  -1  -1 999.578 18.2174   1
   1  -1   1 962.962 18.3178   6
   1  -1   1 984.851 18.3590   4
  -1  -1  -1 984.600 17.9211   5
  -1  -1  -1 1002.86 19.4564   2
   1   1   1 997.769 18.0199   4
  -1   1  -1 966.248 18.0952   5
  -1   1  -1 1009.09 18.5860   2
   2  -1   1 3930.05 72.3759   6
  -2  -1  -1 4033.47 74.8226   2
   2  -1   1 3887.02 71.4428   4
   2  -1   1 4086.82 70.3295   3
  -2  -1  -1 4059.59 69.8015   5
  -2  -1  -1 4015.03 73.1239   1
  -2   1  -1 4024.28 73.8065   1
  -2   1  -1 4144.29 73.7710   2
   2   1   1 4062.88 72.7881   6
   2   1   1 3767.99 71.3573   4
  -2   1  -1 4066.19 69.9104   5
   2   1   1 4163.76 70.5110   3
  -3  -1  -1 162.413 4.85455   5
  -3  -1  -1 169.649 5.33325   2
   3  -1   1 169.434 4.80441   6
   3  -1   1 171.909 4.37943   4
   3  -1   1 176.434 4.78021   3
  -3  -1  -1 172.466 4.50431   1
   3   1   1 168.056 4.98950   6
   3   1   1 174.150 3.92712   4
  -3   1  -1 178.180 4.57715   2
  -3   1  -1 171.334 4.95674   1
   4  -1   1 807.157 16.1931   3
  -4  -1  -1 798.074 17.5255   2
  -4  -1  -1 778.006 16.3220   5
   4  -1   1 796.015 15.5070   4
  -4  -1  -1 787.678 16.2766   1
   4  -1   1 795.600 16.6421   6
   4   1   1 789.824 16.8950   6
   4   1   1 794.529 16.2532   3
  -4   1  -1 780.959 16.8754   1
  -4   1  -1 773.995 16.3312   5
  -4   1  -1 794.959 16.3844   2
   4   1   1 773.469 14.8434   4
  -5  -1  -1 24.5474 2.11257   1
   5  -1   1 26.9800 1.79097   4
   5  -1   1 25.9170 2.42138   6
   5  -1   1 25.2247 2.30562   3
  -5  -1  -1 26.2850 2.72187   2
  -5  -1  -1 28.7981 2.62398   5
  -5   1  -1 24.7951 2.50039   5
  -5   1  -1 24.0768 2.33763   1
  -5   1  -1 26.6470 2.18699   2
   5   1   1 29.1494 2.59655   6
   5   1   1 26.6386 2.43253   3
   6  -1   1 10.1081 1.93887   6
  -6  -1  -1 13.3437 1.93936   1
  -6  -1  -1 13.0309 2.07112   5
  -6  -1  -1 16.7964 2.47461   2
   6  -1   1 16.0978 2.18123   3
  -6   1  -1 13.4401 2.08272   1
  -6   1  -1 14.7492 2.37645   5
   6   1   1 10.8077 1.95938   3
   6   1   1 15.1461 2.33136   6
  -7  -1  -1 65.2758 3.93751   1
   7  -1   1 69.6280 4.51105   6
  -7  -1  -1 64.0967 4.40773   5
   7  -1   1 68.3977 4.34746   3
  -7   1  -1 72.7103 4.44942   1
   7   1   1 75.7259 4.78835   6
   7   1   1 66.7474 4.20905   3
  -7   1  -1 68.7441 4.50349   5
   8  -1   1 120.260 6.37699   6
   8  -1   1 117.066 6.06961   3
  -8  -1  -1 110.721 6.24660   5
   8   1   1 123.783 6.61661   6
   8   1   1 117.989 6.07673   3
  -8   1  -1 122.692 6.23202   1
  -8   1  -1 121.643 6.36648   5
  -9  -1  -1 190.820 8.73454   5
   9  -1   1 166.674 7.98581   3
   9  -1   1 202.215 8.89528   6
   9   1   1 179.144 8.19666   3
   9   1   1 200.431 9.14809   6
  -9   1  -1 179.426 8.55791   5
 -10  -2   1 67.8707 5.60518   5
  10  -2  -1 59.8511 5.12251   3
 -10   2   1 62.5962 5.36047   1
  -9  -2   1 3.15473 1.82192   1
  -9  -2   1 4.33525 2.31949   5
   9  -2  -1 4.19113 2.09575   6
   9  -2  -1 5.91783 2.03113   3
   9   2  -1 9.18578 2.28120   3
  -9   2   1 4.49301 2.14148   1
   9   2  -1 3.13627 2.05156   6
  -9   2   1 2.42913 1.86954   5
   8  -2  -1 14.7769 2.36962   3
   8  -2  -1 17.4225 2.75212   6
  -8  -2   1 14.2242 2.34909   1
  -8  -2   1 11.6220 2.45667   5
  -8   2   1 16.5641 2.58152   5
   8   2  -1 15.5904 2.39210   3
   8   2  -1 14.4740 2.58520   6
  -8   2   1 14.6347 2.59100   1
  -7  -2   1 461.480 11.9930   1
   7  -2  -1 467.323 11.7436   3
  -7  -2   1 455.547 12.0181   5
   7  -2  -1 479.042 12.4675   6
  -7   2   1 472.546 11.8595   5
   7   2  -1 460.380 12.6420   6
  -7   2   1 457.523 12.7710   1
   7   2  -1 457.385 11.5848   3
  -6  -2   1 1318.95 26.7698   5
   6  -2  -1 1382.42 26.5295   4
  -6  -2   1 1377.43 27.6901   1
   6  -2  -1 1356.41 26.5936   3
   6  -2  -1 1370.11 27.7547   6
   6   2  -1 1350.11 28.0354   6
  -6   2   1 1307.98 28.3938   1
   6   2  -1 1373.50 26.5298   3
  -6   2   1 1347.37 26.3936   5
   5  -2  -1 975.071 19.4757   3
  -5  -2   1 977.679 20.2162   1
  -5  -2   1 965.851 19.7041   5
   5  -2  -1 1000.89 20.3430   6
  -5   2   1 1006.15 19.2959   5
   5   2  -1 972.675 20.4420   6
  -5   2   1 955.219 20.8329   1
   5   2  -1 944.930 19.1742   3
   4  -2  -1 208.410 5.67527   6
   4  -2  -1 191.720 5.35152   3
  -4  -2   1 193.998 5.41399   1
  -4  -2   1 186.636 5.44992   5
   4   2  -1 188.415 4.99749   3
   4   2  -1 190.924 5.56044   6
  -4   2   1 202.454 5.13610   5
  -4   2   1 199.263 5.89715   1
  -3  -2   1 55.8528 2.48318   5
   3  -2  -1 57.6442 2.48132   6
  -3  -2   1 59.2917 2.38812   1
   3  -2  -1 56.7255 2.39962   3
   3  -2  -1 59.8384 1.95511   2
   3   2  -1 55.0268 2.01973   3
  -3   2   1 57.3035 2.58273   1
   3   2  -1 58.4316 2.39480   6
  -3   2   1 58.3670 2.06070   5
   2  -2  -1 13.1933 0.85793   2
  -2  -2   1 13.6237 1.25171   5
   2  -2  -1 13.5838 1.14429   6
   2  -2  -1 16.2046 1.23982   3
  -2  -2   1 12.1255 1.08998   1
  -2  -2   1 13.8779 0.72319   4
  -2   2   1 11.8713 1.10318   1
   2   2  -1 11.8684 0.99284   6
  -2   2   1 14.6804 0.81742   5
  -1  -2   1 7135.87 127.089   4
  -1  -2   1 6848.20 130.863   1
   1  -2  -1 7667.05 125.656   3
   1  -2  -1 7585.79 129.347   6
  -1   2   1 6808.46 130.739   1
   0  -2   1 1144.16 20.8947   6
   0  -2   1 1145.00 20.4930   3
   0  -2  -1 1154.42 22.1431   2
   0  -2  -1 1141.18 20.1752   5
   1  -2   1 7701.49 140.643   4
  -1  -2  -1 8120.48 146.209   2
   1  -2   1 8246.80 138.135   3
  -1  -2  -1 7816.65 136.127   5
   2  -2   1 6.71114 1.00868   4
  -2  -2  -1 7.99212 0.73216   1
   2  -2   1 5.45585 0.80754   3
  -2  -2  -1 4.13748 1.01741   2
   2  -2   1 5.92462 0.78955   6
  -2  -2  -1 6.29562 1.00492   5
   2   2   1 6.63874 0.97246   3
   2   2   1 6.32631 0.58889   4
  -2   2  -1 8.51366 1.12345   5
  -2   2  -1 7.37312 0.58512   2
  -3  -2  -1 2038.65 37.6915   1
   3  -2   1 1985.78 37.3629   4
  -3  -2  -1 1977.48 36.7198   5
   3  -2   1 2026.98 36.8292   3
   3  -2   1 2051.67 37.8060   6
  -3   2  -1 2017.59 36.9088   5
  -3   2  -1 2056.04 37.5250   2
   3   2   1 2012.21 37.0369   3
  -3   2  -1 1994.58 38.9508   1
   3   2   1 2053.50 36.0050   4
  -4  -2  -1 150.625 5.09712   5
   4  -2   1 155.176 4.63936   4
  -4  -2  -1 155.889 4.46888   1
  -4  -2  -1 150.597 5.71942   2
   4  -2   1 157.876 4.97877   6
  -4   2  -1 154.586 5.16122   5
  -4   2  -1 147.685 5.24881   1
   4   2   1 170.958 3.34659   4
  -4   2  -1 155.975 4.13937   2
   4   2   1 150.760 5.33130   6
   4   2   1 144.573 4.93181   3
   5  -2   1 1320.82 25.2827   4
   5  -2   1 1287.13 25.7707   3
   5  -2   1 1303.29 26.5065   6
  -5  -2  -1 1327.17 26.0624   1
  -5  -2  -1 1258.38 25.9164   5
  -5  -2  -1 1329.55 28.1491   2
  -5   2  -1 1273.44 27.2159   1
   5   2   1 1308.85 27.1832   6
   5   2   1 1334.01 26.0902   3
  -5   2  -1 1286.04 25.9744   5
   6  -2   1 350.128 9.58329   3
   6  -2   1 334.869 9.69505   6
  -6  -2  -1 349.320 10.6199   2
  -6  -2  -1 349.650 9.18008   1
  -6  -2  -1 327.162 9.77205   5
   6   2   1 345.800 9.72316   3
  -6   2  -1 332.040 10.0207   1
  -6   2  -1 338.901 9.82432   5
   6   2   1 326.989 10.1590   6
   7  -2   1 389.852 11.5744   6
   7  -2   1 394.906 11.2450   3
  -7  -2  -1 400.152 11.5817   5
  -7  -2  -1 410.924 12.4167   2
   7   2   1 391.931 12.0755   6
   7   2   1 401.894 11.4563   3
  -7   2  -1 402.051 11.6863   5
  -7   2  -1 403.715 11.9071   1
   8  -2   1 82.1714 5.26643   3
   8  -2   1 90.6203 5.58239   6
  -8  -2  -1 89.5243 5.68485   5
  -8   2  -1 84.7376 5.64979   5
   8   2   1 87.9598 5.44260   3
   8   2   1 81.4500 5.63847   6
   9  -2   1 68.5713 5.52949   3
  -9  -2  -1 61.7729 5.51531   5
   9  -2   1 63.9011 5.54533   6
  -9   2  -1 69.9637 5.49926   5
   9   2   1 58.7099 5.08482   3
 -10   3   1 330.113 12.5045   1
   9  -3  -1 40.1937 3.98539   3
  -9  -3   1 47.5344 4.80561   5
   9  -3  -1 38.3077 4.17879   6
   9   3  -1 37.8812 4.41206   6
   9   3  -1 51.6539 4.13092   3
  -9   3   1 47.6645 4.53041   1
   8  -3  -1 429.340 12.5133   6
  -8  -3   1 429.090 12.3623   5
   8  -3  -1 426.486 11.8608   3
  -8  -3   1 431.742 12.0093   1
   8   3  -1 432.466 13.1492   6
  -8   3   1 424.130 13.1230   1
  -8   3   1 446.046 12.1263   5
   8   3  -1 450.186 12.0473   3
   7  -3  -1 573.842 13.6477   3
  -7  -3   1 535.228 13.8318   5
   7  -3  -1 562.103 14.2140   6
  -7  -3   1 577.425 13.8823   1
   7   3  -1 548.511 14.6029   6
   7   3  -1 552.446 13.4511   3
  -7   3   1 553.549 14.9364   1
  -7   3   1 560.555 13.5464   5
  -6  -3   1 618.056 14.1470   1
   6  -3  -1 608.276 14.4364   6
  -6  -3   1 597.274 14.1386   5
   6  -3  -1 606.862 13.9046   4
   6  -3  -1 598.742 13.8496   3
   6   3  -1 600.687 13.6512   3
   6   3  -1 613.077 14.8261   6
  -6   3   1 609.408 15.2105   1
  -6   3   1 609.812 13.6766   5
   5  -3  -1 757.553 16.6204   6
  -5  -3   1 766.571 16.3402   5
  -5  -3   1 771.721 16.4449   1
   5  -3  -1 770.764 16.1388   3
   5   3  -1 740.389 15.6822   3
   5   3  -1 758.080 16.8389   6
  -5   3   1 748.121 17.3190   1
  -5   3   1 773.375 15.7095   5
   4  -3  -1 1010.97 20.4379   6
   4  -3  -1 993.545 19.8293   3
  -4  -3   1 996.921 20.3280   1
  -4  -3   1 999.897 19.9632   5
   4   3  -1 1018.48 20.5529   6
  -4   3   1 1008.19 19.0936   5
   4   3  -1 983.746 19.2829   3
  -4   3   1 995.320 21.1126   1
  -3  -3   1 50.0948 1.45606   4
  -3  -3   1 51.4564 2.61444   5
   3  -3  -1 50.6602 2.53449   6
   3  -3  -1 53.1894 1.69658   2
  -3  -3   1 49.3826 2.33830   1
  -3   3   1 49.9578 2.00566   5
  -3   3   1 50.7522 2.66819   1
  -2  -3   1 1746.76 31.5862   4
   2  -3  -1 1762.48 32.0939   3
   2  -3  -1 1770.66 32.6434   2
  -2  -3   1 1779.81 33.2261   1
   2  -3  -1 1777.13 33.0574   6
  -2   3   1 1623.89 33.3273   1
  -2   3   1 1773.01 30.6198   5
   1  -3  -1 9999.99 170.353   3
  -1  -3   1 9600.71 173.034   4
   0  -3   1 3333.90 58.2669   3
   0  -3   1 3259.26 59.9680   6
   0  -3  -1 3321.52 62.0315   2
   0  -3   1 3302.99 59.8832   4
   0  -3  -1 3410.09 57.4698   5
   1  -3   1 3355.12 61.5822   4
   1  -3   1 3454.46 59.9379   3
  -1  -3  -1 3537.61 62.2567   1
  -1  -3  -1 3372.59 59.2701   5
  -1  -3  -1 3424.22 64.0842   2
   1  -3   1 3489.01 61.4753   6
  -1   3  -1 3187.64 59.4833   5
  -2  -3  -1 24.9967 1.78420   5
  -2  -3  -1 23.5039 2.13312   2
   2  -3   1 24.5108 1.56251   6
   2  -3   1 21.8978 1.61715   3
  -2  -3  -1 24.8785 1.26970   1
  -2   3  -1 31.6093 1.96054   5
   3  -3   1 341.078 8.03535   6
   3  -3   1 335.092 8.35939   4
   3  -3   1 345.570 8.12985   3
  -3  -3  -1 342.542 8.25728   5
  -3  -3  -1 350.491 7.52782   1
  -3   3  -1 334.255 8.29019   5
   3   3   1 329.852 8.29973   3
  -4  -3  -1 42.9620 2.11903   1
   4  -3   1 43.3605 2.65675   3
   4  -3   1 38.8124 2.54787   4
   4  -3   1 39.2569 2.43564   6
   4   3   1 40.3832 2.61988   3
  -4   3  -1 39.5746 2.66579   5
   5  -3   1 86.8542 4.04761   6
   5  -3   1 88.6600 3.82827   4
  -5  -3  -1 87.3371 3.49411   1
  -5  -3  -1 83.1806 4.15380   5
   5   3   1 86.5014 4.12465   3
  -5   3  -1 87.4599 4.28635   5
   6  -3   1 107.744 4.95511   6
  -6  -3  -1 97.6210 5.56597   2
  -6  -3  -1 96.9424 5.06569   5
   6  -3   1 97.1786 4.71599   3
   6  -3   1 98.1967 4.25415   4
   6   3   1 102.635 4.89506   3
  -6   3  -1 101.638 5.05907   5
   7  -3   1 96.1632 5.15233   3
  -7  -3  -1 102.005 6.20944   2
   7  -3   1 110.447 5.50198   6
  -7  -3  -1 110.750 5.80650   5
   7   3   1 105.407 5.41975   3
  -7   3  -1 94.5868 5.33089   5
   8  -3   1 561.999 15.2260   3
  -8  -3  -1 561.086 15.6784   5
  -8  -3  -1 565.896 16.7598   2
   8  -3   1 565.763 15.7362   6
  -8   3  -1 565.680 15.7162   5
   8   3   1 569.755 15.5835   3
   9  -3   1 437.671 14.0652   6
  -9   3  -1 421.986 13.7828   5
   9   3   1 419.182 13.6445   3
   9  -4  -1 14.0583 2.86920   6
   9  -4  -1 16.5258 2.95616   3
  -9  -4   1 9.72510 2.75385   5
  -9   4   1 13.6965 2.96240   1
  -8  -4   1 108.232 5.91635   5
  -8  -4   1 116.527 5.44910   1
   8  -4  -1 107.905 5.53459   3
   8  -4  -1 110.836 5.81285   6
   8   4  -1 108.343 5.43049   3
  -8   4   1 117.369 6.43710   1
  -7  -4   1 238.675 8.32026   5
   7  -4  -1 246.399 7.96183   3
   7  -4  -1 240.600 7.80583   4
   7  -4  -1 234.598 8.10455   6
  -7  -4   1 247.654 7.74863   1
  -7   4   1 238.119 8.91307   1
   7   4  -1 235.289 7.69653   3
  -7   4   1 243.969 7.78955   5
   6  -4  -1 780.280 17.9361   6
  -6  -4   1 799.896 17.6298   1
   6  -4  -1 781.725 17.4418   3
   6  -4  -1 793.300 17.8204   4
  -6  -4   1 797.656 17.8765   5
   6   4  -1 779.127 17.1863   3
  -6   4   1 802.697 19.1808   1
  -6   4   1 799.167 17.0288   5
  -5  -4   1 42.2528 3.07083   5
  -5  -4   1 44.2916 2.64309   1
   5  -4  -1 44.6714 2.96864   6
   5  -4  -1 42.9861 2.86979   3
  -5   4   1 43.6038 3.25627   1
  -5   4   1 45.0124 2.61297   5
   5   4  -1 40.7576 2.56574   3
   4  -4  -1 1.50685 0.90420   6
   4  -4  -1 1.18957 0.90561   3
  -4  -4   1 2.86548 0.95763   1
  -4  -4   1 1.13380 0.89119   5
  -4   4   1 7.48120 1.41792   1
  -4   4   1 2.36011 0.78043   5
   3  -4  -1 736.388 15.5468   6
  -3  -4   1 715.707 13.7828   4
  -3  -4   1 714.675 15.1335   5
   3  -4  -1 750.167 14.0423   2
  -3  -4   1 722.065 15.3244   1
  -3   4   1 708.581 15.9971   1
  -3   4   1 727.396 14.0377   5
   2  -4  -1 23.2314 1.32257   2
  -2  -4   1 21.7403 1.49230   4
   2  -4  -1 23.8098 1.88403   6
  -2  -4   1 23.6093 1.70553   1
   2  -4  -1 23.0785 1.88942   3
   1  -4  -1 77.3419 2.81192   2
   1  -4  -1 73.2912 3.08270   3
   0  -4  -1 389.699 8.07630   5
   0  -4   1 384.752 8.42543   6
   0  -4  -1 378.179 9.07181   2
   0  -4   1 378.038 8.31117   3
  -1  -4  -1 109.928 4.26834   2
   1  -4   1 114.135 3.65595   3
   1  -4   1 113.391 3.45715   6
  -1  -4  -1 114.506 3.35706   1
  -1  -4  -1 110.851 3.54698   5
  -2  -4  -1 4.24373 1.06703   5
   2  -4   1 4.60973 1.29331   4
   2  -4   1 6.28323 1.03358   6
   2  -4   1 4.48586 1.03781   3
  -2  -4  -1 6.57551 0.90422   1
  -2  -4  -1 5.07911 1.38721   2
  -2   4  -1 5.32169 1.15660   5
   3  -4   1 1610.76 29.9313   3
   3  -4   1 1577.02 30.9165   4
  -3  -4  -1 1586.76 30.0267   1
   3  -4   1 1598.21 30.3513   6
  -3  -4  -1 1567.69 29.8027   5
  -3   4  -1 1533.64 29.7969   5
  -4  -4  -1 1030.83 20.5275   1
   4  -4   1 1021.59 21.4790   4
   4  -4   1 1032.67 21.1633   6
   4  -4   1 1025.33 20.8918   3
  -4  -4  -1 1044.00 23.5567   2
  -4  -4  -1 1030.58 21.1232   5
  -4   4  -1 1043.89 21.1890   5
   5  -4   1 2774.56 51.7979   3
  -5  -4  -1 2808.47 52.7378   1
  -5  -4  -1 2782.54 51.8456   5
  -5  -4  -1 2814.61 56.5227   2
   5  -4   1 2796.67 53.1106   6
   5  -4   1 2816.26 52.7197   4
  -5   4  -1 2817.36 51.9779   5
   5   4   1 2767.64 52.3983   3
  -6  -4  -1 782.669 18.3730   5
  -6  -4  -1 797.626 20.4545   2
   6  -4   1 786.550 18.0004   3
   6  -4   1 814.101 17.8328   4
   6  -4   1 814.890 18.4503   6
   6   4   1 785.318 18.5323   3
  -6   4  -1 822.317 18.6147   5
  -7  -4  -1 754.859 18.6947   5
   7  -4   1 740.337 18.1106   3
   7  -4   1 794.690 18.7239   6
  -7  -4  -1 769.767 20.5528   2
  -7   4  -1 764.010 18.6194   5
   7   4   1 766.800 18.7686   3
  -8  -4  -1 271.898 10.1265   5
   8  -4   1 280.265 10.0986   6
   8  -4   1 276.448 9.88978   3
  -8  -4  -1 291.371 11.5481   2
   8   4   1 276.399 10.2115   3
  -8   4  -1 293.646 10.3861   5
   9   4   1 178.292 8.60607   3
   9  -5  -1 84.7355 5.76881   6
   9  -5  -1 91.8187 5.68905   3
  -9  -5   1 83.2930 5.89922   5
  -8  -5   1 116.309 6.32505   5
   8  -5  -1 123.715 6.05696   3
   8  -5  -1 123.551 6.20623   6
  -7  -5   1 160.468 6.89837   5
   7  -5  -1 161.133 6.65216   4
   7  -5  -1 159.224 6.63927   6
   7  -5  -1 160.819 6.52976   3
  -7  -5   1 172.695 6.28780   1
   6  -5  -1 574.125 14.3419   6
   6  -5  -1 586.451 14.5925   4
   6  -5  -1 573.184 14.0248   3
  -6  -5   1 579.968 14.3665   5
  -6  -5   1 588.615 13.9052   1
  -6   5   1 568.688 13.3634   5
  -5  -5   1 362.909 9.39020   1
   5  -5  -1 359.642 9.66972   3
  -5  -5   1 351.152 9.90953   5
   5  -5  -1 356.238 9.71262   6
  -5   5   1 354.120 8.81778   5
  -4  -5   1 194.401 6.39861   5
  -4  -5   1 194.347 4.41214   4
   4  -5  -1 188.583 6.21404   6
  -4  -5   1 194.172 5.93105   1
   4  -5  -1 192.900 6.26645   3
  -4   5   1 192.989 5.44171   5
   3  -5  -1 3.28515 1.09951   6
  -3  -5   1 4.24898 1.16820   5
  -3  -5   1 3.96393 0.81379   4
  -3  -5   1 3.38209 0.96683   1
   3  -5  -1 2.62455 1.02115   3
   3  -5  -1 5.40274 0.74253   2
   2  -5  -1 0.77212 0.80962   3
  -2  -5   1 0.71120 0.78654   1
   2  -5  -1 0.65035 0.57618   2
  -2  -5   1 -0.7325 0.60731   4
   2  -5  -1 0.10857 0.77598   6
  -1  -5   1 867.296 17.0875   3
  -1  -5   1 875.863 17.7507   4
   1  -5  -1 867.361 17.8555   3
   1  -5  -1 871.787 18.4345   6
   1  -5  -1 866.861 17.8627   2
   0  -5  -1 1346.51 26.9406   2
   0  -5   1 1320.99 26.2328   4
   0  -5   1 1340.46 25.8428   6
   0  -5   1 1300.10 25.1609   3
   0  -5  -1 1361.11 24.7042   5
   1  -5   1 2063.06 39.5457   6
   1  -5   1 2120.58 38.8507   3
  -1  -5  -1 2182.30 40.0951   1
  -1  -5  -1 2110.89 41.7034   2
  -1  -5  -1 2136.08 38.2990   5
   1  -5   1 2073.25 40.1924   4
   2  -5   1 194.602 5.67848   3
  -2  -5  -1 192.637 5.13915   1
   2  -5   1 181.783 5.35063   6
   2  -5   1 185.829 6.19084   4
  -2  -5  -1 193.992 6.75824   2
  -2  -5  -1 197.995 5.74221   5
  -3  -5  -1 21.5091 2.81498   2
  -3  -5  -1 19.6988 2.05370   5
   3  -5   1 21.4064 2.31078   4
   3  -5   1 27.7225 2.06711   6
  -3  -5  -1 25.0602 1.66748   1
   3  -5   1 30.2243 2.33967   3
  -3   5  -1 23.0957 2.28072   5
  -4  -5  -1 40.3978 3.89254   2
  -4  -5  -1 42.2854 3.15260   5
   4  -5   1 45.6340 3.31357   4
   4  -5   1 42.4049 2.80097   6
  -4  -5  -1 45.4374 2.35671   1
   4  -5   1 39.8456 2.98109   3
  -4   5  -1 48.9391 3.15206   5
  -5  -5  -1 0.73171 1.87108   2
   5  -5   1 2.20251 1.35508   3
   5  -5   1 2.84957 1.49074   4
  -5  -5  -1 0.27368 1.41417   5
   5  -5   1 1.03825 1.23688   6
  -5   5  -1 0.25289 1.19798   5
   6  -5   1 39.1626 3.46025   3
  -6  -5  -1 43.7907 4.64545   2
   6  -5   1 45.3313 3.61963   4
  -6  -5  -1 39.1717 3.78868   5
   6  -5   1 38.5868 3.33975   6
  -6   5  -1 38.8852 3.48305   5
  -7  -5  -1 281.278 9.96488   5
   7  -5   1 280.776 9.49309   3
  -7  -5  -1 285.633 11.3240   2
   7  -5   1 301.534 9.71976   6
  -7   5  -1 306.937 10.1056   5
  -8  -5  -1 42.3694 5.23797   2
  -8  -5  -1 46.7380 4.88264   5
   8  -5   1 50.4344 4.49336   6
   8  -5   1 52.2887 4.64539   3
   9  -6  -1 21.6319 3.55904   6
   8  -6  -1 238.917 8.97825   6
  -8  -6   1 241.102 9.36235   5
   8  -6  -1 222.810 8.64126   3
   7  -6  -1 12.3281 2.59327   4
  -7  -6   1 11.7894 2.81967   5
   7  -6  -1 13.5997 2.51846   6
   7  -6  -1 10.2491 2.32594   3
  -6  -6   1 446.264 11.5276   1
   6  -6  -1 440.009 12.0489   6
   6  -6  -1 455.971 12.0690   3
  -6  -6   1 421.905 12.0912   5
   6  -6  -1 446.477 12.6122   4
   5  -6  -1 59.7336 3.82064   3
  -5  -6   1 64.1272 3.52283   1
  -5  -6   1 60.1306 3.88997   5
   5  -6  -1 59.7523 3.74589   6
  -4  -6   1 661.941 15.3800   1
   4  -6  -1 687.221 15.7712   3
  -4  -6   1 693.317 15.8676   5
   4  -6  -1 708.610 16.0353   6
   3  -6  -1 281.516 6.60163   2
   3  -6  -1 294.165 8.35517   6
   3  -6  -1 292.220 8.35282   3
  -3  -6   1 294.675 8.37991   5
  -3  -6   1 293.353 8.03744   1
  -3  -6   1 295.032 7.19752   4
   2  -6  -1 2022.08 38.4517   3
   2  -6  -1 1974.84 39.3822   6
  -2  -6   1 2083.85 38.2278   4
  -2  -6   1 2043.87 39.5958   1
   2  -6  -1 1988.68 38.5193   2
   1  -6  -1 1407.96 28.3172   2
  -1  -6   1 1415.69 27.1135   3
   1  -6  -1 1435.76 28.8620   6
  -1  -6   1 1466.27 28.0990   4
   1  -6  -1 1383.39 27.8806   3
   0  -6   1 335.866 8.41176   3
   0  -6  -1 344.593 8.11475   5
   0  -6  -1 335.564 9.27966   6
   0  -6   1 337.407 8.52062   6
   0  -6  -1 353.502 9.16276   2
   0  -6   1 334.836 9.03445   4
  -1  -6  -1 227.859 6.20782   1
   1  -6   1 218.636 6.95305   4
  -1  -6  -1 207.367 7.00865   2
   1  -6   1 211.172 6.09583   6
  -1  -6  -1 217.971 6.12393   5
   1  -6   1 219.020 6.34930   3
   2  -6   1 139.881 4.76729   6
  -2  -6  -1 147.869 4.59620   1
  -2  -6  -1 147.012 6.02490   2
   2  -6   1 148.320 5.09973   3
   2  -6   1 140.551 5.59888   4
  -2  -6  -1 145.724 5.01971   5
  -3  -6  -1 832.959 20.1486   2
  -3  -6  -1 834.308 17.2623   1
   3  -6   1 845.794 17.8590   3
  -3  -6  -1 838.829 17.8336   5
   3  -6   1 828.117 17.6957   6
   3  -6   1 825.811 18.8689   4
  -3   6  -1 828.426 17.9321   5
   4  -6   1 1274.14 25.4817   3
  -4  -6  -1 1252.86 25.5267   5
  -4  -6  -1 1257.67 28.5640   2
   4  -6   1 1253.02 25.4997   6
  -4  -6  -1 1214.84 25.1713   1
   4  -6   1 1245.52 26.6065   4
  -4   6  -1 1224.23 25.5001   5
   5  -6   1 459.156 11.9550   3
   5  -6   1 453.798 12.4454   4
   5  -6   1 456.101 11.7337   6
  -5  -6  -1 447.976 14.0344   2
  -5  -6  -1 459.223 12.2829   5
  -5   6  -1 445.279 12.1721   5
   6  -6   1 330.156 10.1423   4
  -6  -6  -1 301.680 10.0515   5
   6  -6   1 320.599 9.67867   6
   6  -6   1 319.892 9.79258   3
  -6  -6  -1 313.961 11.7154   2
  -6   6  -1 304.410 10.0468   5
   7  -6   1 1.34917 1.78190   6
  -7  -6  -1 2.77894 2.70483   2
  -7  -6  -1 0.74371 1.98954   5
   7  -6   1 0.40416 1.58127   3
   8  -6   1 41.0578 4.35416   6
  -8  -6  -1 49.2070 5.75298   2
  -8  -7   1 62.8022 5.37476   5
   8  -7  -1 70.1152 5.16657   6
   8  -7  -1 64.7141 5.02184   3
   7  -7  -1 60.9582 4.91822   4
  -7  -7   1 62.9235 4.94494   5
   7  -7  -1 59.1636 4.65012   3
   7  -7  -1 61.5812 4.57547   6
  -6  -7   1 160.980 6.94242   5
  -6  -7   1 168.826 6.28744   1
   6  -7  -1 162.606 6.82133   3
   6  -7  -1 167.942 6.84297   6
   6  -7  -1 181.263 7.70749   4
  -5  -7   1 553.311 14.3326   5
  -5  -7   1 564.712 13.8080   1
   5  -7  -1 570.721 14.3731   6
   5  -7  -1 563.901 14.2645   3
  -4  -7   1 447.546 12.0768   5
   4  -7  -1 456.830 12.0628   6
   4  -7  -1 455.564 12.0539   3
  -4  -7   1 460.848 11.6392   1
   3  -7  -1 469.074 12.1548   6
   3  -7  -1 448.282 11.9748   3
  -3  -7   1 470.082 12.0584   5
  -3  -7   1 481.451 10.9743   4
  -3  -7   1 480.821 11.8712   1
   2  -7  -1 6.69418 1.55956   3
   2  -7  -1 7.76980 1.24124   2
  -2  -7   1 5.22134 1.36441   1
  -2  -7   1 5.82370 1.37874   4
   2  -7  -1 7.94933 1.66544   6
   1  -7  -1 63.4037 3.23518   2
  -1  -7   1 64.0555 3.39048   6
  -1  -7   1 59.4153 3.20590   3
   1  -7  -1 85.6884 4.15355   6
   1  -7  -1 64.1612 3.68485   3
  -1  -7   1 66.6547 3.61530   4
   0  -7  -1 144.326 4.82811   5
   0  -7   1 152.776 5.19753   6
   0  -7   1 138.282 5.02986   3
   0  -7   1 143.473 5.59741   4
   0  -7  -1 140.415 5.42039   2
   0  -7  -1 137.406 5.64995   6
   1  -7   1 47.6142 3.00688   3
   1  -7   1 43.5965 2.71977   6
   1  -7   1 41.2976 3.27519   4
   1  -7   1 47.7336 2.49750   2
  -1  -7  -1 47.6277 2.78846   1
  -1  -7  -1 45.7303 3.41938   2
  -1  -7  -1 48.9632 2.92643   5
   2  -7   1 0.59484 0.82902   6
  -2  -7  -1 -0.2639 0.99805   5
  -2  -7  -1 3.97222 1.11409   1
  -2  -7  -1 0.42265 1.29926   2
   2  -7   1 0.13857 1.02673   3
   2  -7   1 0.19804 1.33556   4
   3  -7   1 104.582 4.38335   6
  -3  -7  -1 106.052 5.76085   2
   3  -7   1 100.325 5.27302   4
  -3  -7  -1 103.149 4.74881   5
  -3  -7  -1 110.379 4.10521   1
   3  -7   1 105.299 4.73344   3
   4  -7   1 97.9773 5.44318   4
  -4  -7  -1 106.870 6.16898   2
   4  -7   1 104.905 4.65076   6
  -4  -7  -1 99.3056 5.00031   5
   4  -7   1 106.721 5.00581   3
  -5  -7  -1 395.429 13.4170   2
   5  -7   1 418.794 12.1784   4
   5  -7   1 393.503 11.2949   3
  -5  -7  -1 410.626 11.5978   5
   5  -7   1 400.844 11.0210   6
  -5   7  -1 418.275 11.7469   5
   6  -7   1 130.563 6.23406   3
  -6  -7  -1 123.338 6.20296   5
   6  -7   1 129.713 5.90173   6
   6  -7   1 131.474 6.64002   4
  -6  -7  -1 133.420 7.82535   2
   7  -7   1 85.4787 5.46037   3
  -7  -7  -1 85.9324 5.89699   5
   7  -7   1 91.5937 5.80174   4
   7  -7   1 90.9840 5.37774   6
  -7  -7  -1 89.9938 7.05093   2
   8  -7   1 2.99618 2.19615   6
   8  -8  -1 2.49729 2.15049   6
   7  -8  -1 1.99849 1.91865   3
   7  -8  -1 1.12861 2.27509   4
  -7  -8   1 0.22221 1.97477   5
   7  -8  -1 1.81642 1.78105   6
   6  -8  -1 181.616 7.34166   6
   6  -8  -1 172.863 8.14033   4
   6  -8  -1 172.548 7.37053   3
  -6  -8   1 179.927 7.73539   5
  -5  -8   1 9.31825 1.85438   1
   5  -8  -1 2.55537 1.72351   3
  -5  -8   1 9.51901 2.17190   5
   5  -8  -1 4.76919 2.17122   4
   5  -8  -1 4.87077 1.78153   6
   4  -8  -1 4.10277 1.60798   6
  -4  -8   1 2.20316 1.29108   1
   4  -8  -1 3.58870 1.58105   3
  -4  -8   1 7.17232 2.07933   5
  -3  -8   1 366.535 10.7117   5
   3  -8  -1 369.581 10.8444   3
  -3  -8   1 402.519 9.91568   4
  -3  -8   1 386.151 10.5722   1
   3  -8  -1 378.229 10.8604   6
  -2  -8   1 417.643 10.8709   4
   2  -8  -1 418.755 11.4641   3
   2  -8  -1 414.290 11.5499   6
  -2  -8   1 412.622 11.1604   5
  -2  -8   1 415.834 11.2636   1
  -2  -8   1 397.481 10.4919   3
  -1  -8   1 122.520 5.43306   4
   1  -8  -1 117.858 5.37376   3
  -1  -8   1 125.109 4.98436   3
   1  -8  -1 114.879 4.82282   2
   1  -8  -1 121.006 5.53027   6
   0  -8  -1 56.5150 3.78437   3
   0  -8   1 60.6552 4.15602   4
   0  -8  -1 61.7415 3.99763   6
   0  -8   1 50.2098 3.24386   6
   0  -8   1 55.2618 3.46640   3
   0  -8  -1 59.5583 3.81208   2
   0  -8  -1 62.0759 3.36327   5
   1  -8   1 1.83131 1.29688   3
   1  -8   1 1.50317 1.62689   4
  -1  -8  -1 1.62553 1.22568   5
  -1  -8  -1 3.66256 1.28081   1
  -1  -8  -1 -0.6040 1.31948   2
   2  -8   1 22.5211 2.49516   3
   2  -8   1 22.1598 2.93936   4
  -2  -8  -1 25.3204 2.30678   1
  -2  -8  -1 19.0188 2.73929   2
   2  -8   1 26.7298 2.42883   6
  -2  -8  -1 25.3427 2.60056   5
   3  -8   1 67.5916 4.78407   4
   3  -8   1 71.8541 3.80627   6
  -3  -8  -1 65.6431 4.96932   2
  -3  -8  -1 71.2083 4.18786   5
   3  -8   1 73.7164 4.22053   3
  -4  -8  -1 -1.8342 1.86337   2
   4  -8   1 0.30503 1.84850   4
   4  -8   1 0.12144 1.21282   6
  -4  -8  -1 -0.1865 1.53691   5
   4  -8   1 -1.4556 1.21176   3
   5  -8   1 10.7569 2.60155   4
   5  -8   1 9.85322 2.31248   3
  -5  -8  -1 11.1920 3.09691   2
  -5  -8  -1 11.8958 2.44802   5
   5  -8   1 13.7958 2.32360   6
  -6  -8  -1 132.224 6.83502   5
   6  -8   1 145.805 6.38100   6
   6  -8   1 147.956 7.38846   4
  -6  -8  -1 140.317 8.34713   2
   6  -8   1 121.377 6.44681   3
  -7  -8  -1 7.06238 2.75796   5
   7  -8   1 4.04339 2.20501   6
   7  -8   1 1.78165 2.05653   3
  -7  -8  -1 6.11726 3.02084   2
   7  -8   1 5.94812 2.55948   4
   7  -9  -1 33.0469 4.50759   4
   7  -9  -1 27.8716 3.82112   3
   7  -9  -1 28.4326 3.71864   6
  -7  -9   1 39.5463 4.76122   5
   6  -9  -1 156.156 7.02021   6
  -6  -9   1 146.538 7.32597   5
   6  -9  -1 154.103 7.19111   3
   6  -9  -1 152.312 8.04901   4
  -5  -9   1 27.6787 3.36910   5
   5  -9  -1 25.5947 3.62766   4
   5  -9  -1 28.8986 3.51994   6
   5  -9  -1 21.7249 3.01362   3
   4  -9  -1 2.68196 1.70335   3
  -4  -9   1 0.23517 1.57947   5
   4  -9  -1 1.41820 1.41458   6
   4  -9  -1 -0.0737 1.86958   4
  -4  -9   1 0.80203 1.28090   1
  -3  -9   1 26.0270 3.12329   5
  -3  -9   1 25.7928 2.84393   1
   3  -9  -1 29.3288 3.23373   6
  -3  -9   1 28.7105 2.82691   4
   3  -9  -1 31.3048 3.44063   3
   2  -9  -1 1.13018 1.34028   6
   2  -9  -1 2.64296 1.48795   3
  -2  -9   1 0.62787 1.37467   4
  -2  -9   1 0.15965 1.12260   6
  -2  -9   1 -0.1750 1.14051   1
  -2  -9   1 0.25873 1.11528   3
  -2  -9   1 -0.2367 1.31147   5
   1  -9  -1 52.3915 3.45149   2
  -1  -9   1 53.5772 3.88359   1
  -1  -9   1 49.4111 3.54913   6
  -1  -9   1 60.8265 4.17484   4
   1  -9  -1 57.3945 4.08085   6
   1  -9  -1 54.6747 3.94310   3
  -1  -9   1 55.2267 3.63378   3
   0  -9   1 169.392 6.37924   3
   0  -9  -1 160.713 6.67625   3
   0  -9  -1 172.779 6.03601   5
   0  -9  -1 164.095 7.02474   6
   0  -9   1 179.874 6.40357   2
   0  -9  -1 172.783 6.70276   2
   0  -9   1 179.874 7.18199   4
   0  -9   1 170.110 6.39313   6
  -1  -9  -1 8.43419 2.10193   6
   1  -9   1 12.6937 2.08683   3
   1  -9   1 9.73326 2.27560   4
  -1  -9  -1 10.8500 2.27993   2
  -1  -9  -1 11.8839 2.01221   5
   1  -9   1 11.7733 1.97728   6
  -1  -9  -1 11.3818 1.98845   1
   2  -9   1 5.85014 1.52300   6
  -2  -9  -1 2.46590 1.46077   5
  -2  -9  -1 3.35379 1.34737   1
   2  -9   1 3.36110 1.55496   3
   2  -9   1 3.08753 1.83771   4
  -2  -9  -1 4.54576 1.98745   2
   3  -9   1 80.0425 5.47040   4
   3  -9   1 77.3383 4.59431   3
   3  -9   1 74.1712 4.16442   6
  -3  -9  -1 77.8987 4.62472   5
  -3  -9  -1 86.2909 5.77870   2
  -4  -9  -1 11.1955 2.43406   5
   4  -9   1 15.6389 3.00391   4
   4  -9   1 17.7723 2.56409   6
   4  -9   1 16.8858 2.66750   3
  -4  -9  -1 20.2207 3.84870   2
   5  -9   1 2.95749 1.84283   3
  -5  -9  -1 2.40815 2.67409   2
   5  -9   1 2.61052 2.33983   4
   5  -9   1 1.79732 1.76818   6
  -5  -9  -1 5.79366 2.30175   5
  -6  -9  -1 21.3854 3.53463   5
  -6  -9  -1 26.2739 4.64680   2
   6  -9   1 29.0182 4.11438   4
   6  -9   1 23.5624 3.34808   3
   7 -10  -1 92.7698 5.91472   6
  -6 -10   1 255.869 11.7525   2
   6 -10  -1 239.910 10.5667   4
   6 -10  -1 252.786 9.44969   6
   6 -10  -1 231.015 9.47523   3
  -6 -10   1 262.771 10.1553   5
   5 -10  -1 93.7916 6.58301   4
   5 -10  -1 95.0459 5.90983   3
  -5 -10   1 100.425 6.04711   5
   5 -10  -1 101.740 5.83485   6
   4 -10  -1 289.536 10.9931   4
   4 -10  -1 296.751 10.2760   3
   4 -10  -1 285.860 9.94806   6
  -4 -10   1 281.030 9.35065   1
  -4 -10   1 283.970 10.0163   5
   3 -10  -1 102.300 6.38787   4
  -3 -10   1 96.0444 5.15199   1
   3 -10  -1 96.4666 5.47250   6
  -3 -10   1 98.8903 5.49918   5
   3 -10  -1 93.8233 5.57230   3
  -2 -10   1 834.048 19.1468   3
   2 -10  -1 818.277 20.3479   6
  -2 -10   1 831.608 20.1492   1
  -2 -10   1 820.366 19.5618   5
   2 -10  -1 828.604 20.1181   3
  -2 -10   1 834.420 19.4884   4
  -2 -10   1 838.671 20.2557   6
  -1 -10   1 233.966 8.70621   4
  -1 -10   1 245.258 8.75294   2
   1 -10  -1 246.956 9.03221   3
  -1 -10   1 262.119 8.83873   6
  -1 -10   1 241.508 8.90618   1
   1 -10  -1 250.300 9.16882   6
  -1 -10   1 248.867 8.34956   3
   0 -10   1 678.295 16.3057   3
   0 -10   1 681.826 17.3191   4
   0 -10  -1 649.003 16.8049   2
   0 -10  -1 656.143 16.9983   3
   0 -10   1 661.730 16.4741   6
   0 -10  -1 660.463 17.6708   6
  -1 -10  -1 92.5276 5.38442   3
   1 -10   1 93.2326 5.06629   3
   1 -10   1 110.442 5.13812   6
  -1 -10  -1 93.2880 5.50694   2
  -1 -10  -1 97.4288 4.88895   5
  -1 -10  -1 100.227 5.81591   6
  -1 -10  -1 92.7481 4.89873   1
   1 -10   1 98.9590 5.84655   4
   2 -10   1 250.490 9.82241   4
   2 -10   1 253.959 8.80026   3
  -2 -10  -1 262.306 8.59855   5
  -2 -10  -1 262.994 9.97336   2
   3 -10   1 349.534 10.8076   3
  -3 -10  -1 357.010 10.7938   5
  -3 -10  -1 342.194 12.3900   2
   3 -10   1 345.724 12.0319   4
   4 -10   1 433.653 14.0372   4
  -4 -10  -1 429.493 12.6602   5
  -4 -10  -1 436.752 14.9289   2
   4 -10   1 430.674 12.6754   3
  -5 -10  -1 538.539 17.5503   2
   5 -10   1 507.330 15.8891   4
  -5 -10  -1 511.292 14.7878   5
   5 -10   1 507.312 14.6063   3
   6 -11  -1 184.439 8.25002   6
  -5 -11   1 295.114 12.6206   2
  -5 -11   1 289.834 10.9245   5
   5 -11  -1 306.845 11.0650   3
   5 -11  -1 299.295 12.1006   4
   5 -11  -1 306.601 10.8132   6
   4 -11  -1 103.664 7.13405   4
  -4 -11   1 104.103 6.15312   5
  -4 -11   1 87.8057 6.63597   2
   4 -11  -1 108.885 6.35753   3
   4 -11  -1 94.5307 5.81625   6
  -3 -11   1 92.1007 5.67976   5
  -3 -11   1 92.7891 6.25395   2
  -3 -11   1 89.5193 5.23977   1
   3 -11  -1 90.7372 5.89354   3
   3 -11  -1 86.8970 6.23497   4
   3 -11  -1 98.8612 5.77203   6
  -2 -11   1 0.13701 1.43320   1
  -2 -11   1 0.24741 1.65746   2
   2 -11  -1 2.62264 1.76193   6
   2 -11  -1 0.67277 1.87217   4
  -2 -11   1 0.96650 1.56176   4
   2 -11  -1 -0.7648 1.45656   3
  -2 -11   1 -0.4658 1.59232   5
   1 -11  -1 88.3991 5.70892   6
   1 -11  -1 109.283 6.41860   4
  -1 -11   1 91.8705 5.19504   3
   1 -11  -1 94.6069 5.74944   3
  -1 -11   1 88.1668 5.49089   1
  -1 -11   1 84.4742 5.52482   4
   0 -11  -1 49.3315 4.59522   6
   0 -11   1 52.4437 4.17084   3
   0 -11  -1 52.8014 4.69746   4
   0 -11   1 58.5403 4.93889   4
   0 -11  -1 60.6583 4.68217   3
   1 -11   1 152.605 7.70448   4
  -1 -11  -1 155.144 7.32361   4
  -1 -11  -1 156.665 7.83248   6
   1 -11   1 155.228 6.89966   3
  -1 -11  -1 154.007 7.31771   3
  -1 -11  -1 161.735 7.54455   2
  -2 -11  -1 44.0304 4.98429   6
   2 -11   1 40.2662 4.60085   4
   2 -11   1 37.5423 3.85924   3
  -2 -11  -1 44.6623 3.81961   5
  -2 -11  -1 38.7307 4.55125   2
   3 -11   1 -0.6577 1.58317   3
  -3 -11  -1 1.76979 2.17814   2
   3 -11   1 3.02748 2.23519   4
  -3 -11  -1 -0.3230 1.74126   5
   4 -11   1 1.37184 2.41785   4
  -4 -11  -1 -0.9734 1.77554   5
  -4 -11  -1 1.04695 2.52743   2
   4 -11   1 1.36343 2.00096   3
  -5 -11  -1 36.6212 4.43846   5
   4 -12  -1 26.3063 3.79106   6
   4 -12  -1 40.7946 4.60061   3
  -4 -12   1 31.4240 4.74039   2
  -4 -12   1 35.9776 4.45844   5
  -3 -12   1 162.464 8.55555   2
   3 -12  -1 150.144 8.52222   4
   3 -12  -1 157.534 7.67153   6
  -3 -12   1 152.958 7.55669   5
   3 -12  -1 151.875 7.88622   3
  -2 -12   1 162.231 7.46493   1
   2 -12  -1 151.357 7.54069   6
   2 -12  -1 160.143 8.42580   4
  -2 -12   1 148.982 7.31284   5
   2 -12  -1 145.253 7.59475   3
  -1 -12   1 450.491 14.1730   1
   1 -12  -1 435.503 13.7998   3
   1 -12  -1 424.821 13.9776   6
  -1 -12   1 446.310 13.7125   4
  -1 -12   1 442.246 13.6904   5
   1 -12  -1 450.646 14.4919   4
   0 -12   1 8.05885 2.69455   4
   0 -12  -1 11.9099 2.96939   4
   0 -12  -1 11.8313 2.79127   3
   0 -12   1 7.42853 2.62298   1
   0 -12  -1 12.4086 2.95502   6
  -1 -12  -1 220.035 9.79056   6
  -1 -12  -1 236.599 9.56904   4
   1 -12   1 224.913 8.84155   3
   1 -12   1 230.094 9.90551   4
  -1 -12  -1 226.711 9.47535   3
  -2 -12  -1 39.9226 4.49729   3
  -2 -12  -1 44.7794 5.10279   2
  -2 -12  -1 43.7720 5.11182   6
   2 -12   1 35.9552 4.19059   3
   2 -12   1 35.2661 4.35717   4
  -3 -12  -1 623.797 19.1694   2
  -3 -12  -1 631.575 19.2653   6
   3 -12   1 608.675 16.8153   3
   2 -13  -1 11.4065 2.94903   3
  -1 -13   1 123.258 7.13717   4
  -1 -13   1 103.589 6.70687   1
   1 -13  -1 115.285 7.42818   4
   1 -13  -1 118.352 7.19548   3
   0 -13  -1 23.2249 3.82318   4
   0 -13  -1 22.0605 3.66434   3
   0 -13   1 24.8050 3.93096   4
   0 -13   1 20.8073 3.67412   1
  -1 -13  -1 211.127 9.54820   3
  -1 -13  -1 215.749 11.1060   6
   2 -13   1 12.2762 2.98860   3
  -2 -13  -1 19.2249 3.93757   6
 -10   0   2 33.8700 4.15830   1
  10   0  -2 38.1331 3.98573   3
  10   0  -2 30.9937 4.07536   6
 -10   0   2 35.0160 4.08783   5
  -9   0   2 156.248 7.13142   1
   9   0  -2 152.131 6.44698   3
  -9   0   2 160.064 6.89487   5
   9   0  -2 158.808 7.32669   6
  -8   0   2 43.3816 3.65849   1
   8   0  -2 41.3094 3.23500   3
   8   0  -2 47.9231 3.87011   6
  -8   0   2 45.9617 3.56440   5
  -7   0   2 3.20883 1.53953   1
   7   0  -2 4.16728 1.73018   6
  -7   0   2 3.19155 1.52127   5
   7   0  -2 1.61046 1.19878   3
   6   0  -2 11.6456 1.83113   6
  -6   0   2 1.69145 1.11572   5
  -6   0   2 0.59508 1.05156   1
   6   0  -2 2.94468 1.03239   3
  -5   0   2 2065.76 38.1216   5
   5   0  -2 2121.10 40.0577   6
  -5   0   2 2091.56 40.7552   1
   5   0  -2 2149.98 38.2189   3
   4   0  -2 2896.79 49.8887   3
  -4   0   2 2782.40 52.9523   1
   4   0  -2 2861.83 52.0248   6
  -4   0   2 2743.87 49.5713   5
   1   0  -2 4203.72 77.8826   2
   0   0  -2 7034.73 129.160   2
  -1   0  -2 3329.39 61.7772   2
   1   0   2 3310.44 59.4117   4
   1   0   2 3311.33 58.4169   3
  -1   0  -2 3370.81 58.0977   5
   2   0   2 8330.48 149.690   3
   2   0   2 8626.52 153.755   6
  -2   0  -2 8772.29 157.682   2
  -2   0  -2 8676.45 148.388   5
  -3   0  -2 2278.33 43.5719   2
   3   0   2 2249.68 42.6441   6
   3   0   2 2254.06 41.4258   3
  -3   0  -2 2232.30 41.3972   5
  -3   0  -2 2304.43 42.8231   1
   3   0   2 2302.48 41.2383   4
  -4   0  -2 734.278 16.0578   5
   4   0   2 749.926 15.8223   3
   4   0   2 742.290 16.2518   6
  -4   0  -2 728.998 15.8716   1
  -4   0  -2 736.284 16.3040   2
   4   0   2 758.780 14.7619   4
   5   0   2 1.33682 1.22632   6
  -5   0  -2 4.42469 1.67330   5
   5   0   2 1.82348 1.14278   3
  -5   0  -2 1.43108 1.05944   1
  -5   0  -2 1.75142 1.21962   2
  -6   0  -2 3.98544 1.74067   5
  -6   0  -2 5.15006 1.52259   1
   6   0   2 6.56673 1.91879   6
   6   0   2 4.87167 1.56970   3
   7   0   2 97.9849 5.38017   3
   7   0   2 101.153 5.64056   6
  -7   0  -2 118.882 6.07513   5
   8   0   2 320.575 10.9461   3
  -8   0  -2 331.720 11.3858   5
   8   0   2 304.224 11.2658   6
  10  -1  -2 45.6149 4.16919   3
 -10  -1   2 49.0742 4.62378   1
  10  -1  -2 53.2329 4.96534   6
 -10  -1   2 51.8836 4.70989   5
  10   1  -2 45.7109 4.90180   6
 -10   1   2 54.3223 4.93316   1
  -9  -1   2 155.836 6.90842   1
   9  -1  -2 133.435 6.68027   6
   9  -1  -2 136.628 6.17497   3
  -9  -1   2 137.582 6.54474   5
   9   1  -2 139.401 6.11443   3
   9   1  -2 141.153 6.97181   6
  -9   1   2 148.055 6.51802   5
  -9   1   2 140.231 6.90853   1
   8  -1  -2 726.027 16.5285   3
  -8  -1   2 751.481 17.9302   1
  -8  -1   2 718.766 16.9285   5
   8  -1  -2 701.189 17.5944   6
   8   1  -2 731.248 16.4591   3
  -8   1   2 727.145 18.1764   1
   8   1  -2 729.660 17.9409   6
  -8   1   2 712.665 16.5502   5
  -7  -1   2 2875.42 53.3395   5
  -7  -1   2 2931.54 56.5789   1
   7  -1  -2 2959.21 55.9417   6
   7  -1  -2 2941.97 53.4633   3
   7   1  -2 2891.69 53.2784   3
   7   1  -2 2885.00 55.9386   6
  -7   1   2 2936.31 53.0941   5
  -7   1   2 2836.80 56.7889   1
   6  -1  -2 3762.10 66.8831   3
  -6  -1   2 3729.23 66.6912   5
  -6  -1   2 3738.30 70.6164   1
   6  -1  -2 3808.20 69.6741   6
   6   1  -2 3712.60 66.6402   3
  -6   1   2 3730.08 70.9891   1
   6   1  -2 3646.46 69.5599   6
  -6   1   2 3752.81 66.2898   5
   5  -1  -2 2887.99 50.3240   3
  -5  -1   2 2765.63 53.1013   1
  -5  -1   2 2701.43 50.0563   5
   5  -1  -2 2851.71 52.3868   6
  -5   1   2 2819.93 49.6445   5
  -5   1   2 2790.90 53.3881   1
   5   1  -2 2746.71 52.2277   6
   5   1  -2 2815.83 49.9243   3
  -4  -1   2 599.008 13.1698   1
   4  -1  -2 612.675 12.3125   3
   4  -1  -2 598.455 13.0757   2
   4  -1  -2 613.449 13.0357   6
  -4  -1   2 611.247 12.5239   5
  -4   1   2 618.267 13.3651   1
   4   1  -2 612.741 11.8326   3
  -4   1   2 613.949 11.9235   5
   4   1  -2 619.649 12.8609   6
  -3  -1   2 3.56187 0.79913   5
   3  -1  -2 2.59574 0.73685   6
  -3  -1   2 2.67019 0.47172   4
   3  -1  -2 2.40640 0.60622   3
   3  -1  -2 6.15737 0.89658   2
   3   1  -2 2.45331 0.62180   6
  -3   1   2 3.25433 0.78397   1
  -3   1   2 2.81022 0.51643   5
   2  -1  -2 3659.87 63.8074   6
  -2  -1   2 3617.44 60.6909   3
  -2  -1   2 3515.00 62.7207   4
   2  -1  -2 3584.01 61.6248   3
  -2  -1   2 3338.41 64.6249   1
   2  -1  -2 3576.00 65.3508   2
  -2   1   2 3607.65 60.2247   5
  -2   1   2 3492.17 64.6431   1
  -2   1   2 3468.13 62.8311   4
   2   1  -2 3463.63 65.4656   2
   2   1  -2 3456.15 63.1700   6
  -1  -1   2 1867.49 33.3146   4
   1  -1  -2 1835.17 31.8102   5
  -1  -1   2 1897.43 32.9642   6
  -1  -1   2 1821.74 34.3221   1
   1  -1  -2 1856.99 33.9813   6
   1  -1  -2 1847.35 34.8820   2
  -1  -1   2 1832.42 31.9720   3
   1   1  -2 1758.81 34.6928   2
  -1   1   2 1821.15 33.8603   1
   1   1  -2 1796.25 32.8961   6
   1   1  -2 1986.17 31.9672   3
   0  -1   2 6187.59 111.963   4
   0  -1  -2 6696.30 108.922   5
   0   1  -2 6512.76 109.536   5
   0   1  -2 5962.96 116.314   2
   1  -1   2 2938.97 52.9710   4
   1  -1   2 2948.29 53.2875   6
  -1  -1  -2 3045.74 55.4981   2
   1  -1   2 2982.51 51.9547   3
  -1  -1  -2 3014.01 51.6828   5
   1   1   2 3025.33 52.3421   3
   1   1   2 2712.84 52.8621   4
  -1   1  -2 2934.54 51.9639   5
  -1   1  -2 3006.74 54.8051   2
  -2  -1  -2 358.729 8.69310   2
  -2  -1  -2 351.870 7.38661   1
  -2  -1  -2 356.182 8.13478   5
   2  -1   2 350.444 7.88776   6
   2  -1   2 363.155 7.72600   4
   2   1   2 342.836 7.58271   4
  -2   1  -2 353.857 7.88053   2
   2   1   2 360.210 8.14314   3
   3  -1   2 3470.40 62.3091   3
   3  -1   2 3518.40 62.7915   4
  -3  -1  -2 3394.93 61.9893   5
  -3  -1  -2 3520.42 64.3010   1
   3  -1   2 3457.56 64.0746   6
  -3  -1  -2 3546.35 66.2780   2
   3   1   2 3491.05 62.5255   3
   3   1   2 3406.73 62.6775   4
  -3   1  -2 3502.01 62.2516   5
  -3   1  -2 3581.00 65.1703   2
   3   1   2 3519.30 64.5712   6
   4  -1   2 11.5167 1.63741   3
   4  -1   2 14.4849 1.39881   4
  -4  -1  -2 13.1206 1.46502   1
   4  -1   2 12.0111 1.65973   6
  -4  -1  -2 17.7370 2.15474   5
  -4  -1  -2 14.4964 1.98504   2
  -4   1  -2 10.4724 1.63996   5
   4   1   2 14.9158 1.86506   3
   4   1   2 14.4000 1.38218   4
  -4   1  -2 13.2538 1.51975   2
   4   1   2 13.8632 1.86980   6
  -5  -1  -2 74.2142 3.40784   1
  -5  -1  -2 72.2570 4.09071   5
   5  -1   2 72.1636 3.83324   3
  -5  -1  -2 68.7768 4.06097   2
   5  -1   2 69.4295 3.83858   6
   5  -1   2 76.1740 3.08865   4
   5   1   2 72.9586 3.86563   3
  -5   1  -2 73.8914 4.07537   5
   5   1   2 65.4750 3.93544   6
  -6  -1  -2 13.5141 2.39591   2
  -6  -1  -2 15.0767 2.44748   5
   6  -1   2 14.9053 2.35238   3
   6  -1   2 17.2645 2.49161   6
   6   1   2 16.2072 2.39442   3
   6   1   2 13.5523 2.32669   6
  -6   1  -2 13.1326 2.33531   5
   7  -1   2 115.892 5.69827   3
  -7  -1  -2 110.250 5.98668   5
   7  -1   2 116.505 5.90230   6
   7   1   2 110.001 6.03078   6
   7   1   2 108.950 5.77262   3
  -7   1  -2 111.428 5.97997   5
   8  -1   2 97.2597 5.87567   3
  -8  -1  -2 94.3400 6.18831   5
   8  -1   2 94.7400 6.04770   6
  -8   1  -2 105.389 6.40926   5
   8   1   2 95.0320 5.96142   3
 -10  -2   2 57.6416 5.23338   5
  10  -2  -2 55.7927 5.47795   6
 -10  -2   2 52.8064 4.60385   1
  10  -2  -2 51.6556 4.53166   3
 -10   2   2 50.7898 4.90774   1
  10   2  -2 58.2470 5.24729   6
   9  -2  -2 77.9965 4.69155   3
  -9  -2   2 77.1505 5.10659   5
  -9  -2   2 85.4374 5.16810   1
   9  -2  -2 75.5790 5.10495   6
  -9   2   2 80.4654 5.43346   1
   9   2  -2 74.2058 5.23315   6
   9   2  -2 82.4024 4.88773   3
  -8  -2   2 6.46100 1.95371   5
   8  -2  -2 6.81010 1.75529   3
  -8  -2   2 4.98554 1.69190   1
   8  -2  -2 12.4875 2.37178   6
   8   2  -2 8.17500 1.73490   3
  -8   2   2 8.40557 1.95051   5
  -8   2   2 4.75064 1.90676   1
   8   2  -2 6.68273 1.99252   6
  -7  -2   2 132.819 5.54049   5
   7  -2  -2 138.131 5.75026   6
  -7  -2   2 138.744 5.59830   1
   7  -2  -2 141.366 5.31734   3
  -7   2   2 143.707 5.31140   5
  -7   2   2 134.848 5.99879   1
   7   2  -2 140.454 5.89334   6
   7   2  -2 137.695 5.08912   3
  -6  -2   2 73.0167 3.68110   1
   6  -2  -2 76.6466 3.58176   3
   6  -2  -2 75.8282 3.76402   6
  -6  -2   2 77.2805 3.86218   5
   6   2  -2 73.2121 3.24340   3
  -6   2   2 78.8523 4.16488   1
   6   2  -2 76.5091 3.86681   6
  -6   2   2 74.9224 3.38508   5
   5  -2  -2 13.8946 1.63804   6
   5  -2  -2 13.7481 1.51933   3
  -5  -2   2 12.3308 1.57442   5
  -5  -2   2 14.1635 1.67220   1
   5   2  -2 16.4020 1.45404   3
  -5   2   2 14.8810 1.82578   1
  -5   2   2 19.5919 1.59610   5
   5   2  -2 17.4336 1.82467   6
   4  -2  -2 0.53919 0.65445   3
   4  -2  -2 1.05776 0.77868   6
  -4  -2   2 0.41023 0.31172   4
   4  -2  -2 0.15621 0.54247   2
  -4  -2   2 0.99160 0.78395   5
  -4  -2   2 -0.0466 0.61319   1
   4   2  -2 -0.0152 0.42509   3
   4   2  -2 1.79711 0.77317   6
  -4   2   2 0.01124 0.49797   5
  -4   2   2 -0.2356 0.65213   1
  -3  -2   2 2217.66 39.7355   5
   3  -2  -2 2267.28 39.9850   3
  -3  -2   2 2133.25 39.5970   4
   3  -2  -2 2258.67 41.3714   6
   3  -2  -2 2287.51 41.5634   2
   3   2  -2 2094.64 38.6320   3
  -3   2   2 2167.95 41.7829   1
   3   2  -2 2213.57 40.6088   6
  -3   2   2 2272.75 38.2515   5
   2  -2  -2 14.2660 1.22285   3
  -2  -2   2 14.1002 1.19625   1
   2  -2  -2 17.3890 1.28786   2
  -2  -2   2 15.4776 0.95207   4
   2  -2  -2 15.3862 1.29192   6
  -2   2   2 15.8770 1.16465   1
   2   2  -2 13.8158 0.87033   6
   2   2  -2 14.2282 1.37935   2
  -1  -2   2 4591.98 81.3471   4
  -1  -2   2 4554.46 79.0476   3
   1  -2  -2 4724.65 84.6591   2
  -1  -2   2 4699.91 81.2857   6
   1  -2  -2 4719.62 82.9868   6
  -1  -2   2 4453.49 83.9544   1
  -1   2   2 4574.90 81.6758   4
  -1   2   2 4643.51 83.5673   1
   1   2  -2 4352.56 84.5119   2
   0  -2   2 304.996 6.90841   4
   0  -2   2 321.230 6.35897   3
   0  -2   2 319.001 6.05059   6
   0  -2  -2 311.063 6.03683   1
   0  -2  -2 325.574 7.57191   2
   0  -2  -2 323.267 6.43324   5
   0   2  -2 320.304 7.16898   5
   0   2   2 322.047 6.86284   4
   0   2  -2 311.553 6.88886   2
  -1  -2  -2 2172.23 41.5396   2
   1  -2   2 2139.68 39.4993   4
  -1  -2  -2 2191.43 38.3000   5
   1  -2   2 2168.64 38.4400   3
   1  -2   2 2103.22 39.1720   6
   1   2   2 2203.95 39.1203   4
  -1   2  -2 2136.55 40.2674   2
  -1   2  -2 2187.49 38.8735   5
   2  -2   2 1406.46 27.2301   4
  -2  -2  -2 1436.82 26.8264   5
   2  -2   2 1455.93 27.2185   6
  -2  -2  -2 1445.60 26.7481   1
   2  -2   2 1459.91 26.7625   3
  -2  -2  -2 1449.88 29.1457   2
   2   2   2 1473.39 27.3364   3
   2   2   2 1476.51 26.6416   4
  -2   2  -2 1420.93 27.1800   5
  -2   2  -2 1450.83 27.4625   2
  -3  -2  -2 1421.87 27.1888   5
  -3  -2  -2 1428.86 27.0392   1
   3  -2   2 1459.46 27.1255   3
   3  -2   2 1424.93 27.5718   6
  -3  -2  -2 1442.72 29.4441   2
   3  -2   2 1400.32 27.1696   4
   3   2   2 1442.63 27.5416   3
  -3   2  -2 1440.14 27.3445   2
   3   2   2 1451.99 26.3450   4
  -3   2  -2 1388.13 27.4259   5
  -4  -2  -2 1198.30 24.1094   5
   4  -2   2 1228.92 23.9211   3
  -4  -2  -2 1195.04 23.6591   1
   4  -2   2 1217.35 23.5705   4
  -4  -2  -2 1218.84 26.0065   2
   4  -2   2 1204.54 24.3573   6
  -4   2  -2 1226.98 23.7476   2
  -4   2  -2 1184.32 24.3212   5
   4   2   2 1202.48 24.2513   3
   5  -2   2 24.1439 2.49223   3
  -5  -2  -2 28.1088 2.19950   1
  -5  -2  -2 23.3882 2.81610   2
  -5  -2  -2 27.9087 2.86300   5
   5  -2   2 28.7550 2.67654   6
   5  -2   2 31.8953 2.29440   4
   5   2   2 31.0880 2.95720   3
  -5   2  -2 23.3973 2.64767   5
  -6  -2  -2 421.064 11.6764   5
  -6  -2  -2 422.732 12.2804   2
   6  -2   2 396.853 11.1270   3
   6  -2   2 419.946 11.4664   6
   6   2   2 400.428 11.3904   3
  -6   2  -2 407.343 11.7420   5
   7  -2   2 32.1576 3.53632   3
   7  -2   2 34.4266 3.67203   6
  -7  -2  -2 39.5145 4.23470   5
   7   2   2 41.7854 4.16285   3
  -7   2  -2 33.0640 3.86408   5
  -8  -2  -2 325.412 11.6015   5
   8  -2   2 343.798 11.2636   3
   8  -2   2 334.871 11.4862   6
  -8   2  -2 348.172 11.8572   5
   8   2   2 326.904 11.3962   3
  10  -3  -2 10.3919 2.56538   3
 -10  -3   2 7.81601 2.75774   5
  10  -3  -2 9.30684 2.73590   6
 -10   3   2 8.14150 2.66206   1
  10   3  -2 6.46262 2.56930   6
  -9  -3   2 105.845 5.72133   1
   9  -3  -2 113.645 6.10935   6
  -9  -3   2 106.717 5.96199   5
   9  -3  -2 98.3844 5.48496   3
   9   3  -2 105.688 6.21860   6
  -9   3   2 110.673 6.44695   1
  -8  -3   2 7.86409 2.18682   5
   8  -3  -2 4.88923 1.83289   6
  -8  -3   2 2.29732 1.45922   1
   8  -3  -2 5.47281 1.74759   3
   8   3  -2 7.10198 2.10929   6
   8   3  -2 4.73154 1.53994   3
  -8   3   2 2.77832 1.69923   1
   7  -3  -2 208.972 6.84168   3
  -7  -3   2 203.461 7.17923   5
   7  -3  -2 199.094 7.16594   6
  -7  -3   2 213.859 7.12000   1
  -7   3   2 208.870 6.54207   5
  -7   3   2 204.721 7.68384   1
   7   3  -2 204.430 7.41666   6
   7   3  -2 194.294 6.34875   3
  -6  -3   2 1.61772 1.06865   1
   6  -3  -2 0.61930 0.94588   6
   6  -3  -2 1.02334 1.08721   3
  -6  -3   2 1.69349 1.34078   5
  -6   3   2 3.22335 1.45269   1
   6   3  -2 3.22205 1.04649   3
  -6   3   2 2.56541 1.01670   5
   6   3  -2 0.99142 1.08115   6
  -5  -3   2 366.004 9.43928   5
  -5  -3   2 365.090 9.40956   1
   5  -3  -2 387.215 9.27862   3
   5  -3  -2 380.726 9.63699   6
  -5   3   2 382.556 8.39140   5
  -5   3   2 370.630 10.0102   1
   5   3  -2 369.324 9.41610   6
   5   3  -2 358.625 8.35446   3
  -4  -3   2 186.899 5.72973   1
   4  -3  -2 197.655 5.72629   3
  -4  -3   2 198.746 4.35949   4
   4  -3  -2 200.001 5.97060   6
   4  -3  -2 206.205 5.07768   2
  -4  -3   2 192.909 5.83816   5
  -4   3   2 198.973 4.72143   5
   4   3  -2 194.493 5.58008   6
  -4   3   2 200.516 6.14168   1
   4   3  -2 197.036 4.85228   3
  -3  -3   2 1260.09 22.7077   4
  -3  -3   2 1227.77 24.5764   1
   3  -3  -2 1223.19 24.4953   6
   3  -3  -2 1257.22 23.8297   3
   3  -3  -2 1285.99 24.0682   2
  -3   3   2 1252.60 21.7876   5
  -3   3   2 1212.19 24.7001   1
   3   3  -2 1199.67 23.6395   6
  -2  -3   2 1233.33 23.0795   4
   2  -3  -2 1250.08 24.5017   6
   2  -3  -2 1258.78 24.2679   2
   2  -3  -2 1247.66 23.6951   3
  -2  -3   2 1252.71 24.5344   1
  -2   3   2 1238.41 24.2678   1
  -1  -3   2 1876.81 32.9787   3
  -1  -3   2 1852.33 34.3440   4
  -1  -3   2 1802.42 35.6950   1
   1  -3  -2 1866.92 35.5329   6
   1  -3  -2 1883.99 35.7909   2
   1  -3  -2 1957.02 32.3771   5
   0  -3   2 538.507 10.4512   3
   0  -3   2 542.602 11.2849   4
   0  -3  -2 543.170 10.3346   5
   0  -3   2 526.944 10.2434   6
   0   3  -2 541.648 11.1617   2
   1  -3   2 801.156 15.0804   3
  -1  -3  -2 772.398 14.9965   5
   1  -3   2 760.718 15.7437   4
   1  -3   2 770.434 14.8951   6
  -1  -3  -2 794.888 16.9511   2
  -1  -3  -2 805.975 14.5581   1
  -1   3  -2 775.572 15.1288   2
  -1   3  -2 746.355 15.6635   5
   1   3   2 786.220 15.2851   4
  -2  -3  -2 50.5128 3.09336   2
  -2  -3  -2 48.7792 1.52910   1
   2  -3   2 44.5040 2.24334   3
   2  -3   2 46.5746 2.52872   4
   2  -3   2 49.0164 2.07549   6
  -2   3  -2 46.5094 1.57384   2
   2   3   2 49.4726 1.99296   4
  -2   3  -2 45.4801 2.63883   5
   3  -3   2 881.766 17.8508   6
   3  -3   2 880.420 18.0845   4
  -3  -3  -2 882.073 17.0244   1
  -3  -3  -2 883.631 19.8605   2
   3  -3   2 873.280 17.7100   3
   3   3   2 889.579 18.4092   3
  -3   3  -2 857.264 16.8906   2
   3   3   2 907.119 16.8669   4
  -3   3  -2 870.169 18.3148   5
   4  -3   2 43.3453 2.83197   3
  -4  -3  -2 47.7168 3.18633   5
  -4  -3  -2 46.2807 3.62883   2
   4  -3   2 42.9979 2.76764   6
   4  -3   2 42.0459 2.73169   4
  -4  -3  -2 44.4817 2.17499   1
  -4   3  -2 46.8789 3.23323   5
   4   3   2 44.1453 3.04056   3
   5  -3   2 148.475 5.64495   3
   5  -3   2 149.240 5.18537   4
   5  -3   2 139.575 5.42401   6
  -5  -3  -2 143.976 6.54027   2
  -5  -3  -2 148.339 5.97210   5
  -5   3  -2 153.470 6.13935   5
   5   3   2 135.315 5.72433   3
  -6  -3  -2 34.5632 3.92053   2
   6  -3   2 33.0231 3.15570   6
   6  -3   2 33.7034 3.27995   3
  -6  -3  -2 29.2452 3.15669   5
  -6   3  -2 37.0673 3.78516   5
   6   3   2 32.6064 3.45728   3
   7  -3   2 0.82378 1.63140   6
   7  -3   2 2.21169 1.77407   3
  -7  -3  -2 4.78836 2.47363   2
  -7  -3  -2 2.20731 2.06049   5
  -7   3  -2 8.77015 2.50400   5
   7   3   2 1.98589 1.72557   3
   8  -3   2 43.4469 4.51925   6
  -8  -3  -2 44.3531 4.92226   5
   8  -3   2 51.4342 4.73573   3
   8   3   2 52.1628 4.85028   3
  -8   3  -2 41.6745 4.71908   5
 -10  -4   2 7.85548 3.26997   5
  10  -4  -2 3.75194 2.14963   3
 -10   4   2 4.15910 2.77597   1
   9  -4  -2 54.7653 4.63296   6
  -9  -4   2 58.3648 4.85840   5
  -9  -4   2 68.2169 4.63288   1
   9  -4  -2 60.3910 4.56504   3
  -9   4   2 69.6936 5.39992   1
   8  -4  -2 1.12782 1.48876   3
  -8  -4   2 1.59271 1.81615   5
  -8  -4   2 1.99581 1.50014   1
   8  -4  -2 1.53475 1.69112   6
   8   4  -2 1.36579 1.58704   6
  -8   4   2 1.60210 1.64044   1
   7  -4  -2 109.968 5.08162   3
   7  -4  -2 114.745 5.40071   6
  -7  -4   2 115.718 5.56745   5
  -7  -4   2 123.859 5.33937   1
   7   4  -2 117.540 4.79746   3
   7   4  -2 126.900 5.78123   6
  -7   4   2 117.877 5.85623   1
   6  -4  -2 195.576 6.78390   6
  -6  -4   2 195.653 6.48237   1
   6  -4  -2 183.533 6.40652   3
  -6  -4   2 199.808 6.93414   5
   6   4  -2 199.555 5.94812   3
   6   4  -2 197.964 6.84971   6
  -6   4   2 195.704 5.78188   5
  -6   4   2 191.678 7.25241   1
  -5  -4   2 22.2723 2.37061   5
   5  -4  -2 24.9405 2.38008   6
   5  -4  -2 23.6055 1.61121   2
   5  -4  -2 23.1243 2.34409   3
  -5  -4   2 22.7509 2.12429   1
  -5   4   2 19.9953 2.30372   1
  -5   4   2 22.5493 1.69711   5
  -4  -4   2 509.668 11.9150   1
   4  -4  -2 533.442 10.7672   2
  -4  -4   2 511.354 9.92919   4
   4  -4  -2 512.243 12.1200   6
  -4  -4   2 493.008 11.7697   5
   4  -4  -2 501.842 11.7683   3
  -4   4   2 494.606 12.3384   1
  -4   4   2 512.324 10.1136   5
   3  -4  -2 34.2139 1.83543   2
   3  -4  -2 34.5591 2.32961   3
  -3  -4   2 33.4601 1.59811   4
  -3  -4   2 33.3760 2.14466   1
   3  -4  -2 33.5469 2.37946   6
  -3   4   2 33.2323 2.26596   1
   2  -4  -2 98.8753 3.91882   6
   2  -4  -2 99.2077 3.34706   2
  -2  -4   2 95.4422 3.13501   4
  -2  -4   2 99.1446 3.71205   1
  -1  -4   2 6.10701 0.82016   6
   1  -4  -2 5.11213 0.67360   5
   1  -4  -2 5.30275 1.17530   6
   1  -4  -2 5.15979 1.04779   2
  -1  -4   2 3.95050 0.70313   3
  -1  -4   2 3.82359 0.90946   4
   0  -4   2 0.94076 0.83167   4
   0  -4   2 -0.1357 0.51460   3
   0  -4  -2 -0.1727 0.80932   2
   0  -4   2 1.21844 0.48992   6
   0  -4  -2 -0.4292 0.57280   5
   1  -4   2 435.004 9.33579   3
  -1  -4  -2 435.241 9.32611   5
   1  -4   2 417.801 8.97991   6
   1  -4   2 427.979 10.0952   4
  -1  -4  -2 457.095 8.85476   1
  -1   4  -2 422.321 10.0446   5
   2  -4   2 224.204 6.44794   4
   2  -4   2 222.666 5.96940   3
  -2  -4  -2 227.256 6.10845   5
   2  -4   2 218.293 5.55635   6
  -2  -4  -2 213.588 7.16156   2
  -2  -4  -2 224.873 4.95803   1
  -2   4  -2 215.759 6.47293   5
   3  -4   2 0.85225 1.05589   4
  -3  -4  -2 -0.5176 1.28994   2
   3  -4   2 1.26178 0.80072   6
  -3  -4  -2 0.99499 0.54117   1
  -3  -4  -2 0.44467 1.05059   5
   3  -4   2 3.03334 1.09308   3
  -3   4  -2 1.04749 1.06635   5
  -4  -4  -2 19.1174 2.40734   5
   4  -4   2 20.2525 2.11859   6
  -4  -4  -2 17.4169 2.74939   2
   4  -4   2 13.0575 1.89725   3
   4  -4   2 17.8953 2.10516   4
  -4   4  -2 18.0232 2.33834   5
  -5  -4  -2 249.563 8.19687   5
   5  -4   2 260.012 7.72390   4
   5  -4   2 235.253 7.64354   3
  -5  -4  -2 244.987 9.26706   2
   5  -4   2 249.628 7.65957   6
  -5   4  -2 258.310 8.51816   5
   5   4   2 246.256 8.31161   3
   6  -4   2 2.99694 1.58188   3
   6  -4   2 4.99725 1.74018   4
  -6  -4  -2 3.37456 2.25725   2
  -6  -4  -2 4.89178 2.05930   5
   6  -4   2 2.20411 1.49306   6
   6   4   2 4.20195 1.73648   3
  -6   4  -2 2.25844 1.72483   5
   7  -4   2 7.94157 2.26356   3
  -7  -4  -2 8.15368 2.89936   2
  -7  -4  -2 9.83223 2.48732   5
   7  -4   2 9.90256 2.35811   6
  -7   4  -2 7.30737 2.45693   5
   7   4   2 8.40279 2.26427   3
  -8  -4  -2 13.0469 3.70314   2
   8  -4   2 15.9680 3.12893   6
  -8  -4  -2 12.7759 3.16475   5
   8  -4   2 17.3778 3.19406   3
  -8   4  -2 8.60993 2.78455   5
   8   4   2 14.1876 2.99160   3
   9  -5  -2 -3.0233 1.46579   3
   9  -5  -2 0.12430 1.75561   6
  -9  -5   2 -0.3890 1.89375   5
  -9   5   2 0.72824 2.02715   1
   8  -5  -2 24.2888 3.27866   6
  -8  -5   2 25.0627 3.05553   1
  -8  -5   2 23.1795 3.43489   5
   8  -5  -2 25.1893 3.15059   3
  -8   5   2 26.8873 3.87129   1
  -7  -5   2 473.477 12.5105   1
  -7  -5   2 454.498 12.7555   5
   7  -5  -2 480.070 12.9450   6
   7  -5  -2 476.408 12.5014   3
  -7   5   2 469.202 13.9752   1
   6  -5  -2 934.793 20.2064   3
  -6  -5   2 914.575 20.4291   5
  -6  -5   2 924.679 20.4780   1
   6  -5  -2 931.166 20.7700   6
  -6   5   2 918.948 21.8887   1
   5  -5  -2 271.110 8.17372   6
  -5  -5   2 265.987 7.86400   1
   5  -5  -2 260.301 7.92429   3
  -5  -5   2 264.339 8.22006   5
  -5   5   2 266.870 8.69879   1
   4  -5  -2 187.849 6.18750   6
  -4  -5   2 174.047 4.32773   4
   4  -5  -2 175.608 4.57140   2
  -4  -5   2 163.914 5.96653   5
   4  -5  -2 171.784 5.96494   3
  -4  -5   2 172.902 5.72001   1
  -4   5   2 171.659 6.24146   1
   3  -5  -2 85.9011 3.92768   3
  -3  -5   2 89.0512 3.03893   4
  -3  -5   2 82.7552 3.70288   1
   3  -5  -2 91.7799 3.19014   2
   3  -5  -2 89.0201 4.01924   6
  -2  -5   2 1177.04 21.8894   3
   2  -5  -2 1176.34 23.4070   2
  -2  -5   2 1158.41 22.6838   4
  -2  -5   2 1170.47 24.0797   1
   2  -5  -2 1174.63 24.1861   6
   1  -5  -2 882.959 16.0317   5
  -1  -5   2 850.339 16.9953   6
  -1  -5   2 853.320 16.5836   3
   1  -5  -2 849.681 18.0860   2
  -1  -5   2 848.320 17.5642   4
   0  -5   2 2537.41 46.4264   3
   0  -5   2 2523.37 47.3635   6
   0  -5  -2 2645.74 45.7728   5
   0  -5  -2 2621.93 50.1325   2
   0  -5   2 2610.90 48.2969   4
  -1  -5  -2 107.032 4.63801   2
   1  -5   2 108.345 3.76613   3
   1  -5   2 107.634 3.40720   6
  -1  -5  -2 115.784 3.35628   1
  -1  -5  -2 106.179 3.67418   5
   1  -5   2 112.332 4.40934   4
  -2  -5  -2 23.8707 2.12174   5
  -2  -5  -2 21.2773 2.46354   2
   2  -5   2 27.6701 2.49776   4
   2  -5   2 29.1092 1.87795   6
   2  -5   2 28.9187 2.21481   3
  -2  -5  -2 31.6317 1.53977   1
  -2   5  -2 28.5477 2.39723   5
   3  -5   2 149.110 4.78080   6
   3  -5   2 145.443 5.61709   4
  -3  -5  -2 145.550 6.41478   2
   3  -5   2 151.562 5.24475   3
  -3  -5  -2 145.440 5.29685   5
  -3   5  -2 149.081 5.70384   5
  -4  -5  -2 2.85531 1.90656   2
   4  -5   2 0.69016 1.27571   3
  -4  -5  -2 0.82423 1.36482   5
   4  -5   2 1.26781 1.07962   6
   4  -5   2 1.08698 1.33386   4
  -4   5  -2 1.13326 1.29994   5
   5  -5   2 22.2037 2.66982   4
  -5  -5  -2 15.1504 2.86643   2
   5  -5   2 24.3812 2.56286   6
  -5  -5  -2 23.5708 3.01085   5
   5  -5   2 23.7378 2.63565   3
  -5   5  -2 27.0368 3.24799   5
   6  -5   2 61.8408 4.14748   4
   6  -5   2 62.0286 4.12370   6
   6  -5   2 57.3924 4.16936   3
  -6  -5  -2 55.4142 5.23909   2
  -6  -5  -2 55.9965 4.46185   5
  -6   5  -2 50.8624 4.25407   5
   7  -5   2 6.46599 2.14669   6
  -7  -5  -2 3.42567 2.58751   2
  -7  -5  -2 5.19299 2.22722   5
   7  -5   2 2.06511 1.83235   3
  -7   5  -2 0.16207 1.94441   5
   8  -5   2 2.28809 2.18006   6
  -8  -5  -2 2.25744 3.06660   2
  -8   5  -2 1.51483 2.20516   5
  -9  -6   2 69.3811 5.62297   5
   9  -6  -2 64.9848 5.18504   6
   9  -6  -2 70.2138 5.30011   3
  -8  -6   2 127.933 6.79448   5
   8  -6  -2 127.783 6.42582   6
  -8  -6   2 130.200 6.12599   1
   8  -6  -2 124.733 6.23377   3
  -7  -6   2 31.5529 3.25699   1
   7  -6  -2 37.9603 3.89782   6
  -7  -6   2 32.6111 3.78790   5
   7  -6  -2 40.3460 3.90073   3
   6  -6  -2 203.652 7.45698   3
  -6  -6   2 224.328 7.39642   1
  -6  -6   2 204.173 7.72756   5
   6  -6  -2 212.565 7.62195   6
   5  -6  -2 43.1292 3.40644   3
  -5  -6   2 40.6790 3.04656   1
   5  -6  -2 40.7995 3.32055   6
  -5  -6   2 41.7592 3.48949   5
  -4  -6   2 7.26235 1.68074   5
  -4  -6   2 10.6771 1.81048   1
   4  -6  -2 8.72661 1.68792   3
   4  -6  -2 10.1743 1.88406   6
  -4  -6   2 12.3058 1.30641   4
  -3  -6   2 812.971 18.3528   1
   3  -6  -2 840.017 17.2773   2
  -3  -6   2 834.814 16.9155   4
   3  -6  -2 838.224 18.7395   6
   3  -6  -2 846.372 18.3874   3
  -2  -6   2 267.321 6.71397   3
  -2  -6   2 266.842 7.14145   4
   2  -6  -2 267.764 7.13431   2
   2  -6  -2 262.271 7.92660   3
   2  -6  -2 272.516 8.17518   6
  -2  -6   2 273.454 7.93994   1
  -1  -6   2 380.506 9.07511   6
   1  -6  -2 398.925 9.90199   2
  -1  -6   2 387.373 8.91076   3
  -1  -6   2 382.191 9.68237   4
   1  -6  -2 403.163 8.44657   5
   1  -6  -2 380.108 10.4742   6
   0  -6   2 370.433 9.53613   4
   0  -6   2 351.865 8.54428   3
   0  -6  -2 373.525 8.28394   5
   0  -6   2 353.426 8.40609   6
   0  -6  -2 351.574 9.71292   2
  -1  -6  -2 945.527 18.4594   5
   1  -6   2 886.900 18.4902   6
   1  -6   2 926.242 19.9594   4
  -1  -6  -2 946.676 18.7412   1
  -1  -6  -2 917.092 20.9093   2
   1  -6   2 927.992 18.6937   3
  -2  -6  -2 1538.56 28.6382   1
   2  -6   2 1486.06 28.7756   6
  -2  -6  -2 1456.35 31.8309   2
  -2  -6  -2 1506.65 28.6113   5
   2  -6   2 1493.14 30.2894   4
   2  -6   2 1449.75 28.6690   3
  -3  -6  -2 959.272 20.1376   5
  -3  -6  -2 948.644 22.8389   2
   3  -6   2 965.670 20.1477   3
   3  -6   2 968.857 19.8981   6
   3  -6   2 973.314 21.3153   4
  -3   6  -2 964.243 20.9341   5
  -4  -6  -2 441.112 13.5122   2
   4  -6   2 437.356 11.9384   4
  -4  -6  -2 430.719 11.4970   5
   4  -6   2 444.758 11.3874   3
   4  -6   2 438.606 10.9310   6
  -4   6  -2 443.699 12.1666   5
   5  -6   2 77.5924 4.09918   6
  -5  -6  -2 77.6045 5.71777   2
   5  -6   2 70.1009 4.60267   4
   5  -6   2 74.2565 4.35837   3
  -5  -6  -2 71.5177 4.57672   5
  -5   6  -2 72.1059 4.68430   5
   6  -6   2 68.0452 4.61242   3
   6  -6   2 66.0794 4.63991   4
   6  -6   2 66.7519 4.21795   6
  -6  -6  -2 58.5995 5.53786   2
  -6  -6  -2 59.2909 4.50941   5
  -6   6  -2 63.4586 4.86373   5
  -7  -6  -2 149.527 8.60783   2
   7  -6   2 144.223 6.98794   3
  -7  -6  -2 135.148 7.17005   5
   7  -6   2 143.530 6.76995   6
  -7   6  -2 133.629 7.29984   5
   8  -7  -2 221.269 9.29020   4
   8  -7  -2 224.002 8.89241   3
  -8  -7   2 228.777 9.42818   5
   8  -7  -2 233.487 9.05351   6
   7  -7  -2 1559.99 32.7554   3
  -7  -7   2 1566.65 33.1333   5
  -7  -7   2 1549.17 33.0650   1
   7  -7  -2 1571.33 33.5094   6
   7  -7  -2 1578.67 34.0645   4
   6  -7  -2 860.732 20.1089   3
  -6  -7   2 865.270 20.0580   1
   6  -7  -2 880.402 20.5180   6
  -6  -7   2 866.472 20.3966   5
   5  -7  -2 2426.02 47.3167   6
  -5  -7   2 2342.45 47.0846   1
  -5  -7   2 2392.65 46.0418   5
   5  -7  -2 2355.65 46.0683   3
   4  -7  -2 207.326 7.42578   3
   4  -7  -2 209.032 7.40898   6
  -4  -7   2 207.838 6.11434   4
  -4  -7   2 205.317 7.43960   5
  -4  -7   2 203.567 7.00556   1
   3  -7  -2 1539.19 30.4221   2
   3  -7  -2 1521.45 31.2224   3
  -3  -7   2 1522.08 29.8564   4
   3  -7  -2 1589.56 32.1283   6
  -3  -7   2 1549.94 31.8105   1
   2  -7  -2 624.886 14.9264   3
   2  -7  -2 620.756 13.9998   2
  -2  -7   2 612.854 14.9758   1
   2  -7  -2 607.417 15.2035   6
  -2  -7   2 618.416 14.0218   4
  -2  -7   2 621.826 13.3765   3
   1  -7  -2 1547.77 31.2948   3
   1  -7  -2 1559.42 31.7382   2
   1  -7  -2 1606.35 28.8120   5
  -1  -7   2 1565.27 30.5183   6
  -1  -7   2 1535.78 29.6397   3
  -1  -7   2 1549.10 31.0377   4
   1  -7  -2 1546.08 32.3281   6
   0  -7  -2 517.446 11.0962   5
   0  -7   2 504.810 12.5634   4
   0  -7   2 492.604 11.4754   3
   0  -7   2 498.822 11.4250   6
   0  -7  -2 493.459 13.2278   6
   0  -7  -2 487.453 12.7637   2
  -1  -7  -2 20.6691 1.85055   1
  -1  -7  -2 20.4846 2.11271   5
   1  -7   2 19.7936 2.38640   4
   1  -7   2 21.3012 1.90471   6
   1  -7   2 16.7668 1.94003   3
   2  -7   2 32.7629 2.63080   3
   2  -7   2 28.8849 2.22074   6
  -2  -7  -2 27.9819 2.50889   5
  -2  -7  -2 24.1753 2.94954   2
   2  -7   2 25.1697 2.79231   4
   3  -7   2 163.803 6.82159   4
   3  -7   2 175.582 5.69375   6
  -3  -7  -2 169.278 7.63095   2
   3  -7   2 168.555 6.10446   3
  -3  -7  -2 177.060 6.31466   5
   4  -7   2 10.0162 2.37924   4
   4  -7   2 8.11727 1.69802   6
  -4  -7  -2 5.94768 2.37240   2
   4  -7   2 5.02772 1.64790   3
  -4  -7  -2 6.39294 1.99271   5
  -4   7  -2 8.48734 2.20824   5
  -5  -7  -2 11.4213 2.51442   5
   5  -7   2 11.1536 2.22184   3
   5  -7   2 11.1866 2.07300   6
  -5  -7  -2 12.3682 3.12706   2
   5  -7   2 6.46735 2.23087   4
  -5   7  -2 11.8864 2.48647   5
  -6  -7  -2 27.6079 4.22331   2
   6  -7   2 33.6623 3.81663   4
  -6  -7  -2 36.2583 4.12104   5
   6  -7   2 30.3444 3.50379   3
   6  -7   2 32.9994 3.91754   6
  -6   7  -2 34.1185 4.07318   5
   7  -7   2 4.51139 2.41213   3
  -7  -7  -2 8.24655 2.73438   5
  -7  -7  -2 1.72655 2.89337   2
   8  -8  -2 -0.3488 2.07242   4
   8  -8  -2 -0.4360 1.88006   3
   8  -8  -2 5.83621 2.20711   6
  -8  -8   2 0.51946 2.11724   5
   7  -8  -2 15.2137 2.82382   3
   7  -8  -2 18.9178 3.45547   4
  -7  -8   2 12.1185 2.77193   5
  -7  -8   2 17.7324 3.11618   1
   7  -8  -2 18.9575 3.22130   6
  -6  -8   2 7.23039 1.92121   1
   6  -8  -2 4.57118 2.01433   3
  -6  -8   2 8.33707 2.39294   5
   6  -8  -2 6.81848 2.13450   6
  -5  -8   2 131.735 6.33275   5
   5  -8  -2 127.195 6.08685   3
   5  -8  -2 129.806 6.14252   6
  -5  -8   2 130.667 5.73802   1
   4  -8  -2 178.671 7.13686   6
  -4  -8   2 174.544 6.72575   1
  -4  -8   2 193.553 7.47830   5
   4  -8  -2 189.082 7.33392   3
   3  -8  -2 2592.22 51.3574   6
  -3  -8   2 2590.05 51.3279   1
  -3  -8   2 2577.19 49.4776   5
  -3  -8   2 2634.31 48.0714   3
   3  -8  -2 2590.14 50.0503   3
  -3  -8   2 2607.42 48.9240   4
   2  -8  -2 1682.80 33.9693   3
   2  -8  -2 1683.05 34.9475   6
  -2  -8   2 1663.91 34.7494   1
   2  -8  -2 1661.25 33.5623   2
  -2  -8   2 1663.23 32.0584   3
  -2  -8   2 1667.06 33.1719   4
  -2  -8   2 1661.40 33.3918   6
   1  -8  -2 3063.87 53.6096   5
  -1  -8   2 2977.33 56.8362   4
   1  -8  -2 2970.77 56.7074   3
  -1  -8   2 2967.82 56.5064   6
   1  -8  -2 2979.88 58.2613   2
  -1  -8   2 2950.30 54.8487   3
   1  -8  -2 3059.86 58.7315   6
   0  -8   2 618.368 13.9072   3
   0  -8  -2 602.767 15.2661   2
   0  -8  -2 617.289 13.2973   5
   0  -8   2 579.875 14.8475   4
   0  -8   2 596.754 13.7746   6
   0  -8  -2 606.059 15.9061   6
   1  -8   2 856.384 18.5716   6
   1  -8   2 869.941 20.2622   4
  -1  -8  -2 895.735 18.9672   1
  -1  -8  -2 927.375 18.6247   5
   1  -8   2 872.299 18.8467   3
  -1  -8  -2 855.884 20.9512   2
  -2  -8  -2 707.172 18.4134   2
   2  -8   2 678.608 15.4747   6
  -2  -8  -2 726.944 15.9351   5
   2  -8   2 722.621 16.1254   3
   2  -8   2 682.744 17.3293   4
   3  -8   2 732.966 17.1212   3
  -3  -8  -2 760.370 20.0445   2
   3  -8   2 764.925 18.6994   4
   3  -8   2 747.689 16.9260   6
  -3  -8  -2 751.614 17.2588   5
   4  -8   2 724.185 17.2239   3
  -4  -8  -2 729.200 17.3911   5
  -4  -8  -2 731.813 20.1890   2
   4  -8   2 709.457 18.2802   4
   5  -8   2 99.9784 5.46761   3
  -5  -8  -2 91.4153 6.74968   2
  -5  -8  -2 102.097 5.73101   5
   5  -8   2 105.993 6.19073   4
   6  -8   2 134.396 7.14009   4
  -6  -8  -2 128.891 6.93751   5
  -6  -8  -2 128.794 8.27161   2
   6  -8   2 130.117 6.58294   3
   8  -9  -2 171.224 9.00530   4
   7  -9  -2 659.923 17.8977   6
   7  -9  -2 666.358 17.8005   3
   7  -9  -2 662.511 18.8932   4
  -7  -9   2 655.779 18.1286   5
  -6  -9   2 404.998 12.9041   5
   6  -9  -2 435.912 12.9584   6
   6  -9  -2 414.763 12.7793   3
   6  -9  -2 408.896 13.6889   4
  -6  -9   2 410.451 12.1875   1
  -5  -9   2 555.015 14.8368   1
  -5  -9   2 559.937 15.5752   5
   5  -9  -2 601.108 15.8101   6
   5  -9  -2 568.504 15.5003   3
   4  -9  -2 768.551 18.8199   3
  -4  -9   2 747.545 18.4715   5
  -4  -9   2 757.048 18.4350   1
   4  -9  -2 736.405 18.7253   6
   3  -9  -2 499.405 14.0153   6
  -3  -9   2 495.780 13.6866   5
  -3  -9   2 498.154 13.5255   1
  -3  -9   2 496.056 12.3766   4
   3  -9  -2 497.354 13.9090   3
  -2  -9   2 766.625 17.0354   3
  -2  -9   2 773.179 18.0075   6
  -2  -9   2 758.038 18.7850   1
   2  -9  -2 773.418 18.8513   3
  -2  -9   2 773.185 17.8049   4
   2  -9  -2 770.684 19.2286   6
   1  -9  -2 98.9294 4.84714   2
   1  -9  -2 94.4937 5.47234   6
   1  -9  -2 102.383 5.50132   3
  -1  -9   2 93.5360 5.05503   4
  -1  -9   2 96.4212 5.28757   1
  -1  -9   2 94.2103 4.47738   3
   0  -9  -2 14.4033 2.44644   2
   0  -9   2 10.4026 2.19836   4
   0  -9   2 9.26191 1.76438   3
   0  -9  -2 9.81965 1.76133   5
   0  -9  -2 10.7945 2.33530   6
   1  -9   2 48.1059 4.05407   4
  -1  -9  -2 46.5300 4.03647   2
  -1  -9  -2 44.2953 3.20560   5
   1  -9   2 49.1394 3.43097   3
   2  -9   2 47.3627 4.34975   4
  -2  -9  -2 45.1873 3.33749   5
  -2  -9  -2 36.1962 3.99156   2
   2  -9   2 41.9162 3.34590   3
  -3  -9  -2 -0.0194 1.96009   2
  -3  -9  -2 1.86864 1.61480   5
   3  -9   2 -0.5821 1.28154   3
   3  -9   2 -1.4261 1.66163   4
  -4  -9  -2 1.74753 1.82858   5
   4  -9   2 2.29516 1.69529   3
   4  -9   2 0.89353 2.05967   4
  -4  -9  -2 1.81627 2.34992   2
  -5  -9  -2 4.61459 2.89489   2
   5  -9   2 7.47698 2.36484   3
  -5  -9  -2 1.59247 2.13250   5
   5  -9   2 5.36435 2.54304   4
  -6  -9  -2 82.9599 5.98014   5
   6  -9   2 91.4114 6.39801   4
   7 -10  -2 3.83460 2.31250   6
   6 -10  -2 10.4578 3.21034   4
   6 -10  -2 10.4727 2.64979   6
   6 -10  -2 3.92142 2.23725   3
  -6 -10   2 12.2469 3.02206   5
   5 -10  -2 7.59517 2.35554   6
  -5 -10   2 7.34283 2.05370   1
  -5 -10   2 6.69009 2.35874   5
   5 -10  -2 6.13950 2.24644   3
  -4 -10   2 1.57653 1.78835   5
   4 -10  -2 0.45348 1.59576   6
  -4 -10   2 2.63226 1.65067   1
   4 -10  -2 1.61232 1.80609   3
   3 -10  -2 180.384 7.81321   6
  -3 -10   2 183.032 7.53692   1
   3 -10  -2 185.423 8.03280   3
  -3 -10   2 180.703 7.81244   5
   2 -10  -2 302.938 10.5196   3
  -2 -10   2 300.906 9.61060   4
  -2 -10   2 305.260 10.2809   1
   2 -10  -2 301.423 10.5998   6
  -1 -10   2 405.651 12.5415   1
   1 -10  -2 395.068 12.7462   6
  -1 -10   2 396.417 11.0386   3
   1 -10  -2 398.732 12.4586   3
   1 -10  -2 401.367 11.6088   2
  -1 -10   2 407.436 11.9781   4
   0 -10   2 127.688 5.55755   3
   0 -10  -2 129.789 6.82745   6
   0 -10   2 126.542 6.40957   4
   0 -10  -2 126.291 6.46243   3
   0 -10  -2 119.293 6.13617   2
   1 -10   2 77.0718 5.36487   4
  -1 -10  -2 78.0045 5.30669   2
  -1 -10  -2 85.5980 5.75159   6
   1 -10   2 89.9382 4.80561   3
  -2 -10  -2 153.238 7.78403   2
   2 -10   2 158.603 7.56520   4
  -2 -10  -2 156.026 6.38124   5
   2 -10   2 159.857 6.55493   3
  -3 -10  -2 276.464 11.2824   2
   3 -10   2 289.683 9.49745   3
  -3 -10  -2 281.316 9.43845   5
   3 -10   2 280.240 10.6163   4
  -4 -10  -2 473.006 16.1516   2
   4 -10   2 465.005 13.4360   3
  -4 -10  -2 485.881 13.7247   5
   4 -10   2 482.605 14.8659   4
   5 -10   2 220.537 8.85247   3
  -5 -10  -2 225.773 9.05048   5
   5 -10   2 207.187 9.72394   4
   6 -11  -2 1.10812 2.08839   6
   5 -11  -2 1.01170 1.98392   6
   5 -11  -2 0.43220 1.87987   3
  -5 -11   2 2.36075 2.26738   5
   5 -11  -2 0.40959 2.42684   4
  -4 -11   2 49.0270 4.33386   1
  -4 -11   2 54.0229 4.88328   5
   4 -11  -2 55.2895 4.91056   3
   4 -11  -2 50.2161 4.50424   6
  -3 -11   2 133.326 6.96525   5
   3 -11  -2 136.303 7.15804   6
   3 -11  -2 131.357 7.12626   3
  -3 -11   2 132.614 6.63853   1
   2 -11  -2 237.914 9.44635   3
   2 -11  -2 218.163 9.23117   6
  -2 -11   2 220.965 8.35906   4
  -2 -11   2 215.300 8.81942   1
   1 -11  -2 50.0705 4.73045   6
  -1 -11   2 49.0176 4.36285   4
  -1 -11   2 47.8126 4.50111   1
   1 -11  -2 50.5345 4.56538   3
   0 -11  -2 253.121 9.81841   3
   0 -11   2 250.432 9.57893   4
   0 -11  -2 247.172 10.1796   6
   0 -11  -2 249.783 9.32901   2
  -1 -11  -2 13.1982 3.00823   6
  -1 -11  -2 21.2628 3.42003   3
   1 -11   2 17.4464 3.18163   4
  -1 -11  -2 16.8464 3.20143   2
   1 -11   2 18.6507 2.78080   3
  -2 -11  -2 507.855 16.3911   6
   2 -11   2 521.114 15.5638   4
   2 -11   2 512.163 13.9404   3
  -2 -11  -2 509.295 16.0630   2
   3 -11   2 21.9438 3.90530   4
  -3 -11  -2 23.4999 4.18792   2
   3 -11   2 24.3009 3.27345   3
  -4 -11  -2 249.083 9.62353   5
   4 -11   2 246.651 9.46360   3
   5 -12  -2 23.4219 3.93107   6
  -4 -12   2 47.1792 5.10876   5
   4 -12  -2 49.7755 5.22214   6
  -4 -12   2 46.8457 5.43160   1
   4 -12  -2 50.0786 5.37327   3
  -4 -12   2 48.2104 5.61474   2
   3 -12  -2 149.410 7.87007   6
  -3 -12   2 140.920 7.34110   1
   3 -12  -2 165.304 8.31787   3
  -3 -12   2 143.058 7.69696   5
   3 -12  -2 142.419 8.27864   4
  -2 -12   2 88.5162 5.99836   5
  -2 -12   2 89.4019 5.66002   4
   2 -12  -2 78.4612 5.93211   6
  -2 -12   2 83.1131 5.71393   1
   2 -12  -2 91.2958 6.24021   3
  -1 -12   2 126.822 7.18854   1
   1 -12  -2 131.403 7.49659   6
   1 -12  -2 127.783 7.28133   3
  -1 -12   2 133.525 7.11409   4
   0 -12   2 29.4692 4.36448   1
   0 -12  -2 26.7009 4.23045   6
   0 -12  -2 21.8438 3.79424   3
   0 -12   2 16.8432 3.26186   4
  -1 -12  -2 37.3811 4.61319   3
  -1 -12  -2 32.0367 4.44708   2
   1 -12   2 40.3836 4.79990   4
  -1 -12  -2 33.3990 4.63686   6
  -2 -12  -2 -0.1089 2.26857   2
   2 -12   2 0.61363 1.99840   3
   2 -12   2 -0.3748 2.15757   4
  -2 -12  -2 2.46608 2.30276   6
   3 -12   2 1.58035 2.02913   3
  -3 -12  -2 -2.9773 2.06192   6
  -3 -13   2 159.071 8.13067   1
  -3 -13   2 174.449 9.73835   5
   3 -13  -2 173.042 9.05287   6
   2 -13  -2 59.7607 6.03849   6
  -2 -13   2 56.1009 5.19156   5
  -2 -13   2 43.3867 4.76708   1
  -1 -13   2 54.3891 5.82586   1
   1 -13  -2 48.8667 5.60577   6
   1 -13  -2 46.0609 5.32032   3
   1 -13  -2 54.9804 5.87773   4
  -1 -13   2 58.0703 5.32423   4
   0 -13  -2 12.6589 3.26179   3
   0 -13  -2 10.1508 3.14494   6
   0 -13  -2 14.1468 3.52439   4
  -1 -13  -2 24.8290 4.21026   3
  -1 -13  -2 18.0812 4.57032   6
  10   0  -3 1.67401 2.10584   6
 -10   0   3 -0.0285 1.75049   1
   9   0  -3 -0.0339 1.18434   3
  -9   0   3 1.28463 1.67395   5
  -9   0   3 -0.4284 1.45719   1
   9   0  -3 -1.2883 1.49320   6
  -8   0   3 1.87666 1.46661   5
  -8   0   3 0.12589 1.32381   1
   8   0  -3 1.35847 1.47624   6
   8   0  -3 -0.0525 1.09332   3
   7   0  -3 0.06966 0.91679   3
  -7   0   3 1.38990 1.22436   1
  -7   0   3 1.41521 1.14610   5
   7   0  -3 1.23296 1.17874   6
   6   0  -3 -0.4288 0.61998   3
  -6   0   3 4.96710 1.29929   1
   6   0  -3 -0.2026 0.88257   6
  -6   0   3 0.20546 0.82236   5
   5   0  -3 0.18547 0.71452   3
   5   0  -3 -1.8423 0.67603   6
  -5   0   3 -1.4013 0.68205   5
  -5   0   3 -1.2900 0.76501   1
   4   0  -3 -0.4047 0.49331   3
   4   0  -3 -0.3529 0.74652   2
  -4   0   3 -0.7789 0.57960   5
   4   0  -3 -0.1454 0.61323   6
  -4   0   3 -0.3086 0.71157   1
  -4   0   3 -1.1773 0.46854   4
   3   0  -3 -1.4095 0.44607   3
  -3   0   3 -2.1297 0.55875   1
   3   0  -3 -2.4502 0.50868   6
   3   0  -3 -2.4777 0.53949   2
  -3   0   3 -1.9330 0.48075   4
  -2   0   3 -2.3214 0.55576   4
   2   0  -3 -2.7944 0.62897   2
  -2   0   3 -3.1242 0.43901   1
  -1   0   3 -0.5306 0.43115   4
   1   0  -3 -0.0925 0.60494   2
  -1   0   3 -0.4571 0.32632   1
   1   0  -3 0.38973 0.46637   5
   1   0  -3 0.21244 0.36736   6
   0   0   3 5.57927 0.83854   3
   0   0   3 6.16111 0.95163   4
   1   0   3 3.87788 0.96814   4
  -1   0  -3 -0.6113 0.77634   5
   1   0   3 -1.2308 0.61488   3
  -1   0  -3 -1.2055 0.71527   2
  -2   0  -3 -0.2729 0.72593   5
   2   0   3 0.43339 0.68075   4
   2   0   3 1.41103 0.81042   3
  -2   0  -3 -0.1813 0.78914   2
   3   0   3 0.82406 0.88689   3
   3   0   3 0.17206 0.70532   4
  -3   0  -3 -0.5032 0.84584   2
   3   0   3 -1.3864 0.71305   6
  -3   0  -3 0.62517 0.89073   5
  -4   0  -3 0.19444 1.06951   2
  -4   0  -3 2.45359 1.36059   5
   4   0   3 1.01721 0.87935   4
   4   0   3 0.48895 1.10169   6
   4   0   3 0.15112 1.03251   3
  -5   0  -3 0.01800 1.36518   5
  -5   0  -3 3.49910 1.48014   2
   5   0   3 1.35546 1.22033   3
   5   0   3 0.06080 1.26812   6
   6   0   3 -0.6851 1.31429   6
  -6   0  -3 -1.7575 1.19881   5
   6   0   3 0.05107 1.30191   3
   7   0   3 1.41090 1.76957   3
  -7   0  -3 -0.6842 1.80332   5
   7   0   3 -0.4396 1.65797   6
 -11  -1   3 155.204 9.26728   1
 -10  -1   3 9.43186 2.66815   5
  10  -1  -3 9.45517 2.73876   6
 -10  -1   3 8.16458 2.36841   1
  10  -1  -3 6.57762 2.11595   3
 -10   1   3 7.15633 2.45760   1
  10   1  -3 7.73784 2.60331   6
   9  -1  -3 168.460 7.36039   6
   9  -1  -3 167.927 6.52026   3
  -9  -1   3 167.098 7.34348   1
  -9  -1   3 173.165 6.95749   5
   9   1  -3 166.703 7.47293   6
  -9   1   3 174.568 7.60289   1
   8  -1  -3 2.99290 1.38587   3
   8  -1  -3 3.39157 1.67236   6
  -8  -1   3 1.07207 1.42832   1
  -8  -1   3 3.14653 1.66339   5
   8   1  -3 2.28399 1.46719   6
  -8   1   3 2.63297 1.55612   1
  -8   1   3 3.28116 1.52841   5
   8   1  -3 4.05566 1.41241   3
  -7  -1   3 243.878 7.92271   1
   7  -1  -3 246.076 7.00309   3
  -7  -1   3 249.518 7.39010   5
   7  -1  -3 234.485 7.69441   6
   7   1  -3 249.227 6.81375   3
  -7   1   3 256.967 7.14470   5
  -7   1   3 243.207 8.15196   1
   7   1  -3 232.504 7.66265   6
  -6  -1   3 108.627 4.21599   5
  -6  -1   3 111.617 4.63543   1
   6  -1  -3 116.659 4.03492   3
   6  -1  -3 111.067 4.51979   6
  -6   1   3 111.236 4.72297   1
   6   1  -3 114.652 4.49308   6
  -6   1   3 109.250 3.86272   5
   6   1  -3 112.372 3.73218   3
  -5  -1   3 -0.8661 0.46141   4
  -5  -1   3 -0.6957 0.73593   5
  -5  -1   3 -1.0554 0.74528   1
   5  -1  -3 -1.2124 0.71918   6
   5  -1  -3 -0.8797 0.73305   2
   5  -1  -3 -0.4618 0.61641   3
  -5   1   3 -0.3127 0.83114   1
   5   1  -3 -0.9406 0.47825   3
  -5   1   3 0.06028 0.63760   5
   5   1  -3 0.66860 0.80774   6
  -4  -1   3 19.1953 1.62348   5
   4  -1  -3 17.9149 1.40929   3
   4  -1  -3 16.5870 1.56202   6
  -4  -1   3 17.8363 1.66131   1
  -4  -1   3 17.1495 1.20915   4
   4  -1  -3 18.5349 1.64397   2
  -4   1   3 15.8007 1.16792   5
   4   1  -3 18.4531 1.48878   6
   4   1  -3 14.4351 1.71061   2
   4   1  -3 18.4379 1.03802   3
  -4   1   3 23.4642 1.73885   1
  -3  -1   3 765.198 14.9678   4
  -3  -1   3 736.216 15.7877   1
   3  -1  -3 757.672 15.5176   6
   3  -1  -3 758.295 14.8015   3
   3  -1  -3 781.206 16.0134   2
   3   1  -3 796.446 13.7256   3
   3   1  -3 783.135 14.9112   6
  -3   1   3 767.878 15.2178   4
   3   1  -3 748.143 16.2773   2
  -3   1   3 770.529 15.6821   1
  -3   1   3 793.847 14.0429   5
  -2  -1   3 2.03014 0.62487   1
   2  -1  -3 -0.2249 0.45839   6
  -2  -1   3 1.14478 0.62256   4
   2  -1  -3 1.13237 0.69919   2
  -2   1   3 0.04825 0.39444   1
   2   1  -3 1.61526 0.69444   2
   2   1  -3 1.03451 0.37056   6
  -2   1   3 0.11535 0.46576   4
   1  -1  -3 7.99996 0.80906   5
  -1  -1   3 7.16601 0.67709   3
  -1  -1   3 7.93998 1.02420   4
  -1  -1   3 5.68577 0.81159   1
   1  -1  -3 7.39177 1.11625   2
   1   1  -3 7.23339 1.05964   2
  -1   1   3 6.35810 0.87364   4
   1   1  -3 11.2489 1.15257   5
   1   1  -3 6.95283 0.56743   6
   0  -1  -3 150.232 4.06520   5
   0  -1   3 158.818 4.23665   4
   0  -1   3 161.754 3.88823   3
   0   1   3 160.288 3.28571   1
   0   1  -3 152.207 4.51357   2
   0   1   3 148.756 4.23887   4
   0   1  -3 164.185 4.48598   5
  -1  -1  -3 686.506 13.8169   5
   1  -1   3 695.356 13.6377   6
   1  -1   3 697.443 13.5746   3
   1  -1   3 690.741 13.8126   4
  -1  -1  -3 683.799 14.8252   2
   1   1   3 687.220 13.9539   3
  -1   1  -3 693.077 14.4283   2
   1   1   3 652.681 13.8504   4
  -1   1  -3 695.082 14.1664   5
   2  -1   3 198.799 5.47864   3
   2  -1   3 190.049 5.33794   6
  -2  -1  -3 200.845 6.09248   2
   2  -1   3 201.460 5.30687   4
  -2  -1  -3 196.006 5.71152   5
  -2   1  -3 202.074 5.57893   2
  -2   1  -3 200.833 5.98320   5
   2   1   3 214.100 5.85214   3
   2   1   3 198.306 5.35556   4
   3  -1   3 476.822 11.1367   6
   3  -1   3 486.269 11.0919   3
   3  -1   3 477.839 10.5671   4
  -3  -1  -3 475.098 11.3879   5
  -3  -1  -3 478.203 11.8525   2
   3   1   3 475.897 10.5794   4
  -3   1  -3 488.675 11.1179   2
   3   1   3 498.450 11.4222   3
  -3   1  -3 480.826 11.6148   5
  -4  -1  -3 210.079 7.03497   2
   4  -1   3 219.480 5.94413   4
  -4  -1  -3 204.635 6.90305   5
   4  -1   3 209.928 6.66490   6
   4  -1   3 212.019 6.64349   3
  -4   1  -3 198.842 6.96929   5
   4   1   3 201.081 6.69827   3
   4   1   3 213.385 5.86698   4
  -4   1  -3 209.338 6.26766   2
   5  -1   3 64.3903 3.95191   6
   5  -1   3 65.8873 3.82937   3
  -5  -1  -3 60.8564 4.13603   5
  -5  -1  -3 69.8508 4.09753   2
   5   1   3 58.8823 3.82763   3
  -5   1  -3 57.1194 3.91089   5
  -6  -1  -3 41.9447 4.12184   5
   6  -1   3 37.4655 3.44647   3
   6  -1   3 37.2964 3.51025   6
  -6   1  -3 35.1336 3.90964   5
   6   1   3 43.5618 3.79886   3
  -7  -1  -3 6.47118 2.59244   5
   7  -1   3 9.84321 2.52004   3
   7  -1   3 11.4307 2.57782   6
   7   1   3 9.23860 2.46496   3
  -7   1  -3 8.55409 2.54790   5
   8  -1   3 3.38315 2.37646   6
 -10  -2   3 2.54782 1.97794   1
 -10  -2   3 3.72317 2.19010   5
  10  -2  -3 1.54796 1.91041   6
  10  -2  -3 2.39942 1.82319   3
 -10   2   3 1.84859 1.93582   1
  10   2  -3 3.36624 2.22121   6
   9  -2  -3 58.1530 4.08221   3
  -9  -2   3 55.4769 4.29979   1
  -9  -2   3 60.0788 4.46127   5
   9  -2  -3 46.7607 4.19162   6
   9   2  -3 51.9527 4.45009   6
  -9   2   3 58.9685 4.69205   1
   8  -2  -3 32.3762 3.39584   6
  -8  -2   3 31.7232 3.12723   1
   8  -2  -3 31.9719 2.88868   3
  -8  -2   3 33.1852 3.32683   5
  -8   2   3 32.9988 3.59825   1
   8   2  -3 28.6475 3.17585   6
   7  -2  -3 128.518 4.89937   3
  -7  -2   3 124.093 5.20950   5
  -7  -2   3 127.429 5.41234   1
   7  -2  -3 122.788 5.37858   6
  -7   2   3 129.571 4.65963   5
   7   2  -3 128.225 4.48422   3
  -7   2   3 123.823 5.67718   1
   7   2  -3 127.429 5.39474   6
   6  -2  -3 78.5538 3.92144   6
  -6  -2   3 87.3188 4.04815   1
  -6  -2   3 73.6476 3.74838   5
   6  -2  -3 73.0671 3.45097   3
  -6   2   3 86.0852 3.26917   5
   6   2  -3 84.4158 3.87527   6
   6   2  -3 84.4440 3.10037   3
   5  -2  -3 154.190 5.19341   6
  -5  -2   3 153.559 5.11081   5
  -5  -2   3 153.562 5.22423   1
   5  -2  -3 153.577 4.81239   3
  -5  -2   3 157.986 3.83849   4
   5  -2  -3 145.827 4.85573   2
  -5   2   3 161.450 4.15951   5
   5   2  -3 156.307 4.91176   6
  -5   2   3 156.599 5.45195   1
   5   2  -3 150.339 3.96631   3
   4  -2  -3 2104.33 38.7415   6
  -4  -2   3 1942.26 37.0801   5
  -4  -2   3 1942.94 39.0526   1
   4  -2  -3 2032.11 37.2161   3
   4  -2  -3 2095.12 39.0584   2
  -4  -2   3 2030.18 36.8961   4
   4   2  -3 1955.00 35.5795   3
  -4   2   3 2065.25 39.2209   1
   4   2  -3 2053.50 37.8001   6
  -4   2   3 2075.31 35.3837   5
  -3  -2   3 343.867 7.64772   4
   3  -2  -3 351.028 8.45070   6
  -3  -2   3 343.498 8.37071   1
   3  -2  -3 345.664 8.04154   3
   3  -2  -3 357.595 8.38747   2
  -3   2   3 364.965 8.30344   1
   3   2  -3 346.700 7.37995   6
   3   2  -3 337.431 8.84725   2
  -3   2   3 365.792 6.34595   5
  -2  -2   3 2.70432 0.78233   1
  -2  -2   3 3.27392 0.73581   4
   2  -2  -3 2.56294 0.80431   6
   2  -2  -3 2.39752 0.85792   2
  -2   2   3 3.61952 0.36360   5
  -2   2   3 3.39534 0.68143   1
   2   2  -3 3.10279 0.40476   6
   2   2  -3 2.48797 0.77386   2
  -2   2   3 2.84159 0.76078   4
   1  -2  -3 3968.57 74.5230   2
   1  -2  -3 4051.61 68.5771   5
  -1  -2   3 3991.90 73.6285   1
  -1  -2   3 4080.18 69.1777   3
  -1   2   3 4064.30 72.6526   1
   1   2  -3 3772.88 74.1095   2
  -1   2   3 4021.16 71.6637   4
   0  -2   3 128.187 3.26311   3
   0  -2  -3 122.666 3.42937   5
   0  -2  -3 124.537 4.23998   2
   0   2   3 121.091 3.66722   4
   0   2  -3 115.062 3.67617   2
   0   2  -3 125.832 4.11464   5
   1  -2   3 123.880 3.68002   3
  -1  -2  -3 127.140 3.92328   5
  -1  -2  -3 125.919 4.55913   2
   1  -2   3 125.459 3.39564   6
  -1   2  -3 129.614 3.94434   2
  -1   2  -3 119.816 4.27241   5
   1   2   3 127.215 3.77359   4
  -2  -2  -3 3334.84 60.0539   5
   2  -2   3 3300.19 60.2427   3
   2  -2   3 3361.52 61.3850   4
   2  -2   3 3394.53 61.6955   6
  -2  -2  -3 3339.49 64.6308   2
  -2   2  -3 3445.72 63.2507   2
   2   2   3 3359.33 61.0530   4
  -2   2  -3 3416.49 60.7595   5
   2   2   3 3490.17 61.1131   3
   3  -2   3 866.679 17.4360   3
   3  -2   3 841.881 17.1821   4
  -3  -2  -3 839.348 19.0689   2
   3  -2   3 838.668 17.4389   6
  -3  -2  -3 838.465 17.6104   5
  -3   2  -3 835.311 17.2937   2
  -3   2  -3 810.719 17.9291   5
   3   2   3 845.748 16.6860   4
   3   2   3 835.010 17.8269   3
   4  -2   3 504.645 11.9843   6
  -4  -2  -3 471.907 12.1297   5
  -4  -2  -3 500.622 13.1254   2
   4  -2   3 488.308 11.8499   3
   4  -2   3 510.085 11.3403   4
   4   2   3 474.889 12.2068   3
  -4   2  -3 508.490 12.6982   5
  -5  -2  -3 1.08848 1.49401   5
  -5  -2  -3 -0.1006 1.48669   2
   5  -2   3 2.14594 1.15986   4
   5  -2   3 4.22441 1.56002   3
   5  -2   3 2.20891 1.32365   6
  -5   2  -3 1.46495 1.34968   5
   5   2   3 2.89703 1.42467   3
  -6  -2  -3 163.092 7.36169   2
   6  -2   3 162.700 6.71355   3
  -6  -2  -3 152.485 6.98085   5
   6  -2   3 172.677 6.85512   6
  -6   2  -3 162.164 7.18971   5
   6   2   3 173.780 7.12332   3
  -7  -2  -3 217.353 9.04834   5
   7  -2   3 219.225 8.55017   3
   7  -2   3 237.223 8.93607   6
   7   2   3 221.759 8.79867   3
  -7   2  -3 216.977 9.11979   5
   8  -2   3 344.739 12.1792   6
  10  -3  -3 42.4964 4.72164   6
 -10  -3   3 45.2806 4.43323   1
  10  -3  -3 42.3846 4.18302   3
 -10  -3   3 49.3933 4.87847   5
 -10   3   3 44.4580 4.97059   1
  10   3  -3 44.2048 4.84279   6
  -9  -3   3 66.4753 4.62807   1
  -9  -3   3 75.1419 4.94968   5
   9  -3  -3 64.6486 4.78869   6
   9  -3  -3 66.0282 4.42731   3
  -9   3   3 68.2098 5.20803   1
   9   3  -3 76.4279 5.15514   6
  -8  -3   3 312.995 9.84362   1
  -8  -3   3 308.695 9.63815   5
   8  -3  -3 328.059 10.0630   6
   8  -3  -3 308.972 9.16892   3
  -8   3   3 307.556 10.5076   1
   8   3  -3 306.064 9.93979   6
  -7  -3   3 498.325 12.5691   5
  -7  -3   3 501.400 12.9269   1
   7  -3  -3 498.291 12.8887   6
   7  -3  -3 489.280 12.0899   3
   7   3  -3 486.081 12.8107   6
  -7   3   3 488.977 13.5035   1
   6  -3  -3 599.865 13.5361   2
  -6  -3   3 592.074 13.9007   5
  -6  -3   3 587.219 14.1713   1
   6  -3  -3 588.136 13.4804   3
   6  -3  -3 603.714 14.3203   6
  -6   3   3 607.965 12.3647   5
   6   3  -3 595.198 12.3725   3
  -6   3   3 582.648 14.7230   1
   6   3  -3 600.155 13.9941   6
  -5  -3   3 524.609 10.4104   4
   5  -3  -3 536.550 12.6208   6
  -5  -3   3 523.895 12.5847   1
   5  -3  -3 533.440 11.8818   2
   5  -3  -3 525.499 12.0272   3
  -5  -3   3 512.822 12.2203   5
   5   3  -3 520.367 11.9746   6
  -5   3   3 525.822 10.4427   5
  -5   3   3 523.559 12.8852   1
   5   3  -3 537.348 10.6152   3
  -4  -3   3 288.952 7.83689   1
   4  -3  -3 296.851 7.31635   2
   4  -3  -3 291.610 7.63464   3
   4  -3  -3 292.767 7.91559   6
  -4  -3   3 291.006 6.60542   4
  -4  -3   3 290.187 7.80600   5
  -4   3   3 304.119 8.00291   1
   4   3  -3 283.900 7.03280   6
  -4   3   3 296.926 5.73809   5
   3  -3  -3 1695.22 32.7906   6
  -3  -3   3 1694.68 32.9670   1
   3  -3  -3 1675.87 31.6453   3
   3  -3  -3 1757.08 32.9999   2
  -3  -3   3 1674.60 31.0397   4
  -3   3   3 1680.17 32.7139   1
   3   3  -3 1642.04 31.2001   6
  -2  -3   3 1739.65 33.7666   1
   2  -3  -3 1781.37 34.0020   2
   2  -3  -3 1701.20 33.5973   6
  -2  -3   3 1735.89 32.1609   4
   2   3  -3 1707.64 34.2127   2
  -2   3   3 1800.52 33.1597   1
  -1  -3   3 4391.29 80.3562   1
  -1  -3   3 4282.99 77.6115   4
   1  -3  -3 4313.55 80.9673   2
   1  -3  -3 4387.13 79.4947   6
   1  -3  -3 4400.17 74.2797   5
  -1  -3   3 4400.92 74.9862   3
  -1   3   3 4294.60 78.0291   4
  -1   3   3 4369.53 79.0885   1
   1   3  -3 4169.32 80.5790   2
   0  -3  -3 2924.42 55.6656   2
   0  -3   3 2947.85 51.2864   3
   0  -3   3 2795.67 53.0567   4
   0  -3   3 2988.73 52.0913   6
   0  -3  -3 2945.09 50.9857   5
   0   3   3 2919.67 53.1520   4
   0   3  -3 2866.22 52.3217   5
   0   3  -3 2948.22 54.6720   2
  -1  -3  -3 3340.85 63.5214   2
  -1  -3  -3 3320.82 58.4844   5
   1  -3   3 3294.87 60.4812   4
   1  -3   3 3359.98 58.7696   3
   1  -3   3 3342.24 59.8890   6
  -1   3  -3 3299.95 61.7292   2
   1   3   3 3321.61 60.0861   4
  -1   3  -3 3296.86 59.5362   5
   2  -3   3 1646.70 30.8198   6
  -2  -3  -3 1624.89 33.5279   2
  -2  -3  -3 1645.41 30.6668   5
   2  -3   3 1628.90 31.3050   4
   2  -3   3 1659.63 30.5598   3
   2   3   3 1676.00 30.7002   4
  -2   3  -3 1578.34 31.1819   2
  -2   3  -3 1637.66 31.4605   5
  -3  -3  -3 1470.39 31.3473   2
   3  -3   3 1483.09 28.5975   3
  -3  -3  -3 1475.38 28.7952   5
   3  -3   3 1481.71 28.9538   4
   3  -3   3 1496.09 28.9304   6
   3   3   3 1543.69 28.1097   4
   3   3   3 1490.80 29.5510   3
  -3   3  -3 1466.87 29.4281   5
  -4  -3  -3 99.3538 4.74671   5
  -4  -3  -3 97.7577 5.28606   2
   4  -3   3 97.6395 4.46284   3
   4  -3   3 99.5888 4.24202   6
   4  -3   3 105.094 4.26234   4
  -4   3  -3 95.6152 4.88144   5
   4   3   3 89.8814 4.63377   3
   5  -3   3 85.0333 4.38413   6
   5  -3   3 87.3334 4.58506   3
  -5  -3  -3 85.3146 5.31101   2
  -5  -3  -3 72.8963 4.55462   5
   5  -3   3 84.8835 4.06544   4
   5   3   3 92.5889 4.88412   3
  -5   3  -3 74.8697 4.72318   5
   6  -3   3 83.8798 4.96519   3
  -6  -3  -3 87.1692 5.78325   2
   6  -3   3 98.1710 5.21219   6
  -6  -3  -3 89.8297 5.41233   5
   6   3   3 98.3874 5.48703   3
  -6   3  -3 89.2750 5.49018   5
   7  -3   3 13.5585 2.81520   6
  -7  -3  -3 7.71533 2.68483   5
   7  -3   3 10.0721 2.60642   3
  -7   3  -3 11.4725 2.94580   5
   7   3   3 8.98487 2.59919   3
   8  -3   3 55.6573 5.49820   6
 -10  -4   3 38.1028 4.47863   5
  10  -4  -3 39.1292 4.12665   3
  10  -4  -3 29.5994 4.00039   6
 -10  -4   3 44.6244 4.65298   1
 -10   4   3 37.2783 4.82590   1
  10   4  -3 46.5696 5.02763   6
  -9  -4   3 5.92788 2.23942   5
  -9  -4   3 5.20357 2.07189   1
   9  -4  -3 5.13152 2.14395   6
   9  -4  -3 5.64661 1.97774   3
  -9   4   3 5.62611 2.31797   1
   9   4  -3 9.77636 2.61466   6
   8  -4  -3 380.779 11.5627   6
  -8  -4   3 397.355 11.5662   1
   8  -4  -3 381.744 10.9002   3
  -8  -4   3 391.479 11.5497   5
  -8   4   3 396.650 12.5720   1
   8   4  -3 402.582 12.0071   6
   7  -4  -3 271.182 8.71248   6
   7  -4  -3 277.035 8.38094   3
  -7  -4   3 271.762 8.66226   1
  -7  -4   3 264.458 8.70197   5
  -7   4   3 271.878 9.39592   1
   7   4  -3 286.627 8.88840   6
   6  -4  -3 1220.97 25.9493   6
   6  -4  -3 1250.66 25.0622   3
  -6  -4   3 1188.38 25.9010   1
  -6  -4   3 1212.70 25.2562   5
   6   4  -3 1262.97 25.7042   6
  -6   4   3 1240.60 26.8952   1
   5  -4  -3 106.673 3.71713   2
   5  -4  -3 93.8180 4.26134   3
  -5  -4   3 97.4062 4.29901   1
  -5  -4   3 105.164 3.07131   4
  -5  -4   3 97.1482 4.44034   5
   5  -4  -3 95.0656 4.45331   6
  -5   4   3 95.2667 4.51716   1
   5   4  -3 102.182 4.04441   6
   4  -4  -3 8.18412 1.56926   6
  -4  -4   3 8.49099 1.49130   1
  -4  -4   3 10.0132 1.09206   4
   4  -4  -3 7.61379 1.45900   3
   4  -4  -3 8.81887 1.24914   2
  -4   4   3 7.89367 1.49756   1
  -3  -4   3 29.6517 1.70844   4
   3  -4  -3 32.6916 2.48298   6
  -3  -4   3 28.6413 2.24511   1
   3  -4  -3 28.9228 2.08222   2
   3  -4  -3 25.6247 2.17495   3
  -3  -4   3 32.3277 1.23126   3
  -3   4   3 35.4071 2.25595   1
  -2  -4   3 51.4579 2.75486   1
   2  -4  -3 50.9762 2.97779   6
  -2  -4   3 52.2463 2.37790   4
   2  -4  -3 51.2022 2.74164   2
  -2  -4   3 53.0783 1.66126   3
  -2   4   3 59.9388 2.59984   1
  -1  -4   3 2807.45 51.2143   4
  -1  -4   3 2779.19 49.0218   3
  -1  -4   3 2715.48 53.1431   1
   1  -4  -3 2873.06 48.4219   5
   1  -4  -3 2836.12 52.9196   6
   1  -4  -3 2775.47 53.4321   2
  -1  -4   3 2784.39 49.9315   6
   0  -4  -3 242.871 5.75100   5
   0  -4   3 245.402 5.73165   3
   0  -4  -3 249.028 7.28852   2
   0  -4   3 243.348 5.10405   6
   0   4  -3 252.784 6.37996   2
   1  -4   3 478.596 9.72321   6
   1  -4   3 472.445 11.0750   4
  -1  -4  -3 475.568 10.3318   5
   1  -4   3 483.420 10.2418   3
  -1   4  -3 470.430 11.4314   5
  -1   4  -3 491.069 10.3104   2
   2  -4   3 5249.22 97.2121   4
  -2  -4  -3 5476.88 101.987   2
  -2  -4  -3 5376.57 94.1891   5
   2  -4   3 5454.42 96.9638   6
   2  -4   3 5355.64 94.7615   3
  -2   4  -3 5394.92 98.9431   2
  -2   4  -3 5366.50 95.3464   5
  -3  -4  -3 2605.71 52.0036   2
   3  -4   3 2572.65 48.7358   4
   3  -4   3 2583.15 47.6099   3
  -3  -4  -3 2602.65 47.7147   5
   3  -4   3 2616.27 48.3706   6
  -3   4  -3 2543.38 48.4426   5
  -4  -4  -3 1333.78 29.3425   2
   4  -4   3 1326.04 26.5715   4
  -4  -4  -3 1243.38 26.4096   5
   4  -4   3 1314.44 26.3508   3
   4  -4   3 1316.61 26.4090   6
  -4   4  -3 1291.25 27.3255   5
  -5  -4  -3 976.762 23.4128   2
   5  -4   3 944.829 20.4198   4
   5  -4   3 931.263 20.7405   3
  -5  -4  -3 944.682 21.2278   5
   5  -4   3 945.534 20.8574   6
  -5   4  -3 943.373 21.8009   5
  -6  -4  -3 541.171 14.6915   5
  -6  -4  -3 558.530 16.1285   2
   6  -4   3 511.920 14.0386   3
   6  -4   3 545.152 14.1482   6
  -6   4  -3 514.758 14.9146   5
  -7  -4  -3 1120.24 26.5261   5
   7  -4   3 1137.72 26.1300   3
   7  -4   3 1161.19 26.4634   6
  -7  -4  -3 1178.09 28.7259   2
  -7   4  -3 1174.56 27.2531   5
   8  -4   3 449.986 15.0595   6
 -10  -5   3 70.1894 5.59806   1
  10  -5  -3 63.7866 5.10970   3
  -9  -5   3 155.380 7.02557   1
  -9  -5   3 159.054 7.51903   5
   9  -5  -3 148.904 6.79241   3
   9  -5  -3 143.123 7.10347   6
  -9   5   3 153.880 8.09915   1
  -8  -5   3 591.974 15.4188   1
   8  -5  -3 568.033 14.8909   3
   8  -5  -3 591.802 15.6460   6
  -8  -5   3 583.476 15.5050   5
  -8   5   3 585.028 16.7466   1
   7  -5  -3 124.529 5.56470   3
   7  -5  -3 119.851 5.75955   6
  -7  -5   3 124.411 5.97479   5
  -7  -5   3 122.349 5.49677   1
  -7   5   3 113.835 5.96549   1
  -6  -5   3 929.651 20.5572   1
   6  -5  -3 899.502 20.4818   6
   6  -5  -3 893.851 19.8295   3
  -6  -5   3 891.826 20.1471   5
  -6   5   3 908.839 21.3724   1
  -5  -5   3 1.32971 1.34418   5
   5  -5  -3 2.48002 1.34699   6
  -5  -5   3 3.78222 1.21370   1
   5  -5  -3 4.74975 1.05622   2
   5  -5  -3 2.89774 1.31627   3
  -5   5   3 2.39670 1.31093   1
   4  -5  -3 2879.52 54.1426   3
  -4  -5   3 2913.19 56.1250   1
  -4  -5   3 2933.51 52.8406   4
   4  -5  -3 3033.40 55.4391   2
   4  -5  -3 2899.61 55.7714   6
  -4   5   3 2862.00 56.3993   1
   3  -5  -3 612.773 14.7089   6
   3  -5  -3 600.958 14.1746   3
  -3  -5   3 624.735 14.4250   1
   3  -5  -3 630.749 13.8738   2
  -3  -5   3 616.018 12.8955   4
  -3  -5   3 644.530 11.9842   3
  -3   5   3 612.171 14.2585   1
   2  -5  -3 7362.26 135.280   2
   2  -5  -3 7685.13 124.553   5
  -2  -5   3 7362.00 126.564   3
   2  -5  -3 7436.49 133.429   6
  -2  -5   3 7152.93 130.246   4
  -2  -5   3 6909.19 134.614   1
  -1  -5   3 1705.31 31.1508   6
  -1  -5   3 1662.00 32.4528   4
  -1  -5   3 1670.94 30.6791   3
   1  -5  -3 1743.05 30.1245   5
   1  -5  -3 1705.51 34.1297   6
   1  -5  -3 1698.16 33.9455   2
   0  -5   3 2294.45 42.6792   4
   0  -5   3 2321.26 40.7190   3
   0  -5   3 2180.17 40.9749   6
   0  -5  -3 2204.91 44.5266   2
   0  -5  -3 2289.60 40.2173   5
   1  -5   3 979.481 19.1117   6
  -1  -5  -3 989.264 19.4674   5
  -1  -5  -3 1023.87 18.8526   1
  -1  -5  -3 1001.14 22.3141   2
   1  -5   3 1013.55 19.5633   3
   1  -5   3 982.716 20.7862   4
  -2  -5  -3 1129.83 22.1552   5
  -2  -5  -3 1135.27 25.1026   2
   2  -5   3 1112.74 21.7644   6
   2  -5   3 1110.10 23.2174   4
   2  -5   3 1123.88 22.0635   3
  -2   5  -3 1090.73 23.3449   5
  -3  -5  -3 1345.20 26.9136   5
   3  -5   3 1364.17 26.6834   6
  -3  -5  -3 1376.08 30.1667   2
   3  -5   3 1341.02 27.7174   4
   3  -5   3 1332.48 26.6878   3
  -3   5  -3 1382.91 28.1726   5
   4  -5   3 348.805 9.64408   3
   4  -5   3 340.881 9.21324   6
  -4  -5  -3 348.916 10.0806   5
  -4  -5  -3 355.989 11.6635   2
   4  -5   3 357.593 9.99729   4
  -4   5  -3 354.545 10.7362   5
  -5  -5  -3 71.2225 4.68243   5
   5  -5   3 81.4711 4.27873   6
   5  -5   3 74.0979 4.43875   3
   5  -5   3 71.6060 4.37776   4
  -5  -5  -3 69.9095 5.45988   2
  -5   5  -3 84.7680 5.16377   5
  -6  -5  -3 15.4221 3.03529   5
   6  -5   3 11.3078 2.46115   3
  -6  -5  -3 9.54002 2.96765   2
   6  -5   3 14.7068 2.58484   6
  -6   5  -3 18.1948 3.14449   5
  -7  -5  -3 75.4623 6.51897   2
   7  -5   3 77.1867 5.48960   3
  -7  -5  -3 71.0947 5.65755   5
  -7   5  -3 65.5828 5.53192   5
   9  -6  -3 2.46664 1.90100   6
   9  -6  -3 0.57970 1.77499   3
  -9  -6   3 -3.4825 1.87938   5
  -9  -6   3 2.85525 1.97600   1
  -9   6   3 2.54992 2.11126   1
  -8  -6   3 1.40141 1.98892   5
   8  -6  -3 1.35642 1.74899   3
  -8  -6   3 2.26896 1.60441   1
   8  -6  -3 0.94983 1.67778   6
  -8   6   3 0.02395 1.54529   1
   7  -6  -3 10.5136 2.24301   6
   7  -6  -3 9.03401 2.12114   3
  -7  -6   3 13.2207 2.27918   1
  -7  -6   3 9.93064 2.47610   5
  -7   6   3 10.1752 2.30078   1
  -6  -6   3 0.68456 1.23137   1
  -6  -6   3 7.00936 1.98983   5
   6  -6  -3 -2.1128 1.09158   3
   6  -6  -3 -0.3994 1.29641   6
  -6   6   3 -1.2305 1.28122   1
   5  -6  -3 19.2065 2.54764   6
   5  -6  -3 17.6462 2.39548   3
  -5  -6   3 22.5215 2.53275   1
  -5  -6   3 18.4736 2.63746   5
  -5   6   3 20.4016 2.81732   1
  -4  -6   3 7.40739 1.65594   1
   4  -6  -3 4.62913 1.54999   3
   4  -6  -3 5.15794 1.63369   6
  -4  -6   3 5.39065 1.10429   4
   4  -6  -3 7.90844 1.40657   2
   3  -6  -3 23.9836 2.65912   6
  -3  -6   3 29.1632 1.74626   3
  -3  -6   3 30.5238 2.16977   4
  -3  -6   3 28.0825 2.60912   1
   3  -6  -3 27.4447 2.78763   3
   2  -6  -3 69.7195 3.99009   6
  -2  -6   3 72.4224 2.82970   6
   2  -6  -3 81.3440 4.13661   3
  -2  -6   3 67.6292 3.27213   4
   2  -6  -3 73.2936 2.24277   5
  -2  -6   3 65.4024 2.63579   3
   2  -6  -3 67.2717 3.39646   2
   1  -6  -3 150.253 5.57806   2
   1  -6  -3 152.087 6.06197   6
  -1  -6   3 156.467 5.38704   4
  -1  -6   3 159.253 4.24781   6
  -1  -6   3 151.246 4.42642   3
   1  -6  -3 157.955 4.14931   5
   0  -6  -3 113.418 3.69798   5
   0  -6   3 105.624 3.72972   3
   0  -6  -3 117.509 5.04681   2
   0  -6   3 112.938 4.64321   4
   0  -6   3 103.693 3.24416   6
   1  -6   3 304.746 8.89057   4
   1  -6   3 310.028 7.26628   6
  -1  -6  -3 321.977 7.97519   5
  -1  -6  -3 323.978 9.89114   2
   1  -6   3 315.439 7.95350   3
   2  -6   3 246.018 7.97503   4
  -2  -6  -3 256.514 7.32485   5
   2  -6   3 250.227 7.15406   3
  -2  -6  -3 253.215 8.98791   2
   2  -6   3 257.881 6.53298   6
   3  -6   3 176.689 5.49262   6
   3  -6   3 172.601 6.07742   3
  -3  -6  -3 181.609 6.38799   5
   3  -6   3 177.899 6.71340   4
  -3  -6  -3 172.962 7.71548   2
  -3   6  -3 176.359 7.03806   5
  -4  -6  -3 234.186 9.55085   2
   4  -6   3 242.432 7.81577   3
   4  -6   3 247.923 7.49191   6
   4  -6   3 246.255 8.30664   4
  -4  -6  -3 241.271 8.14896   5
  -4   6  -3 250.003 8.96958   5
  -5  -6  -3 186.621 8.90976   2
  -5  -6  -3 200.010 7.82818   5
   5  -6   3 189.815 7.30905   3
   5  -6   3 191.885 7.49233   4
  -5   6  -3 205.851 8.41313   5
  -6  -6  -3 265.828 11.2638   2
  -6  -6  -3 264.729 9.85079   5
   6  -6   3 274.253 9.25857   4
   6  -6   3 253.850 9.21225   3
  -6   6  -3 271.366 10.4078   5
  -7  -6  -3 210.472 10.6946   2
  -7   6  -3 223.790 10.0123   5
   9  -7  -3 73.4942 5.58459   3
   9  -7  -3 76.7165 5.73833   6
  -8  -7   3 311.374 11.0372   5
  -8  -7   3 324.147 10.4385   1
   8  -7  -3 300.775 10.6013   6
   8  -7  -3 287.080 10.3048   3
   7  -7  -3 18.3968 2.86197   3
   7  -7  -3 18.3028 2.91816   6
  -7  -7   3 17.8564 3.00421   5
  -7  -7   3 22.0769 2.88825   1
  -6  -7   3 22.4157 2.78255   1
   6  -7  -3 24.3374 3.06089   6
  -6  -7   3 20.9111 3.01300   5
   6  -7  -3 21.1560 2.81940   3
   5  -7  -3 3.53205 1.60375   6
   5  -7  -3 5.23264 1.77740   3
  -5  -7   3 1.02409 1.33351   1
  -5  -7   3 3.34286 1.87181   5
   4  -7  -3 78.2918 4.64375   6
   4  -7  -3 76.5686 4.60484   3
  -4  -7   3 89.0390 4.57801   1
  -4  -7   3 82.3446 4.68363   5
  -4  -7   3 82.9322 3.43797   4
   3  -7  -3 162.583 6.57392   6
   3  -7  -3 163.409 5.62154   2
  -3  -7   3 164.554 6.33222   1
  -3  -7   3 169.003 5.46615   4
   3  -7  -3 160.584 6.57306   3
  -2  -7   3 236.464 7.88496   1
   2  -7  -3 225.415 8.09594   6
   2  -7  -3 230.981 7.95398   3
  -2  -7   3 234.301 6.21555   3
  -2  -7   3 242.004 7.15252   4
   2  -7  -3 240.951 7.33720   2
  -2  -7   3 242.289 6.51423   6
  -1  -7   3 14.3000 1.56936   6
   1  -7  -3 14.1996 2.15029   2
  -1  -7   3 15.4916 2.11733   4
   1  -7  -3 13.4491 1.44463   5
  -1  -7   3 11.6246 1.46161   3
   1  -7  -3 15.2840 2.49390   6
   0  -7   3 87.7870 4.49547   4
   0  -7  -3 89.5563 4.72090   2
   0  -7   3 88.3413 3.65638   3
   0  -7  -3 91.7957 3.58067   5
  -1  -7  -3 355.023 11.0024   2
   1  -7   3 348.719 8.99674   3
   1  -7   3 372.733 10.3423   4
  -1  -7  -3 350.809 8.89014   5
  -2  -7  -3 3.17840 1.36683   5
   2  -7   3 5.63681 1.83933   4
   2  -7   3 4.44329 1.44000   3
  -2  -7  -3 4.88851 1.99427   2
   3  -7   3 2.13922 1.45919   3
  -3  -7  -3 4.01292 1.64291   5
  -3  -7  -3 3.18888 2.18046   2
   3  -7   3 2.39602 1.70481   4
  -4  -7  -3 75.0592 4.61714   5
   4  -7   3 63.3983 4.58671   4
  -4  -7  -3 73.1599 5.65898   2
   4  -7   3 62.2821 4.09802   3
  -4   7  -3 72.8699 5.02351   5
   5  -7   3 7.98053 2.15364   3
  -5  -7  -3 2.56437 1.89823   5
   5  -7   3 7.11791 2.27484   4
  -5  -7  -3 3.03762 2.54813   2
  -5   7  -3 4.40583 2.14505   5
   6  -7   3 7.69181 2.49777   4
  -6  -7  -3 7.84801 3.27495   2
  -6  -7  -3 4.18218 2.30237   5
   6  -7   3 6.30034 2.28159   3
  -6   7  -3 7.62640 2.65386   5
   8  -8  -3 -0.3012 2.09284   4
   8  -8  -3 -0.9667 1.75814   6
  -8  -8   3 1.17273 2.11344   5
  -8  -8   3 1.04985 1.64641   1
   8  -8  -3 2.63909 2.24395   3
  -7  -8   3 100.764 6.14546   5
   7  -8  -3 100.993 5.92750   6
   7  -8  -3 97.8043 5.95675   3
  -7  -8   3 95.6900 5.49904   1
  -6  -8   3 19.8643 3.16467   5
  -6  -8   3 19.7877 2.78180   1
   6  -8  -3 17.5332 2.86005   3
   6  -8  -3 21.2625 3.19858   6
  -5  -8   3 30.4701 3.69094   5
   5  -8  -3 25.5870 3.31358   3
  -5  -8   3 20.7817 2.79608   1
   5  -8  -3 27.3973 3.43512   6
   4  -8  -3 4.32420 1.77424   6
  -4  -8   3 5.34755 1.40383   4
  -4  -8   3 4.36368 1.63253   1
   4  -8  -3 6.37806 2.03058   3
  -4  -8   3 5.02503 2.17478   5
   3  -8  -3 0.78755 1.40079   3
  -3  -8   3 0.29629 1.22635   1
   3  -8  -3 -0.3206 1.15819   2
  -3  -8   3 0.00386 1.04780   4
   3  -8  -3 16.6609 2.61312   6
   2  -8  -3 254.973 7.97354   2
   2  -8  -3 258.658 9.09662   6
   2  -8  -3 261.009 8.93272   3
  -2  -8   3 245.108 8.62469   1
  -2  -8   3 251.966 7.88349   4
  -1  -8   3 115.269 5.73524   1
   1  -8  -3 119.644 6.03753   6
  -1  -8   3 114.895 5.19595   4
  -1  -8   3 113.842 4.35387   3
   1  -8  -3 119.452 5.34185   2
   0  -8  -3 292.835 10.0482   6
   0  -8  -3 295.733 7.64702   5
   0  -8   3 272.062 7.75647   3
   0  -8  -3 292.995 9.50190   2
   0  -8   3 291.554 9.10166   4
  -1  -8  -3 47.1577 4.21937   2
   1  -8   3 60.7105 3.41891   3
   1  -8   3 55.9986 4.07608   4
  -1  -8  -3 52.4428 3.20945   5
   2  -8   3 80.8524 4.17330   3
   2  -8   3 73.9472 4.81989   4
  -2  -8  -3 75.0304 4.13477   5
  -2  -8  -3 75.7764 5.39260   2
  -3  -8  -3 131.079 7.13975   2
   3  -8   3 130.849 6.47186   4
  -3  -8  -3 137.379 5.86826   5
   3  -8   3 134.846 5.69713   3
  -4  -8  -3 25.3161 4.07568   2
   4  -8   3 24.0212 3.00954   3
   4  -8   3 27.6418 3.46623   4
  -4  -8  -3 23.3452 3.16461   5
  -5  -8  -3 2.96453 2.15019   5
   5  -8   3 2.39068 2.17598   4
  -5  -8  -3 3.47500 2.78598   2
   5  -8   3 -1.2350 1.75902   3
  -6  -8  -3 7.02110 2.77805   5
   6  -8   3 6.63554 2.69978   4
  -6   8  -3 4.57025 2.57547   5
   8  -9  -3 68.4394 6.38162   4
  -7  -9   3 1.22080 2.09111   5
   7  -9  -3 1.99381 2.04434   6
   7  -9  -3 2.57206 2.04087   3
  -7  -9   3 -0.2026 1.55136   1
  -6  -9   3 80.5433 5.01312   1
  -6  -9   3 80.3674 5.65294   5
   6  -9  -3 85.3098 5.65191   6
   6  -9  -3 82.2223 5.51190   3
   5  -9  -3 11.8944 2.61318   3
   5  -9  -3 9.50168 2.28508   6
  -5  -9   3 10.0484 2.51068   5
  -5  -9   3 24.4456 3.20313   1
  -4  -9   3 63.1581 4.73270   5
  -4  -9   3 62.4920 4.38803   1
   4  -9  -3 66.3411 4.82013   3
   4  -9  -3 64.2610 4.70222   6
  -3  -9   3 6.62190 1.86211   1
   3  -9  -3 1.93168 1.64959   3
  -3  -9   3 6.39944 1.65205   4
   3  -9  -3 8.43884 2.29189   6
   2  -9  -3 198.823 7.11098   2
  -2  -9   3 187.719 6.99619   4
   2  -9  -3 202.065 8.19363   3
  -2  -9   3 198.526 7.87425   1
   2  -9  -3 204.323 8.28920   6
   1  -9  -3 10.1549 2.07305   2
  -1  -9   3 12.4080 2.41658   1
   1  -9  -3 13.2224 2.57058   6
  -1  -9   3 14.2215 2.44279   4
   1  -9  -3 17.6031 2.85972   3
   0  -9   3 264.587 7.86606   3
   0  -9  -3 281.277 9.57355   2
   0  -9  -3 276.102 10.2101   6
   0  -9   3 267.331 9.10114   4
   1  -9   3 33.2643 2.93318   3
   1  -9   3 33.5842 3.57398   4
  -1  -9  -3 34.8113 4.02319   2
   2  -9   3 198.923 7.00002   3
   2  -9   3 192.917 8.02313   4
  -2  -9  -3 191.608 6.92677   5
  -2  -9  -3 199.225 8.84054   2
   3  -9   3 30.7019 3.31865   3
  -3  -9  -3 29.8605 4.20163   2
  -3  -9  -3 33.6413 3.38580   5
   3  -9   3 37.8059 4.13168   4
  -4  -9  -3 65.3413 4.78097   5
   4  -9   3 63.6791 5.28742   4
   4  -9   3 64.7168 4.67127   3
  -4  -9  -3 64.9237 6.49012   2
   5  -9   3 6.02412 2.34936   3
  -5  -9  -3 -1.8019 1.93518   5
   5  -9   3 -0.9008 2.03702   4
   7 -10  -3 36.6024 4.54534   6
   6 -10  -3 37.7679 4.43042   3
  -6 -10   3 28.5352 3.87631   5
   6 -10  -3 46.6434 4.82811   6
  -6 -10   3 33.5843 3.85031   1
   5 -10  -3 23.6223 3.46117   3
  -5 -10   3 29.5342 3.64700   1
  -5 -10   3 30.5594 4.07459   5
   5 -10  -3 29.0879 3.93068   6
   4 -10  -3 18.7694 3.16806   3
  -4 -10   3 17.9275 2.92716   1
   4 -10  -3 14.7616 2.87360   6
  -4 -10   3 16.6536 3.20009   5
  -3 -10   3 19.0523 2.65758   4
  -3 -10   3 23.1217 3.11431   1
   3 -10  -3 14.2196 2.89612   6
   3 -10  -3 19.5060 3.11450   3
  -2 -10   3 40.6268 3.81153   4
  -2 -10   3 40.4887 3.98780   1
   2 -10  -3 39.2319 4.23087   3
   2 -10  -3 37.2706 4.20407   6
  -1 -10   3 49.1894 4.37114   1
  -1 -10   3 48.5282 4.09302   4
   1 -10  -3 48.5620 4.38376   3
   1 -10  -3 48.3898 4.67743   6
   1 -10  -3 45.1645 3.90997   2
   0 -10  -3 74.8252 5.17830   2
   0 -10  -3 77.0118 5.58059   6
   0 -10   3 84.4494 5.28414   4
   1 -10   3 34.8519 3.31425   3
   1 -10   3 28.2290 3.65061   4
  -1 -10  -3 22.6314 3.56510   6
  -1 -10  -3 28.2410 3.76063   2
   2 -10   3 281.947 9.08344   3
   2 -10   3 285.556 10.5218   4
  -2 -10  -3 290.729 11.3927   2
  -3 -10  -3 200.671 9.90892   2
   3 -10   3 217.164 9.28898   4
   3 -10   3 221.087 8.13285   3
   4 -10   3 57.7171 5.42439   4
  -4 -10  -3 57.5444 4.72141   5
   4 -10   3 49.7236 4.62895   3
  -4 -10  -3 51.7642 5.90180   2
  -5 -10  -3 178.583 9.46861   5
  -6 -11   3 80.3686 5.57506   1
   6 -11  -3 86.5529 6.46262   6
  -5 -11   3 9.37263 2.95504   5
   5 -11  -3 11.5031 2.86887   3
   5 -11  -3 10.4636 2.83826   6
  -5 -11   3 11.3951 2.76369   1
   4 -11  -3 265.283 10.6086   6
  -4 -11   3 278.478 10.7044   5
  -4 -11   3 283.058 10.3384   1
   4 -11  -3 266.180 10.7515   3
   3 -11  -3 400.658 13.5061   3
   3 -11  -3 414.336 13.8284   6
  -3 -11   3 410.091 13.0929   1
  -2 -11   3 846.589 22.0349   1
   2 -11  -3 857.807 22.7111   6
   2 -11  -3 861.162 22.2228   3
  -2 -11   3 875.236 20.6979   4
   1 -11  -3 447.648 14.6666   6
   1 -11  -3 442.422 14.2370   3
  -1 -11   3 413.306 13.8117   1
  -1 -11   3 437.339 13.1287   4
   0 -11  -3 245.239 10.5473   6
   0 -11   3 249.493 9.64007   4
   0 -11  -3 235.798 9.51737   2
   0 -11  -3 248.787 10.1017   3
  -1 -11  -3 136.189 7.45270   2
   1 -11   3 144.384 7.48334   4
  -1 -11  -3 139.953 8.16401   6
  -2 -11  -3 181.515 9.45022   6
   2 -11   3 193.583 8.78800   4
  -2 -11  -3 165.473 9.05790   2
   3 -11   3 328.082 10.7079   3
  -3 -11  -3 323.410 13.2522   2
  -5 -12   3 92.8345 6.08377   1
   4 -12  -3 16.2096 3.41668   6
  -4 -12   3 18.2897 3.41191   1
  -4 -12   3 14.1425 3.43372   5
   3 -12  -3 9.16930 3.05387   3
  -3 -12   3 6.24238 2.58061   5
   3 -12  -3 16.6591 3.68310   6
  -3 -12   3 9.80077 2.67587   1
  -2 -12   3 8.60740 2.70325   1
   2 -12  -3 9.87579 2.90757   6
   2 -12  -3 5.93454 2.62128   3
  -2 -12   3 7.22089 2.44595   4
  -1 -12   3 41.9218 4.53674   4
  -1 -12   3 46.1275 5.08370   1
   1 -12  -3 47.0769 5.49603   6
   1 -12  -3 47.6607 5.36914   3
   0 -12  -3 143.474 8.43794   6
   0 -12  -3 140.972 8.04919   3
   0 -12   3 153.059 7.78021   4
   0 -12   3 154.142 8.37342   1
  -1 -12  -3 194.482 10.1004   6
  -1 -12  -3 193.875 9.31772   2
  -1 -12  -3 193.777 9.58077   3
   1 -12   3 202.504 9.56623   4
  -2 -12  -3 370.193 14.9200   2
 -10   0   4 91.9199 6.00526   1
  10   0  -4 78.3791 5.61728   6
  -9   0   4 91.6133 5.48852   1
  -9   0   4 81.9307 4.72618   5
   9   0  -4 86.3359 5.17664   6
   8   0  -4 645.540 14.4285   3
   8   0  -4 641.776 16.0323   6
  -8   0   4 678.071 14.9585   5
  -8   0   4 658.161 16.6698   1
   7   0  -4 509.760 11.4578   3
   7   0  -4 525.668 12.9164   6
  -7   0   4 524.986 11.9391   5
  -7   0   4 529.296 13.5021   1
   6   0  -4 185.268 5.03500   3
   6   0  -4 183.279 5.91817   6
  -6   0   4 190.006 6.33851   1
  -6   0   4 186.097 5.45062   5
  -5   0   4 505.036 12.3102   1
  -5   0   4 528.372 11.3285   4
  -5   0   4 537.297 11.1697   5
   5   0  -4 531.725 10.6741   3
   5   0  -4 515.980 12.7244   2
   5   0  -4 525.916 11.7956   6
   4   0  -4 2320.88 40.5279   3
  -4   0   4 2303.49 42.0222   4
  -4   0   4 2241.02 43.5523   1
   4   0  -4 2233.81 44.3494   2
   4   0  -4 2301.97 42.4615   6
   3   0  -4 1495.88 26.0424   3
   3   0  -4 1405.26 28.7279   2
  -3   0   4 1404.36 27.9084   1
   3   0  -4 1438.18 27.1967   6
  -3   0   4 1445.95 27.3198   4
  -2   0   4 256.293 5.98118   1
   2   0  -4 224.232 6.61589   2
  -2   0   4 230.662 6.15468   4
   2   0  -4 245.371 5.75575   6
   1   0  -4 54.8995 2.48934   5
   1   0  -4 58.3291 3.01876   2
  -1   0   4 61.1513 2.22665   1
  -1   0   4 57.7603 2.76138   4
   0   0   4 8.98041 0.94079   1
   0   0   4 9.96332 1.24021   3
   0   0   4 8.65973 1.28309   4
   0   0  -4 14.1046 1.79052   2
   0   0  -4 7.31041 1.20150   5
   1   0   4 880.206 18.0300   4
  -1   0  -4 884.658 18.8535   2
  -1   0  -4 869.490 17.8804   5
   1   0   4 899.507 17.6705   3
  -2   0  -4 4.98365 1.28947   2
   2   0   4 1.65022 0.94500   3
  -2   0  -4 0.61221 1.05804   5
   3   0   4 556.241 12.4837   4
  -3   0  -4 547.532 13.2873   5
  -3   0  -4 531.276 13.1390   2
   3   0   4 553.765 12.9025   3
  -4   0  -4 165.594 6.09332   2
  -4   0  -4 162.030 6.53521   5
   4   0   4 156.973 6.08223   3
   4   0   4 168.540 5.62777   4
  -5   0  -4 402.308 12.0085   5
   5   0   4 417.871 11.7051   3
  -6   0  -4 2.35779 1.99188   5
   6   0   4 -1.0364 1.42112   3
   7   0   4 423.897 13.4575   3
  -7   0  -4 435.886 14.0383   5
 -11  -1   4 1.19334 2.12359   1
 -10  -1   4 489.484 14.8997   1
  10  -1  -4 465.834 14.3492   6
 -10   1   4 480.347 15.1021   1
  10   1  -4 505.587 14.8222   6
   9  -1  -4 150.202 5.91639   3
  -9  -1   4 154.648 6.39765   5
   9  -1  -4 146.096 6.74309   6
  -9  -1   4 153.512 7.02798   1
  -9   1   4 149.508 7.12335   1
   9   1  -4 151.644 6.83227   6
  -8  -1   4 693.100 17.1029   1
   8  -1  -4 674.666 15.0426   3
  -8  -1   4 672.385 15.5519   5
   8  -1  -4 681.884 16.5763   6
   8   1  -4 667.110 16.4885   6
  -8   1   4 686.073 17.3657   1
  -7  -1   4 181.541 6.67827   1
   7  -1  -4 168.148 5.47728   3
   7  -1  -4 169.337 6.26606   6
  -7  -1   4 175.190 5.91879   5
  -7   1   4 215.441 7.19893   1
   7   1  -4 177.513 5.19673   3
  -7   1   4 180.455 5.45600   5
   7   1  -4 173.014 6.20785   6
  -6  -1   4 1141.47 24.4424   1
   6  -1  -4 1172.80 22.3509   3
  -6  -1   4 1155.74 22.7426   5
   6  -1  -4 1161.92 24.7393   2
   6  -1  -4 1166.44 23.8762   6
  -6   1   4 1148.98 24.5775   1
   6   1  -4 1146.91 23.5118   6
  -6   1   4 1134.47 21.8001   5
   6   1  -4 1160.74 21.6465   3
  -5  -1   4 2594.42 47.4203   4
  -5  -1   4 2607.91 46.8761   5
   5  -1  -4 2613.10 48.9103   6
  -5  -1   4 2524.66 49.8487   1
   5  -1  -4 2586.48 46.7625   3
   5  -1  -4 2581.61 50.3711   2
  -5   1   4 2646.28 45.8690   5
   5   1  -4 2613.93 45.7887   3
  -5   1   4 2606.11 49.9965   1
   5   1  -4 2601.82 48.4481   6
   5   1  -4 2643.69 51.1298   2
  -4  -1   4 3603.91 66.3202   4
   4  -1  -4 3671.38 67.6015   6
  -4  -1   4 3611.42 68.8226   1
   4  -1  -4 3576.56 69.4575   2
   4  -1  -4 3772.67 65.1342   3
  -4   1   4 3619.41 68.6632   1
   4   1  -4 3665.71 66.8668   6
  -4   1   4 3720.89 66.7740   4
   4   1  -4 3716.97 70.0601   2
  -4   1   4 3771.97 63.7700   5
   4   1  -4 3775.69 63.8158   3
  -3  -1   4 3261.93 61.5784   1
   3  -1  -4 3286.30 60.6239   6
  -3  -1   4 3408.03 60.0227   4
   3  -1  -4 3230.56 62.5095   2
   3  -1  -4 3364.75 58.4988   3
   3   1  -4 3186.24 59.5923   6
  -3   1   4 3229.59 61.3139   1
   3   1  -4 3286.41 62.7203   2
  -3   1   4 3333.77 60.0343   4
   3   1  -4 3455.79 57.2527   3
  -1  -1   4 30.7014 1.54898   3
   1  -1  -4 30.5133 1.75184   5
  -1  -1   4 32.4222 1.78495   1
  -1  -1   4 29.7973 2.03139   4
   1  -1  -4 30.2110 2.33495   2
   1   1  -4 28.4992 2.12391   2
   1   1  -4 27.0674 1.94686   5
  -1   1   4 29.3088 1.36341   1
  -1   1   4 29.9021 1.95424   4
   0  -1  -4 143.483 5.00711   2
   0  -1  -4 150.609 4.46919   5
   0  -1   4 157.650 4.23601   3
   0  -1   4 147.708 4.30157   1
   0  -1   4 150.568 4.63065   4
   0   1  -4 149.689 4.75427   5
   0   1   4 161.702 3.46577   1
   0   1  -4 151.024 4.98763   2
   0   1   4 150.054 4.65971   4
   1  -1   4 1004.17 19.4000   3
   1  -1   4 997.896 19.9000   4
  -1  -1  -4 983.450 19.6747   5
  -1  -1  -4 983.343 21.0702   2
   1   1   4 1024.28 18.6504   1
   1   1   4 970.744 19.9271   4
   1   1   4 997.427 19.8470   3
  -1   1  -4 995.101 20.7620   2
  -1   1  -4 993.440 20.0428   5
  -2  -1  -4 1396.59 28.9438   2
   2  -1   4 1436.01 27.3749   4
  -2  -1  -4 1321.17 27.1153   5
   2  -1   4 1431.96 27.0870   3
   2   1   4 1444.48 27.4801   3
   2   1   4 1420.28 27.3977   4
  -2   1  -4 1399.23 28.3420   2
  -2   1  -4 1407.24 27.6730   5
  -3  -1  -4 354.221 9.70346   5
  -3  -1  -4 362.681 10.0009   2
   3  -1   4 351.709 8.97733   4
   3  -1   4 358.428 9.34427   3
   3   1   4 365.563 9.66400   3
  -3   1  -4 350.294 9.86137   5
  -3   1  -4 358.842 9.39461   2
   3   1   4 372.528 9.02261   4
   4  -1   4 69.1377 3.91959   3
   4  -1   4 67.5815 3.80578   6
  -4  -1  -4 69.8748 4.25228   5
  -4  -1  -4 63.4627 4.05546   2
   4  -1   4 72.0305 3.55583   4
   4   1   4 69.4081 4.04362   3
  -4   1  -4 58.2769 4.10481   5
   5  -1   4 19.5684 2.64829   6
  -5  -1  -4 21.3373 2.90229   5
  -5  -1  -4 23.1425 2.96766   2
   5  -1   4 29.4039 3.18191   3
   5   1   4 25.7074 3.07042   3
  -5   1  -4 19.5685 2.84644   5
  -6  -1  -4 103.767 6.00034   5
   6  -1   4 95.2870 5.57185   3
  -6   1  -4 101.698 6.06567   5
   6   1   4 95.9268 5.65230   3
  -7  -1  -4 94.9548 6.56002   5
   7  -1   4 98.1611 6.17385   3
   7   1   4 88.7863 6.06149   3
  -7   1  -4 99.7610 6.63927   5
  10  -2  -4 108.175 6.36473   6
 -10  -2   4 116.296 6.54940   1
 -10  -2   4 104.998 5.99125   5
 -10   2   4 120.872 6.99508   1
  10   2  -4 115.907 6.64224   6
   9  -2  -4 460.792 12.1165   3
  -9  -2   4 494.433 13.0138   5
   9  -2  -4 451.048 13.3100   6
  -9  -2   4 468.971 13.6760   1
  -9   2   4 466.429 14.2038   1
   9   2  -4 475.976 13.5203   6
   8  -2  -4 223.345 7.06847   3
  -8  -2   4 222.175 8.03510   1
   8  -2  -4 224.324 7.91252   6
  -8  -2   4 224.040 7.59096   5
   8   2  -4 217.663 7.78707   6
  -8   2   4 226.739 8.42975   1
  -7  -2   4 1306.47 26.2314   5
  -7  -2   4 1295.86 27.8416   1
   7  -2  -4 1292.86 27.2693   6
   7  -2  -4 1314.13 25.7444   3
  -7   2   4 1298.60 28.2312   1
   7   2  -4 1303.32 27.0322   6
  -6  -2   4 4.65624 1.33722   5
   6  -2  -4 5.97456 1.27284   3
   6  -2  -4 8.53105 1.70663   6
  -6  -2   4 3.34346 1.21167   1
  -6  -2   4 6.88809 0.97792   4
  -6   2   4 6.75819 1.10003   5
   6   2  -4 7.82062 1.05485   3
  -6   2   4 6.58265 1.54272   1
   6   2  -4 6.08151 1.36685   6
   5  -2  -4 236.215 6.80471   2
   5  -2  -4 211.758 6.59916   6
   5  -2  -4 221.618 6.22456   3
  -5  -2   4 226.396 5.63506   4
  -5  -2   4 224.390 6.84484   1
  -5  -2   4 224.901 6.57994   5
  -5   2   4 221.502 6.81857   1
   5   2  -4 227.075 6.11587   6
  -5   2   4 232.530 5.09570   5
   5   2  -4 223.983 4.80883   3
  -4  -2   4 410.907 9.16103   4
   4  -2  -4 405.462 9.91716   6
   4  -2  -4 403.594 9.37894   3
  -4  -2   4 409.852 10.0480   1
   4  -2  -4 398.860 9.90576   2
   4   2  -4 403.199 8.82282   6
  -4   2   4 413.010 9.89629   1
  -4   2   4 418.850 7.72236   5
   3  -2  -4 55.0408 2.63801   3
  -3  -2   4 72.6231 2.84662   4
  -3  -2   4 52.8603 2.65938   1
   3  -2  -4 58.8666 2.88057   6
   3  -2  -4 55.2367 2.94356   2
   3   2  -4 56.1046 1.88036   6
  -3   2   4 61.5687 2.61186   1
  -3   2   4 62.0200 2.83323   4
   2  -2  -4 10.5719 1.43171   6
   2  -2  -4 12.7007 0.96592   5
  -2  -2   4 12.7884 1.42712   4
  -2  -2   4 10.4756 1.25576   1
   2  -2  -4 13.5089 1.76115   2
  -2   2   4 11.9112 1.38853   4
   2   2  -4 9.81323 1.41573   2
  -2   2   4 12.3616 1.11845   1
   1  -2  -4 511.859 10.2437   5
  -1  -2   4 511.810 11.4044   1
   1  -2  -4 527.973 12.1340   2
  -1  -2   4 508.418 11.0871   4
  -1  -2   4 517.239 9.98024   3
   1   2  -4 486.963 11.5919   2
  -1   2   4 530.934 10.1607   1
   0  -2  -4 140.001 4.13153   5
   0  -2   4 144.151 4.38253   4
   0  -2   4 137.190 3.81305   3
   0  -2  -4 130.892 4.88651   2
   0   2  -4 138.509 4.76769   5
   0   2   4 145.511 4.44804   4
   0   2  -4 128.637 4.42629   2
   1  -2   4 1824.35 34.7221   4
  -1  -2  -4 1864.92 36.8912   2
   1  -2   4 1873.94 33.8624   3
  -1  -2  -4 1850.27 34.0093   5
   1   2   4 1746.83 34.6306   4
  -1   2  -4 1864.35 34.8298   5
  -1   2  -4 1875.28 36.0812   2
   2  -2   4 271.810 7.16366   4
  -2  -2  -4 261.364 8.12459   2
  -2  -2  -4 271.320 7.52340   5
   2  -2   4 266.282 7.10590   3
   2  -2   4 268.548 6.88372   6
  -2   2  -4 268.669 7.30662   2
   2   2   4 253.667 6.86630   4
  -2   2  -4 262.613 7.88337   5
   3  -2   4 362.759 9.40506   3
   3  -2   4 375.413 9.24304   4
  -3  -2  -4 370.516 10.5500   2
  -3  -2  -4 362.038 9.86781   5
   3  -2   4 359.565 9.24719   6
   3   2   4 364.652 8.86417   4
   3   2   4 367.249 9.99360   3
  -3   2  -4 373.059 9.40585   2
  -3   2  -4 351.930 10.1511   5
   4  -2   4 122.937 5.23017   3
  -4  -2  -4 129.083 5.92362   2
   4  -2   4 138.013 5.34064   6
  -4  -2  -4 124.020 5.64967   5
   4  -2   4 131.220 4.92982   4
  -4   2  -4 123.834 5.83851   5
   4   2   4 126.613 5.65974   3
   5  -2   4 138.444 5.99413   3
  -5  -2  -4 142.669 6.51368   5
  -5  -2  -4 140.814 6.62550   2
   5  -2   4 142.702 6.04817   6
  -5   2  -4 144.870 6.73844   5
   5   2   4 134.474 6.29701   3
   6  -2   4 287.562 9.93004   3
  -6  -2  -4 294.586 10.4756   5
   6  -2   4 312.618 10.1992   6
  -6   2  -4 294.187 10.6657   5
   6   2   4 295.579 10.4498   3
  -7  -2  -4 137.040 7.53947   5
   7  -2   4 131.225 7.14443   3
   7  -2   4 135.450 7.02205   6
   7   2   4 131.428 7.35254   3
  -7   2  -4 134.202 7.62242   5
 -11  -3   4 2.15622 2.69984   5
  10  -3  -4 -0.7846 1.47118   3
 -10  -3   4 -1.9352 1.75537   5
  10  -3  -4 -4.1970 1.43024   6
 -10  -3   4 5.97444 2.34815   1
 -10   3   4 0.00446 1.75468   1
  10   3  -4 -0.5643 1.92932   6
   9  -3  -4 148.605 6.28810   3
   9  -3  -4 156.394 7.10966   6
  -9  -3   4 161.009 7.17401   1
  -9  -3   4 158.603 6.90541   5
  -9   3   4 161.105 7.60049   1
   9   3  -4 161.991 7.29312   6
   8  -3  -4 53.3433 4.07599   6
  -8  -3   4 63.5039 4.18061   5
  -8  -3   4 63.5985 4.24197   1
   8  -3  -4 62.8927 3.87198   3
  -8   3   4 55.9599 4.36770   1
   8   3  -4 65.9037 4.20620   6
  -7  -3   4 285.819 9.05587   1
   7  -3  -4 296.109 8.36898   3
   7  -3  -4 296.605 8.58893   2
  -7  -3   4 284.280 8.79090   5
   7  -3  -4 285.558 8.97195   6
  -7   3   4 301.253 9.65397   1
   7   3  -4 294.385 8.73762   6
   6  -3  -4 125.547 4.77682   3
   6  -3  -4 115.084 5.03124   6
  -6  -3   4 113.538 4.99998   5
  -6  -3   4 115.257 4.99681   1
   6  -3  -4 125.263 4.76420   2
   6   3  -4 117.750 4.57858   6
  -6   3   4 126.176 5.36542   1
  -5  -3   4 739.361 14.5630   4
   5  -3  -4 737.926 15.9234   2
   5  -3  -4 695.650 15.4459   3
  -5  -3   4 725.505 15.8654   5
   5  -3  -4 722.518 16.2734   6
  -5  -3   4 704.867 16.3104   1
   5   3  -4 703.310 15.0783   6
  -5   3   4 717.444 16.3819   1
  -4  -3   4 671.293 15.1535   1
   4  -3  -4 689.844 15.2464   6
  -4  -3   4 670.875 13.9502   4
   4  -3  -4 689.624 15.0307   2
   4  -3  -4 672.237 14.5905   3
  -4   3   4 669.997 14.9756   1
   4   3  -4 663.194 13.6273   6
   3  -3  -4 2723.39 50.7678   2
  -3  -3   4 2675.45 48.1487   4
  -3  -3   4 2628.42 50.1101   1
   3  -3  -4 2574.04 47.9804   3
  -3   3   4 2614.14 49.5129   1
   3   3  -4 2590.60 47.3732   6
   3   3  -4 2583.86 51.0512   2
   2  -3  -4 1245.32 25.5524   2
   2  -3  -4 1227.38 25.1283   6
  -2  -3   4 1197.95 24.9643   1
  -2  -3   4 1226.17 23.8705   4
   2  -3  -4 1248.53 21.8388   5
  -2   3   4 1295.35 24.1110   1
  -2   3   4 1257.96 24.5594   4
  -1  -3   4 1813.06 34.5661   4
  -1  -3   4 1872.37 32.7409   3
   1  -3  -4 1844.17 36.6229   2
  -1  -3   4 1836.77 35.9400   1
   1  -3  -4 1848.53 32.7107   5
  -1   3   4 1860.54 34.9762   4
   1   3  -4 1812.88 36.0496   2
  -1   3   4 1866.73 34.1346   1
   0  -3   4 131.799 3.67296   3
   0  -3  -4 119.044 4.83354   2
   0  -3  -4 129.722 3.90912   5
   0   3  -4 122.169 4.65905   5
   0   3   4 122.273 4.21058   4
   0   3  -4 123.912 4.20681   2
   1  -3   4 806.431 16.1081   3
  -1  -3  -4 820.062 16.4439   5
  -1  -3  -4 809.782 18.3766   2
   1  -3   4 794.212 16.8393   4
   1  -3   4 821.988 15.8288   6
  -1   3  -4 774.574 16.8382   2
  -1   3  -4 825.165 17.5792   5
   1   3   4 821.940 16.7586   4
   2  -3   4 24.2134 2.17593   3
   2  -3   4 23.2966 1.90702   6
  -2  -3  -4 24.6567 2.42505   5
   2  -3   4 22.7773 2.21833   4
  -2  -3  -4 23.5754 2.85866   2
  -2   3  -4 24.3573 2.64333   5
  -2   3  -4 23.3510 1.94081   2
   2   3   4 22.6333 1.88363   4
   3  -3   4 314.481 8.52852   4
  -3  -3  -4 316.624 9.95260   2
   3  -3   4 320.853 8.31098   6
  -3  -3  -4 306.085 8.92427   5
   3  -3   4 310.419 8.57948   3
  -3   3  -4 314.699 9.52541   5
   3   3   4 326.445 8.01261   4
  -4  -3  -4 -0.6384 1.37937   5
  -4  -3  -4 1.99026 1.87191   2
   4  -3   4 0.29424 1.28012   3
   4  -3   4 0.56210 1.24575   4
   4  -3   4 3.93349 1.50843   6
   4   3   4 2.57953 1.39361   3
  -4   3  -4 3.32254 1.59557   5
  -5  -3  -4 27.0032 3.59973   2
  -5  -3  -4 23.4816 3.15476   5
   5  -3   4 27.1435 3.12063   3
   5  -3   4 27.6474 3.01517   6
  -5   3  -4 21.7115 3.22117   5
   5   3   4 21.3670 2.93261   3
  -6  -3  -4 -1.4651 1.89453   5
   6  -3   4 -0.1470 1.63040   6
  -6  -3  -4 -1.0744 2.09720   2
   6  -3   4 1.03023 1.73182   3
   6   3   4 -0.7049 1.52815   3
  -6   3  -4 1.56905 2.01392   5
  -7   3  -4 -0.4448 2.06587   5
  10  -4  -4 2.01936 2.00343   6
 -10  -4   4 2.93791 2.06016   1
  10  -4  -4 1.24460 1.82280   3
 -10  -4   4 8.28920 2.73868   5
  10   4  -4 5.84338 2.45076   6
 -10   4   4 3.13427 2.30641   1
   9  -4  -4 27.1550 3.51096   6
   9  -4  -4 30.4576 3.37677   3
  -9  -4   4 36.1013 3.91217   1
  -9  -4   4 33.3769 3.78759   5
  -9   4   4 29.6973 3.97841   1
   9   4  -4 34.9208 3.93730   6
  -8  -4   4 1.36432 1.54470   1
   8  -4  -4 0.26629 1.46380   6
   8  -4  -4 2.26337 1.48769   3
  -8  -4   4 1.19638 1.62442   5
   8   4  -4 1.25722 1.39057   6
  -8   4   4 1.14080 1.55921   1
   7  -4  -4 47.9991 3.53248   3
   7  -4  -4 53.6900 3.83904   6
  -7  -4   4 52.3872 3.84763   5
  -7  -4   4 54.8364 3.65229   1
   7   4  -4 50.1203 3.43992   6
  -7   4   4 58.3672 4.16871   1
   6  -4  -4 37.5626 2.68538   2
   6  -4  -4 32.3834 3.05031   6
   6  -4  -4 33.7598 2.86044   3
  -6  -4   4 36.7494 3.40920   5
  -6  -4   4 32.0717 2.95371   1
   6   4  -4 33.2570 2.62528   6
  -6   4   4 35.8385 3.15262   1
  -5  -4   4 31.7528 2.87743   5
   5  -4  -4 30.9515 2.35820   2
  -5  -4   4 35.2698 2.09784   4
   5  -4  -4 27.4503 2.54725   3
  -5  -4   4 30.5657 2.68269   1
   5  -4  -4 31.3739 2.87643   6
  -5   4   4 34.8465 2.81351   1
   5   4  -4 32.2091 2.21959   6
   4  -4  -4 145.171 5.32520   3
  -4  -4   4 148.654 5.39273   1
   4  -4  -4 141.878 5.48094   6
   4  -4  -4 145.581 5.08260   2
  -4  -4   4 146.272 4.43465   4
  -4   4   4 147.073 5.22064   1
  -3  -4   4 947.125 20.0798   1
   3  -4  -4 907.420 19.4080   3
  -3  -4   4 933.581 18.5373   4
   3  -4  -4 945.273 20.1161   2
   3  -4  -4 912.104 20.1494   6
  -3   4   4 948.975 19.4385   1
   2  -4  -4 75.7931 3.83540   6
  -2  -4   4 84.5120 3.29460   4
  -2  -4   4 79.2564 2.06120   3
   2  -4  -4 81.5585 2.06255   5
   2  -4  -4 81.9571 3.80970   2
  -2   4   4 83.0314 3.05172   1
   2   4  -4 82.0919 3.80483   2
   1  -4  -4 95.8976 4.23796   2
  -1  -4   4 90.2136 3.60758   4
   1  -4  -4 90.5065 2.81363   5
  -1  -4   4 81.7600 3.88538   1
  -1  -4   4 88.8367 2.66193   3
  -1   4   4 92.5549 3.86641   4
   1   4  -4 88.7147 3.72458   2
   0  -4  -4 826.530 16.1971   5
   0  -4   4 842.497 16.0821   3
   0  -4  -4 821.307 18.7311   2
   0  -4   4 809.156 17.3271   4
   0  -4   4 852.486 15.4154   6
   0   4  -4 831.388 17.5476   2
   0   4   4 830.190 17.5229   4
  -1  -4  -4 14.3761 2.16442   2
   1  -4   4 18.8768 1.38212   6
   1  -4   4 17.6117 1.94642   4
  -1  -4  -4 19.2895 1.92561   5
   1  -4   4 15.6344 1.61658   3
   1   4   4 20.5651 1.88906   4
  -1   4  -4 15.4668 2.08819   5
  -1   4  -4 20.9724 1.75190   2
  -2  -4  -4 41.6937 3.77849   2
   2  -4   4 44.2830 3.08914   4
  -2  -4  -4 47.4717 3.10281   5
   2  -4   4 49.1540 2.86748   3
   2  -4   4 49.9833 2.51158   6
  -2   4  -4 47.3819 3.50742   5
   2   4   4 51.3595 2.79731   4
  -3  -4  -4 74.4164 4.83398   2
   3  -4   4 66.2212 3.85494   4
   3  -4   4 76.2286 3.49933   6
  -3  -4  -4 69.9513 4.06411   5
   3  -4   4 69.8679 3.74211   3
  -3   4  -4 70.5514 4.41406   5
  -4  -4  -4 7.42886 2.24209   2
   4  -4   4 10.2180 1.98907   4
   4  -4   4 10.3371 2.02487   3
  -4  -4  -4 11.1354 2.17614   5
   4  -4   4 14.9465 2.10358   6
  -4   4  -4 11.4914 2.42400   5
  -5  -4  -4 13.4726 2.97331   2
  -5  -4  -4 14.6409 2.67142   5
   5  -4   4 14.6310 2.37300   4
   5  -4   4 15.4726 2.52954   3
  -5   4  -4 13.1687 2.73575   5
  -6  -4  -4 37.0890 4.16910   5
   6  -4   4 47.5592 4.31446   3
  -6  -4  -4 44.8246 5.08068   2
  -6   4  -4 37.1280 4.38484   5
 -10  -5   4 51.1655 4.73262   1
 -10  -5   4 40.6380 4.85339   5
  10  -5  -4 42.2159 4.42915   3
   9  -5  -4 35.7156 3.75223   3
   9  -5  -4 38.8685 4.19153   6
  -9  -5   4 42.7370 4.47462   5
  -9  -5   4 35.0901 4.09092   1
  -9   5   4 38.7202 4.79534   1
   8  -5  -4 70.2621 4.77016   6
  -8  -5   4 71.3605 4.69130   1
   8  -5  -4 70.2460 4.48983   3
  -8  -5   4 62.4781 4.75547   5
  -8   5   4 65.6379 5.02855   1
   7  -5  -4 48.3804 3.83233   6
  -7  -5   4 45.3564 3.60430   1
  -7  -5   4 40.1083 3.72811   5
   7  -5  -4 48.3923 3.61479   3
  -7   5   4 45.2668 3.95789   1
   6  -5  -4 583.093 14.3720   3
   6  -5  -4 582.099 14.8483   6
  -6  -5   4 607.232 14.9480   1
  -6  -5   4 562.222 14.4935   5
  -6   5   4 588.379 15.2978   1
   5  -5  -4 960.037 19.7425   2
   5  -5  -4 900.226 20.7343   6
   5  -5  -4 897.514 20.1389   3
  -5  -5   4 922.178 20.6718   1
  -5  -5   4 910.645 20.3597   5
  -5  -5   4 938.540 18.5050   4
  -5   5   4 929.604 20.9606   1
   4  -5  -4 2163.11 42.9467   6
   4  -5  -4 2231.75 42.8250   2
   4  -5  -4 2187.10 41.7736   3
  -4  -5   4 2123.66 42.9861   1
  -4  -5   4 2170.87 40.3429   4
  -4   5   4 2179.78 42.9159   1
  -3  -5   4 736.355 15.4118   4
   3  -5  -4 739.830 16.7521   3
  -3  -5   4 739.485 16.9592   1
   3  -5  -4 748.130 16.7790   2
   3  -5  -4 742.249 17.3142   6
  -3   5   4 749.583 16.4124   1
  -2  -5   4 142.637 4.82945   4
   2  -5  -4 151.636 5.53229   2
  -2  -5   4 147.609 5.57626   1
   2  -5  -4 151.253 3.33999   5
   2  -5  -4 165.416 6.09839   6
  -2  -5   4 148.159 3.54490   3
   1  -5  -4 -0.4136 1.00050   2
  -1  -5   4 0.33781 0.90041   4
  -1  -5   4 1.45081 1.15274   1
   1  -5  -4 1.85879 1.18784   6
   1  -5  -4 0.47364 0.61598   5
   0  -5   4 36.6414 2.02066   3
   0  -5   4 33.2850 2.57274   4
   0  -5  -4 35.3534 2.15554   5
   0  -5  -4 30.6032 2.77397   2
   0   5  -4 32.5479 2.26826   2
  -1  -5  -4 591.702 12.7809   5
  -1  -5  -4 565.232 14.8990   2
   1  -5   4 595.842 12.5315   3
   1  -5   4 578.079 13.6199   4
  -1   5  -4 574.252 14.2804   5
   2  -5   4 252.887 7.82518   4
   2  -5   4 248.562 7.14508   3
  -2  -5  -4 261.379 9.09239   2
  -2  -5  -4 261.509 7.54705   5
  -2   5  -4 254.088 8.54940   5
   3  -5   4 141.595 5.73254   4
  -3  -5  -4 129.890 5.51840   5
   3  -5   4 140.272 5.35672   3
  -3  -5  -4 136.123 6.81248   2
  -3   5  -4 141.053 6.45598   5
   4  -5   4 18.5051 2.48429   3
   4  -5   4 22.3970 2.79581   4
  -4  -5  -4 13.5866 2.37850   5
  -4  -5  -4 17.4281 3.12966   2
  -4   5  -4 22.4495 3.35442   5
   5  -5   4 43.5520 3.95690   3
  -5  -5  -4 37.2037 3.85445   5
   5  -5   4 46.0405 3.88938   4
  -5  -5  -4 45.1728 4.84701   2
  -5   5  -4 46.2391 4.71111   5
  -6  -5  -4 0.49087 2.04804   5
  -6  -5  -4 0.45894 2.51716   2
   6  -5   4 1.22864 1.84028   3
  -6   5  -4 -0.2384 2.12255   5
 -10  -6   4 86.4877 5.88366   1
  -9  -6   4 194.301 8.58872   5
   9  -6  -4 192.054 8.44391   6
   9  -6  -4 186.641 7.95626   3
  -9  -6   4 197.289 8.34964   1
  -9   6   4 191.305 9.41179   1
  -8  -6   4 409.431 12.6452   5
   8  -6  -4 388.939 11.8595   3
   8  -6  -4 395.302 12.4505   6
  -8  -6   4 406.189 12.2490   1
  -8   6   4 421.877 13.7230   1
  -7  -6   4 666.477 17.1010   5
   7  -6  -4 658.798 17.0986   6
  -7  -6   4 680.495 17.1349   1
   7  -6  -4 676.272 16.6377   3
  -7   6   4 677.049 18.2513   1
  -6  -6   4 224.959 8.17162   5
  -6  -6   4 215.191 7.79490   1
   6  -6  -4 226.095 8.23257   6
   6  -6  -4 216.691 7.91245   3
  -6   6   4 228.177 8.46972   1
  -5  -6   4 12.2144 2.08444   1
   5  -6  -4 11.6117 2.14632   3
  -5  -6   4 11.0784 2.45192   5
   5  -6  -4 14.2146 1.89425   2
  -5  -6   4 14.3540 1.67207   4
   5  -6  -4 11.7764 2.22260   6
  -5   6   4 11.6739 2.15363   1
   4  -6  -4 374.663 10.9955   6
  -4  -6   4 385.758 10.7591   1
   4  -6  -4 380.090 10.0790   2
   4  -6  -4 374.361 10.7821   3
  -4  -6   4 380.722 9.07906   4
  -3  -6   4 80.8115 4.30521   1
   3  -6  -4 87.1034 4.18173   2
   3  -6  -4 90.5125 4.62392   3
   3  -6  -4 78.9509 4.52671   6
  -3  -6   4 84.1374 3.65671   4
  -2  -6   4 322.517 8.47152   4
  -2  -6   4 322.256 6.90829   3
  -2  -6   4 305.737 9.33150   1
   2  -6  -4 337.451 9.28164   2
   2  -6  -4 305.634 9.67655   6
  -1  -6   4 15.2915 1.93181   4
   1  -6  -4 10.8056 2.02266   6
  -1  -6   4 11.4606 1.95672   1
  -1  -6   4 15.0942 1.41167   3
   1  -6  -4 14.6283 2.25355   2
   1  -6  -4 16.1592 1.41697   5
   0  -6  -4 396.989 11.2855   2
   0  -6   4 402.426 10.4277   4
   0  -6   4 392.182 8.96753   3
   0  -6  -4 379.687 8.94046   5
  -1  -6  -4 584.128 12.8700   5
  -1  -6  -4 581.183 15.3421   2
   1  -6   4 559.760 13.9172   4
   1  -6   4 579.297 12.6552   3
   2  -6   4 461.813 12.1062   4
   2  -6   4 458.124 11.0349   3
  -2  -6  -4 448.758 13.3676   2
  -2  -6  -4 465.268 11.4573   5
  -2   6  -4 454.927 12.8654   5
  -3  -6  -4 385.244 12.6072   2
   3  -6   4 375.145 10.8738   4
  -3  -6  -4 382.201 10.6109   5
   3  -6   4 388.017 10.2974   3
  -3   6  -4 379.874 11.7942   5
  -4  -6  -4 44.2745 4.79123   2
   4  -6   4 54.8287 4.06727   4
  -4  -6  -4 61.1496 4.26586   5
   4  -6   4 60.9065 4.06353   3
  -4   6  -4 51.2895 4.52268   5
   5  -6   4 156.682 6.86012   4
  -5  -6  -4 156.498 7.22045   5
   5  -6   4 135.976 6.45489   3
  -5  -6  -4 157.322 8.40383   2
  -5   6  -4 160.029 7.98446   5
  -6  -6  -4 80.8481 5.80670   5
  -6  -6  -4 79.1225 6.86630   2
   6  -6   4 72.3358 5.28923   3
  -6   6  -4 82.8986 6.28899   5
  -9  -7   4 255.527 10.2979   5
  -9  -7   4 258.929 9.81672   1
   9  -7  -4 238.567 9.54255   3
   9  -7  -4 252.165 10.0917   6
  -8  -7   4 484.443 13.9735   1
  -8  -7   4 465.665 14.3317   5
   8  -7  -4 463.760 13.6703   3
   8  -7  -4 469.670 14.2004   6
  -7  -7   4 463.596 13.8641   5
   7  -7  -4 474.150 13.8367   6
   7  -7  -4 473.616 13.4199   3
  -7  -7   4 473.151 13.5671   1
  -6  -7   4 314.683 10.5618   5
   6  -7  -4 337.980 10.6286   3
  -6  -7   4 326.669 10.3757   1
   6  -7  -4 344.063 10.9226   6
  -5  -7   4 1882.49 39.0497   1
  -5  -7   4 1854.00 38.0837   5
   5  -7  -4 1909.23 39.2685   6
   5  -7  -4 1915.31 38.3694   3
   4  -7  -4 919.314 20.3451   2
   4  -7  -4 935.166 21.2360   3
  -4  -7   4 928.746 19.0420   4
   4  -7  -4 910.018 21.5750   6
  -4  -7   4 901.067 21.1795   1
   3  -7  -4 3167.97 60.4217   2
  -3  -7   4 3085.81 57.7463   4
  -3  -7   4 3036.57 60.6722   1
   3  -7  -4 3130.24 59.0874   3
   3  -7  -4 3139.08 60.9276   6
   2  -7  -4 131.217 5.50170   2
   2  -7  -4 133.472 6.28407   6
  -2  -7   4 140.027 6.03639   1
  -2  -7   4 125.673 5.06392   4
  -1  -7   4 631.380 14.8344   4
   1  -7  -4 621.532 15.6461   2
   1  -7  -4 626.118 16.3947   6
  -1  -7   4 603.633 15.7959   1
  -1  -7   4 637.998 13.0099   3
   0  -7  -4 18.4613 1.90510   5
   0  -7   4 11.6028 1.99602   4
   0  -7  -4 10.6130 2.28474   2
   0  -7   4 15.8795 1.78422   3
  -1  -7  -4 508.739 14.4829   2
  -1  -7  -4 516.279 11.9289   5
   1  -7   4 512.906 11.8483   3
   1  -7   4 513.005 13.3471   4
   2  -7   4 475.665 12.9771   4
   2  -7   4 483.257 11.7657   3
  -2  -7  -4 470.750 14.3239   2
  -2  -7  -4 496.936 12.1193   5
  -3  -7  -4 233.338 8.02841   5
   3  -7   4 236.973 8.44870   4
  -3  -7  -4 235.623 9.79814   2
   3  -7   4 230.494 7.60201   3
   4  -7   4 83.8726 4.85072   3
  -4  -7  -4 93.3002 5.33921   5
   4  -7   4 92.5101 5.43729   4
  -4  -7  -4 86.2622 6.49208   2
  -4   7  -4 90.3068 5.92539   5
   5  -7   4 8.69063 2.46654   4
  -5  -7  -4 5.92513 2.36905   5
   5  -7   4 5.00204 2.10954   3
  -5  -7  -4 4.38276 2.84941   2
  -5   7  -4 6.54942 2.65967   5
  -6   7  -4 40.2718 5.94421   5
  -9  -8   4 303.809 11.0713   1
   8  -8  -4 68.7138 5.36795   6
  -8  -8   4 65.6633 4.89805   1
   8  -8  -4 63.1705 5.26196   3
  -8  -8   4 66.1917 5.63646   5
  -7  -8   4 274.673 10.4322   5
  -7  -8   4 289.074 10.1635   1
   7  -8  -4 297.604 10.6371   6
   7  -8  -4 298.256 10.4790   3
  -6  -8   4 57.4475 4.53454   5
  -6  -8   4 63.6482 4.44633   1
   6  -8  -4 60.4911 4.78450   3
   6  -8  -4 63.8156 4.76930   6
  -5  -8   4 13.4916 2.51829   1
   5  -8  -4 13.5185 2.69659   3
   5  -8  -4 13.3874 2.60645   6
  -5  -8   4 14.9401 2.94035   5
   4  -8  -4 181.727 7.75654   6
   4  -8  -4 185.497 7.69884   3
  -4  -8   4 195.763 7.54516   1
  -4  -8   4 185.248 6.13185   4
  -3  -8   4 34.2122 2.93110   4
  -3  -8   4 36.2671 3.45792   1
   3  -8  -4 28.1207 3.34795   3
   3  -8  -4 39.6167 3.79535   6
   2  -8  -4 15.3700 2.36207   2
  -2  -8   4 20.0954 2.46575   4
   2  -8  -4 23.1535 2.95681   3
  -2  -8   4 18.8214 2.84590   1
   1  -8  -4 26.6565 3.32847   6
   1  -8  -4 29.9407 3.20266   2
  -1  -8   4 25.5528 3.24501   1
  -1  -8   4 30.3339 3.09114   4
   0  -8   4 265.967 7.40465   3
   0  -8  -4 285.205 10.2068   6
   0  -8   4 270.261 8.86371   4
   0  -8  -4 266.495 9.45125   2
   1  -8   4 237.581 7.09180   3
   1  -8   4 240.283 8.46158   4
  -1  -8  -4 221.986 8.99196   2
  -2  -8  -4 43.6047 3.36134   5
   2  -8   4 36.0802 3.70096   4
  -2  -8  -4 47.2074 4.63180   2
   2  -8   4 49.1314 3.47704   3
  -3  -8  -4 -0.9895 1.85883   2
   3  -8   4 -2.6983 1.66186   4
  -3  -8  -4 2.49296 1.63359   5
   3  -8   4 4.10236 1.83061   3
  -4  -8  -4 1.42922 1.93488   5
  -4  -8  -4 3.32442 2.68618   2
   4  -8   4 3.01725 2.07978   4
   4  -8   4 1.76110 1.77779   3
  -5  -8  -4 43.5419 4.71150   5
   5  -8   4 42.4576 4.57357   4
   5  -8   4 43.9823 4.47362   3
  -8  -9   4 252.159 9.87120   1
  -7  -9   4 221.456 9.65189   5
   7  -9  -4 237.589 9.69762   6
  -7  -9   4 230.411 9.17667   1
   7  -9  -4 230.977 9.50517   3
   6  -9  -4 145.749 7.42061   6
  -6  -9   4 140.925 6.78706   1
   6  -9  -4 134.718 7.08891   3
  -6  -9   4 143.002 7.33750   5
   5  -9  -4 155.080 7.44401   6
  -5  -9   4 142.977 6.80715   1
  -5  -9   4 151.454 7.47610   5
   5  -9  -4 152.952 7.50211   3
  -4  -9   4 403.750 11.5909   4
   4  -9  -4 408.358 12.8271   3
   4  -9  -4 409.830 12.9802   6
  -4  -9   4 398.723 12.3337   1
   3  -9  -4 572.197 15.9858   3
  -3  -9   4 586.190 14.2515   4
  -3  -9   4 561.929 15.6531   1
   3  -9  -4 590.639 16.5156   6
   2  -9  -4 421.240 12.1660   2
  -2  -9   4 429.471 12.9372   1
   2  -9  -4 409.295 13.2776   6
   2  -9  -4 421.947 13.0404   3
  -2  -9   4 424.510 11.7186   4
   1  -9  -4 409.064 12.2310   2
  -1  -9   4 407.469 12.7820   1
   1  -9  -4 399.869 13.1740   6
  -1  -9   4 404.744 11.7064   4
   0  -9   4 17.9471 2.79203   4
   0  -9  -4 12.8919 2.78997   6
   0  -9  -4 22.3807 3.32106   2
   1  -9   4 263.193 8.37985   3
   1  -9   4 269.641 9.52240   4
  -1  -9  -4 263.246 10.2937   2
   2  -9   4 25.9901 3.40845   4
  -2  -9  -4 29.5109 4.05133   2
   2  -9   4 34.1930 3.19913   3
  -3  -9  -4 313.320 12.3786   2
   3  -9   4 321.267 11.1434   4
  -3  -9  -4 330.314 11.3380   5
   3  -9   4 315.463 9.84737   3
  -4  -9  -4 79.0875 6.75346   2
   4  -9   4 90.4329 6.25047   4
  -4  -9  -4 86.9663 5.69860   5
   4  -9   4 83.9295 5.40499   3
  -7 -10   4 49.7142 4.74739   1
  -6 -10   4 -0.6544 2.09779   5
   6 -10  -4 -0.6275 1.73935   3
  -6 -10   4 0.61054 1.73484   1
   6 -10  -4 1.97412 2.07199   6
  -5 -10   4 19.4224 3.51908   5
  -5 -10   4 14.4432 2.76888   1
   5 -10  -4 22.4047 3.72096   6
   5 -10  -4 22.1816 3.54224   3
  -4 -10   4 57.2373 4.69060   1
   4 -10  -4 61.6448 5.09840   6
   4 -10  -4 61.6057 5.12373   3
   3 -10  -4 88.6068 5.91834   3
  -3 -10   4 87.2386 5.55768   1
   3 -10  -4 92.2623 6.06484   6
  -3 -10   4 79.4374 4.73875   4
   2 -10  -4 35.5482 4.28215   3
   2 -10  -4 22.7795 3.53886   6
  -2 -10   4 23.8110 3.40458   1
   2 -10  -4 29.6532 3.42204   2
  -2 -10   4 38.3387 3.76434   4
  -1 -10   4 76.2715 5.09846   4
   1 -10  -4 72.9333 5.80005   6
  -1 -10   4 71.5829 5.35621   1
   1 -10  -4 83.3864 5.42499   2
   1 -10  -4 73.5918 5.53741   3
   0 -10  -4 112.595 6.39197   2
   0 -10  -4 106.445 6.87379   6
   0 -10   4 117.450 6.25267   4
  -1 -10  -4 279.129 11.0394   2
   1 -10   4 300.055 10.4824   4
  -1 -10  -4 266.225 11.2493   6
  -2 -10  -4 8.83185 2.90835   2
   2 -10   4 10.3287 2.67700   4
   3 -10   4 61.0873 4.70204   3
  -3 -10  -4 64.2032 6.22117   2
   3 -10   4 75.2048 5.83004   4
   4 -10   4 6.24322 2.62401   3
  -6 -11   4 34.0341 4.26469   1
   5 -11  -4 59.6635 5.42771   3
  -5 -11   4 52.9789 5.52398   5
   5 -11  -4 59.4696 5.48905   6
  -5 -11   4 53.5114 4.92186   1
  -4 -11   4 60.5603 5.07472   1
   4 -11  -4 64.2603 5.50069   6
   4 -11  -4 51.0598 5.35923   3
  -4 -11   4 57.4048 5.33178   5
  -3 -11   4 275.223 10.6227   1
   3 -11  -4 272.387 11.1183   3
   3 -11  -4 293.148 11.5845   6
  -3 -11   4 287.215 9.58684   4
   2 -11  -4 329.190 12.3525   3
   2 -11  -4 332.477 12.5475   6
  -2 -11   4 303.589 11.5874   1
  -2 -11   4 338.867 10.9677   4
   1 -11  -4 359.548 13.5527   6
   1 -11  -4 374.468 13.2448   3
  -1 -11   4 369.124 11.9354   4
  -1 -11   4 349.489 12.7846   1
   1 -11  -4 387.224 12.4931   2
   0 -11  -4 339.243 12.1088   2
   0 -11  -4 333.672 13.0474   6
   0 -11   4 319.481 12.3250   1
   0 -11   4 334.752 11.5464   4
   1 -11   4 74.4607 5.80055   4
  -1 -11  -4 68.0770 6.93071   6
  -1 -11  -4 60.3723 5.66605   2
  -2 -11  -4 146.189 8.65157   2
  -2 -11  -4 143.433 9.49028   6
  -4 -12   4 106.105 7.02354   1
  -3 -12   4 19.6548 3.58254   1
   3 -12  -4 23.4543 4.25641   6
   2 -12  -4 33.9313 4.89837   6
  -2 -12   4 27.9235 4.19007   1
  -2 -12   4 34.7079 4.06149   4
   2 -12  -4 28.4476 4.27163   3
   1 -12  -4 0.48073 2.04368   3
  -1 -12   4 -0.5659 1.92412   4
   1 -12  -4 -1.6085 2.03718   6
  -1 -12   4 2.99847 2.48455   1
   0 -12  -4 0.74444 2.23941   3
   0 -12   4 -1.2037 2.13619   4
   0 -12  -4 0.38534 2.23230   2
  -1 -12  -4 4.53809 2.92131   2
  11   0  -5 0.03188 2.13687   6
 -10   0   5 -0.2375 1.67358   1
  10   0  -5 0.63855 1.73212   6
  -9   0   5 -1.0971 1.17924   1
   9   0  -5 -1.3873 1.30521   6
   8   0  -5 1.09643 1.31607   6
  -8   0   5 -1.7168 1.11158   1
   7   0  -5 1.68677 1.14211   6
  -7   0   5 0.15685 0.89659   5
  -7   0   5 -0.3644 1.01004   1
   6   0  -5 0.23837 1.10511   2
  -6   0   5 0.34146 0.91506   1
  -6   0   5 0.62391 0.83910   4
   6   0  -5 -0.2070 0.61102   3
  -6   0   5 3.74607 1.06279   5
   6   0  -5 -0.2139 0.87974   6
  -5   0   5 -0.3946 0.74878   1
   5   0  -5 1.63888 0.86558   6
  -5   0   5 0.19462 0.66758   4
   5   0  -5 0.98449 1.02989   2
   5   0  -5 0.25983 0.53777   3
  -5   0   5 0.87873 0.73827   5
   4   0  -5 0.55498 0.55808   3
   4   0  -5 -0.0664 0.88028   2
  -4   0   5 -0.3709 0.64285   1
  -4   0   5 0.16343 0.70221   4
   4   0  -5 0.27134 0.64327   6
   3   0  -5 0.96914 0.63178   6
  -3   0   5 6.04304 1.15222   4
  -3   0   5 0.74525 0.67028   1
   3   0  -5 1.37983 0.88165   2
   2   0  -5 0.84278 0.61669   6
   2   0  -5 0.35622 0.94646   2
  -2   0   5 0.76702 0.59174   1
  -2   0   5 -0.5763 0.61735   4
   1   0  -5 0.92120 0.80653   5
  -1   0   5 -0.1528 0.52356   1
  -1   0   5 -0.4161 0.72636   4
   1   0  -5 -0.2780 0.94112   2
   0   0   5 0.80384 0.56339   1
   0   0   5 0.60538 0.81192   4
   0   0   5 0.37148 0.74106   3
   0   0  -5 0.78702 0.88063   5
   0   0  -5 0.96061 1.03303   2
   1   0   5 0.15339 0.78350   3
   1   0   5 0.15200 0.93035   4
  -1   0  -5 -0.3700 1.02987   2
  -1   0  -5 -0.5246 0.84059   5
   1   0   5 0.52667 0.59017   1
  -2   0  -5 -0.2446 1.18879   2
   2   0   5 -0.8832 0.91738   4
   2   0   5 -0.7872 0.94029   3
  -2   0  -5 0.22848 1.22091   5
  -3   0  -5 0.37472 1.27373   2
   3   0   5 3.57551 1.37347   4
   3   0   5 0.95270 1.25538   3
  -3   0  -5 -1.6245 1.32077   5
  -4   0  -5 0.60295 1.53219   5
   4   0   5 0.00651 1.32421   3
   5   0   5 1.02528 1.61450   3
  -5   0  -5 1.67831 1.91438   5
   6   0   5 0.27434 1.75989   3
  -6   0  -5 -0.5052 1.81873   5
  11   1  -5 68.2284 5.63344   6
  10  -1  -5 3.39008 2.10169   6
 -10  -1   5 1.80239 1.95149   1
  10   1  -5 1.42880 2.02845   6
 -10   1   5 1.74876 2.05153   1
   9  -1  -5 40.9566 3.83554   6
  -9  -1   5 41.1987 3.60586   5
  -9  -1   5 46.9542 4.10976   1
  -9   1   5 41.4223 4.05594   1
   9   1  -5 50.7314 4.10968   6
  -8  -1   5 233.863 7.25539   5
   8  -1  -5 216.156 7.66388   6
  -8  -1   5 211.074 7.96357   1
   8   1  -5 214.810 7.51844   6
  -8   1   5 212.138 8.06117   1
   7  -1  -5 108.872 4.78374   6
   7  -1  -5 107.694 4.04751   3
   7  -1  -5 111.137 5.28545   2
  -7  -1   5 99.9478 4.43717   5
  -7  -1   5 100.294 4.95045   1
  -7   1   5 104.890 5.10793   1
   7   1  -5 103.731 4.54958   6
  -6  -1   5 76.0975 3.17421   4
  -6  -1   5 68.9617 3.84875   1
   6  -1  -5 72.2661 3.66926   6
  -6  -1   5 72.4208 3.51664   5
   6  -1  -5 75.7773 3.13995   3
   6  -1  -5 74.0715 4.13118   2
  -6   1   5 77.0465 2.97821   5
   6   1  -5 75.6198 4.41965   2
  -6   1   5 67.7266 3.81023   1
   6   1  -5 78.0853 3.50951   6
  -5  -1   5 1.31274 1.01594   1
   5  -1  -5 6.68672 1.31757   6
  -5  -1   5 1.10440 0.77174   4
   5  -1  -5 1.88079 0.82645   3
   5  -1  -5 1.01481 1.00290   2
   5   1  -5 -0.1806 0.98217   2
  -5   1   5 1.23241 0.93403   1
  -5   1   5 1.86781 0.71377   5
   5   1  -5 -0.1061 0.64539   6
  -5   1   5 0.76187 0.80997   4
   5   1  -5 0.57720 0.44196   3
  -4  -1   5 420.244 9.82029   4
  -4  -1   5 416.341 10.3041   1
   4  -1  -5 418.124 9.96065   6
   4  -1  -5 405.277 10.6867   2
   4  -1  -5 428.081 9.38369   3
   4   1  -5 417.589 11.0288   2
  -4   1   5 431.326 10.0921   4
   4   1  -5 442.288 8.18309   3
  -4   1   5 421.528 10.1336   1
   4   1  -5 421.437 9.20287   6
   3  -1  -5 22.0448 1.79572   6
   3  -1  -5 23.6105 2.25139   2
  -3  -1   5 23.2395 1.91986   4
  -3  -1   5 20.2540 1.74063   1
   3   1  -5 18.3844 2.05268   2
  -3   1   5 22.0132 1.88019   4
  -3   1   5 22.2712 1.62119   1
   3   1  -5 19.8433 1.30162   6
  -2  -1   5 1.00518 0.71910   1
   2  -1  -5 1.84499 0.72378   5
  -2  -1   5 0.86291 0.84137   4
   2  -1  -5 0.85057 0.70327   6
   2  -1  -5 1.97276 1.09452   2
   2   1  -5 0.57353 0.86443   2
  -2   1   5 1.00366 0.57882   1
   2   1  -5 1.10149 0.52958   6
  -2   1   5 2.83849 0.90582   4
  -1  -1   5 77.8261 3.48403   4
  -1  -1   5 81.7510 2.92403   3
   1  -1  -5 74.4244 3.73585   2
  -1  -1   5 82.2418 3.04905   1
   1  -1  -5 80.3147 3.16629   5
  -1   1   5 80.7499 2.51898   1
   1   1  -5 73.4675 3.65997   2
   1   1  -5 79.2884 3.48278   5
  -1   1   5 74.7598 3.33246   4
   0  -1  -5 182.927 6.26406   2
   0  -1  -5 178.791 5.50687   5
   0  -1   5 182.158 5.77722   4
   0  -1   5 181.058 5.20047   3
   0  -1   5 186.506 5.18314   1
   0   1   5 185.762 5.73097   4
   0   1   5 194.307 4.24055   1
   0   1  -5 177.293 6.07116   2
   0   1  -5 174.968 5.71465   5
  -1  -1  -5 727.258 15.8527   5
   1  -1   5 743.680 16.1285   4
   1  -1   5 738.483 15.4829   3
  -1  -1  -5 719.067 16.9605   2
  -1   1  -5 730.384 16.7755   2
  -1   1  -5 728.281 16.2083   5
   1   1   5 734.708 15.9640   4
   1   1   5 759.128 16.0498   3
   2  -1   5 556.693 13.1762   4
   2  -1   5 566.004 13.0176   3
  -2  -1  -5 542.932 13.9530   2
  -2  -1  -5 551.886 13.4126   5
  -2   1  -5 557.573 13.7345   5
   2   1   5 586.051 13.1550   4
  -2   1  -5 569.025 13.7559   2
   2   1   5 570.531 13.4406   3
   3  -1   5 365.111 10.0981   3
  -3  -1  -5 356.482 10.5240   5
  -3  -1  -5 372.051 10.8209   2
   3  -1   5 385.351 10.0725   4
  -3   1  -5 376.838 10.3299   2
   3   1   5 383.095 9.78674   4
   3   1   5 382.650 10.5073   3
  -3   1  -5 363.551 10.7883   5
  -4  -1  -5 40.6185 4.02890   5
   4  -1   5 40.5642 3.21158   4
   4  -1   5 30.7707 3.15236   3
  -4  -1  -5 34.5103 3.55044   2
   4   1   5 39.3616 3.49300   3
  -4   1  -5 32.6122 3.50532   5
  -5  -1  -5 21.3514 3.43839   5
   5  -1   5 21.1484 3.03525   3
  -5   1  -5 25.7846 3.75389   5
   5   1   5 20.4262 3.06245   3
   6  -1   5 43.3442 4.55254   3
  -6  -1  -5 39.3073 4.47984   5
  -6   1  -5 47.0883 5.17672   5
   6   1   5 42.0135 4.48002   3
  11   2  -5 121.600 7.34847   6
 -10  -2   5 1.36640 1.89563   1
 -10  -2   5 2.61685 1.99625   5
  10  -2  -5 1.39832 1.94495   6
 -10   2   5 -1.3747 1.91695   1
  10   2  -5 1.82968 1.95434   6
   9  -2  -5 195.580 7.81451   6
  -9  -2   5 195.507 7.49853   5
  -9  -2   5 193.668 8.05004   1
  -9   2   5 200.476 8.41754   1
   9   2  -5 191.133 7.71769   6
  -8  -2   5 0.03401 1.36225   5
  -8  -2   5 1.29145 1.23556   1
   8  -2  -5 1.04302 1.14557   3
   8  -2  -5 0.29404 1.34089   6
   8   2  -5 -0.5405 1.17643   6
  -8   2   5 1.01624 1.39708   1
  -7  -2   5 419.705 11.8220   1
  -7  -2   5 439.934 11.1653   5
   7  -2  -5 436.660 11.8871   2
   7  -2  -5 426.792 11.4789   6
   7  -2  -5 435.130 10.5193   3
  -7   2   5 425.467 12.0753   1
   7   2  -5 434.141 11.0827   6
   6  -2  -5 253.830 7.04235   3
  -6  -2   5 246.508 7.46682   5
   6  -2  -5 257.971 7.74197   6
  -6  -2   5 258.534 6.59865   4
  -6  -2   5 245.536 7.87021   1
   6  -2  -5 253.059 7.90960   2
   6   2  -5 250.860 7.05631   6
  -6   2   5 252.389 7.94265   1
  -5  -2   5 1257.19 26.5293   1
   5  -2  -5 1267.05 26.0576   6
  -5  -2   5 1266.98 24.8403   4
   5  -2  -5 1317.21 26.8672   2
   5  -2  -5 1287.59 24.9202   3
  -5   2   5 1272.66 26.4065   1
   5   2  -5 1287.43 24.8230   6
   5   2  -5 1273.96 27.7064   2
   4  -2  -5 1070.98 22.3417   6
   4  -2  -5 1050.27 23.0412   2
  -4  -2   5 1104.60 21.8172   4
   4  -2  -5 1085.80 21.4567   3
  -4  -2   5 1067.37 22.5911   1
  -4   2   5 1116.83 22.2786   4
   4   2  -5 1039.82 23.4985   2
   4   2  -5 1105.72 20.7459   6
  -4   2   5 1139.69 19.5301   5
  -4   2   5 1079.45 22.2785   1
   3  -2  -5 879.377 18.8673   6
   3  -2  -5 870.832 19.7575   2
  -3  -2   5 895.380 18.5762   4
  -3  -2   5 907.730 18.9995   1
  -3   2   5 907.336 18.3746   1
   3   2  -5 889.875 19.8266   2
   3   2  -5 908.764 16.7987   6
  -3   2   5 947.022 18.8877   4
  -2  -2   5 278.704 7.38429   4
   2  -2  -5 271.312 7.48689   6
   2  -2  -5 277.092 6.27232   5
  -2  -2   5 277.219 7.27302   1
   2  -2  -5 275.831 8.13684   2
  -2   2   5 264.486 7.30035   4
   2   2  -5 261.647 7.72959   2
  -2   2   5 274.126 6.41051   1
  -1  -2   5 139.500 4.52513   1
  -1  -2   5 135.357 3.79603   3
  -1  -2   5 139.335 4.70607   4
   1  -2  -5 126.712 5.12257   2
   1  -2  -5 132.916 4.08977   5
   1   2  -5 140.388 4.98874   5
   1   2  -5 127.089 4.77129   2
   1   2  -5 138.307 3.20560   6
  -1   2   5 137.513 3.33760   1
  -1   2   5 127.836 4.56964   4
   0  -2   5 95.9941 3.80365   1
   0  -2   5 103.633 3.53690   3
   0  -2   5 101.943 4.06587   4
   0  -2  -5 103.080 3.83897   5
   0  -2  -5 99.8578 4.58479   2
   0   2  -5 98.2477 4.27629   5
   0   2  -5 99.4479 4.17363   2
   0   2   5 96.4947 3.91167   4
  -1  -2  -5 345.418 8.98855   5
   1  -2   5 355.916 8.57947   3
   1  -2   5 347.284 8.96192   4
  -1  -2  -5 335.837 9.82999   2
   1   2   5 334.371 8.81883   4
  -1   2  -5 351.560 9.36595   2
  -1   2  -5 347.033 9.53657   5
  -2  -2  -5 3.59887 1.72098   2
   2  -2   5 0.38559 1.15263   3
   2  -2   5 2.59095 1.22431   4
  -2  -2  -5 2.96481 1.42826   5
   2   2   5 5.50723 1.52145   3
  -2   2  -5 5.84426 1.53797   2
  -2   2  -5 2.75679 1.55091   5
   2   2   5 3.45810 1.14779   4
   3  -2   5 3.47621 1.34993   4
  -3  -2  -5 5.63924 1.82161   5
   3  -2   5 0.36458 1.12718   3
  -3  -2  -5 4.26465 1.80543   2
   3   2   5 2.00220 1.40007   3
   3   2   5 2.05571 1.06659   4
  -3   2  -5 0.21869 1.48108   5
   4  -2   5 778.333 18.5654   3
   4  -2   5 818.818 18.3420   4
  -4  -2  -5 807.750 19.2149   5
  -4  -2  -5 810.646 20.0790   2
  -4   2  -5 851.357 20.0018   5
   4   2   5 838.356 19.5848   3
  -5  -2  -5 118.821 6.43124   2
   5  -2   5 128.133 6.17507   3
  -5  -2  -5 126.951 6.64998   5
  -5   2  -5 129.902 6.94388   5
   5   2   5 129.589 6.61203   3
  -6  -2  -5 350.271 12.3483   5
   6  -2   5 365.928 11.9245   3
   6   2   5 360.503 12.4072   3
  -6   2  -5 355.477 12.6835   5
  11   3  -5 38.6489 4.80610   6
 -10  -3   5 127.455 6.89294   1
 -10  -3   5 123.517 6.64510   5
  10  -3  -5 113.554 6.53657   6
  10   3  -5 131.827 6.88916   6
 -10   3   5 123.865 7.28264   1
   9  -3  -5 48.0968 3.69876   3
  -9  -3   5 51.5958 4.18176   5
  -9  -3   5 54.2756 4.42796   1
   9  -3  -5 47.6994 4.22367   6
  -9   3   5 45.4715 4.78869   1
   9   3  -5 45.5094 3.99622   6
   8  -3  -5 79.5891 4.22200   3
  -8  -3   5 78.7213 4.73238   5
  -8  -3   5 78.5272 4.78126   1
   8  -3  -5 72.2888 4.59475   6
   8   3  -5 80.2374 4.51959   6
  -8   3   5 82.3818 5.12886   1
  -7  -3   5 1.15928 1.29182   1
   7  -3  -5 -0.0104 1.10612   2
   7  -3  -5 0.67971 1.33852   6
  -7  -3   5 -0.6134 1.28184   5
   7  -3  -5 2.61573 1.27540   3
   7   3  -5 5.28146 1.45611   6
  -7   3   5 0.52568 1.22858   1
  -6  -3   5 0.11369 0.97404   1
   6  -3  -5 -0.3255 1.04681   2
  -6  -3   5 0.11027 0.73554   4
   6  -3  -5 -1.3635 0.99617   6
   6  -3  -5 4.98452 1.36058   3
  -6  -3   5 2.44196 1.36362   5
  -6   3   5 0.63211 1.10427   1
   5  -3  -5 2897.32 55.2107   2
  -5  -3   5 2878.42 52.5002   4
   5  -3  -5 2836.57 54.2532   6
   5  -3  -5 2842.01 52.3539   3
  -5  -3   5 2857.55 55.0867   1
  -5   3   5 2880.44 54.9619   1
   5   3  -5 2772.15 52.4374   6
   5   3  -5 2796.73 56.4957   2
   4  -3  -5 1982.45 38.8139   6
  -4  -3   5 1985.81 39.1297   1
  -4  -3   5 2016.68 37.6136   4
   4  -3  -5 2027.03 39.6517   2
   4  -3  -5 1999.29 37.5022   3
   4   3  -5 1931.57 40.2539   2
   4   3  -5 1928.25 36.3945   6
  -4   3   5 1994.31 38.7337   1
   3  -3  -5 3371.57 63.4176   6
  -3  -3   5 3412.91 61.9586   4
  -3  -3   5 3365.33 63.9015   1
   3  -3  -5 3366.54 65.0140   2
   3   3  -5 3293.76 65.0725   2
  -3   3   5 3420.40 62.5804   4
  -3   3   5 3415.33 63.0682   1
  -2  -3   5 750.306 13.7573   3
   2  -3  -5 697.133 16.9100   2
   2  -3  -5 741.782 14.0071   5
   2  -3  -5 756.397 16.7217   6
  -2  -3   5 751.857 16.3700   1
  -2  -3   5 742.621 15.7415   4
  -2   3   5 769.315 15.0744   1
  -2   3   5 746.497 16.1597   4
   2   3  -5 727.696 16.7810   2
   1  -3  -5 543.614 11.2490   5
   1  -3  -5 534.132 13.4617   2
  -1  -3   5 550.337 10.9383   3
  -1  -3   5 546.304 12.2855   4
  -1  -3   5 543.614 12.7645   1
  -1   3   5 538.185 12.5471   4
  -1   3   5 556.284 10.7065   1
   1   3  -5 545.912 12.9424   2
   0  -3   5 3337.75 61.2508   4
   0  -3   5 3389.16 59.1229   3
   0  -3  -5 3301.33 64.3820   2
   0  -3  -5 3443.10 59.1472   5
   0   3   5 3189.47 61.2969   4
   0   3  -5 3222.16 63.2392   2
   0   3  -5 3392.91 60.8146   5
  -1  -3  -5 2320.87 42.8032   5
   1  -3   5 2341.62 44.0321   4
   1  -3   5 2310.68 42.5951   3
  -1  -3  -5 2324.23 46.7289   2
   1   3   5 2235.45 43.8490   4
  -1   3  -5 2372.22 44.2919   5
  -1   3  -5 2366.17 45.2871   2
   2  -3   5 3917.73 72.0194   4
  -2  -3  -5 3897.56 70.4555   5
  -2  -3  -5 3955.39 76.0239   2
   2  -3   5 3874.47 70.4306   3
   2   3   5 3806.95 71.6709   4
  -2   3  -5 4015.95 71.7498   5
   3  -3   5 311.164 8.90345   3
  -3  -3  -5 316.736 10.3080   2
   3  -3   5 314.429 8.87293   4
  -3  -3  -5 303.859 9.33758   5
  -3   3  -5 298.319 9.84435   5
  -4  -3  -5 293.057 10.2234   2
   4  -3   5 296.058 8.78001   4
  -4  -3  -5 278.626 9.45165   5
   4  -3   5 273.089 8.88241   3
  -4   3  -5 285.133 9.98684   5
  -5  -3  -5 4.27238 2.47224   2
   5  -3   5 0.78724 1.56580   3
  -5  -3  -5 -0.1862 1.86278   5
  -5   3  -5 1.87811 1.81638   5
   6  -3   5 51.2135 4.62176   3
  -6  -3  -5 42.8069 4.77534   5
  -6   3  -5 41.8953 4.80710   5
 -10  -4   5 253.943 9.80538   5
  10  -4  -5 265.292 10.1982   6
 -10  -4   5 280.687 10.5109   1
  10  -4  -5 255.972 9.09356   3
  10   4  -5 261.979 10.1798   6
 -10   4   5 267.277 11.0872   1
  -9  -4   5 483.455 14.2835   1
   9  -4  -5 484.753 14.0837   6
   9  -4  -5 472.098 12.9453   3
  -9  -4   5 482.437 13.7279   5
   9   4  -5 502.283 14.0496   6
  -9   4   5 483.495 15.1104   1
   8  -4  -5 753.126 18.5098   6
  -8  -4   5 775.466 18.3088   5
  -8  -4   5 754.232 18.8003   1
   8  -4  -5 731.526 17.2921   3
   8   4  -5 738.376 17.9203   6
  -8   4   5 747.123 19.4747   1
  -7  -4   5 331.594 10.3544   1
   7  -4  -5 355.527 9.92762   2
  -7  -4   5 342.933 10.3178   5
   7  -4  -5 349.916 10.4687   6
   7  -4  -5 336.067 9.67060   3
   7   4  -5 344.318 9.62259   6
  -7   4   5 353.349 10.9610   1
   6  -4  -5 1207.67 25.0844   3
  -6  -4   5 1208.03 25.4567   5
   6  -4  -5 1202.69 26.1396   6
  -6  -4   5 1224.97 26.4477   1
   6  -4  -5 1236.86 25.8260   2
  -6   4   5 1224.15 26.6369   1
   6   4  -5 1207.01 24.6129   6
   5  -4  -5 542.047 13.7568   6
  -5  -4   5 552.964 13.8247   1
   5  -4  -5 557.511 13.4737   2
   5  -4  -5 545.268 13.2658   3
  -5  -4   5 565.414 12.4600   4
  -5   4   5 562.876 13.7684   1
   5   4  -5 539.093 12.0131   6
  -4  -4   5 2366.55 46.9694   1
  -4  -4   5 2417.79 44.9183   4
   4  -4  -5 2405.74 45.2768   3
   4  -4  -5 2337.76 46.6562   6
   4  -4  -5 2435.46 47.4592   2
  -4   4   5 2435.63 46.5313   1
  -3  -4   5 345.344 9.37036   1
   3  -4  -5 341.936 9.64700   2
   3  -4  -5 332.239 9.54499   6
  -3  -4   5 331.650 8.48238   4
  -3   4   5 346.513 8.53694   1
   3   4  -5 330.474 9.78031   2
   2  -4  -5 313.794 9.20046   2
  -2  -4   5 310.442 8.78748   1
  -2  -4   5 323.962 8.23940   4
  -2  -4   5 315.389 6.42988   3
   2  -4  -5 320.885 6.65398   5
   2  -4  -5 314.104 9.24253   6
   2   4  -5 320.628 9.09174   2
  -2   4   5 326.611 7.54068   1
  -2   4   5 323.713 8.90530   4
  -1  -4   5 318.176 8.88415   1
   1  -4  -5 317.328 7.23258   5
   1  -4  -5 303.893 9.23622   2
  -1  -4   5 312.842 6.91315   3
  -1  -4   5 307.566 8.19645   4
   1   4  -5 309.408 8.64611   2
  -1   4   5 321.271 8.67450   4
   0  -4  -5 253.514 8.42038   2
   0  -4   5 253.600 7.42543   4
   0  -4   5 266.415 6.48383   3
   0  -4  -5 252.169 6.73886   5
   0   4   5 260.772 7.57849   4
   0   4  -5 255.262 7.41962   2
  -1  -4  -5 280.288 7.74759   5
   1  -4   5 291.546 7.43235   3
  -1  -4  -5 270.009 9.05944   2
   1  -4   5 283.094 8.12511   4
  -1   4  -5 278.255 7.69702   2
   1   4   5 276.838 7.93754   4
  -1   4  -5 273.903 8.82244   5
   2  -4   5 251.797 7.30681   3
  -2  -4  -5 240.058 8.81263   2
  -2  -4  -5 244.291 7.70877   5
   2  -4   5 249.874 7.72432   4
  -2   4  -5 245.787 8.66397   5
   2   4   5 250.489 7.39979   4
   3  -4   5 506.280 12.8788   4
  -3  -4  -5 516.574 14.7544   2
  -3  -4  -5 517.389 13.2748   5
   3  -4   5 528.910 12.8668   3
  -3   4  -5 513.497 14.3047   5
   4  -4   5 854.411 19.2935   4
   4  -4   5 850.980 19.3800   3
  -4  -4  -5 863.945 21.7635   2
  -4  -4  -5 848.490 19.9928   5
  -4   4  -5 830.207 20.8004   5
  -5  -4  -5 805.902 21.1672   2
  -5  -4  -5 748.825 19.3976   5
   5  -4   5 770.266 18.8700   3
  -5   4  -5 791.920 20.4980   5
  -6  -4  -5 347.503 13.8121   5
  -6  -4  -5 390.274 13.5978   2
   6  -4   5 370.360 12.7994   3
 -10  -5   5 4.89937 2.32367   1
  10  -5  -5 4.43307 2.63779   6
  10  -5  -5 3.87152 2.19867   3
 -10  -5   5 5.57111 2.66862   5
 -10   5   5 3.08689 2.64780   1
  -9  -5   5 109.007 6.26333   1
   9  -5  -5 115.558 6.52181   6
  -9  -5   5 118.951 6.51844   5
   9  -5  -5 109.628 5.86471   3
  -9   5   5 113.092 6.92409   1
  -8  -5   5 0.80365 1.71675   5
   8  -5  -5 -0.8332 1.53584   6
   8  -5  -5 1.66294 1.48138   3
  -8  -5   5 -0.1506 1.32795   1
  -8   5   5 -0.2492 1.41931   1
  -7  -5   5 155.202 6.79870   5
   7  -5  -5 140.307 6.48041   6
   7  -5  -5 145.747 6.18055   3
  -7  -5   5 159.902 6.71479   1
  -7   5   5 158.622 6.96506   1
   6  -5  -5 300.910 9.36950   3
   6  -5  -5 341.107 9.19085   2
  -6  -5   5 310.008 9.72768   1
  -6  -5   5 294.384 9.65556   5
   6  -5  -5 311.862 9.84673   6
  -6   5   5 310.554 9.89312   1
  -5  -5   5 987.507 20.2298   4
   5  -5  -5 987.305 21.5733   3
   5  -5  -5 975.418 22.2290   6
  -5  -5   5 966.943 22.0374   1
   5  -5  -5 1009.84 21.6500   2
  -5   5   5 1000.44 22.1074   1
   4  -5  -5 2053.55 40.2197   3
   4  -5  -5 2041.00 41.4854   6
  -4  -5   5 2068.23 39.1364   4
   4  -5  -5 2114.62 41.7288   2
  -4  -5   5 2049.55 41.4743   1
  -4   5   5 2087.26 40.9682   1
  -3  -5   5 1083.12 23.4432   1
   3  -5  -5 1095.29 23.6981   2
   3  -5  -5 1047.91 23.6436   6
  -3  -5   5 1070.35 21.8301   4
  -3   5   5 1096.73 22.4326   1
  -2  -5   5 1823.06 35.0478   4
  -2  -5   5 1791.76 36.7254   1
   2  -5  -5 1814.38 37.0786   6
   2  -5  -5 1828.42 37.2781   2
   2   5  -5 1829.08 37.1607   2
   1  -5  -5 1199.00 26.7141   6
  -1  -5   5 1261.97 22.9692   3
  -1  -5   5 1254.43 25.1126   4
   1  -5  -5 1245.13 23.0189   5
   1  -5  -5 1212.48 26.8014   2
  -1  -5   5 1234.16 26.4722   1
   1   5  -5 1252.60 26.1639   2
   0  -5  -5 2683.44 53.5710   2
   0  -5   5 2583.96 50.5038   4
   0  -5   5 2678.46 48.1934   3
   0  -5  -5 2730.25 48.2059   5
   0   5  -5 2707.12 51.8552   2
  -1  -5  -5 1886.09 35.5869   5
   1  -5   5 1886.72 37.1719   4
  -1  -5  -5 1857.58 39.6604   2
   1  -5   5 1946.13 35.5080   3
  -1   5  -5 1877.96 37.8237   5
   2  -5   5 1208.58 24.0075   3
  -2  -5  -5 1165.76 24.2881   5
   2  -5   5 1161.56 24.9779   4
  -2  -5  -5 1202.55 27.4016   2
  -2   5  -5 1189.73 26.1614   5
   3  -5   5 282.486 8.56557   3
   3  -5   5 277.642 8.82389   4
  -3  -5  -5 284.245 8.97938   5
  -3  -5  -5 274.486 10.2599   2
  -3   5  -5 274.909 10.0292   5
   4  -5   5 80.7827 4.86673   4
  -4  -5  -5 84.9750 5.24116   5
   4  -5   5 93.9473 5.10864   3
  -4  -5  -5 90.9229 6.20505   2
  -4   5  -5 86.8544 5.88181   5
   5  -5   5 58.5174 4.55388   3
   5  -5   5 58.0837 4.52254   4
  -5  -5  -5 61.0541 5.60673   2
  -5  -5  -5 39.4254 4.26544   5
  -5   5  -5 47.4277 5.13133   5
  -6  -5  -5 80.1014 6.77472   2
  10  -6  -5 174.758 7.97514   3
 -10  -6   5 180.113 9.50452   1
  -9  -6   5 225.434 9.18196   1
  -9  -6   5 219.211 9.30319   5
   9  -6  -5 219.323 9.10364   6
   9  -6  -5 205.738 8.38270   3
  -9   6   5 238.883 10.3424   1
  -8  -6   5 263.689 9.53127   1
   8  -6  -5 260.243 9.11924   3
   8  -6  -5 242.551 9.34071   6
  -8  -6   5 247.596 9.48287   5
  -8   6   5 263.306 10.3416   1
  -7  -6   5 46.3942 3.91729   1
   7  -6  -5 51.7281 4.27058   6
   7  -6  -5 42.8409 3.79005   3
  -7  -6   5 45.7665 4.18980   5
  -7   6   5 51.6656 4.34748   1
  -6  -6   5 80.6426 4.61567   1
  -6  -6   5 79.0691 5.05222   5
   6  -6  -5 83.5957 5.06665   6
   6  -6  -5 81.2048 4.82226   3
  -6   6   5 78.7952 4.86107   1
   5  -6  -5 12.7442 2.06811   2
   5  -6  -5 15.7460 2.64876   6
  -5  -6   5 9.94496 1.57245   4
  -5  -6   5 8.85170 2.00915   1
   5  -6  -5 9.64972 2.16287   3
  -5   6   5 11.5714 2.12885   1
  -4  -6   5 938.644 19.6819   4
   4  -6  -5 943.003 22.1160   6
   4  -6  -5 967.370 21.4866   2
   4  -6  -5 948.632 21.4681   3
  -4  -6   5 945.044 21.7137   1
  -4   6   5 973.180 21.2797   1
  -3  -6   5 172.720 6.62066   1
   3  -6  -5 162.372 6.83968   6
  -3  -6   5 170.450 5.71906   4
   3  -6  -5 173.594 6.60151   2
   3  -6  -5 163.788 6.70383   3
   2  -6  -5 1271.90 27.2779   2
  -2  -6   5 1239.12 25.4099   4
  -2  -6   5 1251.34 27.1098   1
   2  -6  -5 1233.26 27.4536   6
   1  -6  -5 137.933 6.41177   6
  -1  -6   5 144.255 5.55228   4
   1  -6  -5 151.637 6.38674   2
  -1  -6   5 143.614 6.13590   1
   0  -6   5 62.2852 3.89372   4
   0  -6  -5 67.7904 4.65766   2
   0  -6   5 71.4832 3.16933   3
   0  -6  -5 74.6620 3.39086   5
   1  -6   5 283.821 7.75827   3
  -1  -6  -5 298.937 8.11996   5
  -1  -6  -5 283.439 9.95483   2
   1  -6   5 275.481 8.78776   4
   2  -6   5 20.6825 2.77788   4
  -2  -6  -5 19.9331 2.47456   5
   2  -6   5 22.2202 2.50379   3
  -2  -6  -5 25.8358 3.69012   2
  -2   6  -5 22.2811 3.24427   5
  -3  -6  -5 30.3635 3.33613   5
  -3  -6  -5 25.0537 3.84634   2
   3  -6   5 22.4322 2.66895   3
   3  -6   5 28.3288 3.28815   4
  -3   6  -5 18.2476 3.04984   5
   4  -6   5 27.9294 3.27803   3
   4  -6   5 27.2978 3.30829   4
  -4  -6  -5 24.6882 3.95400   2
  -4  -6  -5 29.1059 3.53233   5
  -4   6  -5 24.5044 3.75430   5
  -5  -6  -5 90.7857 6.99229   2
  -5  -6  -5 97.9738 6.29139   5
   5  -6   5 96.5309 5.80757   3
   5  -6   5 93.5780 5.82606   4
  -5   6  -5 92.5242 6.70872   5
   9  -7  -5 0.19752 1.98330   6
  -9  -7   5 1.27435 1.84594   1
   9  -7  -5 0.76515 1.95122   3
  -9  -7   5 1.88547 2.46318   5
  -9   7   5 3.39356 2.51253   1
  -8  -7   5 15.8050 2.88917   1
   8  -7  -5 9.35031 2.53631   3
  -8  -7   5 10.1653 2.72302   5
   8  -7  -5 7.04005 2.45445   6
  -8   7   5 10.9183 2.92893   1
   7  -7  -5 61.6830 4.64928   3
  -7  -7   5 68.3937 4.76621   1
  -7  -7   5 55.5012 4.82643   5
   7  -7  -5 63.7910 4.93804   6
  -7   7   5 66.7605 5.10377   1
  -6  -7   5 6.79921 2.05700   1
   6  -7  -5 3.78449 1.77377   6
   6  -7  -5 5.31435 1.94855   3
  -6  -7   5 3.43960 1.88744   5
  -6   7   5 6.38405 2.08454   1
   5  -7  -5 0.84662 1.46078   3
  -5  -7   5 1.41261 1.05591   4
   5  -7  -5 1.44673 1.68170   6
   5  -7  -5 1.89892 1.51705   2
  -5  -7   5 3.22839 1.67667   1
   4  -7  -5 135.458 5.85873   2
   4  -7  -5 133.710 6.35869   3
  -4  -7   5 134.344 6.05897   1
  -4  -7   5 131.831 4.99251   4
   4  -7  -5 141.701 6.70811   6
  -3  -7   5 1.58573 1.25631   4
  -3  -7   5 3.65939 1.55649   1
   3  -7  -5 2.79019 1.62829   3
   3  -7  -5 2.85930 1.56470   2
   3  -7  -5 1.63005 1.53758   6
  -2  -7   5 11.9446 1.94900   4
   2  -7  -5 13.1232 2.50716   6
   2  -7  -5 12.9607 2.39773   2
  -2  -7   5 11.3230 2.32278   1
   1  -7  -5 133.713 6.28556   2
   1  -7  -5 127.108 6.48867   6
  -1  -7   5 132.383 6.21936   1
  -1  -7   5 133.825 5.58383   4
   0  -7  -5 237.416 8.92793   2
   0  -7   5 236.273 8.01102   4
  -1  -7  -5 14.8723 2.88605   2
   1  -7   5 14.7506 2.34872   4
   1  -7   5 18.2192 2.10864   3
  -1  -7  -5 15.5605 2.33237   5
  -2  -7  -5 38.3440 3.26029   5
   2  -7   5 37.2120 3.21258   3
  -2  -7  -5 37.5081 4.35463   2
   2  -7   5 39.4600 3.89295   4
  -3  -7  -5 1.05839 1.71986   5
  -3  -7  -5 1.66686 2.36154   2
   3  -7   5 1.60577 1.93786   4
   3  -7   5 1.25071 1.49977   3
  -4  -7  -5 113.049 6.10770   5
  -4  -7  -5 111.645 7.41938   2
   4  -7   5 111.434 6.29009   4
   4  -7   5 105.918 5.68168   3
  -4   7  -5 102.119 6.79700   5
   5  -7   5 128.935 6.97809   4
  -5  -7  -5 129.000 7.12256   5
   5  -7   5 123.497 6.69369   3
  -8  -8   5 9.90446 2.67380   1
  -8  -8   5 16.5119 3.39619   5
   8  -8  -5 16.2529 3.32143   6
   8  -8  -5 13.9936 3.04326   3
  -7  -8   5 27.4277 3.92844   5
   7  -8  -5 36.5034 4.44735   6
   7  -8  -5 32.2910 3.94557   3
  -7  -8   5 24.3562 3.42564   1
   6  -8  -5 12.7951 2.92834   6
  -6  -8   5 11.9093 2.91713   5
  -6  -8   5 10.8637 2.43024   1
   6  -8  -5 19.6105 3.24705   3
   5  -8  -5 58.6430 4.56504   6
   5  -8  -5 69.0764 4.93472   3
  -5  -8   5 64.8632 4.60792   1
  -4  -8   5 26.8057 3.13797   1
   4  -8  -5 36.6778 4.05377   6
   4  -8  -5 28.5944 3.42884   3
   4  -8  -5 33.9558 3.45256   2
  -4  -8   5 30.2337 2.85529   4
  -3  -8   5 30.3105 3.46348   1
   3  -8  -5 35.6613 3.46458   2
   3  -8  -5 22.3293 3.17370   3
   3  -8  -5 31.2160 3.77690   6
  -3  -8   5 28.5627 2.87276   4
  -2  -8   5 2.43857 1.75493   1
   2  -8  -5 7.63243 2.12349   2
   2  -8  -5 2.34986 1.76554   6
  -2  -8   5 9.68347 1.97885   4
  -1  -8   5 98.3440 5.59672   1
   1  -8  -5 115.884 6.04718   2
   1  -8  -5 106.705 6.24833   6
  -1  -8   5 108.460 5.28872   4
   0  -8   5 46.7419 3.99355   4
   0  -8  -5 49.4417 4.49223   2
   0  -8  -5 46.9347 4.52103   6
  -1  -8  -5 31.0772 4.12595   2
   1  -8   5 27.7491 3.27132   4
   2  -8   5 3.51368 1.98538   4
   2  -8   5 5.26597 1.75889   3
  -2  -8  -5 2.50931 2.16391   2
  -3  -8  -5 79.4356 5.21463   5
  -3  -8  -5 80.3671 6.52995   2
   3  -8   5 85.4596 5.61213   4
   3  -8   5 78.9311 4.87094   3
   4  -8   5 92.4457 6.20448   4
  -4  -8  -5 98.9780 7.97329   2
  -4  -8  -5 86.8333 5.69331   5
   4  -8   5 93.8946 5.63303   3
  -8  -9   5 18.5759 3.36407   1
  -7  -9   5 42.1763 4.50678   1
  -7  -9   5 39.6370 4.74588   5
   7  -9  -5 51.8264 5.45120   6
   7  -9  -5 44.7556 4.75819   3
  -6  -9   5 23.3124 3.23582   1
   6  -9  -5 25.8236 3.77857   6
   6  -9  -5 28.1874 3.95360   3
  -6  -9   5 28.6027 4.12085   5
  -5  -9   5 30.7665 3.78732   1
   5  -9  -5 29.0599 4.00507   6
   5  -9  -5 27.7825 3.63563   3
  -4  -9   5 76.6594 5.10773   1
   4  -9  -5 84.8183 5.73406   3
   4  -9  -5 85.4007 5.85607   6
  -4  -9   5 82.9847 4.46864   4
  -3  -9   5 107.378 6.00937   1
   3  -9  -5 107.415 5.70686   2
   3  -9  -5 95.8842 6.21979   6
   3  -9  -5 106.572 6.41335   3
  -3  -9   5 115.860 5.42701   4
  -2  -9   5 71.7994 4.54880   4
   2  -9  -5 56.1697 5.02581   6
   2  -9  -5 62.1857 4.65363   2
  -2  -9   5 56.3522 4.51439   1
   2  -9  -5 60.1106 4.97262   3
  -1  -9   5 54.1474 4.73807   1
   1  -9  -5 53.3399 4.95683   6
   1  -9  -5 47.2072 4.41326   2
  -1  -9   5 58.3075 4.30047   4
   0  -9   5 277.421 9.60893   4
   0  -9   5 279.265 10.6114   1
   0  -9  -5 271.901 10.4401   2
   0  -9  -5 276.543 11.1092   6
   1  -9   5 313.670 10.7272   4
  -1  -9  -5 327.626 11.9929   2
   2  -9   5 386.163 12.4204   4
  -2  -9  -5 379.194 13.6896   2
  -3  -9  -5 99.3375 7.33012   2
   3  -9   5 95.2594 6.31921   4
   4  -9   5 21.1245 3.31057   3
  -7 -10   5 -0.2264 1.89632   1
   6 -10  -5 207.806 9.49901   3
  -6 -10   5 189.584 8.61970   1
   6 -10  -5 188.930 9.17822   6
  -6 -10   5 201.202 9.44788   5
  -5 -10   5 27.6887 3.70809   1
   5 -10  -5 33.8049 4.48840   6
  -5 -10   5 31.8641 4.59406   5
   5 -10  -5 29.8790 4.24433   3
   4 -10  -5 655.432 18.8763   6
  -4 -10   5 639.161 18.0227   1
   4 -10  -5 662.354 18.7007   3
  -3 -10   5 289.131 10.7936   1
   3 -10  -5 285.923 11.3175   3
   3 -10  -5 294.663 11.5567   6
  -3 -10   5 308.922 9.79116   4
  -2 -10   5 397.677 13.0918   1
   2 -10  -5 392.422 12.5781   2
  -2 -10   5 391.426 11.7231   4
   2 -10  -5 386.626 13.2942   3
   2 -10  -5 359.379 13.3093   6
  -1 -10   5 35.1224 4.38891   1
   1 -10  -5 28.2372 3.91753   2
  -1 -10   5 36.5356 3.84155   4
   1 -10  -5 45.9007 5.25498   6
   0 -10   5 10.3077 2.62382   4
   0 -10  -5 6.92854 2.68793   2
   0 -10  -5 8.61729 2.84890   6
   0 -10   5 6.50142 2.68925   1
  -1 -10  -5 3.58617 2.40763   6
   1 -10   5 2.93997 2.10852   4
  -1 -10  -5 1.36925 2.47224   2
  -2 -10  -5 0.14703 2.43362   2
   2 -10   5 1.84806 2.31550   4
  -5 -11   5 178.158 8.58994   1
   5 -11  -5 178.993 10.1708   6
   4 -11  -5 157.251 8.61170   3
  -4 -11   5 165.662 8.30115   1
   4 -11  -5 168.074 8.92551   6
  -3 -11   5 319.181 10.5584   4
  -3 -11   5 312.815 11.7894   1
   3 -11  -5 318.551 12.6170   6
   3 -11  -5 321.568 12.4872   3
  -2 -11   5 408.684 13.9889   1
   2 -11  -5 421.170 14.5681   3
  -2 -11   5 410.180 12.6668   4
   2 -11  -5 422.057 14.9246   6
  -1 -11   5 603.460 16.6050   4
   1 -11  -5 584.908 17.3818   2
   1 -11  -5 588.503 18.1853   3
   1 -11  -5 602.121 18.9514   6
  -1 -11   5 591.812 18.0028   1
   0 -11   5 899.006 24.4792   1
   0 -11  -5 880.850 23.8712   2
   0 -11  -5 896.749 25.0961   6
   0 -11   5 920.832 22.6685   4
  -1 -11  -5 537.678 17.7648   2
  -2 -12   5 133.443 7.19603   4
  11   0  -6 335.883 12.0044   6
  10   0  -6 1306.41 29.3137   6
 -10   0   6 1286.56 30.4531   1
   9   0  -6 52.3151 4.16647   6
  -9   0   6 58.0082 4.59396   1
   8   0  -6 635.823 15.4621   6
  -8   0   6 634.905 16.4826   1
   7   0  -6 79.6963 4.85136   2
  -7   0   6 75.7043 4.38578   1
  -7   0   6 73.2261 3.77069   4
   7   0  -6 75.9916 3.94692   6
  -6   0   6 1797.51 32.5380   5
  -6   0   6 1710.88 35.3639   1
  -6   0   6 1726.74 33.7731   4
   6   0  -6 1768.64 36.5764   2
   6   0  -6 1701.66 33.9226   6
   5   0  -6 970.251 18.3394   3
   5   0  -6 936.583 21.5534   2
  -5   0   6 955.316 19.9168   4
   5   0  -6 942.720 19.5506   6
  -5   0   6 964.674 20.6112   1
   4   0  -6 2469.80 43.4176   3
  -4   0   6 2403.83 45.5555   4
   4   0  -6 2416.14 45.1552   6
  -4   0   6 2413.20 46.4209   1
   4   0  -6 2382.01 47.9699   2
  -3   0   6 443.812 10.7782   4
  -3   0   6 449.866 10.4081   1
   3   0  -6 451.093 10.0058   6
   3   0  -6 425.202 11.5910   2
   2   0  -6 95.7925 3.84977   5
  -2   0   6 96.3736 4.10969   4
   2   0  -6 93.3830 3.47554   6
   2   0  -6 89.1404 4.49892   2
  -2   0   6 104.848 3.50471   1
  -1   0   6 126.241 4.93432   4
   1   0  -6 122.668 5.36097   2
   1   0  -6 123.549 4.67027   5
  -1   0   6 128.431 3.86928   1
   0   0  -6 389.312 11.0809   2
   0   0   6 390.314 10.3650   4
   0   0   6 403.558 9.87379   3
   0   0  -6 391.245 10.1555   5
   1   0   6 2216.57 42.9142   4
   1   0   6 2194.10 41.8168   3
  -1   0  -6 2217.41 44.7586   2
  -1   0  -6 2234.47 42.1667   5
  -2   0  -6 722.245 17.8773   2
   2   0   6 735.524 16.8873   3
   2   0   6 753.671 17.1241   4
  -2   0  -6 744.617 17.4493   5
   3   0   6 6.80531 1.74379   4
  -3   0  -6 8.58389 2.19400   5
  -3   0  -6 6.00068 2.02686   2
   3   0   6 3.25100 1.55276   3
  -4   0  -6 40.9283 4.44422   5
   4   0   6 45.0492 3.98248   3
   5   0   6 325.307 11.1620   3
  -5   0  -6 333.085 11.8994   5
  11  -1  -6 9.87922 3.00626   6
  11   1  -6 6.28072 2.51254   6
  10  -1  -6 13.3134 2.95572   6
 -10  -1   6 11.8327 2.83930   1
 -10   1   6 14.1136 3.19302   1
  10   1  -6 14.7421 2.91496   6
  -9  -1   6 24.6423 3.34947   1
   9  -1  -6 21.2982 2.94582   6
   9   1  -6 19.9662 2.86632   6
  -9   1   6 22.4409 3.17277   1
   8  -1  -6 30.6687 3.19219   6
   8  -1  -6 36.4561 3.87994   2
  -8  -1   6 42.1400 3.25629   5
  -8  -1   6 33.1376 3.21808   1
   8   1  -6 35.1458 3.16673   6
  -8   1   6 30.5366 3.42264   1
   7  -1  -6 54.9850 4.09520   2
  -7  -1   6 50.7307 3.01747   4
  -7  -1   6 59.2916 3.95489   1
  -7  -1   6 60.2545 3.48072   5
   7  -1  -6 53.4344 3.44601   6
  -7   1   6 50.0840 3.70931   1
   7   1  -6 55.9720 4.30559   2
   7   1  -6 52.6558 3.26862   6
  -6  -1   6 458.261 10.7165   4
   6  -1  -6 440.792 11.0725   6
  -6  -1   6 415.647 11.4697   1
   6  -1  -6 437.884 10.0060   3
   6  -1  -6 445.959 12.1377   2
  -6  -1   6 454.208 10.8119   5
  -6   1   6 448.029 11.1664   4
   6   1  -6 435.481 12.4799   2
   6   1  -6 442.755 10.5509   6
  -6   1   6 417.714 11.4833   1
  -5  -1   6 319.407 8.26998   4
  -5  -1   6 310.949 8.74525   1
   5  -1  -6 323.149 9.40167   2
   5  -1  -6 301.315 8.29153   6
   5  -1  -6 318.479 7.67851   3
   5   1  -6 316.344 7.69335   6
  -5   1   6 305.828 8.44767   4
   5   1  -6 297.337 9.45935   2
  -5   1   6 291.678 8.51640   1
   4  -1  -6 759.843 15.3014   3
   4  -1  -6 737.210 15.9852   6
  -4  -1   6 771.219 16.2179   4
  -4  -1   6 768.206 16.5319   1
  -4   1   6 730.548 16.2554   4
   4   1  -6 728.258 14.9420   6
   4   1  -6 719.030 17.4908   2
  -4   1   6 728.507 16.1068   1
   3  -1  -6 121.822 5.17311   2
  -3  -1   6 121.743 4.34185   1
  -3  -1   6 120.947 4.64732   4
   3  -1  -6 113.553 4.21899   6
   3   1  -6 120.621 3.47338   6
   3   1  -6 113.745 4.99305   2
  -3   1   6 113.176 3.93776   1
  -3   1   6 116.196 4.52500   4
   2  -1  -6 257.259 7.18204   6
  -2  -1   6 287.207 7.89034   4
  -2  -1   6 272.219 7.03686   1
   2  -1  -6 264.542 6.86032   5
   2  -1  -6 246.032 8.20419   2
  -2   1   6 261.594 7.53664   4
  -2   1   6 262.878 6.46026   1
   2   1  -6 260.158 8.11885   2
   2   1  -6 260.626 6.19174   6
  -1  -1   6 287.738 8.23079   4
   1  -1  -6 283.034 7.55024   5
  -1  -1   6 300.076 7.37754   1
   1  -1  -6 266.786 8.71268   2
   1   1  -6 283.908 8.69229   2
   1   1  -6 288.530 8.11195   5
  -1   1   6 291.299 8.07846   4
  -1   1   6 290.671 6.60221   1
   0  -1  -6 425.973 10.5081   5
   0  -1   6 428.028 9.81484   1
   0  -1   6 415.565 10.0346   3
   0  -1  -6 433.157 11.7847   2
   0  -1   6 411.530 10.8579   4
   0   1  -6 426.472 11.5510   2
   0   1   6 418.432 10.6874   4
   0   1  -6 413.755 10.8289   5
  -1  -1  -6 678.643 16.9839   2
  -1  -1  -6 701.731 15.9346   5
   1  -1   6 684.401 15.3273   3
   1  -1   6 695.755 16.0884   4
  -1   1  -6 699.423 16.2666   5
  -1   1  -6 695.515 16.7664   2
   1   1   6 708.212 15.9061   4
  -2  -1  -6 310.605 9.53390   5
  -2  -1  -6 307.247 9.90596   2
   2  -1   6 308.712 9.25772   4
   2  -1   6 330.451 9.16790   3
  -2   1  -6 325.284 9.91443   5
   2   1   6 322.916 9.07287   4
  -2   1  -6 307.606 9.63677   2
   2   1   6 312.243 9.41932   3
  -3  -1  -6 877.219 21.0921   2
   3  -1   6 846.417 19.6707   3
  -3  -1  -6 881.566 20.4525   5
   3  -1   6 888.645 19.9050   4
  -3   1  -6 862.041 20.6527   5
   3   1   6 887.527 19.5283   4
   3   1   6 900.114 20.3552   3
   4  -1   6 410.955 12.1406   3
  -4  -1  -6 422.809 12.8203   5
   4   1   6 399.101 12.2968   3
  -4   1  -6 437.079 13.1818   5
  -5  -1  -6 791.544 20.5033   5
   5  -1   6 785.882 19.7841   3
   5   1   6 797.772 20.2322   3
  -5   1  -6 772.907 20.5843   5
  11   2  -6 222.486 9.63845   6
 -10  -2   6 526.032 15.6837   1
  10  -2  -6 504.121 14.8602   6
 -10   2   6 521.598 16.1032   1
  10   2  -6 529.454 15.0461   6
   9  -2  -6 359.957 11.2731   6
  -9  -2   6 351.993 11.6440   1
  -9  -2   6 371.805 10.7311   5
   9   2  -6 360.686 10.9762   6
  -9   2   6 355.735 11.9497   1
  -8  -2   6 132.536 6.24497   1
  -8  -2   6 129.712 5.65017   5
   8  -2  -6 126.519 5.78974   6
   8  -2  -6 128.886 6.27101   2
  -8   2   6 133.764 6.37189   1
   8   2  -6 126.752 5.48097   6
   7  -2  -6 179.201 5.80468   3
  -7  -2   6 175.268 6.79132   1
   7  -2  -6 169.381 6.49028   6
  -7  -2   6 171.104 6.36757   5
   7  -2  -6 179.347 6.98034   2
  -7   2   6 173.645 6.85519   1
   7   2  -6 177.053 6.02225   6
   6  -2  -6 102.213 4.63659   6
   6  -2  -6 111.414 5.16284   2
  -6  -2   6 110.316 4.99722   1
  -6  -2   6 109.949 4.77033   5
   6  -2  -6 103.577 4.23308   3
  -6  -2   6 99.6465 4.06840   4
  -6   2   6 93.4637 4.63596   1
   6   2  -6 109.637 5.73117   2
   6   2  -6 105.396 4.03429   6
   5  -2  -6 500.379 12.2360   6
   5  -2  -6 502.171 11.5381   3
   5  -2  -6 498.427 12.8976   2
  -5  -2   6 477.380 12.3657   1
  -5  -2   6 502.973 11.6931   4
  -5   2   6 500.606 12.3093   4
   5   2  -6 498.786 13.5558   2
   5   2  -6 505.859 10.8201   6
  -5   2   6 488.669 12.1873   1
   4  -2  -6 185.182 6.61660   2
  -4  -2   6 184.902 6.08536   1
   4  -2  -6 183.630 5.76412   3
  -4  -2   6 190.980 6.06031   4
   4  -2  -6 182.759 6.07068   6
  -4   2   6 180.630 5.69139   1
   4   2  -6 169.130 6.62148   2
  -4   2   6 189.363 6.18774   4
  -3  -2   6 0.29111 0.87851   1
   3  -2  -6 1.28178 0.93557   6
   3  -2  -6 1.75842 1.32583   2
  -3  -2   6 0.14628 0.91872   4
  -3   2   6 2.12927 0.77989   1
   3   2  -6 1.10234 1.03985   2
  -3   2   6 2.50852 1.04205   4
  -2  -2   6 128.925 4.67900   1
   2  -2  -6 126.162 4.89592   6
  -2  -2   6 135.570 5.07454   4
   2  -2  -6 126.421 5.59595   2
   2  -2  -6 136.280 4.24634   5
  -2   2   6 126.149 4.89389   4
   2   2  -6 137.525 5.41487   2
  -2   2   6 135.832 3.87008   1
   1  -2  -6 115.741 4.17409   5
  -1  -2   6 115.111 4.27434   1
  -1  -2   6 115.555 4.75642   4
  -1  -2   6 115.247 3.84986   3
   1  -2  -6 114.885 5.35232   2
   1   2  -6 114.906 4.88781   2
  -1   2   6 108.204 4.55422   4
   1   2  -6 110.622 4.81057   5
   0  -2  -6 0.41193 1.50670   2
   0  -2   6 2.11052 1.32593   4
   0  -2  -6 1.64232 1.21671   5
   0  -2   6 0.53269 0.96032   1
   0  -2   6 1.77491 1.01939   3
   0   2  -6 0.92550 1.19674   2
   0   2  -6 2.68015 1.35661   5
   0   2   6 1.54835 1.01179   4
   1  -2   6 157.706 6.00804   4
   1  -2   6 158.578 5.49947   3
  -1  -2  -6 153.262 6.66997   2
   1  -2   6 178.063 5.66354   1
  -1  -2  -6 165.162 5.98355   5
  -1   2  -6 148.140 6.17512   5
   1   2   6 150.047 5.63755   4
  -1   2  -6 152.794 6.02009   2
   2  -2   6 7.90802 1.73420   3
  -2  -2  -6 4.01956 1.90663   2
   2  -2   6 9.13256 1.92475   4
  -2  -2  -6 5.64127 1.88150   5
   2   2   6 5.80704 1.48287   4
  -2   2  -6 5.05104 1.82292   5
  -3  -2  -6 0.17478 1.68545   2
  -3  -2  -6 1.32903 1.73391   5
   3  -2   6 1.85537 1.44506   4
   3  -2   6 -0.4568 1.28141   3
  -3   2  -6 0.71659 1.65637   5
   4  -2   6 160.757 7.03263   3
  -4  -2  -6 170.254 7.79233   2
  -4  -2  -6 184.581 7.88375   5
  -4   2  -6 173.167 7.93182   5
   4   2   6 160.770 7.46970   3
  -5  -2  -6 10.9965 3.05073   5
   5  -2   6 14.7260 2.99511   3
   5   2   6 15.4893 3.20208   3
  -5   2  -6 10.1369 3.04990   5
  10  -3  -6 1.62697 1.98745   6
 -10  -3   6 0.75826 2.08266   5
 -10  -3   6 -1.4826 1.75384   1
 -10   3   6 -0.9943 1.62368   1
   9  -3  -6 1.76871 1.87984   6
  -9  -3   6 5.87589 2.16618   5
  -9  -3   6 2.82827 1.68412   1
  -9   3   6 3.33692 1.96486   1
   9   3  -6 7.35506 2.20391   6
   8  -3  -6 101.381 4.71289   3
   8  -3  -6 92.9825 5.19110   2
   8  -3  -6 106.856 5.48315   6
  -8  -3   6 103.700 5.22707   5
  -8  -3   6 92.7597 5.31390   1
   8   3  -6 103.682 5.29791   6
  -8   3   6 94.9389 5.46480   1
   7  -3  -6 180.589 6.82357   6
  -7  -3   6 169.298 6.86582   1
   7  -3  -6 173.261 6.12954   3
  -7  -3   6 171.315 6.59127   5
   7  -3  -6 183.601 6.90089   2
  -7   3   6 172.309 7.02018   1
   6  -3  -6 734.016 17.2691   6
  -6  -3   6 728.910 15.8028   4
   6  -3  -6 733.418 17.5233   2
   6  -3  -6 745.297 16.4005   3
  -6  -3   6 740.326 17.6238   1
  -6   3   6 734.026 17.5491   1
   5  -3  -6 145.137 5.75303   2
  -5  -3   6 120.871 5.28987   1
   5  -3  -6 142.225 5.32287   3
  -5  -3   6 141.688 5.07796   4
   5  -3  -6 135.436 5.48512   6
   5   3  -6 138.427 6.37438   2
  -5   3   6 136.688 5.31963   1
   4  -3  -6 436.449 10.9910   3
  -4  -3   6 434.582 10.9324   4
  -4  -3   6 440.415 11.3301   1
   4  -3  -6 455.226 11.5751   6
   4  -3  -6 425.952 11.8806   2
   4   3  -6 444.118 12.3913   2
  -4   3   6 448.660 11.4861   4
  -4   3   6 450.186 10.8652   1
  -3  -3   6 1.10141 1.03356   4
   3  -3  -6 2.28812 1.39729   2
   3  -3  -6 1.24153 1.05859   6
  -3  -3   6 2.24145 1.10222   1
  -3   3   6 1.06632 0.93006   4
   3   3  -6 -0.0795 1.06727   2
  -3   3   6 1.47039 0.79819   1
   2  -3  -6 379.881 10.2999   6
  -2  -3   6 377.291 9.81965   1
  -2  -3   6 387.145 7.98598   3
   2  -3  -6 364.075 10.7660   2
   2  -3  -6 386.806 8.40288   5
  -2  -3   6 375.189 9.78318   4
   2   3  -6 367.771 10.3999   2
  -2   3   6 352.815 9.82255   4
  -1  -3   6 137.575 4.10655   3
   1  -3  -6 125.731 5.75160   2
  -1  -3   6 131.332 4.96362   1
   1  -3  -6 127.138 4.36941   5
  -1  -3   6 124.784 5.02195   4
   1   3  -6 123.955 5.18250   2
  -1   3   6 134.779 5.14772   4
   0  -3   6 363.761 9.87131   4
   0  -3   6 373.927 8.86647   3
   0  -3  -6 356.299 10.8277   2
   0  -3  -6 366.592 9.29990   5
   0  -3   6 384.546 9.98297   1
   0   3  -6 369.074 10.5202   5
   0   3  -6 363.957 10.0029   2
   0   3   6 361.215 9.81589   4
  -1  -3  -6 58.0218 4.40039   2
   1  -3   6 65.8853 3.44566   3
  -1  -3  -6 61.5027 3.74960   5
   1  -3   6 69.4010 3.93565   4
  -1   3  -6 65.1820 3.70897   2
   1   3   6 61.7294 3.57107   4
  -1   3  -6 60.5681 4.26828   5
   2  -3   6 1.91862 1.39852   4
  -2  -3  -6 1.02396 1.49694   5
   2  -3   6 1.14435 1.19670   3
  -2  -3  -6 0.96122 1.79122   2
  -2   3  -6 -0.1526 1.45474   5
   2   3   6 0.67360 0.97848   4
  -3  -3  -6 -1.4877 1.58452   5
  -3  -3  -6 -1.4157 1.76087   2
   3  -3   6 -0.0022 1.30409   4
   3  -3   6 3.74004 1.59578   3
  -3   3  -6 2.28860 1.79469   5
  -4  -3  -6 3.59814 2.44507   2
   4  -3   6 3.49439 1.79749   3
   4  -3   6 2.98661 1.74451   4
  -4  -3  -6 3.33261 2.15947   5
  -4   3  -6 2.90724 2.08914   5
  -5  -3  -6 11.6120 3.10812   5
   5  -3   6 15.0204 2.84907   3
  -5  -3  -6 7.45678 3.12522   2
  -5   3  -6 10.2503 3.07848   5
 -10  -4   6 29.1538 3.90890   1
  10  -4  -6 23.5824 3.57771   6
 -10  -4   6 33.6040 4.08704   5
 -10   4   6 30.1034 4.48399   1
  -9  -4   6 16.5080 2.88800   1
  -9  -4   6 14.7763 2.94231   5
   9  -4  -6 17.3827 2.76335   3
   9  -4  -6 14.7631 2.86092   6
  -9   4   6 13.7184 2.92197   1
  -8  -4   6 27.9320 3.49068   1
  -8  -4   6 25.0653 3.17777   5
   8  -4  -6 27.1700 3.00452   3
   8  -4  -6 22.1521 3.08609   6
  -8   4   6 26.8244 3.46733   1
   7  -4  -6 44.3485 3.57043   2
  -7  -4   6 39.8279 3.52505   1
  -7  -4   6 44.6832 3.75656   5
   7  -4  -6 39.0602 3.27708   3
   7  -4  -6 43.5089 3.65273   6
  -7   4   6 40.5777 3.60443   1
   6  -4  -6 2.87805 1.51072   2
   6  -4  -6 4.85572 1.78143   6
   6  -4  -6 2.11878 1.38965   3
  -6  -4   6 1.62745 1.02101   4
  -6  -4   6 2.08660 1.31365   1
  -6   4   6 2.70903 1.41846   1
  -5  -4   6 20.6292 2.25323   4
   5  -4  -6 21.1203 2.47849   3
  -5  -4   6 25.2006 2.88606   1
   5  -4  -6 21.5424 2.58547   2
   5  -4  -6 28.4629 2.96402   6
   5   4  -6 23.7622 3.21665   2
  -5   4   6 18.4485 2.30818   1
  -4  -4   6 143.751 5.80327   1
   4  -4  -6 151.511 5.83643   3
   4  -4  -6 172.477 6.50313   2
  -4  -4   6 146.023 5.45101   4
   4  -4  -6 150.353 6.10188   6
   4   4  -6 144.749 6.49138   2
  -4   4   6 152.120 5.36233   1
  -3  -4   6 161.494 6.06562   1
   3  -4  -6 164.993 6.64593   2
   3  -4  -6 168.787 6.41484   6
  -3  -4   6 164.845 5.73678   4
  -3   4   6 166.086 6.27662   4
  -3   4   6 167.084 5.15088   1
   3   4  -6 164.473 6.59571   2
  -2  -4   6 10.3890 1.82422   1
   2  -4  -6 0.92793 1.51573   2
  -2  -4   6 5.26858 1.50419   4
   2   4  -6 8.10853 1.82963   2
   1  -4  -6 317.764 7.77303   5
  -1  -4   6 318.662 8.84286   4
  -1  -4   6 318.806 9.18236   1
  -1  -4   6 316.050 7.35182   3
   1  -4  -6 303.063 9.80617   2
   1   4  -6 302.788 9.13995   2
  -1   4   6 319.926 9.15950   4
   0  -4  -6 162.610 6.97976   2
   0  -4  -6 183.296 5.83173   5
   0  -4   6 181.649 5.32931   3
   0  -4   6 171.037 6.20714   4
   0  -4   6 170.191 6.48684   1
   0   4  -6 170.984 6.19316   2
   0   4   6 173.252 6.26555   4
   0   4  -6 175.397 6.99316   5
   1  -4   6 18.7069 2.48294   4
  -1  -4  -6 19.5623 2.39206   5
   1  -4   6 13.0840 1.85569   3
  -1  -4  -6 13.3993 2.80465   2
   1   4   6 13.8884 2.04357   4
  -1   4  -6 14.7506 2.61848   5
  -2  -4  -6 227.258 7.69565   5
   2  -4   6 218.548 7.13064   3
   2  -4   6 226.028 7.61925   4
  -2  -4  -6 220.348 8.89369   2
  -2   4  -6 225.787 8.79161   5
   2   4   6 229.451 7.42137   4
  -3  -4  -6 -0.9772 2.00846   2
  -3  -4  -6 -0.8157 1.41912   5
   3  -4   6 -0.1246 1.41587   4
   3  -4   6 1.04020 1.39348   3
  -3   4  -6 3.15052 2.05685   5
   4  -4   6 1.92065 1.70505   4
  -4  -4  -6 3.12934 2.12924   5
  -4  -4  -6 2.16324 2.57410   2
   4  -4   6 -0.1923 1.54677   3
  -4   4  -6 2.60968 2.04363   5
  -5  -4  -6 13.4464 3.17951   5
  -5  -4  -6 8.48979 3.29195   2
   5  -4   6 11.1983 2.59730   3
 -10  -5   6 26.9977 4.01507   5
  10  -5  -6 23.8849 4.19661   6
 -10  -5   6 29.4853 4.21885   1
  -9  -5   6 202.867 8.66314   1
  -9  -5   6 207.461 8.67477   5
   9  -5  -6 195.690 8.48104   6
   9  -5  -6 202.812 7.88098   3
  -9   5   6 204.541 9.25299   1
  -8  -5   6 36.7396 3.97775   1
   8  -5  -6 44.3855 4.12100   6
   8  -5  -6 44.9646 3.87745   3
  -8  -5   6 38.5124 4.11683   5
  -8   5   6 45.7410 4.27586   1
  -7  -5   6 57.5350 4.16412   1
   7  -5  -6 64.6538 4.27921   3
   7  -5  -6 67.4255 4.62855   6
  -7  -5   6 69.2283 4.77002   5
  -7   5   6 63.3206 4.49123   1
  -6  -5   6 177.020 7.14155   1
   6  -5  -6 208.034 7.25111   2
  -6  -5   6 202.212 6.85852   4
   6  -5  -6 202.672 7.44465   3
   6  -5  -6 198.177 7.65917   6
  -6   5   6 195.261 7.48296   1
  -5  -5   6 210.901 6.75725   4
   5  -5  -6 213.071 7.64864   3
   5  -5  -6 207.753 7.83443   6
   5  -5  -6 225.084 7.66429   2
  -5  -5   6 206.549 7.57410   1
  -5   5   6 213.364 7.33510   1
   4  -5  -6 649.251 16.3739   6
   4  -5  -6 642.103 16.2914   2
   4  -5  -6 639.567 15.7950   3
  -4  -5   6 639.178 15.9384   1
  -4  -5   6 659.716 14.8827   4
  -4   5   6 657.757 15.1628   1
  -3  -5   6 136.652 5.73390   1
   3  -5  -6 136.416 6.08252   6
  -3  -5   6 132.036 5.16577   4
   3  -5  -6 139.327 6.12566   2
   3   5  -6 128.821 6.05246   2
   2  -5  -6 93.1479 5.07757   2
  -2  -5   6 88.5759 4.61851   1
   2  -5  -6 91.7224 5.03289   6
  -2  -5   6 95.2826 4.42627   4
   2   5  -6 91.5053 4.76735   2
   1  -5  -6 -0.1706 1.34091   6
  -1  -5   6 -0.6617 1.24560   1
  -1  -5   6 0.96314 1.24262   4
   1  -5  -6 0.55215 1.43597   2
   1   5  -6 0.56877 1.14510   2
  -1   5   6 0.64087 1.14754   4
   0  -5   6 31.5060 2.34707   3
   0  -5   6 32.5044 3.16644   1
   0  -5   6 30.1369 3.03526   4
   0  -5  -6 31.2666 2.57796   5
   0  -5  -6 30.0870 3.59513   2
   0   5   6 28.8152 3.02901   4
   1  -5   6 47.1026 3.59980   4
   1  -5   6 41.9630 2.91432   3
  -1  -5  -6 45.1536 3.23229   5
  -1  -5  -6 42.8695 4.42409   2
   1   5   6 49.8703 3.53944   4
  -1   5  -6 41.8700 3.82160   5
   2  -5   6 1.34375 1.26817   3
   2  -5   6 -0.4552 1.39167   4
  -2  -5  -6 1.72161 2.05862   2
  -2  -5  -6 3.80465 1.69387   5
  -2   5  -6 1.69078 1.80244   5
   3  -5   6 162.062 6.53675   3
   3  -5   6 173.825 6.99025   4
  -3  -5  -6 165.149 7.06361   5
  -3  -5  -6 175.448 8.44441   2
  -3   5  -6 167.485 8.09768   5
  -4  -5  -6 8.42799 2.60410   5
   4  -5   6 6.53165 2.00812   3
   4  -5   6 7.21732 2.24032   4
  -4  -5  -6 7.73485 3.00138   2
  -4   5  -6 9.04719 2.78423   5
  -5  -5  -6 67.1953 6.64720   2
  10  -6  -6 483.977 14.2101   3
   9  -6  -6 198.881 8.17068   3
  -9  -6   6 197.164 8.64595   1
   9  -6  -6 186.990 8.61341   6
  -9  -6   6 190.450 8.64981   5
  -9   6   6 207.890 9.60491   1
   8  -6  -6 147.954 7.22858   6
  -8  -6   6 157.208 7.31249   1
  -8  -6   6 156.706 7.55067   5
   8  -6  -6 152.109 6.89432   3
  -8   6   6 144.724 7.56964   1
  -7  -6   6 -1.3262 1.39411   1
   7  -6  -6 15.3901 2.99225   6
   7  -6  -6 2.11914 1.66660   3
  -7  -6   6 -1.6026 1.56272   5
  -7   6   6 3.11385 1.75593   1
   6  -6  -6 134.180 6.60208   6
   6  -6  -6 135.789 6.43431   3
  -6  -6   6 140.155 6.46977   1
   6  -6  -6 145.886 5.97452   2
  -6   6   6 144.219 6.50254   1
   5  -6  -6 171.047 7.35959   6
   5  -6  -6 181.654 6.98673   2
  -5  -6   6 173.553 6.13924   4
   5  -6  -6 166.504 7.08981   3
  -5  -6   6 179.469 7.17482   1
  -5   6   6 176.416 6.83674   1
  -4  -6   6 69.4837 4.35142   1
   4  -6  -6 74.2744 4.78285   3
   4  -6  -6 83.6138 4.77873   2
  -4  -6   6 77.0272 4.01301   4
   4  -6  -6 87.3116 5.10898   6
  -4   6   6 81.5407 4.17488   1
  -3  -6   6 2.79989 1.60939   1
   3  -6  -6 3.46554 1.77404   2
   3  -6  -6 4.55590 1.81584   6
  -3  -6   6 3.87519 1.40205   4
  -2  -6   6 588.437 14.2411   4
   2  -6  -6 578.536 15.9646   6
  -2  -6   6 604.866 15.4297   1
   2  -6  -6 627.454 16.0271   2
   1  -6  -6 21.4282 3.26790   2
  -1  -6   6 20.5604 2.91043   1
   1  -6  -6 19.4150 2.98354   6
  -1  -6   6 24.2382 2.80149   4
   1   6  -6 22.0968 2.71129   2
   0  -6   6 58.1924 4.08945   4
   0  -6   6 65.1109 4.43713   1
   0  -6  -6 59.5088 4.82958   2
   1  -6   6 311.327 9.68161   4
  -1  -6  -6 309.943 9.07979   5
   1  -6   6 297.819 8.37827   3
  -1  -6  -6 297.078 10.7707   2
  -2  -6  -6 26.4997 3.11232   5
   2  -6   6 16.8576 2.83101   4
   2  -6   6 19.3572 2.41706   3
  -2  -6  -6 15.5541 3.29503   2
  -2   6  -6 20.4520 3.38424   5
  -3  -6  -6 0.71365 1.77433   5
  -3  -6  -6 -0.1630 2.33401   2
   3  -6   6 0.64468 1.44649   3
   3  -6   6 1.43109 1.95006   4
  -3   6  -6 0.78418 1.93580   5
   4  -6   6 67.2566 4.83647   3
   4  -6   6 69.3147 5.09653   4
  -4  -6  -6 77.3584 5.48173   5
  -4  -6  -6 93.3142 7.17761   2
  -4   6  -6 65.7869 6.03268   5
  -9  -7   6 -0.0922 2.24873   5
   9  -7  -6 1.68627 2.14167   3
  -9  -7   6 2.99726 2.14816   1
  -9   7   6 5.04508 2.61256   1
  -8  -7   6 148.441 7.67206   5
  -8  -7   6 135.335 7.13140   1
   8  -7  -6 137.957 7.30818   6
   8  -7  -6 131.307 6.92468   3
  -8   7   6 144.560 7.87090   1
   7  -7  -6 112.434 6.48728   6
  -7  -7   6 121.124 6.41654   1
  -7  -7   6 109.060 6.52132   5
   7  -7  -6 119.466 6.36961   3
  -7   7   6 125.702 6.79675   1
  -6  -7   6 545.569 15.3340   1
   6  -7  -6 545.307 15.3165   3
   6  -7  -6 551.453 15.7073   6
  -6   7   6 573.933 15.6913   1
  -5  -7   6 299.559 8.75309   4
  -5  -7   6 294.838 10.1067   1
   5  -7  -6 326.173 10.0544   2
   5  -7  -6 288.424 10.2147   3
   5  -7  -6 297.559 10.5442   6
  -4  -7   6 314.303 10.3477   1
   4  -7  -6 305.647 10.4405   3
  -4  -7   6 302.707 8.88201   4
   4  -7  -6 317.573 10.8412   6
   4  -7  -6 324.061 10.3779   2
   3  -7  -6 59.8936 4.64380   6
  -3  -7   6 60.4415 4.33598   1
  -3  -7   6 62.3921 3.77279   4
   3  -7  -6 60.2901 4.41121   2
   2  -7  -6 264.075 9.82517   6
  -2  -7   6 263.260 9.20364   1
   2  -7  -6 263.479 9.40366   2
  -2  -7   6 243.475 8.20936   4
   1  -7  -6 194.345 8.46731   6
  -1  -7   6 186.358 7.80653   1
  -1  -7   6 200.703 7.28173   4
   1  -7  -6 198.587 8.25328   2
   0  -7   6 703.178 18.2084   1
   0  -7   6 689.983 16.9016   4
   0  -7  -6 670.191 18.5193   2
   1  -7   6 188.535 7.64330   4
  -1  -7  -6 192.276 8.80479   2
  -2  -7  -6 350.443 12.7766   2
   2  -7   6 353.384 11.1690   4
  -3  -7  -6 115.424 7.68132   2
   3  -7   6 123.193 5.95464   3
   3  -7   6 122.221 6.73810   4
  -3  -7  -6 130.308 6.80490   5
  -4  -7  -6 313.268 11.1707   5
   4  -7   6 339.969 10.8903   3
   4  -7   6 322.074 11.6794   4
   8  -8  -6 216.264 9.28901   3
   8  -8  -6 213.096 9.48816   6
  -8  -8   6 217.254 9.70177   5
  -8  -8   6 208.314 9.15005   1
   7  -8  -6 223.148 9.50379   6
  -7  -8   6 201.452 9.33178   5
   7  -8  -6 229.605 9.32671   3
  -7  -8   6 215.287 9.00117   1
   6  -8  -6 126.902 7.03691   3
   6  -8  -6 133.235 7.20546   6
  -6  -8   6 138.528 6.92488   1
  -6  -8   6 143.689 7.59185   5
   5  -8  -6 497.355 15.0821   6
   5  -8  -6 518.021 14.9776   3
  -5  -8   6 475.166 14.2615   1
  -4  -8   6 273.679 8.66617   4
   4  -8  -6 285.904 10.7165   6
   4  -8  -6 305.830 10.1740   2
  -4  -8   6 283.523 10.1210   1
   4  -8  -6 281.896 10.5021   3
   3  -8  -6 535.009 15.5550   3
   3  -8  -6 541.803 15.9883   6
  -3  -8   6 529.508 15.1349   1
   3  -8  -6 544.049 15.1923   2
  -3  -8   6 559.744 13.9000   4
   2  -8  -6 75.5167 5.61816   6
   2  -8  -6 86.2567 5.49625   2
  -2  -8   6 78.9053 4.77953   4
  -2  -8   6 79.0530 5.22656   1
   1  -8  -6 383.459 13.2487   6
   1  -8  -6 391.536 12.7507   2
  -1  -8   6 389.344 12.6063   1
  -1  -8   6 411.687 11.7643   4
   0  -8  -6 83.0233 6.04994   6
   0  -8   6 82.3818 5.23269   4
   0  -8   6 86.4827 5.78715   1
   0  -8  -6 90.0190 6.15756   2
  -1  -8  -6 447.409 14.6743   2
   1  -8   6 422.734 12.9114   4
  -2  -8  -6 8.78670 3.20141   2
   2  -8   6 14.4288 2.99862   4
   3  -8   6 37.7475 4.48292   4
   7  -9  -6 41.2727 4.96991   6
  -7  -9   6 39.4593 4.87451   5
   7  -9  -6 37.7538 4.59894   3
  -7  -9   6 42.2686 4.73457   1
  -6  -9   6 332.222 12.4118   5
   6  -9  -6 331.883 12.2178   3
  -6  -9   6 345.129 11.9538   1
   6  -9  -6 363.200 12.6991   6
  -5  -9   6 4.64730 2.21953   1
   5  -9  -6 13.4410 3.06742   3
   5  -9  -6 7.99416 2.64370   6
   4  -9  -6 144.312 7.90610   2
  -4  -9   6 152.308 6.29167   4
  -4  -9   6 145.777 7.31232   1
   4  -9  -6 139.584 7.68890   3
   4  -9  -6 149.279 7.91034   6
   3  -9  -6 28.0809 3.98456   3
  -3  -9   6 25.0677 3.59304   1
  -3  -9   6 24.3448 3.13330   4
   3  -9  -6 29.4272 3.80236   2
   3  -9  -6 16.8903 3.30272   6
  -2  -9   6 290.524 10.8035   1
   2  -9  -6 310.706 11.0335   2
  -2  -9   6 299.039 9.80628   4
   2  -9  -6 279.042 11.4147   6
  -1  -9   6 392.050 13.1561   1
  -1  -9   6 382.445 11.8899   4
   1  -9  -6 395.062 13.9278   6
   1  -9  -6 402.009 13.2380   2
   0  -9   6 708.009 19.9099   1
   0  -9   6 722.353 18.4546   4
   0  -9  -6 679.853 20.4188   6
   0  -9  -6 752.249 20.4919   2
  -1  -9  -6 562.749 17.7728   2
   1  -9   6 593.483 16.3575   4
  -2  -9  -6 130.874 9.39829   2
  -6 -10   6 192.811 9.04233   1
   6 -10  -6 193.669 9.70251   3
  -5 -10   6 67.3064 5.48085   1
   5 -10  -6 59.9913 5.71307   6
   5 -10  -6 54.6834 5.67854   3
   4 -10  -6 101.533 7.00251   6
  -4 -10   6 113.895 5.74334   4
   4 -10  -6 101.132 6.87626   3
  -4 -10   6 96.2414 6.38887   1
   3 -10  -6 106.892 6.37024   2
   3 -10  -6 101.549 6.82451   3
   3 -10  -6 94.0288 6.80515   6
  -3 -10   6 93.4298 6.27585   1
  -3 -10   6 96.6364 5.55470   4
  -2 -10   6 117.679 6.41221   4
   2 -10  -6 98.9026 6.89680   3
  -2 -10   6 110.388 6.79989   1
   2 -10  -6 120.360 6.94516   2
   2 -10  -6 108.812 7.40650   6
   1 -10  -6 59.3096 5.61223   2
   1 -10  -6 68.9472 6.16324   6
  -1 -10   6 67.8355 5.78451   1
  -1 -10   6 66.6737 5.25489   4
   0 -10  -6 18.9488 3.96730   6
   0 -10   6 11.8229 3.12292   1
   0 -10  -6 9.47548 3.23609   2
   0 -10   6 13.8073 3.07516   4
  -3 -11   6 106.012 6.24363   4
  -2 -11   6 57.3426 5.05992   4
   2 -11  -6 57.7570 5.92794   2
   1 -11  -6 205.322 9.97150   2
  11   0  -7 -0.1545 1.94120   6
  10   0  -7 1.06906 1.79938   6
 -10   0   7 -1.0996 1.78858   1
  -9   0   7 -0.7076 1.22420   1
   9   0  -7 0.75044 1.50705   6
   8   0  -7 0.32614 1.29956   6
  -8   0   7 0.53894 1.35661   1
   8   0  -7 0.45321 1.59720   2
   7   0  -7 0.66662 1.50170   2
  -7   0   7 1.74052 1.17135   4
  -7   0   7 0.79323 1.35324   1
   7   0  -7 0.68158 1.08646   6
   6   0  -7 5.20139 1.73003   2
   6   0  -7 -0.0767 1.01653   6
  -6   0   7 -0.0049 1.01951   4
  -6   0   7 1.48425 1.24474   1
  -5   0   7 -1.0936 0.81391   4
  -5   0   7 -0.6687 0.94159   1
   5   0  -7 0.60081 0.93557   6
   5   0  -7 1.91394 1.55566   2
   4   0  -7 -0.0684 1.23168   2
  -4   0   7 -0.0005 0.93310   4
  -4   0   7 -0.2763 0.90422   1
   4   0  -7 0.68341 0.84690   6
   3   0  -7 -0.7720 0.75090   6
  -3   0   7 0.77144 0.87485   1
   3   0  -7 0.84196 1.30539   2
  -3   0   7 0.76746 0.95770   4
   2   0  -7 -0.4459 1.33212   2
  -2   0   7 0.13241 0.76568   1
  -2   0   7 0.08526 1.04171   4
   2   0  -7 2.78304 1.19460   5
   1   0  -7 -0.1072 1.09591   5
  -1   0   7 -1.0624 0.89126   4
   1   0  -7 -1.0195 1.24575   2
   0   0  -7 -0.4231 1.51486   2
   0   0  -7 1.57810 1.31152   5
   0   0   7 0.49032 1.19736   4
  -1   0  -7 0.67032 1.62977   2
   1   0   7 2.73962 1.39059   4
  -1   0  -7 0.36343 1.41823   5
   1   0   7 1.80912 1.25659   3
   2   0   7 -0.0209 1.18003   3
  -2   0  -7 -0.1308 1.53819   5
   2   0   7 -0.6078 1.09888   4
  -2   0  -7 0.73572 1.73019   2
  -3   0  -7 0.31392 1.80522   5
   3   0   7 8.83491 2.28958   3
   4   0   7 -0.6152 1.76671   3
  -4   0  -7 -3.1878 1.96749   5
  11  -1  -7 68.1921 5.66181   6
  11   1  -7 72.8460 6.31396   6
 -10  -1   7 78.0580 5.71131   1
  10  -1  -7 81.6288 5.37966   6
 -10   1   7 70.4599 5.60505   1
  10   1  -7 77.3347 5.28506   6
  -9  -1   7 51.9670 4.45906   1
   9  -1  -7 59.9072 4.29517   6
  -9   1   7 58.3475 4.63421   1
   9   1  -7 58.8444 4.14548   6
   8  -1  -7 6.49506 1.83623   6
   8  -1  -7 6.35740 2.13806   2
  -8  -1   7 6.73312 1.98024   1
   8   1  -7 8.09811 2.41930   2
  -8   1   7 3.21205 1.59557   1
   8   1  -7 7.51138 1.77331   6
  -7  -1   7 154.150 5.64765   4
   7  -1  -7 149.641 6.78510   2
  -7  -1   7 150.892 6.37615   1
   7  -1  -7 154.483 5.88103   6
   7   1  -7 153.174 7.20359   2
  -7   1   7 158.425 6.14179   4
  -7   1   7 142.963 6.21632   1
   7   1  -7 154.789 5.53162   6
  -6  -1   7 0.06932 0.97729   4
  -6  -1   7 2.65306 1.47481   1
   6  -1  -7 -0.1141 1.45996   2
   6  -1  -7 2.42126 1.28190   6
   6   1  -7 3.48494 1.76233   2
  -6   1   7 0.35566 1.10476   4
  -6   1   7 2.27916 1.33412   1
  -5  -1   7 374.912 10.1986   1
   5  -1  -7 373.457 9.72798   6
   5  -1  -7 380.343 11.2248   2
  -5  -1   7 381.282 10.0538   4
  -5   1   7 375.719 10.2436   4
  -5   1   7 371.359 9.99317   1
   5   1  -7 381.321 11.5054   2
   4  -1  -7 123.403 5.66626   2
  -4  -1   7 131.245 5.20263   4
   4  -1  -7 136.270 4.93823   6
  -4  -1   7 133.687 5.05812   1
  -4   1   7 129.788 5.21647   4
  -4   1   7 130.832 4.75732   1
   4   1  -7 128.329 5.84002   2
  -3  -1   7 62.9533 3.66986   4
   3  -1  -7 64.6993 3.32202   6
  -3  -1   7 65.7430 3.27143   1
   3  -1  -7 62.8749 4.16003   2
   3   1  -7 64.1891 4.14579   2
  -3   1   7 66.5318 3.01879   1
  -3   1   7 63.6464 3.59669   4
  -2  -1   7 930.718 19.3477   1
   2  -1  -7 948.567 19.1343   5
   2  -1  -7 928.089 19.7272   6
  -2  -1   7 932.401 20.4261   4
   2  -1  -7 866.852 21.4526   2
   2   1  -7 935.567 21.4412   2
  -2   1   7 939.314 20.2792   4
  -1  -1   7 454.714 12.1142   4
   1  -1  -7 450.568 12.9456   2
  -1  -1   7 479.681 10.9141   1
   1  -1  -7 458.595 11.3855   5
   1   1  -7 455.973 12.6739   2
  -1   1   7 447.112 11.7505   4
   1   1  -7 483.041 12.0698   5
   0  -1   7 233.320 7.07486   3
   0  -1  -7 225.296 8.49390   2
   0  -1   7 223.630 7.70598   4
   0  -1  -7 230.745 7.50609   5
   0   1   7 227.171 7.48307   4
   0   1  -7 222.677 8.10767   2
   0   1  -7 226.532 7.83096   5
   1  -1   7 140.021 5.58260   3
  -1  -1  -7 136.043 6.52811   2
  -1  -1  -7 138.441 6.08627   5
   1  -1   7 142.754 6.04158   4
  -1   1  -7 139.935 6.42505   2
  -1   1  -7 149.547 6.39194   5
   1   1   7 140.420 5.72164   4
  -2  -1  -7 119.330 5.96117   5
  -2  -1  -7 109.418 6.16742   2
   2  -1   7 120.488 5.48013   3
   2  -1   7 118.638 5.62239   4
  -2   1  -7 108.321 6.09328   2
  -2   1  -7 112.427 6.02886   5
   2   1   7 115.100 5.27191   4
  -3  -1  -7 276.185 10.1730   2
  -3  -1  -7 285.231 10.0900   5
   3  -1   7 270.727 9.28552   3
   3  -1   7 273.946 9.32906   4
  -3   1  -7 276.596 10.2118   5
   3   1   7 272.235 9.71987   3
   4  -1   7 276.063 9.92612   3
  -4  -1  -7 261.569 10.3899   5
  -4   1  -7 260.348 10.5214   5
   4   1   7 282.832 10.4769   3
 -10  -2   7 163.762 8.06344   1
  10  -2  -7 155.762 7.38884   6
 -10   2   7 160.370 8.19242   1
   9  -2  -7 336.733 10.6853   6
  -9  -2   7 347.596 11.5109   1
   9  -2  -7 336.666 11.5882   2
  -9   2   7 307.632 11.2947   1
   8  -2  -7 21.5678 2.93572   6
   8  -2  -7 22.5993 3.24498   2
  -8  -2   7 22.1254 2.86304   5
  -8  -2   7 19.7601 2.83583   1
  -8   2   7 16.3447 2.73082   1
   7  -2  -7 808.710 18.4745   6
   7  -2  -7 794.007 19.6190   2
  -7  -2   7 787.352 19.0570   1
  -7  -2   7 794.604 17.9654   5
  -7  -2   7 797.299 17.4908   4
   7   2  -7 822.039 20.9071   2
  -7   2   7 760.673 18.9763   1
   6  -2  -7 775.776 17.6035   3
   6  -2  -7 752.273 18.8579   2
  -6  -2   7 783.010 17.2172   4
  -6  -2   7 789.557 18.3798   1
   6  -2  -7 790.298 17.8872   6
   6   2  -7 799.797 19.9221   2
  -6   2   7 770.622 18.0794   4
  -6   2   7 753.580 18.0645   1
   5  -2  -7 3561.83 68.5282   2
   5  -2  -7 3542.81 65.9804   6
  -5  -2   7 3493.73 67.1208   1
  -5  -2   7 3563.73 65.1817   4
   5  -2  -7 3535.24 63.6086   3
   5   2  -7 3410.21 69.0704   2
  -5   2   7 3506.30 65.8355   4
  -5   2   7 3398.57 66.5319   1
  -4  -2   7 1815.25 35.6778   1
   4  -2  -7 1786.82 37.1471   2
  -4  -2   7 1794.27 35.1705   4
   4  -2  -7 1817.19 35.3193   6
  -4   2   7 1741.97 35.3096   4
   4   2  -7 1690.52 37.1665   2
  -4   2   7 1762.26 34.9275   1
   3  -2  -7 1496.07 29.9892   6
  -3  -2   7 1481.00 29.8896   1
  -3  -2   7 1502.73 30.1312   4
   3  -2  -7 1487.18 31.9447   2
   3   2  -7 1427.71 31.4418   2
  -3   2   7 1456.48 30.0160   4
  -3   2   7 1471.06 28.9470   1
   2  -2  -7 246.829 7.71005   6
  -2  -2   7 239.872 7.09231   1
   2  -2  -7 236.608 8.58127   2
  -2  -2   7 243.332 7.84246   4
   2  -2  -7 247.158 6.83915   5
   2   2  -7 249.498 8.29888   2
  -2   2   7 230.216 7.59743   4
  -1  -2   7 190.507 6.03201   1
   1  -2  -7 180.774 7.50035   2
  -1  -2   7 185.040 6.81034   4
   1  -2  -7 187.874 6.11922   5
  -1  -2   7 190.570 5.77492   3
   1   2  -7 188.242 6.96702   5
   1   2  -7 194.283 7.11969   2
  -1   2   7 182.705 6.58476   4
   0  -2  -7 257.778 7.96303   5
   0  -2  -7 261.300 9.33927   2
   0  -2   7 265.367 7.59925   3
   0  -2   7 267.626 8.59866   4
   0   2   7 258.648 8.17759   4
   0   2  -7 262.358 8.82896   5
   0   2  -7 273.448 8.79138   2
   1  -2   7 117.298 5.01857   3
  -1  -2  -7 101.711 5.85700   2
   1  -2   7 113.389 5.43824   4
  -1  -2  -7 122.574 5.49870   5
  -1   2  -7 117.084 5.61696   2
   1   2   7 115.815 5.18611   4
  -1   2  -7 123.310 5.92877   5
  -2  -2  -7 47.5255 4.57267   2
   2  -2   7 53.8624 4.06901   4
   2  -2   7 53.1068 3.83434   3
  -2  -2  -7 48.7270 4.06965   5
  -2   2  -7 47.1599 4.25923   5
   2   2   7 56.6590 3.73240   4
   3  -2   7 13.0613 2.49669   3
  -3  -2  -7 22.2118 3.60652   2
  -3  -2  -7 18.8953 3.23679   5
   3  -2   7 25.5404 3.28344   4
  -3   2  -7 15.5230 3.13249   5
   4  -2   7 35.5334 4.01742   3
  -4  -2  -7 28.0461 4.07625   5
  -4   2  -7 30.8720 4.31120   5
  10  -3  -7 10.4084 2.79340   6
 -10  -3   7 14.1379 3.15001   1
 -10   3   7 9.31265 2.95069   1
  -9  -3   7 220.859 8.46803   5
  -9  -3   7 222.007 8.97705   1
   9  -3  -7 203.523 8.32455   6
  -9   3   7 220.093 9.19108   1
   8  -3  -7 59.5549 4.38229   6
   8  -3  -7 68.6556 4.78278   2
  -8  -3   7 61.3650 4.29073   5
  -8  -3   7 59.1881 4.47831   1
  -8   3   7 56.8343 4.42643   1
  -7  -3   7 1.28873 1.50882   5
   7  -3  -7 0.72754 1.15347   3
   7  -3  -7 6.42042 1.92884   6
   7  -3  -7 3.26160 1.68682   2
  -7  -3   7 3.42837 1.54481   1
  -6  -3   7 -0.7785 1.30682   1
  -6  -3   7 1.16697 1.04088   4
   6  -3  -7 4.71049 1.88268   2
   6  -3  -7 8.21828 1.70348   3
   6  -3  -7 0.44341 1.27753   6
   6   3  -7 0.25910 1.66649   2
  -6   3   7 0.88337 1.23434   1
  -5  -3   7 15.2689 2.12183   4
   5  -3  -7 8.43869 1.75181   3
  -5  -3   7 7.29765 1.77221   1
   5  -3  -7 9.05406 1.93945   6
   5  -3  -7 4.25976 1.71348   2
   5   3  -7 8.21535 2.18699   2
  -5   3   7 8.94625 1.95660   4
  -5   3   7 7.75001 1.69724   1
  -4  -3   7 27.4294 2.87318   4
   4  -3  -7 24.8266 2.77899   6
  -4  -3   7 29.6261 2.76727   1
   4  -3  -7 30.8267 3.48648   2
  -4   3   7 26.0794 2.28172   1
  -4   3   7 27.1101 2.87636   4
   4   3  -7 19.6526 2.71925   2
  -3  -3   7 1593.94 32.0514   4
   3  -3  -7 1597.44 32.4843   6
   3  -3  -7 1611.55 34.1792   2
  -3  -3   7 1633.97 32.3854   1
   3   3  -7 1546.33 33.7471   2
  -3   3   7 1502.39 32.0109   4
  -2  -3   7 1755.81 34.8125   1
   2  -3  -7 1680.76 36.6912   2
  -2  -3   7 1728.35 34.6116   4
   2  -3  -7 1770.96 35.3064   6
  -2   3   7 1647.95 34.5582   4
   2   3  -7 1755.57 36.2318   2
  -1  -3   7 1878.90 37.8407   4
  -1  -3   7 1966.76 37.9769   1
   1  -3  -7 1948.32 35.6990   5
   1  -3  -7 1842.72 39.9713   2
  -1  -3   7 1920.87 36.1329   3
   1   3  -7 1919.80 39.1969   2
  -1   3   7 1806.47 37.6108   4
   0  -3   7 619.055 14.5745   1
   0  -3   7 576.076 14.8697   4
   0  -3  -7 600.758 16.2870   2
   0  -3   7 617.874 13.5706   3
   0  -3  -7 611.172 14.1002   5
   0   3  -7 586.772 15.4309   5
   0   3  -7 603.061 15.1552   2
   0   3   7 592.194 14.7480   4
  -1  -3  -7 93.3298 5.81860   2
   1  -3   7 99.9113 5.20492   4
  -1  -3  -7 97.8457 5.05180   5
   1  -3   7 106.145 4.65396   3
  -1   3  -7 98.8532 5.68755   5
   2  -3   7 404.628 11.0439   3
  -2  -3  -7 399.687 11.6766   5
   2  -3   7 374.112 11.5247   4
  -2  -3  -7 387.399 12.7075   2
   2   3   7 393.027 11.6593   4
  -2   3  -7 401.644 12.6463   5
   3  -3   7 328.808 10.6463   4
   3  -3   7 314.585 10.0841   3
  -3  -3  -7 320.648 10.8464   5
  -3  -3  -7 319.028 11.6341   2
  -3   3  -7 312.859 11.4993   5
  -4  -3  -7 795.967 20.4311   5
   4  -3   7 763.600 19.4343   3
  -4  -3  -7 772.827 21.2967   2
  -4   3  -7 799.341 21.3094   5
  10  -4  -7 344.665 12.0499   6
 -10  -4   7 362.177 12.6854   1
 -10   4   7 368.822 13.3663   1
   9  -4  -7 279.691 10.1872   6
  -9  -4   7 282.968 10.4857   1
  -9  -4   7 279.769 9.92552   5
  -9   4   7 288.707 10.9880   1
   8  -4  -7 298.156 10.0051   2
  -8  -4   7 289.114 9.82204   5
   8  -4  -7 279.400 9.75305   6
  -8  -4   7 278.613 9.96486   1
  -8   4   7 277.657 10.2244   1
  -7  -4   7 683.078 17.3276   1
  -7  -4   7 651.609 16.6287   5
   7  -4  -7 691.196 17.0660   6
   7  -4  -7 659.519 15.9895   3
   7  -4  -7 656.744 17.0318   2
  -7   4   7 647.509 17.1248   1
   6  -4  -7 1069.96 23.0971   3
  -6  -4   7 1091.27 22.7038   4
  -6  -4   7 1100.55 24.5139   1
   6  -4  -7 1048.84 24.3159   2
   6  -4  -7 1074.17 24.0900   6
  -6   4   7 1042.62 23.9535   1
   5  -4  -7 1896.05 39.7329   2
   5  -4  -7 1927.09 37.6748   3
   5  -4  -7 1899.25 38.9218   6
  -5  -4   7 1919.15 37.6704   4
  -5  -4   7 1917.73 39.1505   1
  -5   4   7 1902.83 38.4436   1
   5   4  -7 1883.89 41.0571   2
  -4  -4   7 761.206 17.3481   4
  -4  -4   7 717.039 17.5967   1
   4  -4  -7 757.548 18.8248   2
   4  -4  -7 757.115 18.1258   6
  -4   4   7 770.410 18.2363   4
   4   4  -7 746.288 19.0495   2
  -3  -4   7 493.223 12.6068   1
  -3  -4   7 476.372 12.3642   4
   3  -4  -7 464.509 13.4601   2
   3  -4  -7 481.154 12.9991   6
   3   4  -7 456.411 13.2964   2
  -3   4   7 471.905 12.7534   4
  -2  -4   7 11.2781 1.98429   4
  -2  -4   7 14.2695 2.17661   1
   2  -4  -7 18.1631 2.67790   6
   2  -4  -7 17.6342 3.02720   2
  -2   4   7 13.7698 2.19403   4
   2   4  -7 13.9646 2.41237   2
  -1  -4   7 109.187 5.08000   1
   1  -4  -7 107.126 5.94179   2
   1  -4  -7 110.040 5.61140   6
  -1  -4   7 114.673 5.30740   4
   1   4  -7 109.402 5.29993   2
  -1   4   7 104.147 5.12943   4
   0  -4   7 105.602 5.05425   1
   0  -4  -7 103.790 4.69328   5
   0  -4   7 104.254 5.21508   4
   0  -4  -7 93.1439 5.84918   2
   0   4   7 99.5445 4.95106   4
   1  -4   7 20.0314 2.41456   3
   1  -4   7 18.1213 2.72715   4
  -1  -4  -7 22.5552 2.81937   5
   1  -4   7 23.8491 3.28237   1
  -1  -4  -7 15.1162 3.03716   2
   1   4   7 22.0543 2.69876   4
  -1   4  -7 15.3626 2.79820   5
   2  -4   7 2.95667 1.73866   4
   2  -4   7 4.79915 1.68254   3
  -2  -4  -7 5.29710 2.50396   2
  -2  -4  -7 7.14122 2.05502   5
  -2   4  -7 4.13511 2.15457   5
  -3  -4  -7 110.046 7.17774   2
   3  -4   7 117.318 5.94442   3
  -3  -4  -7 122.436 6.62412   5
   3  -4   7 120.871 6.33469   4
  -3   4  -7 123.644 7.35168   5
  -4  -4  -7 8.76832 2.71634   5
   4  -4   7 1.65408 1.90188   3
  -4  -4  -7 1.76798 2.61325   2
 -10  -5   7 150.479 7.86887   5
  -9  -5   7 35.1536 4.26582   1
  -9  -5   7 30.5336 3.89927   5
   9  -5  -7 30.6866 3.94406   6
  -9   5   7 26.5232 4.00669   1
   8  -5  -7 4.89499 1.91616   3
  -8  -5   7 6.62738 2.32399   5
  -8  -5   7 4.92809 2.10732   1
   8  -5  -7 7.62886 2.26146   6
  -8   5   7 2.78497 1.94353   1
   7  -5  -7 67.5224 4.79447   6
  -7  -5   7 64.3205 4.85555   5
   7  -5  -7 65.4605 4.44344   3
   7  -5  -7 80.7701 4.88119   2
  -7  -5   7 74.2949 4.94287   1
  -7   5   7 70.0780 4.74684   1
   6  -5  -7 48.1058 3.88645   3
  -6  -5   7 36.6076 3.09368   4
   6  -5  -7 41.1186 3.83722   6
  -6  -5   7 46.4384 3.73231   1
   6  -5  -7 52.5915 3.92978   2
  -6   5   7 44.6702 3.65139   1
   5  -5  -7 80.1282 4.89132   6
   5  -5  -7 79.1422 4.85805   2
  -5  -5   7 74.5195 4.24046   4
   5  -5  -7 70.2802 4.56554   3
  -5  -5   7 74.8683 4.47632   1
  -5   5   7 77.0150 4.21108   1
   4  -5  -7 42.4711 3.76171   6
  -4  -5   7 38.2671 3.39870   1
   4  -5  -7 39.6074 3.89657   2
  -4  -5   7 32.2242 3.07056   4
   4   5  -7 38.2030 4.09289   2
  -3  -5   7 586.046 14.4592   4
  -3  -5   7 572.953 14.9707   1
   3  -5  -7 591.432 15.6907   6
   3  -5  -7 600.695 16.1252   2
   3   5  -7 587.111 15.9342   2
   2  -5  -7 414.003 12.7083   2
   2  -5  -7 409.123 12.4323   6
  -2  -5   7 404.934 11.2503   4
  -2  -5   7 417.267 11.7019   1
  -2   5   7 405.930 11.9389   4
   2   5  -7 417.110 12.2154   2
   1  -5  -7 1620.84 34.3054   6
  -1  -5   7 1619.87 33.5306   1
   1  -5  -7 1539.13 34.6950   2
  -1  -5   7 1551.91 32.3858   4
  -1   5   7 1560.10 33.1025   4
   1   5  -7 1589.53 33.7157   2
   0  -5  -7 170.701 7.85691   2
   0  -5   7 172.172 6.99159   1
   0  -5   7 165.408 6.73410   4
   0   5   7 158.503 6.72172   4
  -1  -5  -7 660.891 16.0715   5
  -1  -5  -7 654.158 18.3534   2
   1  -5   7 640.284 16.3234   4
   1  -5   7 659.860 16.9573   1
   1   5   7 643.586 16.4003   4
  -1   5  -7 651.974 17.7375   5
   2  -5   7 31.2457 3.22611   3
   2  -5   7 24.7642 3.15217   4
  -2  -5  -7 29.7460 3.55966   5
  -2  -5  -7 17.7345 3.38106   2
  -2   5  -7 24.5016 3.87126   5
  -3  -5  -7 472.989 15.3764   2
   3  -5   7 444.676 12.7380   3
   3  -5   7 425.103 13.1446   4
  -3  -5  -7 448.763 13.5438   5
  -3   5  -7 483.202 15.3384   5
   4  -5   7 123.787 6.87773   4
   4  -5   7 127.286 6.70027   3
  -4  -5  -7 142.125 7.75790   5
  -9  -6   7 128.222 7.06924   1
  -9  -6   7 143.092 7.54316   5
   9  -6  -7 118.791 6.94655   6
   9  -6  -7 115.322 6.42044   3
  -9   6   7 120.592 7.46181   1
   8  -6  -7 190.337 7.88428   3
   8  -6  -7 188.353 8.48025   6
  -8  -6   7 196.941 8.46534   1
  -8  -6   7 193.881 8.49048   5
  -8   6   7 184.361 8.58607   1
   7  -6  -7 801.711 19.7747   3
   7  -6  -7 830.523 20.7027   6
  -7  -6   7 806.928 20.4265   5
  -7  -6   7 805.802 20.6404   1
  -7   6   7 809.508 20.7118   1
  -6  -6   7 486.721 14.2875   1
   6  -6  -7 505.111 14.1646   3
   6  -6  -7 516.889 14.2162   2
   6  -6  -7 512.285 14.6825   6
  -6   6   7 515.981 14.2555   1
   5  -6  -7 676.775 17.2124   3
  -5  -6   7 669.793 16.0550   4
   5  -6  -7 664.249 17.6129   6
   5  -6  -7 688.267 17.5200   2
  -5  -6   7 647.688 17.1137   1
  -4  -6   7 256.683 8.32394   4
   4  -6  -7 250.861 9.44114   6
   4  -6  -7 268.701 9.42145   3
   4  -6  -7 265.288 9.52194   2
  -4  -6   7 265.981 9.14433   1
   3  -6  -7 217.714 8.63421   6
  -3  -6   7 211.739 7.45435   4
  -3  -6   7 209.308 7.95374   1
   3  -6  -7 203.778 8.40116   2
  -2  -6   7 596.455 15.7007   1
   2  -6  -7 596.665 16.5603   2
  -2  -6   7 576.745 14.7836   4
   2  -6  -7 608.941 16.6760   6
   2   6  -7 601.893 16.1083   2
  -1  -6   7 290.487 9.87782   1
  -1  -6   7 282.599 9.24681   4
   1  -6  -7 299.477 10.7538   2
   1  -6  -7 288.617 10.6014   6
   0  -6   7 573.332 15.4778   1
   0  -6  -7 547.591 16.3420   2
   0  -6   7 542.276 14.4744   4
   1  -6   7 13.8148 2.78436   1
   1  -6   7 4.31691 1.94091   4
  -1  -6  -7 4.65186 2.67218   2
   2  -6   7 1.06728 1.76072   4
  -2  -6  -7 -0.0811 2.46613   2
   3  -6   7 42.1621 4.35852   4
  -3  -6  -7 38.3828 5.13188   2
  -3   6  -7 37.8593 5.04924   5
   9  -7  -7 101.745 6.45346   3
  -9   7   7 114.850 7.48345   1
   8  -7  -7 61.1246 5.13203   3
   8  -7  -7 56.7233 5.09495   6
  -8  -7   7 54.7086 5.05199   5
  -8  -7   7 58.9966 5.06491   1
  -8   7   7 60.7464 5.32615   1
   7  -7  -7 -0.3600 1.77726   6
  -7  -7   7 1.65790 2.12455   5
   7  -7  -7 1.78830 1.85899   3
  -7  -7   7 0.60847 1.78303   1
  -7   7   7 -0.3131 1.72431   1
  -6  -7   7 2.21196 1.89136   1
   6  -7  -7 1.14798 2.05893   6
   6  -7  -7 3.05743 1.97002   3
   6  -7  -7 3.05687 2.07004   2
   5  -7  -7 50.0311 4.43949   2
   5  -7  -7 49.8255 4.55750   3
  -5  -7   7 55.7613 4.53409   1
   5  -7  -7 49.2193 4.56719   6
  -5  -7   7 57.7251 4.03092   4
   4  -7  -7 31.9184 3.81015   2
  -4  -7   7 36.6234 3.47877   4
  -4  -7   7 27.9035 3.42770   1
   4  -7  -7 23.9803 3.41738   6
   4  -7  -7 30.7476 3.82369   3
  -3  -7   7 12.6040 2.53823   1
  -3  -7   7 12.2898 2.25097   4
   3  -7  -7 14.8684 3.03332   2
   3  -7  -7 10.7518 2.60410   6
  -2  -7   7 2.84936 1.69218   4
  -2  -7   7 3.75316 2.03675   1
   2  -7  -7 2.44541 2.06134   6
   2  -7  -7 2.40999 2.01023   2
   1  -7  -7 170.986 8.19412   2
   1  -7  -7 163.499 8.11256   6
  -1  -7   7 162.680 6.95640   4
  -1  -7   7 171.636 7.69453   1
   0  -7   7 159.883 7.27408   4
   0  -7  -7 178.259 8.65511   2
   0  -7   7 173.545 7.89954   1
   1  -7   7 281.722 10.0392   4
  -1  -7  -7 288.374 11.6172   2
   1  -7   7 299.352 10.9190   1
   2  -7   7 128.484 6.87622   4
  -2  -7  -7 155.555 8.84037   2
   8  -8  -7 28.5607 4.03189   3
  -7  -8   7 12.9762 3.35660   5
   7  -8  -7 11.4578 3.09578   6
  -7  -8   7 8.80471 2.61166   1
   7  -8  -7 7.65679 2.70401   3
   6  -8  -7 7.45766 2.68596   6
  -6  -8   7 4.98863 2.18918   1
   6  -8  -7 4.05124 2.15896   3
  -5  -8   7 47.7262 4.58202   1
  -5  -8   7 49.4473 4.00512   4
   5  -8  -7 50.8309 5.08436   3
   5  -8  -7 55.3885 4.72645   2
   5  -8  -7 55.4319 5.12611   6
  -4  -8   7 67.0318 4.59821   4
   4  -8  -7 71.1598 5.55166   6
  -4  -8   7 64.4085 5.07261   1
   4  -8  -7 70.2150 5.32062   2
   4  -8  -7 68.5993 5.45275   3
  -3  -8   7 3.41057 2.18308   1
   3  -8  -7 2.06174 2.08060   2
  -3  -8   7 8.56373 2.17449   4
   3  -8  -7 3.25480 2.18239   6
   2  -8  -7 4.06153 2.54842   6
   2  -8  -7 4.63633 2.44473   2
  -2  -8   7 7.91605 2.16890   4
  -2  -8   7 5.98305 2.30623   1
  -1  -8   7 190.637 7.86768   4
  -1  -8   7 195.073 8.65298   1
   1  -8  -7 175.138 8.96011   6
   1  -8  -7 196.085 9.06004   2
   0  -8  -7 4.92405 2.51850   6
   0  -8  -7 4.69191 2.79206   2
   0  -8   7 2.19799 2.18525   1
   0  -8   7 1.16859 1.98810   4
   1  -8   7 15.9025 3.28422   1
   1  -8   7 18.8201 3.29468   4
  -1  -8  -7 19.5594 4.12283   2
   7  -9  -7 0.44948 2.21800   3
   6  -9  -7 27.5652 4.05321   3
   6  -9  -7 25.0254 4.24914   6
  -6  -9   7 32.6079 4.16322   1
   5  -9  -7 2.96960 2.39709   6
   5  -9  -7 2.92803 2.25885   3
  -5  -9   7 3.87376 2.33434   1
   4  -9  -7 1.04388 2.33771   6
  -4  -9   7 1.25144 1.64494   4
  -4  -9   7 2.33302 2.25732   1
   4  -9  -7 2.62934 2.21760   3
   4  -9  -7 5.71069 2.49917   2
   3  -9  -7 244.378 10.6335   6
  -3  -9   7 229.694 9.63446   1
   3  -9  -7 229.047 10.1260   3
   3  -9  -7 265.755 10.3848   2
  -3  -9   7 241.860 8.83553   4
  -2  -9   7 149.870 7.87628   1
  -2  -9   7 162.660 7.30445   4
   2  -9  -7 167.464 8.43998   2
   2  -9  -7 167.041 8.95608   6
  -1  -9   7 496.689 14.4384   4
   1  -9  -7 485.213 16.4292   6
   1  -9  -7 518.034 16.2426   2
  -1  -9   7 472.616 15.4015   1
   0  -9  -7 87.0732 6.90456   6
   0  -9   7 78.0309 5.78733   4
   0  -9  -7 88.7419 7.03910   2
   0  -9   7 81.5997 6.36559   1
   4 -10  -7 537.681 17.8445   6
   4 -10  -7 514.384 17.0155   3
  -4 -10   7 533.645 17.2095   1
  -4 -10   7 550.718 14.8076   4
  -3 -10   7 453.156 15.0234   1
   3 -10  -7 438.505 15.4401   3
   3 -10  -7 445.832 14.8387   2
   3 -10  -7 460.856 15.9390   6
  -3 -10   7 466.229 13.5092   4
   2 -10  -7 204.749 9.60285   2
  -2 -10   7 194.553 9.59215   1
  -2 -10   7 186.387 8.30162   4
   2 -10  -7 184.048 10.0240   6
   1 -10  -7 311.697 12.6102   2
 -10   0   8 256.606 10.4296   1
   9   0  -8 406.043 13.8171   2
  -9   0   8 393.893 12.7507   1
  -8   0   8 765.395 18.1028   4
  -8   0   8 752.755 19.0911   1
   8   0  -8 755.913 20.3942   2
  -7   0   8 331.560 9.83613   4
  -7   0   8 341.600 10.4370   1
   7   0  -8 335.537 11.5139   2
  -6   0   8 959.494 21.6005   1
   6   0  -8 937.280 23.2069   2
  -6   0   8 973.344 21.3114   4
  -5   0   8 430.377 11.3366   1
  -5   0   8 439.854 11.6817   4
   5   0  -8 429.951 12.8579   2
   4   0  -8 1299.32 29.6085   2
  -4   0   8 1352.76 27.4485   1
  -4   0   8 1353.03 28.0034   4
   3   0  -8 1474.31 32.6011   2
  -3   0   8 1507.38 30.7422   4
   2   0  -8 1672.74 36.7309   2
   2   0  -8 1762.72 33.8198   5
  -2   0   8 1716.24 34.8287   4
  -1   0   8 1316.91 28.0266   4
   1   0  -8 1296.39 29.7135   2
   1   0  -8 1349.31 27.5176   5
   0   0  -8 423.137 13.1457   2
   0   0  -8 442.596 12.3213   5
   0   0   8 437.200 12.1970   4
   1   0   8 309.532 9.83418   4
  -1   0  -8 298.509 10.0309   5
  -1   0  -8 298.676 10.7226   2
  -2   0  -8 177.086 7.99789   5
   2   0   8 181.544 7.42272   4
  -3   0  -8 287.930 11.1034   5
   3   0   8 294.612 10.5948   3
  11  -1  -8 157.233 8.00242   6
 -10  -1   8 239.358 9.81548   1
  10  -1  -8 241.722 9.16820   6
 -10   1   8 229.354 9.86923   1
  -9  -1   8 26.5011 3.42331   1
   9  -1  -8 32.9980 4.47538   2
   9  -1  -8 27.0843 3.38832   6
  -9   1   8 23.1626 3.48176   1
   8  -1  -8 4.78153 1.80233   6
   8  -1  -8 4.17023 2.15696   2
  -8  -1   8 1.77528 1.67757   1
  -8   1   8 2.02787 1.69513   1
   8   1  -8 6.15245 2.44746   2
  -7  -1   8 78.2122 4.24730   4
   7  -1  -8 77.6214 4.21644   6
  -7  -1   8 75.0727 4.60424   1
   7  -1  -8 85.1697 5.36362   2
  -7   1   8 68.1549 4.39570   1
   7   1  -8 76.2914 5.43419   2
  -7   1   8 74.2235 4.44180   4
   6  -1  -8 464.952 11.6934   6
   6  -1  -8 460.617 13.5830   2
  -6  -1   8 467.485 12.3875   1
  -6  -1   8 458.839 12.0194   4
  -6   1   8 451.603 12.1908   1
  -6   1   8 445.167 12.2111   4
   6   1  -8 444.880 13.6847   2
   5  -1  -8 65.7526 4.02416   6
  -5  -1   8 72.5191 4.12821   4
  -5  -1   8 74.2051 3.97386   1
   5  -1  -8 69.3818 4.70448   2
   5   1  -8 66.4004 4.63046   2
  -5   1   8 69.1159 3.72749   1
  -5   1   8 65.6268 4.02406   4
  -4  -1   8 186.661 6.78227   4
  -4  -1   8 186.287 6.38569   1
   4  -1  -8 184.887 7.64181   2
   4   1  -8 182.894 7.65969   2
  -4   1   8 194.234 6.14525   1
  -4   1   8 188.227 6.91129   4
  -3  -1   8 298.174 9.18136   4
  -3  -1   8 303.785 8.35000   1
   3  -1  -8 289.197 10.0540   2
   3   1  -8 292.450 9.92733   2
  -3   1   8 303.792 9.21017   4
   2  -1  -8 299.651 10.3846   2
  -2  -1   8 301.986 9.45720   4
   2  -1  -8 309.751 8.77526   5
  -2   1   8 304.178 9.38507   4
   2   1  -8 298.883 10.0805   2
   1  -1  -8 251.991 9.44391   2
  -1  -1   8 234.963 8.34023   4
   1  -1  -8 249.257 8.09378   5
   1   1  -8 258.736 9.11736   2
   1   1  -8 248.249 8.52942   5
  -1   1   8 249.982 8.33048   4
   0  -1  -8 46.5339 3.69515   5
   0  -1   8 47.2336 3.87906   4
   0  -1  -8 50.8728 4.49321   2
   0   1  -8 46.1411 4.07863   5
   0   1  -8 45.7271 4.26785   2
   0   1   8 47.2439 3.67362   4
   1  -1   8 33.1177 3.57267   4
  -1  -1  -8 37.1838 3.88969   5
   1  -1   8 38.1028 3.54660   3
  -1  -1  -8 38.6121 4.50422   2
   1   1   8 38.2203 3.44866   4
  -1   1  -8 37.1024 4.08289   2
  -1   1  -8 47.8029 4.33235   5
  -2  -1  -8 343.125 12.1022   2
  -2  -1  -8 330.148 11.3085   5
   2  -1   8 342.887 10.8974   3
   2  -1   8 350.800 11.0474   4
   2   1   8 345.851 10.6836   4
  -2   1  -8 350.458 11.7869   5
  -3  -1  -8 559.112 16.2263   5
   3  -1   8 543.570 15.4487   3
  -3   1  -8 559.141 16.5056   5
  10  -2  -8 27.2916 3.65371   6
 -10  -2   8 23.6646 3.92288   1
 -10   2   8 25.0632 3.88449   1
   9  -2  -8 197.869 8.82996   2
   9  -2  -8 195.452 7.89583   6
  -9  -2   8 193.881 8.42419   1
  -9   2   8 186.052 8.40159   1
   8  -2  -8 52.7067 4.55141   2
   8  -2  -8 44.0358 3.86191   6
  -8  -2   8 45.8032 4.08468   1
   8   2  -8 47.8632 5.26345   2
  -8   2   8 45.1224 4.01676   1
   7  -2  -8 285.256 10.2122   2
   7  -2  -8 294.475 9.12621   6
  -7  -2   8 293.961 9.61984   1
  -7  -2   8 303.162 8.86206   4
  -7   2   8 288.350 9.65692   4
   7   2  -8 291.435 11.0352   2
  -7   2   8 268.977 9.30863   1
  -6  -2   8 60.4975 3.89508   1
   6  -2  -8 50.6756 4.27901   2
  -6  -2   8 54.3799 3.59042   4
   6  -2  -8 57.6492 3.68465   6
  -6   2   8 52.1455 3.79651   4
   6   2  -8 51.2902 4.56028   2
  -6   2   8 52.4210 3.64290   1
  -5  -2   8 35.7455 3.02879   4
   5  -2  -8 30.2107 3.44291   2
   5  -2  -8 30.2346 2.97439   6
  -5  -2   8 36.1634 3.13061   1
   5   2  -8 27.8881 3.57592   2
  -5   2   8 35.9201 2.78650   1
  -5   2   8 25.6087 2.87582   4
   4  -2  -8 150.229 6.77005   2
  -4  -2   8 157.691 6.21879   4
  -4  -2   8 164.120 5.96180   1
   4  -2  -8 151.659 5.92394   6
   4   2  -8 162.282 7.15402   2
  -4   2   8 146.133 6.17050   4
   3  -2  -8 34.9192 2.99644   6
  -3  -2   8 30.3479 2.67479   1
  -3  -2   8 21.3951 2.69817   4
   3  -2  -8 31.7263 3.83195   2
   3   2  -8 25.1565 3.20537   2
  -3   2   8 28.6297 3.03038   4
   2  -2  -8 734.019 19.1707   2
   2  -2  -8 750.942 17.4245   6
  -2  -2   8 740.960 16.6526   1
   2  -2  -8 750.170 16.8310   5
  -2  -2   8 705.046 17.5797   4
  -2   2   8 723.822 17.5199   4
   2   2  -8 748.757 18.6153   2
  -1  -2   8 136.554 6.15300   4
   1  -2  -8 127.788 6.68363   2
   1  -2  -8 133.987 5.87032   6
   1  -2  -8 135.296 5.55750   5
   1   2  -8 125.640 6.12780   5
  -1   2   8 133.154 5.83858   4
   1   2  -8 128.408 6.22302   2
   0  -2  -8 463.144 12.2931   5
   0  -2  -8 427.491 13.7203   2
   0  -2   8 427.707 12.6311   4
   0  -2   8 452.793 11.5997   3
   0   2   8 464.468 12.5439   4
   0   2  -8 462.223 13.1806   5
   0   2  -8 453.221 13.0606   2
   1  -2   8 50.0102 3.74936   3
   1  -2   8 49.5554 4.26070   4
  -1  -2  -8 47.6962 4.74465   2
  -1  -2  -8 56.0551 4.23804   5
  -1   2  -8 52.2670 4.58833   5
   1   2   8 54.2915 3.91164   4
   2  -2   8 108.172 5.68284   3
  -2  -2  -8 102.894 6.16602   5
  -2  -2  -8 107.098 6.73590   2
   2  -2   8 102.902 5.89180   4
  -2   2  -8 99.2184 6.38117   5
   3  -2   8 163.703 7.48328   3
  -3  -2  -8 155.760 8.54405   2
  -3  -2  -8 160.273 8.04111   5
   3  -2   8 171.305 8.55801   4
  -3   2  -8 159.348 8.41449   5
  10  -3  -8 -0.6908 1.77329   6
 -10  -3   8 0.34216 2.17281   1
 -10   3   8 -0.1869 1.81616   1
   9  -3  -8 3.42011 2.06302   6
   9  -3  -8 1.00148 1.89821   2
  -9   3   8 0.25202 1.71626   1
   8  -3  -8 1.22403 1.66485   6
   8  -3  -8 1.36241 1.87347   2
  -8  -3   8 3.02258 1.84958   1
  -8  -3   8 3.23333 1.94863   5
  -8   3   8 -0.3010 1.38209   1
  -7  -3   8 7.81540 2.03792   1
  -7  -3   8 8.36268 1.77000   4
   7  -3  -8 10.9404 2.44726   2
   7  -3  -8 9.64199 2.19733   6
  -7   3   8 10.6855 2.29474   1
   7   3  -8 11.1306 2.86912   2
   6  -3  -8 12.7199 2.52452   2
   6  -3  -8 12.7231 2.28057   6
  -6  -3   8 15.1981 2.54051   1
  -6  -3   8 13.1180 2.06049   4
  -6   3   8 10.0016 2.14983   4
   6   3  -8 14.9303 3.08708   2
  -6   3   8 14.7495 2.30613   1
   5  -3  -8 22.6806 3.17539   2
   5  -3  -8 19.3079 2.41339   3
   5  -3  -8 20.4541 2.67193   6
  -5  -3   8 16.9811 2.37815   1
  -5  -3   8 25.6437 2.88469   4
   5   3  -8 23.5330 3.36091   2
  -5   3   8 22.2454 2.87979   4
   4  -3  -8 43.6127 4.11263   2
   4  -3  -8 36.1507 3.36312   6
  -4  -3   8 42.4384 3.29255   1
  -4  -3   8 43.3520 3.52637   4
   4   3  -8 44.2504 4.04980   2
  -4   3   8 43.8482 3.54620   4
   3  -3  -8 67.4358 4.95234   2
  -3  -3   8 67.6174 3.90422   1
  -3  -3   8 73.1523 4.44726   4
   3  -3  -8 68.6595 4.18093   6
   3   3  -8 66.8622 4.67692   2
  -3   3   8 63.4028 4.15005   4
   2  -3  -8 3.50266 1.63490   6
  -2  -3   8 0.69990 1.25725   1
   2  -3  -8 2.37274 1.98244   2
  -2  -3   8 2.61122 1.54868   4
   2   3  -8 4.75065 1.97458   2
  -2   3   8 2.28295 1.42708   4
   1  -3  -8 126.677 6.75360   2
   1  -3  -8 113.842 5.68763   6
  -1  -3   8 112.530 5.70741   4
   1   3  -8 109.349 5.68732   2
  -1   3   8 113.655 5.54305   4
   0  -3  -8 -0.9565 1.24026   5
   0  -3   8 4.56486 1.92808   4
   0  -3  -8 0.11085 1.81160   2
   0   3   8 0.01314 1.04479   4
   0   3  -8 1.61831 1.59015   5
   0   3  -8 0.72383 1.49680   2
  -1  -3  -8 3.44551 2.33689   2
  -1  -3  -8 8.63013 2.24375   5
   1  -3   8 4.13016 2.09411   4
   1  -3   8 6.58249 1.86838   3
  -1   3  -8 6.89644 2.36124   5
   1   3   8 7.78305 1.90150   4
   2  -3   8 47.8096 4.65485   4
   2  -3   8 49.2842 4.08460   3
  -2  -3  -8 50.7312 4.58048   5
  -2  -3  -8 54.3080 5.30929   2
  -2   3  -8 46.4705 4.96209   5
  -3  -3  -8 0.94481 2.67517   2
  -3  -3  -8 4.40794 2.54105   5
   3  -3   8 6.13232 2.25811   3
   3  -3   8 5.11597 2.35317   4
  10  -4  -8 14.8292 3.11326   6
 -10   4   8 18.7514 3.93628   1
  -9  -4   8 46.0316 4.88588   1
   9  -4  -8 43.9512 4.64793   6
  -9   4   8 38.8820 4.65976   1
  -8  -4   8 25.1122 3.52967   1
  -8  -4   8 24.2787 3.50119   5
   8  -4  -8 25.3817 3.39587   6
   8  -4  -8 31.0663 3.85552   2
  -8   4   8 31.9249 3.92519   1
  -7  -4   8 -0.8662 1.41559   1
   7  -4  -8 12.0659 2.58377   6
   7  -4  -8 1.31793 1.61623   2
  -7   4   8 0.85570 1.38980   1
   6  -4  -8 95.3913 5.31867   6
  -6  -4   8 100.828 4.87093   4
   6  -4  -8 79.1060 4.70341   3
  -6  -4   8 91.7337 5.19640   1
   6  -4  -8 94.5205 5.56190   2
   6   4  -8 93.3441 6.24689   2
  -6   4   8 81.5210 4.66337   1
  -5  -4   8 4.28952 1.60825   1
   5  -4  -8 4.33313 1.71167   3
  -5  -4   8 5.98605 1.83462   4
   5  -4  -8 16.8859 2.98428   2
   5  -4  -8 6.00269 1.93855   6
  -5   4   8 6.12211 1.94842   4
   5   4  -8 2.18797 1.82556   2
  -4  -4   8 20.7568 2.69610   1
   4  -4  -8 22.7125 3.04031   6
  -4  -4   8 21.2325 2.86996   4
   4  -4  -8 22.2495 3.39391   2
   4   4  -8 15.7669 2.82548   2
  -4   4   8 16.1454 2.48870   4
   3  -4  -8 28.0970 3.38300   6
  -3  -4   8 18.1501 2.58492   4
  -3  -4   8 27.2399 2.98994   1
   3  -4  -8 29.0848 3.77484   2
  -3   4   8 17.0166 2.62137   4
   3   4  -8 23.2975 3.27469   2
  -2  -4   8 20.0708 2.74364   4
  -2  -4   8 22.2619 2.75427   1
   2  -4  -8 20.4298 2.99417   6
   2  -4  -8 29.1411 4.02380   2
   2   4  -8 28.2725 3.45361   2
  -2   4   8 22.7171 2.90820   4
  -1  -4   8 12.8937 2.44194   4
   1  -4  -8 20.1539 3.04649   6
   1  -4  -8 17.1551 3.30649   2
  -1  -4   8 20.0982 2.63787   1
  -1   4   8 18.5602 2.66638   4
   1   4  -8 15.2157 2.66804   2
   0  -4   8 7.10118 2.17881   4
   0  -4  -8 5.95274 2.62379   2
   0   4   8 3.68236 1.57592   4
   1  -4   8 1.85391 1.84463   4
  -1  -4  -8 -2.7815 1.94422   2
   1   4   8 1.00348 1.39219   4
  -1   4  -8 -1.2731 1.73458   5
   2  -4   8 1.12849 2.11855   4
  -2  -4  -8 0.81053 2.64078   2
  -2  -4  -8 0.68821 2.02403   5
  -2   4  -8 2.22638 2.26906   5
  -3  -4  -8 50.3226 5.73727   2
   3  -4   8 56.2282 5.19384   4
   3  -4   8 53.0198 4.68799   3
  -3  -4  -8 47.5113 5.09752   5
  -9  -5   8 137.956 7.30483   1
   9  -5  -8 134.880 7.15218   6
  -9  -5   8 136.868 7.42445   5
  -9   5   8 134.078 7.62787   1
  -8  -5   8 66.4929 5.03108   1
  -8  -5   8 63.3013 5.19234   5
   8  -5  -8 68.4151 5.07817   6
  -8   5   8 58.7022 4.96521   1
   7  -5  -8 123.260 6.23074   3
  -7  -5   8 133.801 6.67787   1
   7  -5  -8 137.315 6.80786   2
   7  -5  -8 128.525 6.56943   6
  -7   5   8 120.591 6.25514   1
  -6  -5   8 50.3117 4.11911   1
   6  -5  -8 33.9109 3.70237   3
   6  -5  -8 43.0356 4.16097   2
  -6  -5   8 35.1427 3.41994   4
   6  -5  -8 38.7926 4.02990   6
  -5  -5   8 136.332 6.29693   1
   5  -5  -8 136.918 6.60002   6
   5  -5  -8 146.714 6.99093   2
   5  -5  -8 125.597 6.21230   3
  -5  -5   8 132.486 6.00052   4
   5   5  -8 127.246 7.21987   2
  -4  -5   8 97.9612 5.20580   4
   4  -5  -8 94.4387 5.52735   6
   4  -5  -8 93.6491 5.79208   2
  -4  -5   8 92.2299 5.22105   1
   4   5  -8 88.2306 5.88070   2
  -3  -5   8 0.83762 1.46830   4
  -3  -5   8 -1.1562 1.34920   1
   3  -5  -8 0.22940 1.82137   2
   3  -5  -8 -0.1355 1.68107   6
   3   5  -8 -1.2435 1.45955   2
  -3   5   8 -0.6102 1.20566   4
  -2  -5   8 18.6330 2.78909   4
  -2  -5   8 24.3456 3.11395   1
   2  -5  -8 28.7902 3.61300   6
   2  -5  -8 20.6172 3.42400   2
   2   5  -8 28.1770 3.65564   2
  -2   5   8 19.4519 2.86033   4
  -1  -5   8 6.53911 2.07416   1
   1  -5  -8 7.09223 2.31230   6
  -1  -5   8 6.09513 2.12011   4
   1  -5  -8 6.60740 2.57713   2
  -1   5   8 6.90289 1.96140   4
   0  -5   8 67.6331 4.88057   4
   0  -5  -8 67.1760 5.66158   2
   0   5   8 68.3006 4.68488   4
  -1  -5  -8 30.4083 4.44679   2
   1  -5   8 26.4772 3.55018   4
  -2  -5  -8 12.6705 3.65246   2
   2  -5   8 20.1707 3.41076   4
  -2   5  -8 17.8984 3.79152   5
  -9  -6   8 69.8399 5.74621   5
   9  -6  -8 73.5300 5.85441   6
  -9   6   8 67.3795 5.82075   1
   8  -6  -8 68.9226 5.72684   3
   8  -6  -8 67.0161 5.44492   6
  -8  -6   8 68.6232 5.35436   1
  -8  -6   8 65.0125 5.42142   5
  -8   6   8 68.8335 5.33462   1
   7  -6  -8 3.96551 2.06390   3
   7  -6  -8 6.57503 2.27807   2
   7  -6  -8 9.02077 2.74788   6
  -7  -6   8 4.41865 2.12462   1
   6  -6  -8 29.2517 3.70118   2
  -6  -6   8 33.4472 3.51692   4
   6  -6  -8 29.3581 3.85175   6
   6  -6  -8 28.3120 3.60062   3
  -6  -6   8 32.0877 3.86843   1
   5  -6  -8 1.42673 1.80009   6
   5  -6  -8 1.81569 1.74439   3
  -5  -6   8 0.52137 1.47532   4
   5  -6  -8 2.52037 1.87293   2
  -5  -6   8 2.03169 1.73181   1
  -4  -6   8 50.2676 4.05586   4
   4  -6  -8 62.1821 4.98447   2
   4  -6  -8 50.7764 4.59308   6
  -4  -6   8 47.0878 4.15530   1
   3  -6  -8 81.1792 5.83322   2
   3  -6  -8 89.9284 5.81700   6
  -3  -6   8 89.4887 5.17307   4
  -3  -6   8 78.6710 5.12081   1
   3   6  -8 85.4531 5.82031   2
  -2  -6   8 268.446 9.54215   1
   2  -6  -8 253.359 10.3864   2
  -2  -6   8 259.534 9.29348   4
   2  -6  -8 267.624 10.2932   6
  -1  -6   8 220.290 8.59651   4
   1  -6  -8 225.910 9.82010   2
   1  -6  -8 227.027 9.60191   6
  -1  -6   8 227.099 8.71232   1
   0  -6  -8 131.598 7.90167   2
   0  -6   8 151.523 7.17647   4
   0  -6   8 152.508 7.31093   1
   1  -6   8 98.7914 6.12847   4
  -1  -6  -8 103.141 7.31408   2
   8  -7  -8 15.3921 3.49781   6
  -8  -7   8 18.3228 3.66569   5
   8  -7  -8 16.6651 3.21638   3
   7  -7  -8 -1.7684 1.77851   3
  -7  -7   8 -1.1456 1.68886   1
   7  -7  -8 0.04965 2.09554   6
  -6  -7   8 49.6354 4.67075   1
   6  -7  -8 46.5049 4.74242   3
   6  -7  -8 55.4256 5.05731   6
   6  -7  -8 50.5168 4.55341   2
   5  -7  -8 37.1645 4.27477   2
  -5  -7   8 39.5765 4.29785   1
  -5  -7   8 44.9239 4.10440   4
   5  -7  -8 55.3763 5.15441   6
   5  -7  -8 38.3247 4.37830   3
   4  -7  -8 26.0139 3.89889   2
   4  -7  -8 26.5734 3.78753   3
  -4  -7   8 24.1235 3.21029   4
   4  -7  -8 26.2255 3.92079   6
  -4  -7   8 25.4930 3.44113   1
  -3  -7   8 13.4671 2.64924   4
  -3  -7   8 16.6172 3.09724   1
   3  -7  -8 16.8870 3.36168   6
   3  -7  -8 17.2749 3.55018   2
  -2  -7   8 108.783 6.25235   1
   2  -7  -8 107.903 6.95881   2
  -2  -7   8 100.708 5.82843   4
   2  -7  -8 110.289 6.86600   6
  -1  -7   8 -2.4542 1.69052   1
   1  -7  -8 1.86174 2.22911   6
  -1  -7   8 -0.4051 1.81025   4
   1  -7  -8 2.78559 2.46791   2
   0  -7   8 99.2219 6.17157   4
   0  -7  -8 108.454 7.16972   6
   0  -7  -8 102.432 7.38041   2
   0  -7   8 112.980 6.80831   1
   7  -8  -8 610.261 17.8093   3
   7  -8  -8 605.097 18.3450   6
  -6  -8   8 624.917 17.9236   1
   6  -8  -8 638.941 18.2205   3
   6  -8  -8 637.404 18.6220   6
   5  -8  -8 309.446 11.4390   2
   5  -8  -8 288.750 11.2800   3
  -5  -8   8 291.038 11.0205   1
  -5  -8   8 292.192 10.1321   4
   5  -8  -8 299.672 11.7929   6
  -4  -8   8 429.738 14.0223   1
   4  -8  -8 456.455 14.6766   2
   4  -8  -8 443.882 14.5723   3
  -4  -8   8 449.652 13.2228   4
   4  -8  -8 476.766 15.2733   6
  -3  -8   8 256.083 9.31353   4
   3  -8  -8 236.333 10.2531   2
   3  -8  -8 238.161 10.4589   6
  -3  -8   8 216.609 9.39945   1
   2  -8  -8 1036.06 26.6613   2
  -2  -8   8 1004.32 25.2550   1
   2  -8  -8 1019.94 26.5617   6
  -2  -8   8 1045.01 24.3024   4
  -1  -8   8 554.086 15.8049   4
   1  -8  -8 566.268 17.8047   2
  -1  -8   8 561.534 16.6507   1
   1  -8  -8 564.742 17.8505   6
   0  -8   8 714.721 19.9701   1
   0  -8  -8 696.099 21.0857   6
   1  -8   8 143.751 8.93017   1
   6  -9  -8 10.1803 3.42662   3
   5  -9  -8 3.61111 2.47945   6
   5  -9  -8 1.69368 2.41150   3
  -4  -9   8 59.6429 4.92132   4
   4  -9  -8 68.1732 6.15469   3
   4  -9  -8 69.2491 5.95040   2
  -4  -9   8 63.3939 5.52195   1
   4  -9  -8 61.1305 5.83401   6
   3  -9  -8 12.3975 3.43524   2
  -3  -9   8 10.5878 2.94735   1
   3  -9  -8 8.00082 2.93260   6
  -3  -9   8 10.3402 2.71919   4
  -2  -9   8 81.5375 5.99866   4
   2  -9  -8 75.4737 6.91972   6
   2  -9  -8 81.9810 6.63572   2
  -2  -9   8 86.7938 6.36277   1
  -4 -10   8 69.6803 5.98237   4
 -10   0   9 -1.5964 1.73795   1
   9   0  -9 0.09883 2.17654   2
  -9   0   9 0.67020 1.82614   1
  -8   0   9 -0.2368 1.41703   1
  -8   0   9 1.78530 1.46025   4
   8   0  -9 0.08942 1.90751   2
   7   0  -9 0.64853 1.83282   2
  -7   0   9 1.87682 1.34873   4
  -7   0   9 -0.2184 1.34110   1
  -6   0   9 0.58233 1.22391   4
   6   0  -9 1.28985 1.65846   2
  -6   0   9 -0.9511 1.15251   1
   5   0  -9 -0.8951 1.61540   2
  -5   0   9 -1.1532 1.03281   1
  -5   0   9 0.13252 1.18383   4
  -4   0   9 0.85578 1.28433   4
   4   0  -9 1.51583 1.86730   2
   3   0  -9 0.09494 1.57129   2
  -3   0   9 4.43403 1.66225   4
   2   0  -9 1.47693 1.81375   2
  -2   0   9 18.4421 2.65314   4
  -1   0   9 1.66442 1.39819   4
   1   0  -9 3.95704 1.84178   5
   1   0  -9 -1.3919 1.74353   2
   0   0  -9 -0.3884 1.84305   2
   0   0  -9 -0.6556 1.60542   5
   0   0   9 2.87838 1.59494   4
  -1   0  -9 -0.4479 1.79564   5
   1   0   9 -0.6108 1.47562   4
  -1   0  -9 2.31495 2.42539   2
  -2   0  -9 2.56087 2.19450   5
  10  -1  -9 180.104 9.39439   2
 -10   1   9 163.810 8.46550   1
   9  -1  -9 62.6200 5.61712   2
  -9  -1   9 55.7736 4.88112   1
   9   1  -9 55.7800 5.90452   2
  -9   1   9 69.5925 5.23311   1
  -8  -1   9 6.85847 2.16846   1
   8  -1  -9 5.68006 2.46419   2
  -8  -1   9 8.62455 2.04218   4
   8   1  -9 8.04400 2.82286   2
  -8   1   9 4.74096 1.88354   4
  -8   1   9 10.5647 2.38111   1
  -7  -1   9 71.2796 4.37912   4
  -7  -1   9 62.8218 4.40219   1
   7  -1  -9 58.4853 5.09897   2
   7   1  -9 67.1643 5.50527   2
  -7   1   9 70.2828 4.59525   4
  -7   1   9 67.2679 4.41982   1
  -6  -1   9 30.4287 3.13916   4
  -6  -1   9 32.1553 3.27980   1
   6  -1  -9 40.4504 4.53858   2
   6   1  -9 33.6255 4.08290   2
  -6   1   9 34.6811 3.07907   1
  -6   1   9 32.4243 3.49788   4
  -5  -1   9 95.6401 4.74551   1
  -5  -1   9 90.4140 4.92950   4
   5  -1  -9 92.6118 5.80993   2
   5   1  -9 92.2016 5.89702   2
  -5   1   9 101.814 5.25130   4
  -4  -1   9 199.111 7.57287   1
   4  -1  -9 200.645 8.53026   2
  -4  -1   9 232.052 7.95068   4
   4   1  -9 200.868 8.59793   2
  -4   1   9 203.185 7.71478   4
   3  -1  -9 4.43966 2.23674   2
  -3  -1   9 5.24434 1.76940   4
  -3   1   9 3.81103 1.71377   4
   3   1  -9 7.65762 2.47302   2
  -2  -1   9 345.123 10.8458   4
   2  -1  -9 354.493 12.0718   2
   2   1  -9 363.368 11.8186   2
  -2   1   9 351.056 10.8149   4
   1  -1  -9 122.112 7.01867   2
   1  -1  -9 126.773 5.98820   5
  -1  -1   9 112.490 5.87252   4
  -1   1   9 128.163 6.14600   4
   1   1  -9 129.119 6.78141   2
   1   1  -9 137.199 6.48762   5
   0  -1  -9 137.343 6.56686   5
   0  -1   9 140.040 6.61866   4
   0  -1  -9 135.250 7.64743   2
   0   1  -9 138.275 7.08776   2
   0   1   9 152.605 6.82472   4
   0   1  -9 135.193 6.87347   5
  -1  -1  -9 104.914 6.16782   5
   1  -1   9 114.167 6.17492   4
  -1  -1  -9 109.114 7.09485   2
  -1   1  -9 112.007 6.67877   5
   1   1   9 103.170 5.81188   4
   2  -1   9 13.6936 2.76368   4
  -2  -1  -9 14.5360 3.12432   5
  -2   1  -9 11.7917 3.18383   5
  10  -2  -9 201.947 9.83692   2
 -10   2   9 195.013 9.36770   1
   9  -2  -9 346.855 12.6716   2
  -9  -2   9 341.369 11.8824   1
  -9   2   9 335.899 11.8736   1
   8  -2  -9 1095.25 27.1057   2
  -8  -2   9 1119.77 25.9908   1
   8   2  -9 1141.51 28.5936   2
  -8   2   9 1042.89 25.4958   1
  -7  -2   9 466.477 12.5303   4
   7  -2  -9 424.597 13.9169   2
  -7  -2   9 440.950 12.9200   1
   7   2  -9 458.547 14.9466   2
  -7   2   9 447.644 12.8470   1
  -7   2   9 459.749 13.3865   4
   6  -2  -9 507.640 15.1338   2
  -6  -2   9 509.483 13.7695   1
  -6  -2   9 527.059 13.6818   4
   6   2  -9 502.173 15.6513   2
  -6   2   9 501.351 14.3188   1
  -6   2   9 511.301 14.2204   4
  -5  -2   9 189.357 7.23719   4
   5  -2  -9 191.716 8.22978   2
  -5  -2   9 191.152 7.07590   1
  -5   2   9 187.275 7.53422   4
   5   2  -9 190.515 8.46469   2
  -4  -2   9 945.555 21.0612   1
   4  -2  -9 913.332 23.0595   2
  -4  -2   9 919.954 21.4562   4
  -4   2   9 923.078 21.7260   4
   4   2  -9 959.075 23.4838   2
   3  -2  -9 936.009 23.8314   2
  -3  -2   9 967.462 22.2399   4
  -3   2   9 984.923 22.3593   4
   3   2  -9 937.501 23.4454   2
   2  -2  -9 1053.08 26.3914   2
  -2  -2   9 1078.59 24.6499   4
   2   2  -9 1092.41 25.7996   2
  -2   2   9 1101.26 24.5743   4
   1  -2  -9 134.760 7.46893   2
  -1  -2   9 137.411 6.71657   4
  -1   2   9 137.187 6.43050   4
   1   2  -9 148.235 7.11417   2
   0  -2  -9 3.15127 1.90103   5
   0  -2   9 2.48121 1.87447   4
   0  -2  -9 5.75098 2.66033   2
   0   2  -9 2.89010 2.17963   2
   0   2   9 2.08442 1.55450   4
   0   2  -9 1.54569 1.81863   5
   1  -2   9 21.3260 3.31674   4
  -1  -2  -9 25.4523 4.08547   2
  -1  -2  -9 27.5639 3.58860   5
   1   2   9 25.6664 3.31223   4
  -1   2  -9 22.2383 3.70916   5
  -2  -2  -9 15.9408 3.76312   2
   2  -2   9 16.5611 3.13785   4
  -2  -2  -9 12.9441 3.22738   5
  10  -3  -9 224.271 9.18065   6
  -9  -3   9 316.161 11.5098   1
   9  -3  -9 330.702 12.2499   2
   9  -3  -9 321.370 10.9015   6
  -9   3   9 319.380 11.6190   1
   8  -3  -9 64.2763 4.64477   6
   8  -3  -9 45.4389 4.86320   2
  -8  -3   9 48.1210 4.47049   1
  -8   3   9 53.2209 4.51076   1
   8   3  -9 51.7848 5.80924   2
  -7  -3   9 177.889 7.58813   1
   7  -3  -9 170.346 7.24874   6
   7  -3  -9 180.054 8.28586   2
  -7  -3   9 189.140 7.08160   4
  -7   3   9 186.205 7.55783   1
   7   3  -9 191.316 9.39257   2
   6  -3  -9 68.0137 5.11645   2
  -6  -3   9 60.2610 4.11626   4
  -6  -3   9 59.4355 4.29140   1
   6  -3  -9 65.2200 4.43703   6
  -6   3   9 65.9095 4.72288   4
   6   3  -9 64.9334 5.49248   2
   5  -3  -9 66.5033 4.43533   6
   5  -3  -9 78.9096 5.42469   2
  -5  -3   9 77.4126 4.65688   1
  -5  -3   9 77.1121 4.68176   4
   5   3  -9 78.3239 5.65141   2
  -5   3   9 66.3182 4.67662   4
   4  -3  -9 5.74949 2.26033   2
  -4  -3   9 7.71809 2.11964   4
  -4  -3   9 4.61266 1.69211   1
   4   3  -9 7.39457 2.33053   2
  -4   3   9 7.16049 1.96634   4
  -3  -3   9 22.0376 3.07600   4
   3  -3  -9 27.3198 4.08849   2
  -3  -3   9 27.1690 2.98858   1
   3   3  -9 22.6796 3.42830   2
  -3   3   9 20.5802 3.06270   4
   2  -3  -9 195.560 9.00588   2
  -2  -3   9 197.207 8.11504   4
  -2   3   9 194.739 7.94406   4
   2   3  -9 208.333 8.64126   2
  -1  -3   9 49.8903 4.39947   4
   1  -3  -9 54.6754 5.58013   2
   1   3  -9 49.0996 4.51444   2
  -1   3   9 52.9957 4.24130   4
   0  -3   9 196.824 8.53500   4
   0  -3  -9 199.450 9.47872   2
   0   3  -9 205.124 9.04201   5
   0   3   9 210.904 8.27541   4
  -1  -3  -9 45.1212 5.37203   2
   1  -3   9 43.9861 4.63518   4
  -1   3  -9 40.4057 4.80077   5
   1   3   9 47.4564 4.21333   4
  -2  -3  -9 115.567 7.75458   2
   2  -3   9 113.043 6.92412   4
  -2  -3  -9 113.695 6.88763   5
  -9  -4   9 147.866 7.64127   1
   9  -4  -9 136.062 7.08970   6
  -9   4   9 129.524 7.34635   1
  -8  -4   9 805.181 20.7704   1
   8  -4  -9 813.165 21.4124   2
   8  -4  -9 798.721 20.1843   6
  -8   4   9 785.706 20.6583   1
   7  -4  -9 255.584 9.41310   6
  -7  -4   9 276.780 8.90316   4
   7  -4  -9 271.689 10.3302   2
  -7  -4   9 256.064 9.61165   1
   7   4  -9 256.433 11.2514   2
  -6  -4   9 384.324 11.8742   1
   6  -4  -9 390.555 11.8489   6
  -6  -4   9 369.443 11.1310   4
   6  -4  -9 374.252 12.4906   2
   6   4  -9 379.209 13.6944   2
  -5  -4   9 180.948 7.36717   4
  -5  -4   9 175.948 7.19164   1
   5  -4  -9 170.128 7.43169   6
   5  -4  -9 193.484 8.40625   2
  -5   4   9 170.634 7.74897   4
   5   4  -9 173.877 8.54222   2
   4  -4  -9 467.001 13.3019   6
  -4  -4   9 448.029 13.0253   4
   4  -4  -9 451.961 14.3241   2
  -4  -4   9 438.267 12.5780   1
   4   4  -9 452.532 14.4313   2
  -4   4   9 438.443 13.3607   4
   3  -4  -9 1175.83 27.0986   6
  -3  -4   9 1237.00 26.6124   1
  -3  -4   9 1191.06 26.9508   4
   3  -4  -9 1218.85 29.1671   2
   3   4  -9 1212.25 28.5621   2
  -3   4   9 1145.33 27.1246   4
   2  -4  -9 597.571 16.1605   6
  -2  -4   9 578.616 15.7535   4
   2  -4  -9 566.158 17.1273   2
   2   4  -9 576.331 16.4161   2
  -2   4   9 543.197 15.5472   4
   1  -4  -9 645.833 17.6810   6
   1  -4  -9 638.142 18.6779   2
  -1  -4   9 601.482 16.7772   4
  -1   4   9 611.778 16.6435   4
   0  -4   9 8.26345 2.63509   4
   0  -4  -9 11.1836 3.23790   2
   0   4   9 6.65538 2.09570   4
  -1  -4  -9 122.061 7.94293   2
   1  -4   9 128.129 7.09226   4
  -1   4  -9 133.708 7.85852   5
   9  -5  -9 79.0030 5.95329   6
  -9   5   9 82.7527 6.13751   1
   8  -5  -9 288.328 10.8119   6
  -8  -5   9 316.079 11.3025   1
  -8  -5   9 300.559 11.2000   5
   8  -5  -9 318.913 11.5684   2
  -7  -5   9 282.349 10.4255   1
   7  -5  -9 290.218 10.8624   2
   7  -5  -9 285.437 10.4251   6
  -6  -5   9 100.484 5.53829   4
  -6  -5   9 95.5545 5.68843   1
   6  -5  -9 102.104 6.30131   2
   6  -5  -9 97.6890 6.00171   6
   6   5  -9 91.0551 6.78965   2
   5  -5  -9 56.4246 4.67145   3
  -5  -5   9 63.4290 4.60040   1
   5  -5  -9 63.3431 5.20168   2
  -5  -5   9 64.6530 4.70526   4
   5  -5  -9 54.0722 4.64089   6
   5   5  -9 60.9714 5.55072   2
   4  -5  -9 38.6945 4.61168   2
  -4  -5   9 36.9116 3.80846   4
   4  -5  -9 40.7999 4.44241   6
  -4  -5   9 46.2236 4.01168   1
   4   5  -9 40.0481 4.71549   2
  -3  -5   9 -0.0544 1.76355   4
   3  -5  -9 0.25645 2.32142   2
   3  -5  -9 -0.8223 1.66696   6
  -3  -5   9 0.77398 1.63458   1
  -3   5   9 0.46403 1.58117   4
   3   5  -9 0.73217 2.00200   2
  -2  -5   9 3.38500 2.18811   4
  -2  -5   9 2.80818 1.89740   1
   2  -5  -9 2.23683 2.41579   2
   2  -5  -9 2.22214 1.98799   6
  -2   5   9 0.32723 1.58874   4
  -1  -5   9 2.83742 2.18108   4
   1  -5  -9 1.14785 1.99475   6
   1  -5  -9 -1.1704 2.09590   2
  -1   5   9 1.82676 1.68982   4
   0  -5  -9 0.33090 2.15492   6
   0  -5  -9 -0.2412 2.39071   2
   0  -5   9 2.24134 2.15108   4
   0   5   9 1.96342 1.58618   4
  -8  -6   9 119.031 7.42189   5
   8  -6  -9 124.192 7.33737   6
  -7  -6   9 453.131 14.4818   1
   7  -6  -9 485.538 14.7880   2
   7  -6  -9 466.163 14.5535   6
  -6  -6   9 268.456 10.0919   1
   6  -6  -9 262.937 10.0787   3
  -6  -6   9 274.582 9.64252   4
   6  -6  -9 278.501 10.6152   2
   6  -6  -9 249.951 10.1096   6
  -5  -6   9 536.675 15.0162   4
   5  -6  -9 527.630 15.4633   3
   5  -6  -9 545.795 16.5586   2
  -5  -6   9 536.338 15.4286   1
   5  -6  -9 538.317 15.9865   6
  -4  -6   9 239.882 9.27363   4
   4  -6  -9 239.802 10.2750   2
  -4  -6   9 254.842 9.46673   1
   4  -6  -9 237.088 9.82267   6
   4   6  -9 242.114 10.5898   2
   3  -6  -9 340.649 12.7694   2
  -3  -6   9 340.570 11.5757   4
  -3  -6   9 353.293 11.5239   1
   3  -6  -9 346.018 12.3038   6
   3   6  -9 343.216 12.5815   2
   2  -6  -9 177.367 8.73654   6
   2  -6  -9 161.790 8.81980   2
  -2  -6   9 171.505 8.03406   4
  -2  -6   9 174.836 7.75407   1
   1  -6  -9 209.210 10.2046   2
  -1  -6   9 206.957 9.03078   4
   1  -6  -9 198.780 9.43174   6
   0  -6  -9 64.6514 5.92824   6
   7  -7  -9 98.6655 6.58492   3
   7  -7  -9 100.970 6.95137   6
  -6  -7   9 24.0419 3.76646   4
   6  -7  -9 20.1814 3.55730   2
   6  -7  -9 16.2669 3.36878   3
  -6  -7   9 23.6787 3.77560   1
   6  -7  -9 21.7885 3.79672   6
   5  -7  -9 34.4231 4.39321   3
   5  -7  -9 40.5107 4.79279   2
   5  -7  -9 27.7254 4.22332   6
  -5  -7   9 36.5947 4.34935   1
  -5  -7   9 36.5603 4.10809   4
  -4  -7   9 49.7905 4.73882   1
   4  -7  -9 56.6278 5.52144   2
  -4  -7   9 55.6395 5.00425   4
   4  -7  -9 57.4652 5.68554   6
  -3  -7   9 43.0547 4.57395   4
   3  -7  -9 42.6251 4.87880   6
  -3  -7   9 52.3958 4.84659   1
   3  -7  -9 46.3300 5.39083   2
   2  -7  -9 -2.2910 2.12037   6
  -2  -7   9 0.41232 2.16436   1
  -2  -7   9 -0.3940 2.09192   4
   2  -7  -9 -0.0588 2.63169   2
  -1  -7   9 -1.9322 2.04362   1
   1  -7  -9 0.65904 2.23484   6
   7  -8  -9 25.2245 4.71766   3
   6  -8  -9 24.7931 4.11398   3
   6  -8  -9 26.6498 4.31403   2
   5  -8  -9 4.32861 2.39151   3
   5  -8  -9 4.40648 2.75106   2
   5  -8  -9 3.74450 2.62101   6
  -5  -8   9 4.94708 2.25596   4
   4  -8  -9 0.66421 2.34388   6
  -4  -8   9 -0.0466 2.06469   4
   4  -8  -9 -0.2531 2.03446   3
   4  -8  -9 0.86212 2.43852   2
  -4  -8   9 -0.4094 2.09017   1
   3  -8  -9 12.7270 3.66149   2
  -3  -8   9 8.26289 2.75287   4
   3  -8  -9 7.25868 3.02169   6
  -3  -8   9 15.0738 3.34617   1
   2  -8  -9 31.2656 5.39621   6
  -2  -8   9 39.1981 4.71279   1
   5  -9  -9 11.1075 3.54541   2
  -9   0  10 313.711 11.2566   1
   9   0 -10 295.402 12.5179   2
  -8   0  10 244.188 9.19920   4
  -8   0  10 238.641 9.19491   1
   8   0 -10 255.829 11.0544   2
  -7   0  10 245.112 8.88614   1
   7   0 -10 236.639 10.2565   2
  -7   0  10 249.786 9.12893   4
   6   0 -10 10.0080 2.87881   2
  -6   0  10 3.69816 1.70401   4
  -5   0  10 334.046 10.8776   4
   5   0 -10 351.325 12.4075   2
   4   0 -10 190.306 8.76667   2
  -4   0  10 180.924 7.59467   4
  -3   0  10 1675.60 35.4351   4
   3   0 -10 1657.91 37.4706   2
   2   0 -10 478.847 15.0230   2
  -2   0  10 464.345 13.7260   4
   1   0 -10 927.485 24.2170   2
  -1   0  10 926.099 22.6236   4
   1   0 -10 980.616 22.8420   5
   0   0 -10 146.150 7.39818   5
   0   0 -10 127.585 7.60340   2
   0   0  10 132.049 6.83048   4
  -1   0 -10 297.813 11.6219   5
   1   0  10 321.152 11.5832   4
  -9  -1  10 382.713 12.8311   1
   9  -1 -10 379.050 14.1645   2
  -9   1  10 387.156 12.9526   1
   9   1 -10 389.803 14.8540   2
   8  -1 -10 251.273 10.8192   2
  -8  -1  10 268.521 9.71104   1
  -8  -1  10 251.617 9.14881   4
   8   1 -10 252.350 11.1738   2
  -8   1  10 246.024 9.56013   4
  -8   1  10 246.459 9.36749   1
  -7  -1  10 175.055 7.43892   4
  -7  -1  10 188.012 7.70370   1
   7  -1 -10 177.320 8.84260   2
   7   1 -10 186.874 9.20113   2
  -7   1  10 185.522 7.85014   4
   6  -1 -10 70.1699 5.64755   2
  -6  -1  10 80.2201 4.67436   1
  -6  -1  10 81.4320 4.96470   4
  -6   1  10 74.0419 4.95313   4
   6   1 -10 76.8462 5.87757   2
   5  -1 -10 53.4342 5.04211   2
  -5  -1  10 58.9404 4.33016   4
   5   1 -10 56.5244 5.25122   2
  -5   1  10 54.2679 4.40552   4
   4  -1 -10 340.130 12.2244   2
  -4  -1  10 358.990 11.2084   4
  -4   1  10 347.294 11.2270   4
   4   1 -10 346.200 12.3905   2
   3  -1 -10 223.959 9.68251   2
  -3  -1  10 228.266 8.67322   4
   3   1 -10 232.459 9.75141   2
  -3   1  10 229.753 8.83162   4
  -2  -1  10 251.288 9.41455   4
   2  -1 -10 266.798 10.7626   2
   2   1 -10 260.904 10.4048   2
  -2   1  10 252.554 9.45399   4
  -1  -1  10 8.12280 2.33406   4
   1  -1 -10 10.7349 3.12465   2
  -1   1  10 13.8749 2.82976   4
   1   1 -10 15.6982 3.35797   2
   0  -1  10 65.8757 5.05097   4
   0  -1 -10 65.7295 6.03154   2
   0   1  10 74.6790 5.20524   4
   0   1 -10 65.7981 5.49367   5
  -1  -1 -10 173.738 9.40046   2
  -1  -1 -10 176.675 8.60507   5
   1   1  10 165.830 7.87650   4
  -9  -2  10 42.7812 4.73433   1
   9  -2 -10 56.5388 6.03613   2
  -9   2  10 48.0752 4.66557   1
   9   2 -10 45.7599 6.37014   2
   8  -2 -10 5.42377 2.53263   2
  -8  -2  10 2.91990 1.86437   4
  -8  -2  10 5.81737 2.36090   1
  -8   2  10 2.45973 1.82043   1
   8   2 -10 4.00177 2.67401   2
  -7  -2  10 55.1141 4.30894   4
  -7  -2  10 54.3752 4.35763   1
   7  -2 -10 52.4838 5.11900   2
   7   2 -10 53.5610 5.81271   2
  -7   2  10 48.2649 4.31225   4
  -6  -2  10 8.83175 2.23657   1
   6  -2 -10 9.60806 2.74518   2
  -6  -2  10 7.22889 1.95745   4
  -6   2  10 11.2770 2.49356   4
   6   2 -10 17.8311 3.51675   2
  -5  -2  10 107.766 5.69573   4
   5  -2 -10 101.003 6.46136   2
   5   2 -10 106.386 6.86596   2
  -5   2  10 105.435 5.90322   4
   4  -2 -10 200.383 9.11232   2
  -4  -2  10 187.556 7.88379   4
  -4   2  10 192.996 8.10922   4
   4   2 -10 209.036 9.32202   2
  -3  -2  10 351.083 11.3651   4
   3  -2 -10 332.455 12.4283   2
  -3   2  10 350.352 11.4272   4
   3   2 -10 353.905 12.3567   2
  -2  -2  10 525.857 15.0644   4
   2  -2 -10 516.836 16.5244   2
  -2   2  10 545.316 15.1974   4
   2   2 -10 537.289 16.1455   2
  -1  -2  10 188.270 8.26344   4
   1  -2 -10 190.291 9.50170   2
   1   2 -10 190.750 8.84967   2
  -1   2  10 196.326 8.22817   4
   0  -2  10 383.940 12.6791   4
   0  -2 -10 386.033 14.1795   2
   0   2  10 390.790 12.4743   4
   0   2 -10 385.086 13.3792   5
   9  -3 -10 44.9319 5.34107   2
  -9   3  10 44.9167 4.90299   1
  -8  -3  10 82.2096 5.70090   1
   8  -3 -10 94.3584 6.61425   2
   8   3 -10 77.2142 6.78019   2
  -7  -3  10 212.437 8.53621   1
   7  -3 -10 208.321 9.48171   2
  -7  -3  10 212.741 8.11887   4
   7   3 -10 217.784 10.4453   2
  -7   3  10 193.058 8.77437   4
  -6  -3  10 104.977 5.60609   4
   6  -3 -10 105.298 6.63802   2
  -6  -3  10 96.4682 5.58293   1
  -6   3  10 88.6130 5.82425   4
   6   3 -10 104.893 7.12408   2
   5  -3 -10 140.699 7.78274   2
  -5  -3  10 152.574 6.72661   1
  -5  -3  10 165.218 7.13450   4
  -5   3  10 147.287 7.26849   4
   5   3 -10 160.968 8.43772   2
  -4  -3  10 56.2182 4.59780   4
   4  -3 -10 52.7614 5.24092   2
   4   3 -10 56.3506 5.11118   2
  -4   3  10 59.4400 4.67434   4
  -3  -3  10 111.097 6.26803   4
   3  -3 -10 111.279 7.12031   2
   3   3 -10 114.810 6.94507   2
  -3   3  10 105.122 6.10393   4
  -2  -3  10 90.9371 5.95079   4
   2  -3 -10 93.3053 6.94487   2
   2   3 -10 91.2677 6.32647   2
  -2   3  10 95.9034 5.93553   4
  -1  -3  10 31.8266 3.90121   4
   1  -3 -10 35.9665 4.92866   2
  -1   3  10 36.2759 4.19052   4
   0  -3 -10 33.3390 5.11724   2
   0   3  10 25.7731 3.71334   4
   9  -4 -10 74.3825 6.25878   2
  -8  -4  10 1.68437 1.98601   1
   8  -4 -10 2.07956 2.19424   2
   7  -4 -10 63.3618 5.47968   2
  -7  -4  10 65.4921 4.65076   4
  -7  -4  10 62.1155 4.84439   1
   7   4 -10 54.0502 6.11334   2
  -6  -4  10 103.981 5.81156   4
  -6  -4  10 116.656 6.18255   1
   6  -4 -10 113.467 6.89561   2
   6   4 -10 118.816 7.72528   2
  -5  -4  10 6.21378 2.11794   4
   5  -4 -10 8.99436 2.91326   2
  -5  -4  10 7.23523 2.23491   1
  -5   4  10 10.6907 2.66776   4
   5   4 -10 11.0246 3.13653   2
  -4  -4  10 40.6641 4.19835   4
  -4  -4  10 42.7030 3.85275   1
   4  -4 -10 41.2460 4.99034   2
  -4   4  10 39.4595 4.41765   4
   4   4 -10 46.2463 5.33008   2
   3  -4 -10 18.1345 3.83542   2
  -3  -4  10 22.3216 3.50337   4
   3   4 -10 23.2152 3.98959   2
  -3   4  10 21.6552 3.39784   4
  -2  -4  10 24.5971 3.72852   4
   2  -4 -10 22.9490 4.19045   2
  -2   4  10 26.2540 3.76285   4
  -1  -4  10 19.5836 3.43338   4
   1  -4 -10 25.9496 4.36011   2
  -1   4  10 19.4341 3.27386   4
   0   4  10 4.28752 2.08592   4
   8  -5 -10 46.3008 5.31688   2
   8  -5 -10 45.4396 4.76363   6
   7  -5 -10 36.9159 4.76093   2
  -7  -5  10 36.2902 4.29951   1
   7  -5 -10 36.6765 4.41404   6
  -6  -5  10 4.56251 2.24060   1
   6  -5 -10 9.73512 2.95096   2
  -6  -5  10 9.31278 2.42187   4
   6  -5 -10 8.88969 2.68336   6
   6   5 -10 8.76439 3.26215   2
   5  -5 -10 140.439 7.93178   2
  -5  -5  10 138.516 6.91599   1
  -5  -5  10 130.430 6.90868   4
   5   5 -10 139.844 8.38343   2
  -4  -5  10 178.926 7.84885   1
  -4  -5  10 182.046 8.33065   4
   4  -5 -10 192.423 9.44052   2
   4   5 -10 184.674 9.26361   2
  -4   5  10 181.841 8.80015   4
   3  -5 -10 360.170 13.6678   2
  -3  -5  10 354.257 12.2433   4
   3   5 -10 373.789 13.4006   2
  -3   5  10 345.173 12.5175   4
  -2  -5  10 179.648 8.57840   4
   2  -5 -10 159.786 9.20869   2
  -2   5  10 166.122 8.31361   4
  -1   5  10 3.59864 2.06033   4
   7  -6 -10 2.17932 2.42330   2
   7  -6 -10 0.80701 2.25468   6
   6  -6 -10 3.79604 2.55569   6
  -6  -6  10 4.33881 2.31152   1
   6  -6 -10 4.89145 2.42784   2
  -6  -6  10 2.41502 2.04393   4
  -5  -6  10 3.40687 2.23358   1
   5  -6 -10 8.78099 3.04791   6
  -5  -6  10 7.18921 2.40407   4
   5  -6 -10 2.04561 2.44931   2
   5   6 -10 2.68715 2.71813   2
   4  -6 -10 98.7093 6.80880   6
   4  -6 -10 85.8435 6.92417   2
  -4  -6  10 94.6817 5.97246   1
  -4  -6  10 90.3769 6.17164   4
   4   6 -10 87.8616 6.96946   2
   3  -6 -10 433.946 17.3327   2
  -3  -6  10 446.885 15.1906   4
   3  -6 -10 458.788 15.0010   6
  -3  -6  10 451.163 13.9142   1
  -6  -7  10 168.706 8.10002   4
   5  -7 -10 51.9591 5.60708   3
   5  -7 -10 63.0479 5.80905   6
  -5  -7  10 62.3950 5.35378   4
   4  -7 -10 236.811 10.6437   6
  -4  -7  10 253.489 10.5027   1
  -3  -7  10 124.170 7.25582   1
   3  -7 -10 124.669 7.83897   6
  -9   0  11 0.50420 1.99913   1
  -8   0  11 -0.1145 1.57177   4
   7   0 -11 0.13742 1.97977   2
  -7   0  11 0.68286 1.57221   4
   6   0 -11 1.28932 2.27263   2
  -6   0  11 0.76775 1.58727   4
  -5   0  11 -0.3744 1.40937   4
   5   0 -11 0.09653 2.07832   2
   4   0 -11 -0.0356 2.02399   2
  -4   0  11 0.66776 1.59106   4
  -3   0  11 -1.3665 1.40227   4
   3   0 -11 0.55925 2.25668   2
   2   0 -11 -1.2477 2.18061   2
   1   0 -11 0.29868 2.55449   2
  -8  -1  11 80.4388 5.47249   4
  -8  -1  11 73.8220 5.27031   1
  -8   1  11 86.1859 5.80327   4
  -7  -1  11 3.61797 1.77485   4
   7  -1 -11 -0.5248 2.16213   2
   7   1 -11 5.60278 2.75701   2
  -7   1  11 4.26762 1.96558   4
   6  -1 -11 47.1942 5.45164   2
  -6  -1  11 47.2621 4.31132   4
  -6   1  11 32.5871 3.94422   4
   6   1 -11 46.2989 5.61602   2
   5  -1 -11 14.7044 3.39171   2
  -5  -1  11 14.0317 2.75790   4
  -5   1  11 14.3335 2.96989   4
   5   1 -11 22.5225 4.09180   2
   4  -1 -11 2.95615 2.46049   2
  -4  -1  11 2.92543 1.84531   4
   4   1 -11 -1.1626 2.15451   2
  -4   1  11 3.43960 1.93276   4
   3  -1 -11 12.6506 3.40521   2
  -3  -1  11 9.85032 2.42553   4
   3   1 -11 10.2425 3.10918   2
  -3   1  11 13.7224 2.77028   4
   2  -1 -11 3.12008 2.70397   2
   2   1 -11 2.92445 2.65893   2
   1   1 -11 10.8722 3.24906   2
  -8  -2  11 193.934 8.22047   4
  -8  -2  11 172.442 8.18490   1
  -8   2  11 187.907 8.82716   4
  -7  -2  11 146.475 7.14977   4
   7  -2 -11 145.724 8.48204   2
  -7   2  11 151.094 7.72494   4
   7   2 -11 161.217 9.34430   2
  -6  -2  11 278.066 10.1590   4
   6  -2 -11 286.371 11.7238   2
   6   2 -11 288.056 12.1397   2
  -6   2  11 283.637 10.7096   4
  -5  -2  11 28.0507 3.53644   4
   5  -2 -11 29.0888 4.29451   2
   5   2 -11 33.4395 4.99628   2
  -5   2  11 28.9884 3.81810   4
  -4  -2  11 116.555 6.53351   4
   4  -2 -11 115.049 7.55700   2
   4   2 -11 122.797 7.62045   2
  -4   2  11 128.634 6.92346   4
   3  -2 -11 5.82179 2.76735   2
  -3  -2  11 3.27399 1.98499   4
  -3   2  11 6.73252 2.22966   4
   3   2 -11 7.48355 2.95722   2
   2   2 -11 118.238 7.38705   2
  -7  -3  11 37.6904 3.99208   4
   7  -3 -11 41.4871 5.66266   2
  -7  -3  11 40.9889 4.29426   1
  -7   3  11 30.3173 4.35891   4
  -6  -3  11 85.3869 5.59514   4
   6  -3 -11 84.2995 6.55876   2
  -6   3  11 82.8921 5.94370   4
   6   3 -11 75.6588 6.73754   2
   5  -3 -11 2.90787 2.60567   2
  -5  -3  11 3.37389 1.96787   4
  -5   3  11 4.89866 2.16770   4
   5   3 -11 0.82459 2.16926   2
   4  -3 -11 289.621 11.9169   2
  -4  -3  11 281.773 10.5993   4
  -4   3  11 284.945 10.9351   4
   4   3 -11 297.733 11.9368   2
   3   3 -11 156.902 8.63068   2
  -7  -4  11 82.0091 5.57377   4
  -7  -4  11 87.2718 5.88364   1
  -6  -4  11 282.158 10.2979   4
  -6  -4  11 269.551 10.1776   1
   6   4 -11 288.008 13.9975   2
  -5  -4  11 219.562 9.19978   4
   5   4 -11 231.346 10.9968   2
   4   4 -11 276.617 11.8494   2
   3   4 -11 146.458 8.42962   2
  -6  -5  11 147.179 7.64397   1
   5   5 -11 198.405 11.8296   2
   4   5 -11 142.942 8.77911   2
   0   0   0    0.00    0.00   0
;
loop_
_symmetry_equiv_pos_as_xyz
'x, y, z'
'-x, y+1/2, -z+1/2'
'-x, -y, -z'
'x, -y-1/2, z-1/2'
loop_
_atom_site_label
_atom_site_type_symbol
_atom_site_fract_x
_atom_site_fract_y
_atom_site_fract_z
_atom_site_U_iso_or_equiv
_atom_site_adp_type
_atom_site_occupancy
_atom_site_symmetry_multiplicity
_atom_site_calc_flag
_atom_site_refinement_flags
_atom_site_disorder_assembly
_atom_site_disorder_group
P1 P 0.52209(3) 0.18720(2) 0.70159(3) 0.01216(8) Uani 1 1 d . . .
O1 O 0.56416(10) 0.32484(6) 0.79678(9) 0.01602(14) Uani 1 1 d . . .
O2 O 0.32388(11) 0.18243(8) 0.53761(10) 0.02314(16) Uani 1 1 d . . .
O3 O 0.65785(10) 0.14821(8) 0.62808(9) 0.01899(15) Uani 1 1 d . . .
O4 O 0.54032(11) 0.07288(7) 0.83782(9) 0.02002(15) Uani 1 1 d . . .
N1 N -0.05239(14) -0.18726(10) 0.92010(14) 0.0292(2) Uani 1 1 d . . .
C1 C 0.00569(13) -0.11593(11) 0.85028(14) 0.02144(19) Uani 1 1 d . . .
C2 C 0.07856(15) -0.02529(12) 0.76060(15) 0.0248(2) Uani 1 1 d . . .
H1 H 0.623(2) 0.1614(17) 0.524(2) 0.040(4) Uiso 1 1 d . . .
H2 H 0.250(3) 0.2218(19) 0.555(2) 0.048(5) Uiso 1 1 d . . .
H3 H 0.512(2) 0.0046(19) 0.799(2) 0.049(5) Uiso 1 1 d . . .
H4 H -0.014(3) 0.037(2) 0.693(2) 0.055(5) Uiso 1 1 d . . .
H5 H 0.186(3) 0.0139(19) 0.842(2) 0.054(5) Uiso 1 1 d . . .
H6 H 0.107(3) -0.082(2) 0.688(2) 0.055(5) Uiso 1 1 d . . .
loop_
_atom_site_aniso_label
_atom_site_aniso_U_11
_atom_site_aniso_U_22
_atom_site_aniso_U_33
_atom_site_aniso_U_23
_atom_site_aniso_U_13
_atom_site_aniso_U_12
P1 0.01695(12) 0.00942(12) 0.01099(12) -0.00061(7) 0.00727(9) 0.00073(7)
O1 0.0261(3) 0.0088(3) 0.0160(3) -0.0008(2) 0.0123(3) -0.0002(2)
O2 0.0187(3) 0.0291(4) 0.0180(3) -0.0059(3) 0.0055(3) 0.0033(3)
O3 0.0211(3) 0.0242(3) 0.0136(3) 0.0010(3) 0.0097(3) 0.0069(3)
O4 0.0347(4) 0.0100(3) 0.0175(3) -0.0005(2) 0.0139(3) -0.0039(3)
N1 0.0266(5) 0.0311(5) 0.0303(5) -0.0022(4) 0.0137(4) -0.0070(4)
C1 0.0179(4) 0.0227(5) 0.0217(4) -0.0032(4) 0.0077(3) -0.0005(3)
C2 0.0241(5) 0.0264(5) 0.0262(5) 0.0024(4) 0.0137(4) 0.0010(4)
loop_
_atom_type_symbol
_atom_type_description
_atom_type_scat_dispersion_real
_atom_type_scat_dispersion_imag
_atom_type_scat_source
C C 0.0033 0.0016 'International Tables Vol C Tables 4.2.6.8 and 6.1.1.4'
H H 0.0000 0.0000 'International Tables Vol C Tables 4.2.6.8 and 6.1.1.4'
N N 0.0061 0.0033 'International Tables Vol C Tables 4.2.6.8 and 6.1.1.4'
O O 0.0106 0.0060 'International Tables Vol C Tables 4.2.6.8 and 6.1.1.4'
P P 0.1023 0.0942 'International Tables Vol C Tables 4.2.6.8 and 6.1.1.4'
loop_
_geom_angle_atom_site_label_1
_geom_angle_atom_site_label_2
_geom_angle_atom_site_label_3
_geom_angle
_geom_angle_site_symmetry_1
_geom_angle_site_symmetry_3
O1 P1 O3 114.09(4) . .
O1 P1 O4 107.17(4) . .
O3 P1 O4 107.36(4) . .
O1 P1 O2 112.88(4) . .
O3 P1 O2 104.85(4) . .
O4 P1 O2 110.40(4) . .
N1 C1 C2 179.68(12) . .
loop_
_geom_bond_atom_site_label_1
_geom_bond_atom_site_label_2
_geom_bond_distance
_geom_bond_site_symmetry_2
P1 O1 1.4978(6) .
P1 O3 1.5418(7) .
P1 O4 1.5497(7) .
P1 O2 1.5552(8) .
N1 C1 1.1401(14) .
C1 C2 1.4498(15) .
