#------------------------------------------------------------------------------
#$Date: 2021-05-06 03:55:18 +0300 (Thu, 06 May 2021) $
#$Revision: 264977 $
#$URL: file:///home/coder/svn-repositories/cod/cif/1/56/23/1562368.cif $
#------------------------------------------------------------------------------
#
# This file is available in the Crystallography Open Database (COD),
# http://www.crystallography.net/
#
# All data on this site have been placed in the public domain by the
# contributors.
#
data_1562368
loop_
_publ_author_name
'Hu, Yajing'
'Yao, Yang-Rong'
'Liu, Xuechen'
'Yu, Ao'
'Xie, Xiao-Ming'
'Abella, Laura'
'Rodriguez-Fortea, Antonio'
'Poblet, Josep M.'
'Akasaka, Takeshi'
'Peng, Ping'
'Zhang, Qianyan'
'Xie, Su-Yuan'
'Li, Fang-Fang'
'Lu, Xing'
_publ_section_title
;
 Unexpected Formation of 1,2- and 1,4-Bismethoxyl Sc3N@Ih-C80 Derivatives
 via Regioselective Anion Addition: Unambiguous Structural Identification
 and Mechanism Study
;
_journal_name_full               'Chemical Science'
_journal_paper_doi               10.1039/D1SC01178B
_journal_year                    2021
_chemical_formula_moiety         'C14 H8 O2'
_chemical_formula_sum            'C14 H8 O2'
_chemical_formula_weight         208.20
_chemical_name_common            AnthraQuinone
_chemical_name_systematic        9,10-Anthracenedione
_space_group_crystal_system      monoclinic
_space_group_IT_number           14
_space_group_name_Hall           '-P 2ybc'
_space_group_name_H-M_alt        'P 1 21/c 1'
_atom_sites_solution_hydrogens   geom
_audit_creation_date             2021-03-31
_audit_creation_method
;
Olex2 1.3-alpha
(compiled 2019.09.11 svn.r3662 for OlexSys, GUI svn.r5938)
;
_audit_update_record
;
2021-04-06 deposited with the CCDC.	2021-05-03 downloaded from the CCDC.
;
_cell_angle_alpha                90
_cell_angle_beta                 102.569(7)
_cell_angle_gamma                90
_cell_formula_units_Z            2
_cell_length_a                   7.8780(6)
_cell_length_b                   3.9147(4)
_cell_length_c                   15.6886(14)
_cell_measurement_reflns_used    1466
_cell_measurement_temperature    163
_cell_measurement_theta_max      29.1946
_cell_measurement_theta_min      3.2065
_cell_volume                     472.24(7)
_computing_cell_refinement
;
CrysAlisPro, Agilent Technologies,
Version 1.171.36.21 (release 14-08-2012 CrysAlis171 .NET)
(compiled Sep 14 2012,17:21:16)
;
_computing_data_collection
;
CrysAlisPro, Agilent Technologies,
Version 1.171.36.21 (release 14-08-2012 CrysAlis171 .NET)
(compiled Sep 14 2012,17:21:16)
;
_computing_data_reduction
;
CrysAlisPro, Agilent Technologies,
Version 1.171.36.21 (release 14-08-2012 CrysAlis171 .NET)
(compiled Sep 14 2012,17:21:16)
;
_computing_molecular_graphics    'Olex2 1.3-alpha (Dolomanov et al., 2009)'
_computing_publication_material  'Olex2 1.3-alpha (Dolomanov et al., 2009)'
_computing_structure_refinement  'ShelXL 2018/3 (Sheldrick, 2015)'
_computing_structure_solution    'ShelXS n/a (Sheldrick, 2008)'
_diffrn_ambient_temperature      163.00(2)
_diffrn_detector_area_resol_mean 15.9821
_diffrn_measured_fraction_theta_full 0.998
_diffrn_measured_fraction_theta_max 0.883
_diffrn_measurement_details
;
#__ type_ start__ end____ width___ exp.time_
  1 omega  -21.00   13.00   1.0000    6.5000
omega____ theta____ kappa____ phi______ frames
    -      -16.8710  -99.0000 -180.0000 34

#__ type_ start__ end____ width___ exp.time_
  2 omega    6.00   88.00   1.0000    6.5000
omega____ theta____ kappa____ phi______ frames
    -       19.6835   57.0000   30.0000 82

#__ type_ start__ end____ width___ exp.time_
  3 omega   35.00   95.00   1.0000    6.5000
omega____ theta____ kappa____ phi______ frames
    -       19.6835  178.0000  -90.0000 60

#__ type_ start__ end____ width___ exp.time_
  4 omega   61.00   96.00   1.0000    6.5000
omega____ theta____ kappa____ phi______ frames
    -       19.6835  178.0000 -180.0000 35

#__ type_ start__ end____ width___ exp.time_
  5 omega  -14.00   91.00   1.0000    6.5000
omega____ theta____ kappa____ phi______ frames
    -       19.6835   19.0000  -30.0000 105

#__ type_ start__ end____ width___ exp.time_
  6 omega   16.00   50.00   1.0000    6.5000
omega____ theta____ kappa____ phi______ frames
    -       19.6835  -77.0000  -90.0000 34

#__ type_ start__ end____ width___ exp.time_
  7 omega  -49.00  -10.00   1.0000    6.5000
omega____ theta____ kappa____ phi______ frames
    -       19.6835  -57.0000 -150.0000 39

#__ type_ start__ end____ width___ exp.time_
  8 omega  -53.00   93.00   1.0000    6.5000
omega____ theta____ kappa____ phi______ frames
    -       19.6835    0.0000 -120.0000 146
;
_diffrn_measurement_device_type  'Xcalibur, Eos'
_diffrn_measurement_method       '\w scans'
_diffrn_radiation_type           MoK\a
_diffrn_radiation_wavelength     0.71073
_diffrn_reflns_av_R_equivalents  0.0315
_diffrn_reflns_av_unetI/netI     0.0307
_diffrn_reflns_Laue_measured_fraction_full 0.998
_diffrn_reflns_Laue_measured_fraction_max 0.883
_diffrn_reflns_limit_h_max       10
_diffrn_reflns_limit_h_min       -9
_diffrn_reflns_limit_k_max       5
_diffrn_reflns_limit_k_min       -5
_diffrn_reflns_limit_l_max       19
_diffrn_reflns_limit_l_min       -20
_diffrn_reflns_number            4856
_diffrn_reflns_point_group_measured_fraction_full 0.998
_diffrn_reflns_point_group_measured_fraction_max 0.883
_diffrn_reflns_theta_full        25.000
_diffrn_reflns_theta_max         29.259
_diffrn_reflns_theta_min         3.321
_exptl_absorpt_coefficient_mu    0.098
_exptl_absorpt_correction_T_max  1.00000
_exptl_absorpt_correction_T_min  0.35012
_exptl_absorpt_correction_type   multi-scan
_exptl_absorpt_process_details
;
CrysAlisPro, Agilent Technologies,
Version 1.171.36.21 (release 14-08-2012 CrysAlis171 .NET)
(compiled Sep 14 2012,17:21:16)
Empirical absorption correction using spherical harmonics,
 implemented in SCALE3 ABSPACK scaling algorithm.
;
_exptl_crystal_colour            yellow
_exptl_crystal_colour_primary    yellow
_exptl_crystal_density_diffrn    1.464
_exptl_crystal_description       block
_exptl_crystal_F_000             216
_exptl_crystal_size_max          0.62
_exptl_crystal_size_mid          0.2
_exptl_crystal_size_min          0.16
_refine_diff_density_max         0.193
_refine_diff_density_min         -0.195
_refine_diff_density_rms         0.050
_refine_ls_extinction_method     none
_refine_ls_goodness_of_fit_ref   1.054
_refine_ls_hydrogen_treatment    constr
_refine_ls_matrix_type           full
_refine_ls_number_parameters     73
_refine_ls_number_reflns         1137
_refine_ls_number_restraints     0
_refine_ls_restrained_S_all      1.054
_refine_ls_R_factor_all          0.0624
_refine_ls_R_factor_gt           0.0452
_refine_ls_shift/su_max          0.000
_refine_ls_shift/su_mean         0.000
_refine_ls_structure_factor_coef Fsqd
_refine_ls_weighting_details
'w=1/[\s^2^(Fo^2^)+(0.0567P)^2^+0.1569P] where P=(Fo^2^+2Fc^2^)/3'
_refine_ls_weighting_scheme      calc
_refine_ls_wR_factor_gt          0.1146
_refine_ls_wR_factor_ref         0.1295
_reflns_Friedel_coverage         0.000
_reflns_number_gt                868
_reflns_number_total             1137
_reflns_threshold_expression     'I > 2\s(I)'
_cod_data_source_file            d1sc01178b2.cif
_cod_data_source_block           anthraquinone-163k
_cod_database_code               1562368
_shelx_shelxl_version_number     2018/3
_shelx_space_group_comment
;
The symmetry employed for this shelxl refinement is uniquely defined
by the following loop, which should always be used as a source of
symmetry information in preference to the above space-group names.
They are only intended as comments.
;
_shelx_estimated_absorpt_t_max   0.985
_shelx_estimated_absorpt_t_min   0.942
_olex2_refinement_description
;
1. Fixed Uiso
 At 1.2 times of:
  All C(H) groups
2.a Aromatic/amide H refined with riding coordinates:
 C5(H5), C3(H3), C6(H6), C4(H4)
;
_shelx_res_file
;
TITL BKS-SS-D--ANTH-163K-SS in P21/c #14
    anthraquinone-163k.res
    created by SHELXL-2018/3 at 17:26:29 on 31-Mar-2021
REM reset to P21/c #14
CELL 0.71073 7.878017 3.914658 15.688574 90 102.5686 90
ZERR 2 0.000557 0.000367 0.001418 0 0.0074 0
LATT 1
SYMM -X,0.5+Y,0.5-Z
SFAC C H O
UNIT 28 16 4

L.S. 4
PLAN  5
SIZE 0.62 0.2 0.16
TEMP -110.15(2)
CONF
BOND $H
HTAB
MORE -1
fmap 2
acta 50
REM <olex2.extras>
REM <HklSrc "%.\\Anthraquinone-163K.hkl">
REM </olex2.extras>

WGHT    0.056700    0.156900
FVAR      12.92521
C2    1    0.434680    0.654621    0.414675    11.00000    0.02502    0.02659 =
         0.02878   -0.00361    0.00453   -0.00243
C7    1    0.325756    0.639776    0.474538    11.00000    0.02349    0.02629 =
         0.02981   -0.00404    0.00419   -0.00260
C1    1    0.614424    0.513756    0.437728    11.00000    0.02518    0.03439 =
         0.02963   -0.00296    0.00865   -0.00251
C5    1    0.098191    0.915930    0.369201    11.00000    0.02623    0.03381 =
         0.04208   -0.00336   -0.00170    0.00218
AFIX  43
H5    2   -0.016362    1.006065    0.353728    11.00000   -1.20000
AFIX   0
O1    3    0.709409    0.523744    0.385583    11.00000    0.03377    0.07087 =
         0.03700    0.00874    0.01699    0.00866
C3    1    0.372984    0.799125    0.332632    11.00000    0.03440    0.03461 =
         0.02882   -0.00110    0.00648   -0.00096
AFIX  43
H3    2    0.446024    0.808236    0.291828    11.00000   -1.20000
AFIX   0
C6    1    0.157535    0.770901    0.450762    11.00000    0.02495    0.03344 =
         0.03761   -0.00318    0.00716   -0.00053
AFIX  43
H6    2    0.083000    0.760677    0.490843    11.00000   -1.20000
AFIX   0
C4    1    0.205552    0.929749    0.310187    11.00000    0.03678    0.03584 =
         0.03032    0.00014   -0.00187    0.00110
AFIX  43
H4    2    0.164469    1.028871    0.254224    11.00000   -1.20000
AFIX   0
HKLF 4




REM  BKS-SS-D--ANTH-163K-SS in P21/c #14
REM wR2 = 0.1295, GooF = S = 1.054, Restrained GooF = 1.054 for all data
REM R1 = 0.0452 for 868 Fo > 4sig(Fo) and 0.0624 for all 1137 data
REM 73 parameters refined using 0 restraints

END

WGHT      0.0567      0.1569

REM No hydrogen bonds found for HTAB generation

REM Highest difference peak  0.193,  deepest hole -0.195,  1-sigma level  0.050
Q1    1   0.5157  0.5619  0.4264  11.00000  0.05    0.19
Q2    1   0.3736  0.5998  0.5168  11.00000  0.05    0.16
Q3    1   0.3979  0.7102  0.3778  11.00000  0.05    0.15
Q4    1   0.1366  0.9034  0.4079  11.00000  0.05    0.15
Q5    1   0.1031  0.6471  0.3803  11.00000  0.05    0.14
;
_shelx_res_checksum              64869
_shelx_hkl_file
;
   0   0  -3-52.1956 93.9173   2
   0   0   3 43.9695 60.4556   7
   0   0  -3-13.1854 54.6822   7
   0   0   3-176.005 97.0730   2
   0   0   3-23.2235 37.3183   8
   0   0  -4 202988. 2257.48   2
   0   0   4 201157. 2310.69   2
   0   0  -4 197137. 2116.52   8
   0   0   4 197126. 2047.95   7
   0   0   4 202038. 2213.28   8
   0   0  -4 198887. 2092.92   5
   0   0  -4 199242. 2057.85   7
   0   0  -5-8.46551 61.8653   5
   0   0   5-65.1753 118.069   7
   0   0  -5-50.0613 98.6540   7
   0   0  -5-123.882 122.588   2
   0   0   5-148.989 70.4372   8
   0   0   5-147.019 187.021   2
   0   0  -5-23.8067 51.5983   8
   0   0  -6-43.9196 126.026   2
   0   0   6-142.104 118.663   7
   0   0  -6 151.123 101.881   5
   0   0   6 300.148 161.537   2
   0   0   6 94.7292 77.0786   8
   0   0  -6 9.30331 94.5160   7
   0   0  -7 90.2647 75.7826   5
   0   0   7-54.6624 126.920   7
   0   0   8 12876.9 775.851   7
   0   0  -8 14315.1 452.452   1
   0   0  -8 14081.9 801.774   5
   0   0  -9 63.5920 65.9555   5
   0   0  -9 107.637 65.8239   1
   0   0   9 7.76232 107.810   7
   0   0  10 56.1240 125.868   7
   0   0 -10 337.331 100.536   1
   0   0 -10 324.252 160.050   5
   0   0 -11-3.80178 57.9991   5
   0   0  11 146.933 216.812   7
   0   0 -11 17.0544 72.0596   1
   0   0 -12 4624.18 563.956   5
   0   0  12 4533.42 563.373   7
   0   0  13-53.1378 121.801   7
   0   0 -13 122.004 101.110   5
   0   0 -14 7877.90 799.615   5
   0   0  14 7392.76 831.008   7
   0   0  15 149.655 120.392   7
   0   0 -15-135.611 178.090   5
   0   0 -16 3839.74 602.878   5
   0   0 -17-279.876 219.935   5
   0   0 -18 70.8423 168.305   5
   0   0 -19 257.628 187.953   5
   0   1   0 17.4006 59.4721   3
   0   1   0 122.920 145.483   6
   0   1   1 151907. 1772.46   4
   0   1  -1 156791. 1263.29   5
   0   1   1 158485. 1841.22   3
   0   1   1 158267. 1735.05   6
   0   1  -1 160800. 1804.69   3
   0   1   1 147686. 1515.93   2
   0  -1   1 154280. 1775.56   3
   0  -1   1 151367. 1645.67   6
   0  -1  -1 153185. 1793.12   4
   0   1   2 536400. 2490.74   8
   0  -1  -2 541195. 3135.47   2
   0   1  -2 541920. 3298.35   3
   0  -1   2 540303. 2409.77   8
   0  -1  -2 541211. 3505.86   4
   0  -1   2 539387. 3326.03   3
   0   1   2 534719. 3140.52   2
   0   1  -3 159338. 1864.70   3
   0   1   3 161798. 1669.75   8
   0  -1   3 163414. 1862.29   3
   0  -1  -3 161043. 1328.09   5
   0   1  -3 157687. 2047.90   7
   0  -1  -3 167770. 1909.29   2
   0  -1   3 160723. 1621.48   8
   0   1   3 161023. 1923.47   2
   0   1  -3 160730. 1852.55   5
   0  -1  -3 161878. 2015.35   4
   0  -1  -4 25386.8 823.414   2
   0  -1  -4 23951.7 630.990   5
   0   1   4 24221.5 839.061   2
   0   1  -4 24232.2 822.429   3
   0  -1   4 24600.1 748.938   3
   0   1  -4 23870.9 800.751   5
   0  -1   4 24471.6 738.582   8
   0   1  -4 23427.5 854.270   7
   0   1   4 24454.6 757.017   8
   0  -1  -5 149143. 2125.70   2
   0   1  -5 138732. 2118.73   5
   0   1   5 143799. 2065.62   8
   0  -1   5 144483. 2037.54   8
   0  -1  -5 139578. 1771.84   5
   0   1  -5 137239. 2186.06   3
   0   1   5 141101. 2220.99   2
   0   1   5 134405. 1257.69   1
   0  -1   5 144923. 1934.15   3
   0  -1   6 44130.8 1113.35   3
   0   1   6 41137.0 1318.07   2
   0  -1   6 44884.7 1250.35   8
   0   1  -6 40890.2 1250.75   5
   0  -1  -6 42489.4 1074.70   5
   0  -1   7 20375.8 804.822   3
   0  -1  -7 18650.6 778.119   5
   0   1   7 17251.9 922.043   2
   0   1   7 18762.1 797.470   7
   0   1  -7 17589.4 877.229   5
   0   1   8 17467.4 857.226   7
   0  -1  -8 18182.5 826.953   5
   0   1   8 16250.1 978.893   2
   0  -1   8 19196.1 819.427   3
   0   1  -8 17328.3 924.791   5
   0  -1  -9 8433.38 607.239   5
   0   1   9 7747.45 718.167   2
   0   1  -9 7430.71 643.686   5
   0   1   9 7857.21 593.132   7
   0  -1   9 7497.62 550.853   3
   0  -1 -10 877.018 213.172   5
   0  -1  10 1758.63 288.522   3
   0   1  10 1070.18 248.792   7
   0   1 -10 862.105 227.499   5
   0   1  10 922.820 301.072   2
   0   1 -11-31.3593 148.322   5
   0   1  11 255.185 134.873   7
   0   1  11 245.914 240.934   2
   0  -1 -11 208.556 142.531   5
   0  -1  11 166.899 173.491   3
   0   1  12 3719.03 637.384   2
   0   1 -12 2773.51 452.810   5
   0   1  12 3143.25 443.906   7
   0   1 -12 3426.10 393.969   1
   0  -1  12 3237.80 429.999   3
   0  -1 -12 3319.81 454.270   5
   0  -1 -13 34.8600 76.7311   5
   0   1 -13 275.745 147.838   5
   0  -1  13 343.752 220.666   3
   0   1  13 115.691 127.146   7
   0   1  13-282.922 225.749   2
   0   1 -13 217.171 168.020   1
   0  -1 -14 1010.02 273.208   5
   0   1 -14 920.760 296.049   5
   0   1  14 864.031 287.454   7
   0   1  14 380.490 318.185   2
   0   1 -14 1294.24 249.948   1
   0  -1 -15 1119.00 282.586   5
   0   1  15 1147.95 325.991   7
   0   1 -15 1219.04 345.194   5
   0   1 -16 170.658 140.497   5
   0  -1 -16 257.500 129.826   5
   0   1  16-115.363 183.216   7
   0   1  17 143.180 155.707   7
   0  -1 -17-94.7224 195.131   5
   0   1 -17 321.282 237.256   5
   0  -1 -18 202.645 191.206   5
   0   1 -18 24.3081 127.231   5
   0  -1 -19 690.473 255.373   5
   0  -1 -20 198.362 168.129   5
   0  -2   0 18388.0 834.676   6
   0  -2   1 14875.9 754.464   6
   0   2   1 14809.7 659.960   2
   0   2  -1 14567.1 433.722   5
   0   2   2 4288.24 378.140   2
   0  -2   2 4621.73 441.108   6
   0   2   2 3717.87 193.933   8
   0  -2  -2 4727.56 464.949   4
   0   2  -2 4652.77 302.732   5
   0  -2   3 30015.8 1130.03   3
   0   2  -3 32890.6 905.436   5
   0  -2   3 31184.9 681.401   8
   0  -2  -3 32514.5 1211.32   4
   0   2   3 32531.2 741.174   8
   0   2   3 34429.6 1074.44   2
   0  -2   4 34219.2 857.365   8
   0  -2  -4 32877.7 1253.90   4
   0   2   4 35983.6 1142.53   2
   0   2  -4 35065.7 1040.10   5
   0   2   4 34534.7 905.779   8
   0  -2   5 63150.1 1337.82   8
   0  -2  -5 59096.1 895.551   5
   0   2  -5 56910.3 1452.26   5
   0  -2   5 59882.6 1637.09   3
   0   2   5 59041.3 1337.63   8
   0   2   5 61476.0 1612.30   2
   0  -2  -5 61507.1 1733.58   4
   0   2   6 9197.44 677.067   2
   0   2  -6 8992.55 615.023   5
   0  -2   6 9834.74 592.788   8
   0  -2  -6 9728.92 430.994   5
   0   2   6 8639.81 524.194   1
   0  -2  -6 8918.87 685.907   4
   0  -2   6 8470.15 637.863   3
   0   2   7 6549.89 441.425   1
   0  -2  -7 6496.07 580.617   4
   0   2  -7 6223.64 544.072   5
   0  -2   7 6193.24 565.853   3
   0   2   7 7526.21 643.104   2
   0  -2  -7 7672.53 445.085   5
   0   2   8 8089.77 459.550   1
   0  -2   8 8565.73 655.652   3
   0  -2  -8 9283.85 738.680   4
   0   2   8 7835.19 756.410   2
   0   2  -8 9077.59 700.866   5
   0  -2  -8 8586.97 517.525   5
   0   2   9 119.658 97.3443   7
   0   2   9-77.3261 201.962   2
   0  -2  -9-116.888 91.2437   5
   0  -2  -9 52.1715 160.191   4
   0  -2   9 165.277 144.330   3
   0   2  -9-53.0247 101.936   5
   0  -2 -10 4934.19 460.214   5
   0   2 -10 4906.12 569.083   5
   0   2  10 4838.96 616.037   2
   0  -2  10 4713.00 512.735   3
   0  -2 -10 5372.46 606.871   4
   0   2  10 5673.10 509.686   7
   0  -2 -11 675.222 192.904   5
   0  -2  11 889.038 238.795   3
   0  -2 -11 1135.20 305.284   4
   0   2  11 716.144 281.236   2
   0   2  11 833.862 210.695   7
   0   2 -11 901.011 266.203   5
   0  -2  12 5289.10 546.831   3
   0  -2 -12 5432.92 559.458   5
   0   2  12 5814.56 772.235   2
   0   2  12 5939.97 573.339   7
   0  -2 -12 5336.88 671.921   4
   0   2 -12 5697.70 676.488   5
   0  -2 -13 6705.65 649.927   5
   0   2  13 5790.52 787.586   2
   0  -2  13 6290.30 589.277   3
   0   2 -13 7490.60 750.414   1
   0   2  13 7199.06 644.460   7
   0   2 -13 6079.24 731.082   5
   0   2 -14 952.243 319.990   5
   0  -2 -14 1438.25 315.032   5
   0   2 -14 1361.07 344.557   1
   0   2  14 1169.94 442.750   2
   0   2  15 10051.3 1166.31   2
   0   2 -15 9245.07 969.833   5
   0   2 -15 9946.14 893.958   1
   0  -2 -15 8956.02 817.394   5
   0   2 -16 14042.7 1239.38   5
   0  -2 -16 12973.3 1031.85   5
   0   2  16 12036.4 1387.05   2
   0   2  17 14.5032 336.373   2
   0  -2 -17-70.2033 167.038   5
   0   2 -17-105.622 209.441   5
   0  -2 -19-67.1127 227.420   4
   0  -3   0 11.4520 104.055   6
   0  -3   1 734.709 220.503   6
   0   3  -1 385.064 60.7317   5
   0   3   1 977.954 210.964   2
   0   3  -2 11986.3 484.359   5
   0  -3   2 11817.6 823.052   6
   0   3   2 12501.2 761.725   2
   0  -3   3 7892.70 701.738   6
   0  -3  -3 7305.91 735.448   4
   0   3  -3 7751.38 455.124   5
   0   3   3 7596.58 609.924   2
   0   3   4 1077.33 249.523   2
   0  -3   4 849.378 236.944   6
   0  -3   4 249.512 57.6578   8
   0  -3   4 214.814 53.7288   8
   0  -3  -4 943.175 304.036   4
   0   3   4 695.289 112.858   8
   0   3  -4 967.976 186.807   5
   0   3   5 1478.29 294.650   2
   0   3   5 1504.53 309.895   1
   0  -3  -5 1231.34 338.030   4
   0  -3   5 993.785 166.798   8
   0  -3   5 1740.20 352.732   6
   0   3  -5 1458.17 254.539   5
   0   3   5 1494.33 223.500   8
   0   3   6 2943.77 433.054   1
   0  -3   6 3361.87 522.967   6
   0   3  -6 3021.78 378.670   5
   0  -3  -6 2966.36 486.857   4
   0   3   6 3351.21 452.620   2
   0   3   7-75.7615 139.547   1
   0   3   7-236.926 206.155   2
   0  -3   7-73.5079 124.479   3
   0   3  -7-60.1344 82.9742   5
   0  -3  -7 64.3120 171.544   4
   0  -3  -8 2488.48 439.834   4
   0  -3   8 1981.82 390.649   3
   0   3  -8 2533.90 395.169   5
   0   3   8 2366.87 370.164   1
   0   3   8 2676.83 446.493   2
   0   3  -9 4017.18 530.890   5
   0   3   9 4348.14 605.068   2
   0  -3  -9 4495.43 624.586   4
   0  -3   9 3824.64 559.904   3
   0  -3  10 1764.54 359.858   3
   0   3  10 1887.43 420.093   2
   0   3 -10 1792.24 379.400   5
   0  -3 -10 1485.34 347.125   4
   0   3 -11 3027.97 505.775   5
   0  -3  11 2158.16 429.510   3
   0   3  11 3156.70 568.003   2
   0  -3 -11 2589.98 501.870   4
   0   3  12 2682.98 563.721   2
   0  -3  12 2741.11 480.982   3
   0  -3 -12 3274.91 571.231   4
   0   3 -12 2922.71 522.734   5
   0   3 -12 3279.04 566.427   1
   0   3 -13 286.176 193.425   1
   0  -3 -13 235.872 207.173   4
   0   3 -13 167.490 167.831   5
   0   3  13 263.277 310.836   2
   0   3 -14 802.536 287.712   1
   0   3 -14 764.075 298.392   5
   0   3  14 690.516 333.307   2
   0  -3 -14 805.243 306.057   4
   0   3 -15 387.960 157.956   5
   0   3  15 983.474 416.986   2
   0  -3 -15 753.865 333.316   4
   0   3 -15 93.1331 249.507   1
   0   3  16 3827.50 815.416   2
   0   3 -16 4270.75 705.626   5
   0  -3 -16 4080.69 691.299   4
   0   3 -16 3650.00 684.505   1
   0   4   0 116.448 96.9327   2
   0   4   1 558.832 178.589   2
   0   4  -1 480.154 182.969   2
   0   4   2-16.9733 89.2206   2
   0   4   2-158.819 200.460   1
   0  -4   2-31.5450 122.695   6
   0   4   3 173.185 160.543   2
   0   4   3 59.2658 124.899   1
   0  -4   3 86.0129 92.9501   6
   0  -4   4 118.425 183.328   6
   0   4   4 300.299 174.610   1
   0  -4   5 309.926 256.127   6
   0   4   5-9.29403 205.448   1
   0  -4   6 613.019 333.061   6
   0   4   6 505.005 203.376   1
   0  -4   7 589.723 280.207   6
   0  -4  -7 283.873 234.297   4
   0  -4   8 3060.08 599.636   6
   0  -4  -8 2797.47 560.276   4
   0   4  -9 149.759 219.462   1
   0  -4  -9 0.64692 218.162   4
   0  -4   9 166.174 179.605   6
   0  -4  10 4453.73 758.561   6
   0   4 -10 3433.84 607.447   1
   0  -4 -10 3744.41 626.662   4
   0   4 -11 3269.55 633.121   1
   0  -4 -11 4066.40 692.693   4
   0  -4  11 4411.13 788.655   6
   0   4 -12 874.786 380.233   1
   0   5   0-308.726 264.661   1
   0   5  -1 486.450 293.427   1
   0   5   1-215.776 120.265   1
   0   5   2-43.0817 121.981   1
   0   5   3-324.319 301.271   1
   0   5   4-213.425 277.720   1
   1   0 -19 35.7282 144.986   5
   1   0 -18 124.809 177.499   5
   1   0 -17 3.65857 101.704   5
   1   0 -16 267.895 195.775   5
   1   0 -15 21.8249 94.1517   5
   1   0 -14 3449.33 527.940   5
   1   0 -13 84.7599 135.369   5
   1   0 -12 48858.7 1812.84   5
   1   0 -11-94.4907 123.626   5
   1   0 -10 155.742 103.410   5
   1   0  -9-30.0377 82.3353   5
   1   0  -8 17143.7 859.504   5
   1   0  -7 121.323 82.3838   5
   1   0  -7 125.321 72.5861   7
  -1   0   6 98662.4 1879.32   5
   1   0  -6 95231.7 1604.37   7
   1   0  -5 70.1537 47.9792   5
   1   0  -5 40.4931 78.0690   7
   1   0  -5-126.462 138.175   2
  -1   0   5-117.382 65.9058   5
  -1   0   4 81628.5 1372.26   5
   1   0  -4 77631.2 1306.85   5
  -1   0   3-4.60083 43.2468   5
   1   0  -3-35.6890 42.9949   5
   1   0  -2 266884. 1965.28   8
  -1   0   2 263695. 1947.35   5
  -1   0  -1 21.6020 36.0912   2
   1   0   2 10122.9 412.718   2
  -1   0  -2 9690.31 406.554   2
  -1   0  -2 11161.1 455.071   8
   1   0   2 10484.3 460.062   8
   1   0   3 83.7218 61.7604   8
  -1   0  -3-140.598 112.523   2
   1   0   3 371.063 123.647   1
   1   0   3 406.520 160.345   2
  -1   0  -3-6.68045 55.8362   8
   1   0   4 28392.9 642.863   1
  -1   0  -4 28286.2 882.835   2
  -1   0  -4 27992.4 881.887   8
   1   0   4 29993.0 935.398   8
   1   0   5-187.762 133.118   2
  -1   0  -5-63.9987 63.6747   8
   1   0   5-60.8477 59.0193   1
   1   0   5 73.6912 76.1303   8
  -1   0  -5-7.01433 89.9195   2
   1   0   5 6.68332 110.953   7
   1   0   6 308781. 3515.85   7
   1   0   6 301427. 3556.34   2
  -1   0  -7-71.3956 183.121   8
   1   0   7-246.743 140.470   2
   1   0   7-189.575 150.953   7
   1   0   8 180390. 3024.44   7
  -1   0  -8 180339. 2960.96   8
   1   0   9-43.9621 122.272   7
  -1   0  -9-98.1593 81.0976   8
   1   0   9-183.110 142.963   2
   1   0  10 12689.4 913.368   7
  -1   0 -10 12333.5 874.392   8
   1   0  10 12103.0 964.814   2
   1   0  11 58.1988 199.083   2
  -1   0 -11 16.5836 71.7240   8
   1   0  11-267.992 242.752   7
  -1   0 -11-10.9385 98.1371   5
  -1   0 -12 5951.76 675.732   5
   1   0  12 6020.69 771.645   2
   1   0  12 5755.25 720.724   7
  -1   0 -13 12.4358 141.057   5
   1   0  13-29.2868 226.146   7
   1   0  14 3289.65 579.676   7
  -1   0 -14 2471.60 471.344   5
   1   0  15-0.60058 194.064   7
  -1   0 -15 121.290 141.576   5
   1   0  16 9570.79 1061.00   7
  -1   0 -16 7881.07 901.814   5
   1   0  17 195.758 262.825   7
  -1   0 -17 40.7286 229.126   5
   1   0  18 460.354 302.857   7
  -1   0 -18 634.106 278.050   5
   1  -1 -20 424.174 160.480   5
   1   1 -19 7582.42 956.051   5
   1  -1 -19 6368.67 795.924   5
   1   1 -18 553.045 340.911   5
   1  -1 -18 273.206 143.394   5
   1  -1 -17 170.163 158.422   5
   1   1 -17 345.217 255.152   5
   1  -1 -16 1768.98 393.334   5
   1   1 -16 1407.68 385.645   5
   1  -1 -15 44461.5 1857.52   5
   1   1 -15 45639.4 2038.10   5
   1  -1 -14 33204.6 1536.14   5
   1   1 -14 31837.9 1649.72   5
   1  -1 -13 3663.08 482.771   5
   1   1 -13 3659.75 530.911   5
   1  -1 -12 3064.36 418.571   5
  -1   1  12 3037.61 414.654   7
  -1  -1  12 3203.81 302.810   3
   1   1 -12 3022.66 466.991   5
  -1   1  11 6413.98 724.518   2
  -1   1  11 6633.45 555.685   7
   1   1 -11 6623.21 659.323   5
  -1  -1  11 6921.86 428.113   3
   1  -1 -11 5915.27 552.381   5
   1  -1 -10 972.837 213.395   5
  -1   1  10 1350.61 232.079   7
  -1   1  10 792.324 294.036   2
   1   1 -10 1239.44 282.485   5
  -1  -1  10 1210.15 168.567   3
  -1   1   9 4882.25 411.791   7
   1   1  -9 4128.76 481.616   5
  -1   1   9 4212.49 518.319   2
  -1  -1   9 4660.98 314.448   3
   1  -1  -9 4114.24 413.744   5
  -1   1   8 6680.11 613.020   2
   1   1  -8 7317.63 598.116   5
  -1  -1   8 7780.05 393.085   3
  -1   1   8 7867.73 467.506   7
   1  -1  -8 7132.12 508.568   5
   1  -1  -7 2953.95 306.128   5
  -1   1   7 3717.45 288.706   7
  -1   1   7 3234.88 392.134   2
   1   1  -7 2848.23 348.032   5
  -1  -1   7 2801.70 226.525   3
  -1   1   6 19668.7 577.614   7
  -1  -1   6 19056.5 586.325   3
   1   1  -6 17837.8 641.451   3
   1  -1  -6 18828.3 532.878   1
   1  -1  -6 20144.7 795.435   2
   1   1  -6 18443.1 829.657   5
  -1   1   6 20318.4 768.076   5
   1  -1  -6 17838.7 678.607   5
  -1   1   6 18654.2 827.952   2
   1   1  -5 93.8185 67.1858   3
   1  -1  -5 110.047 74.8956   2
   1  -1  -5 46.9019 44.5988   5
  -1   1   5 89.9248 110.523   2
  -1   1   5 49.3848 40.1874   5
   1   1  -5 49.9841 46.0938   5
  -1   1   5 120.202 47.5514   7
  -1  -1   5 38.0490 45.1836   5
  -1   1   5 129.241 83.7702   3
  -1  -1   5 164.227 64.2322   3
   1  -1  -5 71.7754 55.2872   1
   1  -1  -4 6455.35 351.023   1
  -1   1   4 5281.87 346.523   1
  -1  -1   4 6538.34 432.156   5
   1  -1  -4 6553.74 365.097   2
  -1   1   4 6654.17 381.600   2
   1   1  -4 6600.55 416.843   5
  -1   1   4 6882.48 348.218   5
  -1   1   4 6761.39 414.253   3
   1  -1  -4 6718.40 346.073   5
   1   1  -4 6140.42 326.459   3
  -1   1   3 73544.8 1190.16   8
   1  -1  -3 73226.6 1048.97   5
   1  -1  -3 75788.2 1232.05   1
   1   1  -3 79617.6 1189.98   3
  -1   1   3 77929.7 1105.20   2
   1   1  -3 75952.1 1279.18   5
  -1   1   3 75835.7 996.605   5
  -1   1   3 71545.8 1281.67   1
   1  -1  -3 77920.6 1074.17   2
  -1  -1   3 72625.5 1151.01   8
  -1   1   3 78497.5 1402.95   3
  -1  -1   3 77428.2 1331.14   5
  -1   1   2 519.180 169.041   3
   1  -1  -2 461.505 109.248   3
   1  -1  -2 333.794 75.6095   5
  -1   1   2 407.984 79.2817   5
  -1   1   2 1044.04 121.554   2
   1  -1  -2 650.929 139.651   4
   1   1  -2 366.040 86.7803   5
   1  -1  -2 422.139 64.8154   2
  -1  -1   2 244.111 58.9261   8
  -1   1   2 1149.10 197.996   1
  -1   1   2 557.431 110.235   8
   1  -1  -2 366.088 95.9229   1
  -1  -1   2 537.468 104.899   5
  -1   1   1 725.322 78.7061   2
  -1   1   1 1012.11 189.006   1
   1  -1  -1 1320.28 244.300   4
  -1   1   1 1143.94 193.785   3
   1  -1  -1 1342.09 170.879   8
   1   1  -1 1263.55 179.914   8
  -1   1   1 940.760 96.8440   7
  -1   1   1 1302.88 136.670   5
   1  -1  -1 867.268 155.196   3
  -1  -1   1 563.661 83.3376   8
  -1  -1   1 1837.97 277.403   6
   1   1  -1 803.548 112.864   5
  -1   1   1 1101.58 157.586   8
  -1  -1   1 1044.77 128.054   5
  -1   1   1 904.277 133.769   6
  -1  -1   0 402474. 2231.28   8
  -1   1   0 415450. 2383.56   7
  -1   1   0 417396. 2718.36   4
  -1   1   0 425984. 3453.98   1
  -1  -1   0 414649. 3165.50   6
   1   1   0 394397. 2542.48   5
   1   1   0 422306. 3117.79   6
   1  -1   0 412504. 2361.56   7
   1  -1   0 409473. 3141.30   3
   1  -1   0 412243. 2250.12   8
   1  -1   0 412240. 2206.40   6
  -1  -1   0 411652. 2316.59   5
   1   1   0 411545. 2161.58   8
   1  -1   0 417754. 2761.59   4
  -1   1   0 416920. 3125.60   3
   1   1   0 412515. 2930.96   4
  -1   1   0 407812. 2265.94   8
   1   1   1 970406. 4884.95   2
   1   1   1 976626. 4900.64   6
   1   1   1 961767. 4614.47   4
  -1  -1  -1 954657. 3697.32   8
   1   1   1 963475. 3792.88   8
  -1   1  -1 967036. 5118.36   3
  -1   1  -1 965401. 4059.87   4
  -1  -1  -1 956595. 4970.38   6
   1  -1   1 969309. 3764.98   8
   1  -1   1 950929. 4289.67   7
  -1   1  -1 952654. 4257.66   7
  -1   1  -1 949798. 5260.74   1
   1  -1   1 960943. 5031.07   3
  -1   1  -1 960103. 3717.64   8
   1   1   2 89069.0 1430.52   4
  -1   1  -2 91596.8 1289.17   8
  -1   1  -2 91838.9 1488.25   7
  -1   1  -2 93163.2 1749.72   3
   1  -1   2 92777.7 1320.50   8
   1   1   2 89412.8 1535.96   2
   1   1   2 94394.1 1325.01   8
   1   1   2 99586.4 1669.74   6
   1  -1   2 88885.6 1614.02   3
  -1  -1  -2 89013.7 1428.58   4
  -1  -1  -2 93650.4 1547.38   2
  -1  -1  -2 89102.2 1284.78   8
  -1   1  -2 95733.5 1700.12   1
   1  -1   2 91032.1 1502.82   7
  -1   1  -3 23845.3 845.312   7
   1  -1   3 25679.9 907.082   3
   1  -1   3 25419.8 773.115   8
  -1  -1  -3 23523.7 729.250   8
  -1   1  -3 23337.4 760.215   2
  -1   1  -3 24100.3 988.137   3
   1  -1   3 23268.5 851.526   7
  -1  -1  -3 24953.6 792.648   4
  -1   1  -3 23225.6 732.492   8
   1   1   3 22605.3 840.091   2
   1   1   3 24261.7 767.411   8
  -1  -1  -3 24459.9 855.510   2
  -1   1  -3 23568.9 865.240   1
  -1   1  -4 1823.15 272.981   7
  -1   1  -4 1454.21 224.853   1
  -1  -1  -4 1196.14 175.198   4
   1  -1   4 1133.97 216.408   3
  -1  -1  -4 1259.33 184.157   8
   1  -1   4 1376.42 198.934   8
  -1  -1  -4 1506.45 225.335   2
  -1   1  -4 1692.17 214.795   8
  -1   1  -4 1646.25 239.516   2
   1  -1   4 1530.40 243.899   7
   1   1   4 1226.80 245.584   2
  -1  -1  -5 119149. 1891.58   4
  -1   1  -5 124227. 2120.07   1
  -1   1  -5 124529. 2154.87   2
   1  -1   5 118110. 2245.05   3
   1  -1   5 126384. 2088.60   8
   1   1   5 119300. 2221.93   2
  -1  -1  -5 119367. 1961.68   8
   1  -1   5 113141. 2205.71   7
   1   1   5 127306. 2105.74   8
  -1   1  -5 125182. 1977.26   8
  -1   1  -6 27477.3 1027.16   1
  -1   1  -6 24679.5 951.080   8
   1  -1   6 25493.6 1114.83   7
   1  -1   6 26861.9 1107.64   3
  -1  -1  -6 25421.9 976.345   8
   1   1   6 25459.5 1123.94   2
   1  -1   7 16579.8 940.276   7
  -1   1  -7 16450.5 823.747   8
   1  -1   7 17559.8 909.798   3
  -1  -1  -7 16400.9 837.600   8
   1   1   7 14455.8 906.827   2
  -1   1  -7 17238.2 836.247   1
  -1  -1  -8 23998.3 1085.62   8
   1   1   8 22809.0 1198.90   2
  -1   1  -8 21960.8 1026.65   8
  -1   1  -8 25186.3 1028.06   1
   1  -1   8 21978.1 1061.46   3
   1  -1   8 23815.1 1190.30   7
  -1   1  -9 3001.74 392.451   8
  -1  -1  -9 2810.85 389.129   8
   1   1   9 2254.24 417.313   2
   1  -1   9 3418.48 474.845   3
   1   1   9 3358.00 444.935   7
   1  -1   9 2651.58 424.706   7
  -1   1  -9 3798.10 421.324   1
  -1  -1 -10 23297.7 1209.91   8
  -1  -1 -10 21924.0 1112.65   5
  -1   1 -10 21903.6 1201.12   5
   1  -1  10 21879.5 1150.96   3
  -1   1 -10 21525.3 1147.25   8
  -1   1 -10 23834.7 1069.07   1
   1  -1  10 21755.2 1277.17   7
   1   1  10 23782.5 1207.54   7
   1   1  10 22221.4 1341.05   2
  -1   1 -11 26.1515 93.8197   5
   1  -1  11-47.6480 183.188   7
   1  -1  11 278.580 276.919   3
  -1   1 -11-131.955 125.263   1
   1   1  11 479.750 210.081   7
  -1  -1 -11 38.0146 79.1026   5
   1   1  11 213.374 299.794   2
  -1   1 -12 847.185 255.631   5
  -1   1 -12 956.180 238.569   1
  -1  -1 -12 850.302 226.344   5
   1  -1  12 984.128 282.083   7
   1   1  12 1658.06 429.809   2
   1   1  12 1334.53 339.684   7
   1  -1  12 1475.98 326.695   3
  -1  -1 -13 5368.71 626.172   5
   1  -1  13 5437.19 716.833   7
   1   1  13 5876.40 686.674   7
  -1   1 -13 5336.19 523.859   1
   1   1  13 5604.82 828.276   2
   1  -1  13 4840.83 632.269   3
  -1   1 -13 5091.59 666.634   5
   1  -1  14 4331.74 580.271   3
   1   1  14 3533.15 696.393   2
  -1  -1 -14 3953.65 563.583   5
  -1   1 -14 3739.23 590.583   5
   1   1  14 3933.47 605.561   7
   1  -1  14 3329.54 622.124   7
  -1   1 -14 4092.06 491.897   1
  -1  -1 -15 4704.66 643.396   5
   1   1  15 4228.65 739.610   2
  -1   1 -15 4301.97 664.098   5
   1   1  15 4294.64 623.257   7
  -1   1 -16 40.5308 88.3408   5
   1   1  16-278.030 180.486   7
   1   1  16-130.679 259.606   2
  -1  -1 -16 158.448 173.473   5
  -1  -1 -17 781.117 284.372   5
  -1   1 -17 920.295 340.826   5
   1   1  17 549.491 251.440   7
  -1   1 -18 344.468 244.933   5
  -1  -1 -18 346.415 167.031   5
   1   1  18 88.6868 230.683   7
   1   1  19-310.489 255.981   7
  -1  -1 -19 32.9429 141.549   5
   1   2 -18 1245.06 377.053   5
   1   2 -17 15825.8 1327.11   5
   1  -2 -17 15717.8 1157.15   5
   1   2 -16 14755.1 1241.66   5
   1  -2 -16 15111.4 1081.41   5
   1   2 -15 5836.23 751.447   5
   1  -2 -15 5599.31 628.133   5
   1   2 -14 982.000 308.683   5
   1  -2 -14 869.573 231.154   5
  -1   2  14 538.459 292.671   2
   1  -2 -13 2011.66 333.197   5
  -1   2  13 2005.07 469.439   2
   1   2 -13 1990.48 385.079   5
  -1   2  12 1028.23 353.818   2
  -1  -2  12 1005.39 220.304   3
   1   2 -12 770.096 244.739   5
   1  -2 -12 1185.42 249.013   5
   1  -2 -11 1863.98 289.969   5
   1   2 -11 2143.95 393.850   5
  -1   2  11 1398.62 359.529   2
  -1  -2  11 2021.31 306.889   3
  -1   2  10 2941.84 484.128   2
   1   2 -10 2933.55 437.227   5
   1  -2 -10 2654.25 323.458   5
  -1   2  10 3920.31 340.636   7
  -1  -2  10 2189.79 317.549   3
   1   2  -9 1451.30 295.660   5
  -1   2   9 1178.77 288.452   2
   1  -2  -9 1627.54 238.246   5
  -1   2   9 2018.34 224.691   7
  -1  -2   9 1415.80 255.116   3
  -1   2   8 8164.19 399.660   7
   1  -2  -8 7353.97 670.736   4
   1   2  -8 7353.41 621.707   5
   1  -2  -8 7730.31 482.179   5
  -1   2   8 7526.87 662.507   2
   1  -2  -7 2583.85 256.683   5
  -1   2   7 2561.56 361.164   2
   1  -2  -7 2590.62 393.543   4
   1   2  -7 2429.45 332.401   5
  -1   2   7 2511.92 314.443   1
  -1   2   7 2605.73 208.575   7
  -1   2   6 11145.3 433.490   7
  -1   2   6 15009.7 791.926   2
   1   2  -6 13455.1 736.620   5
   1  -2  -6 16617.9 597.459   5
  -1   2   6 14607.7 768.295   1
  -1  -2   6 13663.6 663.072   8
   1  -2  -6 16493.0 960.204   4
  -1  -2   5 3221.49 290.800   8
   1  -2  -5 4630.79 405.465   2
  -1  -2   5 3799.11 340.285   8
  -1   2   5 4039.40 379.586   2
  -1   2   5 3506.05 320.183   8
   1   2  -5 3608.51 354.592   5
  -1   2   5 4160.51 426.610   1
  -1   2   5 3604.40 347.615   8
   1  -2  -5 3984.68 451.563   4
   1  -2  -5 3357.89 224.514   5
  -1  -2   4 19908.4 641.361   8
  -1  -2   4 20855.7 701.958   8
  -1   2   4 21963.5 962.022   1
  -1   2   4 22036.0 726.220   8
   1   2  -4 22055.7 821.717   5
   1  -2  -4 22623.4 1031.55   4
  -1   2   4 19894.1 709.545   8
  -1   2   4 23886.7 828.874   2
   1  -2  -3 1862.56 291.077   4
  -1   2   3 2220.51 310.096   1
   1   2  -3 2579.13 257.177   5
  -1  -2   3 2280.22 257.305   5
  -1   2   3 2344.15 242.889   2
  -1  -2   3 1599.75 186.547   8
  -1  -2   3 2594.24 392.375   6
  -1  -2   3 1738.07 169.874   8
  -1  -2   2 8179.27 616.791   6
  -1   2   2 5591.86 315.645   8
  -1   2   2 6439.16 556.686   1
  -1  -2   2 7373.24 417.602   5
   1   2  -2 6618.13 375.500   5
  -1   2   2 8090.50 546.142   6
  -1   2   2 6735.92 378.402   2
  -1  -2   2 4694.80 249.349   8
   1  -2  -2 6227.09 517.161   4
  -1   2   1 18545.0 609.905   2
   1   2  -1 17945.3 542.271   5
  -1  -2   1 18741.6 567.742   5
   1  -2  -1 16303.2 868.092   3
   1  -2  -1 16246.0 821.018   4
  -1   2   1 20103.4 794.204   6
  -1   2   1 19735.0 941.685   1
  -1   2   1 20120.5 683.543   7
  -1  -2   1 19055.0 914.177   6
  -1  -2   0 123.838 119.973   6
  -1  -2   0 131.329 49.4120   5
   1  -2   0 307.272 72.8292   8
   1   2   0 30.3321 29.4817   5
  -1   2   0 382.364 153.041   1
  -1   2   0 324.857 128.234   7
   1  -2   0 356.699 172.319   3
   1  -2   0 968.935 194.616   6
  -1   2   0 751.047 123.086   8
   1   2   0 67.2627 26.9447   8
   1  -2   1 6166.10 281.433   8
  -1  -2  -1 7512.38 596.618   6
  -1   2  -1 7508.03 610.767   1
   1   2   1 5815.73 278.104   8
   1  -2   1 7578.94 482.835   6
  -1  -2  -1 6849.42 268.999   8
  -1   2  -1 7120.73 294.807   8
   1  -2   1 7044.93 578.072   3
  -1  -2  -1 7623.45 268.186   5
   1   2   1 7193.07 535.009   2
  -1   2  -1 8758.26 527.396   7
  -1  -2  -2 175945. 1639.31   8
   1  -2   2 176458. 2908.55   3
   1   2   2 173987. 1734.74   8
  -1   2  -2 181301. 2957.85   1
   1   2   2 174244. 2671.14   2
   1  -2   2 172016. 1687.97   8
   1  -2   2 179769. 2365.04   6
  -1   2  -2 176992. 1645.97   8
  -1  -2  -2 167703. 1294.58   5
  -1  -2  -3 203678. 1650.61   5
   1  -2   3 219751. 2206.30   8
   1   2   3 209972. 2171.46   8
   1  -2   3 206627. 3202.29   3
  -1   2  -3 208682. 2040.97   8
   1   2   3 208811. 3000.96   2
  -1   2  -3 212983. 3265.50   1
  -1  -2  -3 209007. 2084.91   8
  -1  -2  -3 216639. 3193.62   4
   1  -2   4 87820.2 2153.94   3
   1   2   4 84227.2 1994.13   2
  -1   2  -4 86133.4 1479.31   8
  -1   2  -4 89762.7 2158.56   1
   1  -2   4 90281.8 1570.24   8
  -1  -2  -4 90675.5 1243.91   5
  -1  -2  -4 89093.2 2066.96   4
  -1  -2  -4 86409.0 1502.46   8
  -1   2  -5 4479.57 486.997   1
   1   2   5 3935.87 473.310   2
   1  -2   5 3855.30 449.785   3
  -1   2  -5 4467.60 368.971   8
   1  -2   5 4863.74 412.151   8
  -1  -2  -5 4810.88 392.097   8
  -1  -2  -5 5004.51 500.452   4
   1   2   5 4450.59 401.466   8
  -1   2  -6 9102.58 725.789   1
  -1  -2  -6 7990.90 648.358   4
   1  -2   6 8366.70 689.724   3
  -1  -2  -6 7776.06 559.052   8
  -1   2  -6 8463.25 561.111   8
   1   2   6 9184.14 721.354   2
  -1   2  -6 8833.93 653.779   5
  -1   2  -7 1711.46 263.273   8
   1   2   7 1521.99 311.847   2
   1  -2   7 1469.51 324.267   3
  -1   2  -7 1859.52 344.009   1
  -1  -2  -7 2050.59 339.525   4
  -1  -2  -7 1448.62 227.987   5
  -1   2  -7 1382.44 269.174   5
   1   2   8 133.185 170.566   2
  -1   2  -8 54.6186 57.4981   5
   1  -2   8 240.952 168.026   3
  -1   2  -8 203.325 127.941   1
  -1  -2  -8 118.654 66.1739   5
  -1  -2  -8 47.7695 143.544   4
  -1  -2  -9 993.969 263.734   4
  -1  -2  -9 905.463 208.639   5
  -1   2  -9 973.166 257.926   1
   1  -2   9 797.208 267.906   3
   1   2   9 596.294 111.106   1
   1   2   9 770.005 290.064   2
  -1   2  -9 1078.37 305.084   5
  -1  -2 -10 725.435 220.095   4
  -1   2 -10 1261.85 366.839   1
   1  -2  10 639.973 201.341   3
   1   2  10 306.783 240.276   2
  -1   2 -10 842.121 266.842   5
  -1  -2 -10 586.003 177.145   5
  -1   2 -11 263.128 157.243   5
  -1  -2 -11 431.276 144.942   4
   1   2  11 649.707 219.560   7
   1   2  11-228.866 282.483   2
  -1  -2 -11 258.793 113.784   5
   1  -2  11 387.623 199.364   3
  -1   2 -11 351.549 221.482   1
  -1   2 -12 6729.20 727.936   1
   1  -2  12 6110.84 659.331   3
   1   2  12 6265.70 662.520   7
  -1  -2 -12 5334.69 581.354   5
  -1   2 -12 6702.84 761.033   5
  -1  -2 -12 5883.70 658.925   4
   1   2  12 5424.36 791.417   2
  -1  -2 -13 647.665 257.180   4
   1   2  13 745.022 250.229   7
  -1   2 -13 870.475 264.396   5
  -1   2 -13 724.614 243.404   1
   1   2  13 671.792 361.214   2
   1  -2  13 886.297 304.333   3
  -1  -2 -13 780.510 251.807   5
  -1  -2 -14 130.057 204.868   4
  -1   2 -14-137.548 219.835   1
  -1   2 -14 64.2161 83.7170   5
   1   2  14-137.183 333.483   2
  -1  -2 -14-58.3883 107.190   5
   1   2  14-310.169 263.164   7
  -1  -2 -15 45.4675 140.582   5
  -1  -2 -15-28.9502 219.637   4
  -1   2 -15-314.529 286.050   1
  -1   2 -15-17.2052 92.0608   5
   1   2  15-410.468 446.968   2
  -1   2 -16 1203.46 399.636   5
   1   2  16 395.474 386.956   2
  -1  -2 -16 683.532 266.535   4
  -1  -2 -16 1085.24 315.074   5
   1   2  17-68.5357 337.070   2
  -1   2 -17-85.5158 87.9307   5
  -1  -2 -17 164.519 116.058   5
  -1  -2 -18 1320.86 386.029   4
  -1  -2 -19 3698.95 713.796   4
   1  -3 -16 884.280 391.247   4
   1   3 -16 701.083 293.770   1
   1   3 -16 754.399 308.219   5
  -1   3  16 194.138 231.065   2
   1  -3 -15 117.225 151.979   4
   1   3 -15 156.713 119.877   5
  -1   3  15 459.517 309.838   2
   1   3 -14-41.2703 80.3555   5
   1  -3 -14 68.9779 233.640   4
  -1   3  14-344.177 325.159   2
  -1   3  13-258.766 242.948   2
   1  -3 -13 118.151 151.007   4
   1   3 -13-99.8360 164.267   5
   1  -3 -12-38.1890 185.797   4
   1   3 -12 7.66899 145.737   5
   1   3 -11 7942.31 785.776   5
   1  -3 -11 8703.73 891.616   4
  -1   3  11 8457.02 752.375   8
  -1   3  11 9314.93 888.100   2
  -1   3  10 5096.64 598.284   2
   1   3 -10 4987.76 590.951   5
  -1  -3  10 5504.21 579.106   8
   1  -3 -10 5041.20 685.561   4
  -1   3  10 4642.84 538.605   8
   1   3  -9 3584.59 479.626   5
  -1   3   9 3978.13 535.683   2
  -1  -3   9 2986.73 421.722   8
  -1   3   9 3667.44 498.876   8
   1  -3  -9 3643.09 549.469   4
   1  -3  -8 1372.57 353.144   4
  -1  -3   8 810.933 202.533   8
  -1   3   8 979.805 257.067   2
  -1   3   8 1480.96 300.255   1
   1   3  -8 943.447 242.933   5
  -1   3   8 892.954 251.865   8
  -1   3   7 2639.98 420.108   1
  -1   3   7 3381.62 438.904   2
  -1  -3   7 2183.87 333.612   8
  -1   3   7 2702.41 395.031   8
   1  -3  -7 3119.38 528.767   4
   1   3  -7 2936.47 393.353   5
  -1  -3   6 118.577 78.5892   8
   1  -3  -6 252.802 144.378   4
  -1   3   6 606.758 194.494   8
   1   3  -6 264.957 122.014   5
  -1  -3   6 176.961 139.255   6
  -1   3   6 319.521 132.037   2
  -1   3   6 246.657 245.920   1
   1  -3  -5 1966.03 419.010   4
  -1  -3   5 1913.79 404.942   6
  -1  -3   5 695.278 138.478   8
  -1   3   5 1393.46 243.465   2
  -1   3   5 1574.00 355.602   1
   1   3  -5 1493.61 251.231   5
  -1   3   5 1315.26 198.011   8
   1  -3  -4 12978.4 969.756   4
   1   3  -4 13664.2 680.378   5
  -1   3   4 13735.4 748.404   2
  -1  -3   4 14480.8 1047.67   6
  -1   3   4 14403.2 982.800   1
   1   3  -3 36266.8 990.873   5
  -1   3   3 38964.7 1669.88   1
  -1  -3   3 37897.4 1645.04   6
   1  -3  -3 36181.4 1573.11   4
  -1   3   3 39446.0 1205.05   2
  -1   3   2 695.913 164.552   2
  -1   3   2 474.245 251.719   1
  -1  -3   2 867.282 282.766   6
   1   3  -2 329.243 79.6085   5
  -1   3   1 5916.72 668.294   1
  -1  -3   1 5239.28 582.173   6
  -1   3   1 5804.61 447.498   2
  -1   3   0 110.273 79.1352   2
  -1   3   0 222.251 179.207   1
  -1  -3   0 56.3339 97.3941   6
   1  -3   1 1991.14 339.027   6
  -1   3  -1 1676.38 172.650   5
  -1   3  -1 1607.91 375.054   1
   1   3   1 1680.56 323.809   2
   1   3   2 8946.17 718.004   2
  -1   3  -2 8814.93 810.999   1
  -1   3  -2 8760.50 481.301   5
   1  -3   2 7881.78 762.511   3
   1  -3   2 8620.50 657.300   6
  -1   3  -3 1826.56 254.639   5
  -1   3  -3 2021.43 410.061   1
   1  -3   3 1907.01 327.013   6
   1  -3   3 1762.45 381.460   3
   1  -3   3 569.053 94.4604   8
   1   3   3 1651.52 322.058   2
   1   3   4 16160.3 1005.79   2
   1  -3   4 15132.1 1080.91   3
  -1   3  -4 15750.8 1130.87   1
  -1   3  -4 14010.2 765.090   5
   1  -3   4 15755.2 946.248   6
   1  -3   5 10207.3 908.885   3
  -1  -3  -5 10869.0 911.811   4
   1   3   5 10157.0 816.853   2
  -1   3  -5 10749.5 927.428   1
   1  -3   5 11495.0 855.092   6
  -1   3  -5 10021.3 677.848   5
   1  -3   6 18614.3 1234.83   3
  -1  -3  -6 19490.7 1215.90   4
  -1   3  -6 18650.5 997.984   5
   1   3   6 18976.4 1164.54   2
  -1   3  -6 20170.0 1306.43   1
   1   3   7 128.201 154.953   2
  -1  -3  -7 92.4283 205.077   4
  -1   3  -7 115.986 88.5287   5
   1  -3   7-24.7216 136.084   3
  -1   3  -7 194.779 178.589   1
  -1  -3  -8 371.795 266.063   4
  -1   3  -8 246.146 200.260   1
   1   3   8-178.387 202.726   2
   1  -3   8 332.461 225.717   3
  -1   3  -8 97.8865 133.311   5
  -1  -3  -9 1491.41 371.601   4
   1   3   9 1828.27 436.896   2
  -1   3  -9 1696.78 365.118   5
  -1   3  -9 1749.57 401.929   1
   1  -3   9 1563.80 385.109   3
   1  -3  10 1759.36 391.740   3
  -1   3 -10 1854.59 444.449   1
  -1  -3 -10 2253.31 475.267   4
   1   3  10 2348.96 467.656   2
  -1   3 -10 2447.83 459.564   5
  -1  -3 -11 972.194 310.749   4
  -1   3 -11 1106.13 308.442   5
   1   3  11 1246.29 381.198   2
  -1   3 -11 1407.65 357.479   1
   1  -3  11 955.339 306.712   3
  -1  -3 -12 533.195 246.666   4
  -1   3 -12-15.3285 219.795   1
   1  -3  12 333.769 227.173   3
  -1   3 -12 382.274 221.709   5
   1   3  12-67.4164 185.248   2
  -1  -3 -13 216.047 204.961   4
   1   3  13-104.463 180.058   2
  -1   3 -13 156.088 145.544   5
  -1   3 -13-352.019 301.360   1
  -1  -3 -14 572.328 197.282   4
  -1   3 -14 429.112 232.437   1
   1   3  14 708.782 344.569   2
  -1   3 -14 448.161 218.727   5
  -1  -3 -15 461.158 183.569   4
  -1   3 -15 320.416 225.213   5
   1   3  15 405.719 235.156   2
  -1  -3 -16 69.6342 176.167   4
   1  -4 -11 39.3621 227.575   4
  -1  -4  11 220.381 236.739   6
  -1  -4  10 3245.44 671.980   6
   1  -4 -10 2442.74 529.252   4
  -1  -4   9 3776.03 712.572   6
   1  -4  -9 3312.16 591.992   4
  -1  -4   8-4.11628 280.225   6
   1  -4  -8 117.689 166.542   4
  -1   4   7 106.551 183.961   1
   1  -4  -7 112.260 183.419   4
  -1  -4   7 293.374 218.284   6
   1  -4  -6 284.941 241.165   4
  -1   4   6 358.236 281.765   1
  -1  -4   6-40.1841 177.393   6
  -1  -4   5 6835.91 869.141   6
  -1   4   5 5746.28 813.251   1
  -1   4   4 4777.15 730.170   1
  -1  -4   4 5494.89 763.892   6
  -1   4   3 2006.61 537.354   1
  -1  -4   3 2127.85 447.568   6
  -1  -4   2 9868.58 970.604   6
  -1   4   2 10211.3 1043.40   1
   1   4  -1 7394.90 701.539   2
  -1   4   1 7497.93 902.511   1
   1   4   0 68.8647 71.6284   2
  -1   4   0-224.563 265.406   1
  -1   4  -1-507.058 318.422   1
   1   4   1-153.317 146.289   2
   1   4   2 425.902 210.490   2
  -1   4  -2 1.89490 206.998   1
   1   4   3-10.1427 129.787   2
   1  -4   3 39.3688 121.071   6
  -1   4  -3 202.155 170.570   1
   1   4   4-108.371 182.864   2
  -1   4  -4 161.650 269.959   1
   1  -4   4-27.8815 112.418   6
   1   4   5 3917.10 573.550   2
   1  -4   5 3457.92 546.691   6
  -1   4  -5 3244.29 635.175   1
   1   4   6 120.413 154.004   2
   1  -4   6 169.485 212.350   6
   1   4   6 162.730 183.213   1
  -1   4  -6-348.264 183.304   1
   1  -4   7 1872.57 462.700   6
  -1   4  -7 961.598 351.573   1
   1   4   7 1072.58 299.025   2
   1  -4   8-264.632 230.664   6
  -1   4  -8-94.5541 242.645   1
   1   4   8-244.159 220.684   2
   1  -4   9 274.302 148.039   6
   1   4   9-64.2441 218.071   2
  -1   4  -9 537.297 286.299   1
  -1  -4  -9 724.748 377.246   4
   1  -4  10-219.813 165.402   6
  -1   4 -10 207.557 201.834   1
  -1  -4 -10-30.8436 223.197   4
   1   4  10 134.961 209.699   2
  -1  -4 -11 292.897 241.562   4
   1   4  11 981.869 394.169   2
  -1   4 -11 526.425 378.063   1
  -1  -5   8 807.416 397.097   6
  -1  -5   7 5612.97 923.483   6
  -1  -5   6 725.718 395.334   6
  -1  -5   5 2036.12 562.560   6
  -1   5   4-179.195 352.853   1
  -1   5   3 125.162 196.591   1
  -1   5   2-602.982 386.426   1
  -1   5   1 424.123 300.844   1
  -1   5   0-206.631 248.363   1
   1   5   1-53.2693 152.472   1
   1   5   2 2678.01 405.065   1
   1   5   3 717.675 186.994   1
   2   0 -20 379.922 236.661   5
   2   0 -19 301.194 224.765   5
   2   0 -18 4864.49 714.020   5
   2   0 -17-95.9254 224.936   5
   2   0 -16 7.95924 117.173   5
   2   0 -15-231.742 139.283   5
   2   0 -14 198683. 3941.70   5
   2   0 -13-197.169 146.934   5
  -2   0  12 45506.8 612.805   3
   2   0 -12 67774.8 2110.22   5
   2   0 -11-47.7839 122.129   5
   2   0 -10 30634.2 1299.43   5
   2   0  -9-152.572 143.077   5
   2   0  -8 319.819 130.032   5
   2   0  -7 86.8848 78.5555   7
   2   0  -7 84.3214 84.8821   5
   2   0  -6 4614.13 406.643   5
  -2   0   6 5214.68 454.114   8
  -2   0   5 48.3979 42.4106   5
  -2   0   5-18.4436 90.3683   8
   2   0  -5 73.1548 80.4802   5
   2   0  -4 75296.3 900.514   3
   2   0  -4 76546.3 1505.77   8
  -2   0   4 78177.1 1509.29   5
   2   0  -4 72923.3 1458.22   5
  -2   0   4 72076.7 1483.98   8
   2   0  -3-72.4537 84.8139   5
   2   0  -3-21.0105 104.822   8
  -2   0   3-143.365 97.3669   5
  -2   0   2 113222. 1755.85   8
   2   0  -2 109518. 1670.98   5
  -2   0   2 115609. 1691.12   5
   2   0  -2 112200. 1691.72   8
  -2   0   1 124.147 79.7003   6
  -2   0   1-35.6577 84.9224   5
   2   0  -1 97.1134 93.1258   8
   2   0  -1 144.733 118.219   5
   2   0   0 147826. 1572.21   2
   2   0   0 151562. 1918.40   5
  -2   0   0 157118. 1868.75   5
   2   0   0 149672. 1331.34   6
   2   0   0 154058. 1923.23   8
  -2   0   0 155610. 1934.27   8
  -2   0   0 152258. 1361.31   6
   2   0   1 68.6214 71.0625   2
  -2   0  -1 86.4102 61.0842   2
  -2   0  -2 77697.7 1375.24   2
  -2   0  -2 80313.5 1542.27   8
   2   0   2 78122.5 1383.88   2
  -2   0  -3-34.9145 64.4810   2
  -2   0  -3 98.4690 42.5316   4
   2   0   3-4.75296 91.7024   2
  -2   0  -3-13.2887 87.1119   8
   2   0   3 101.298 55.6486   8
   2   0   4 30920.1 925.459   1
  -2   0  -4 31714.6 1005.62   2
   2   0   4 29018.1 1015.42   2
  -2   0  -4 31973.1 1107.30   8
   2   0   5-41.3987 87.1786   1
   2   0   5 10.5932 99.4286   2
  -2   0  -5 91.4493 106.845   8
  -2   0  -6 20034.2 981.587   8
   2   0   6 20810.1 749.271   1
   2   0   6 20523.5 999.620   2
   2   0   7-122.918 115.972   7
  -2   0  -7-50.1846 91.6981   8
   2   0   7 72.0927 138.182   2
   2   0   7-39.1035 69.6475   1
   2   0   8 3963.65 516.299   2
   2   0   8 4220.50 512.360   7
  -2   0  -8 4391.17 503.243   8
   2   0   9-231.954 181.850   2
  -2   0  -9 3.17273 92.9730   8
   2   0   9 115.974 170.555   7
   2   0  10 680.441 259.777   7
   2   0  10 572.836 275.721   2
  -2   0 -10 626.700 211.507   8
  -2   0 -11-78.2440 90.1909   8
   2   0  11 341.237 252.674   7
   2   0  11 85.3892 211.462   2
  -2   0 -12 97.5247 144.574   8
   2   0  12 48.5744 196.122   7
  -2   0 -13-32.0264 112.417   8
   2   0  13-358.372 283.736   2
   2   0  13 164.132 187.429   7
  -2   0 -14 17233.4 1291.81   5
  -2   0 -14 16187.4 1268.92   8
   2   0  14 15534.0 1384.26   2
   2   0  14 16015.8 1293.10   7
   2   0  15 4.62119 176.032   7
  -2   0 -15 58.6222 147.988   5
  -2   0 -16 4160.51 696.383   5
   2   0  16 3627.57 682.171   7
   2   0  17-258.322 237.655   7
  -2   0 -17-105.129 94.6627   5
   2   0  18 38.5478 172.793   7
  -2   0 -18 314.491 136.606   5
   2  -1 -20 2251.20 506.425   5
   2  -1 -19 9727.54 1010.42   5
   2   1 -19 10151.2 1099.27   5
   2   1 -18 558.126 289.127   5
   2  -1 -18 428.712 213.418   5
   2  -1 -17 311.732 160.329   5
   2   1 -17 515.823 254.668   5
   2  -1 -16 17721.3 1198.92   5
   2   1 -16 17647.1 1294.94   5
   2  -1 -15 8331.90 787.771   5
   2   1 -15 8521.92 867.840   5
   2  -1 -14 4380.81 548.453   5
   2   1 -14 4419.11 608.098   5
   2   1 -13 12133.0 964.149   5
   2  -1 -13 11498.1 851.572   5
   2  -1 -12 39947.9 1521.69   5
   2   1 -12 41362.6 1742.38   5
   2  -1 -12 39695.6 862.483   1
  -2   1  11 32099.2 1026.26   3
   2  -1 -11 34384.9 859.454   1
   2  -1 -11 32964.8 1311.00   5
   2   1 -11 32416.6 1460.35   5
   2  -1 -10 10373.0 706.353   5
   2   1 -10 10348.3 801.313   5
  -2   1  10 11149.1 587.653   3
   2  -1 -10 11421.7 514.602   1
   2  -1  -9 12015.2 551.304   1
  -2   1   9 11709.8 589.428   3
   2   1  -9 10386.7 759.612   5
   2  -1  -9 10795.2 682.028   5
   2  -1  -8 10524.0 524.969   1
   2  -1  -8 9689.52 615.763   5
   2   1  -8 9602.99 694.090   5
   2  -1  -8 10868.0 535.859   7
   2  -1  -7 32769.8 942.631   1
   2  -1  -7 34466.5 810.533   7
   2  -1  -7 32283.6 1075.86   5
   2   1  -7 28593.2 651.827   3
   2   1  -7 30355.0 1179.97   5
  -2   1   7 32060.7 944.948   3
   2  -1  -7 33645.8 1093.90   2
  -2  -1   7 31643.8 1188.21   8
  -2   1   7 31367.4 1183.47   8
  -2   1   6 50538.0 1183.19   3
  -2   1   6 48340.9 1382.83   8
   2  -1  -6 48076.9 1167.39   1
   2  -1  -6 47902.4 817.173   7
   2  -1  -6 49848.1 1271.86   5
   2   1  -6 45216.6 1348.86   5
  -2   1   6 49134.0 1260.78   5
  -2  -1   6 48405.8 1377.60   8
   2   1  -6 52011.9 869.059   3
   2  -1  -6 50920.3 1227.02   2
  -2   1   5 26852.7 836.657   3
   2  -1  -5 25516.8 861.983   1
   2   1  -5 27789.7 665.183   3
  -2  -1   5 26097.4 941.299   8
   2  -1  -5 26265.5 883.401   5
  -2   1   5 27398.2 860.116   5
   2  -1  -5 23847.7 466.997   7
   2  -1  -5 26357.9 824.125   3
   2  -1  -5 27291.7 785.787   2
   2   1  -5 27041.6 988.201   5
  -2   1   5 26982.6 973.840   8
  -2  -1   4 504.225 119.709   8
   2  -1  -4 618.176 150.040   5
  -2   1   4 621.569 122.994   5
   2  -1  -4 493.559 132.680   3
   2  -1  -4 510.239 103.478   2
  -2   1   4 514.857 137.036   3
   2   1  -4 562.210 144.204   5
  -2   1   4 482.422 128.828   8
  -2  -1   4 514.136 124.445   5
   2  -1  -4 484.246 163.494   1
   2  -1  -3 4467.35 213.385   2
   2  -1  -3 4147.08 334.990   5
   2  -1  -3 4940.97 382.392   8
  -2   1   3 4743.12 377.779   3
   2   1  -3 4528.02 365.542   5
  -2   1   3 5377.88 362.944   5
  -2  -1   3 4909.24 385.977   8
   2   1  -3 4771.84 355.337   8
   2  -1  -3 4888.94 391.219   1
   2  -1  -3 4538.78 354.718   3
  -2  -1   3 5537.85 406.562   5
  -2   1   3 5325.80 398.299   8
   2  -1  -2 4187.03 337.108   8
  -2  -1   2 3478.56 335.622   6
   2  -1  -2 3611.14 324.551   3
  -2   1   2 3534.22 339.047   3
   2  -1  -2 2549.78 266.809   5
  -2   1   2 3291.33 305.247   8
   2   1  -2 3065.96 311.153   5
  -2   1   2 3666.61 294.501   5
  -2  -1   2 4094.97 331.368   5
   2   1  -2 3302.24 293.689   8
   2  -1  -2 3740.49 347.442   1
  -2  -1   2 3234.49 296.738   8
   2  -1  -1 8661.20 532.821   1
   2  -1  -1 7882.53 502.526   3
  -2   1   1 6970.43 525.502   1
  -2   1   1 7380.89 438.803   8
   2  -1  -1 8007.78 463.158   8
  -2   1   1 8404.10 540.615   3
  -2   1   1 9406.64 495.823   5
  -2  -1   1 8289.36 452.640   5
   2  -1  -1 8189.13 412.671   4
  -2  -1   1 6789.19 411.894   8
   2   1  -1 9438.32 513.999   5
   2  -1  -1 7807.55 347.652   7
   2   1  -1 8217.12 449.371   8
  -2   1   1 6883.22 227.019   6
  -2  -1   1 8033.18 503.359   6
  -2   1   0 5264.65 446.378   1
   2  -1   0 4783.53 310.077   7
   2   1   0 5213.58 388.750   6
  -2  -1   0 5090.89 402.770   6
   2  -1   0 4895.48 406.117   3
  -2  -1   0 4971.03 342.169   5
  -2   1   0 5220.36 356.516   5
  -2  -1   0 5092.40 364.606   8
   2  -1   0 5454.44 315.897   4
   2  -1   0 5203.97 411.703   1
   2  -1   0 4726.36 352.344   8
  -2   1   0 4946.32 354.130   8
   2   1   0 4769.09 339.181   8
  -2   1   0 6367.24 497.814   3
   2   1   0 5102.92 364.152   5
  -2   1  -1 44170.4 722.943   2
   2  -1   1 40067.3 1254.52   3
   2  -1   1 38726.2 980.010   7
   2   1   1 41832.5 1052.84   8
   2  -1   1 40389.1 1214.99   1
   2   1   1 43447.0 1222.36   2
   2   1   1 43039.5 1145.97   6
  -2   1  -1 39179.2 1212.66   1
  -2   1  -1 42269.5 1056.64   8
  -2   1  -1 47220.9 1479.48   3
  -2  -1  -1 43435.6 1022.42   5
   2   1   1 42350.7 1008.04   4
   2  -1   1 40260.3 811.960   4
   2  -1   1 45332.4 1123.69   8
  -2  -1  -1 40794.4 1054.82   8
  -2   1  -2 6566.04 438.577   8
  -2  -1  -2 6761.47 424.715   5
   2  -1   2 6688.00 463.135   7
   2   1   2 6981.01 510.655   2
  -2   1  -2 6874.89 523.404   1
   2  -1   2 6223.52 527.119   3
  -2   1  -2 6680.39 304.677   4
   2   1   2 7041.13 481.725   6
  -2  -1  -2 6625.09 447.050   8
   2  -1   2 7193.75 467.518   8
   2  -1   2 6457.44 497.080   1
   2   1   2 6457.87 390.960   4
  -2   1  -2 7685.04 374.898   2
   2   1   2 7168.90 474.300   8
   2  -1   3 8270.67 618.133   3
  -2   1  -3 8251.07 577.185   1
   2  -1   3 8407.75 560.082   7
   2  -1   3 9879.39 579.650   8
   2   1   3 7948.63 584.256   2
  -2  -1  -3 8312.98 460.541   4
   2   1   3 8401.99 466.705   4
  -2  -1  -3 8683.27 533.267   8
   2   1   3 9309.88 563.453   8
  -2   1  -3 9853.73 490.949   2
  -2   1  -3 9236.93 545.465   8
  -2   1  -3 8833.04 355.617   4
   2   1   4 27.8141 77.7927   2
  -2   1  -4-247.714 161.889   1
   2  -1   4-241.609 183.036   3
  -2  -1  -4 247.162 167.820   8
   2  -1   4-20.2108 100.118   7
  -2   1  -4 5.72922 93.0843   2
  -2   1  -4-206.995 145.120   8
   2   1   5 40647.8 1428.28   2
  -2   1  -5 41478.7 1370.46   1
   2  -1   5 38827.9 1339.86   7
   2  -1   5 42251.2 1521.01   3
  -2  -1  -5 40218.0 1307.43   8
  -2   1  -5 41037.1 1317.13   8
  -2  -1  -5 44280.2 1153.86   4
   2  -1   6 888.642 227.462   7
   2   1   6 682.812 220.144   2
  -2   1  -6 943.483 185.034   8
  -2  -1  -6 1109.74 200.474   4
   2  -1   6 1208.66 320.719   3
  -2  -1  -6 1200.74 259.576   8
  -2   1  -6 987.598 257.056   1
   2  -1   7 37267.0 1495.93   7
  -2   1  -7 38137.9 1366.16   1
  -2   1  -7 34692.7 1329.93   8
  -2  -1  -7 35394.8 1351.09   8
   2  -1   7 34101.7 1484.32   3
  -2  -1  -7 35909.2 1122.37   4
   2   1   7 35000.5 1488.50   2
  -2   1  -8 12378.0 791.482   1
   2  -1   8 11895.6 933.002   3
  -2  -1  -8 11836.6 819.603   8
  -2   1  -8 11592.7 795.548   8
  -2  -1  -8 12077.5 679.403   4
   2   1   8 11929.7 904.849   2
   2  -1   8 12973.7 932.717   7
   2  -1   9 30953.9 1515.92   7
  -2  -1  -9 32737.5 1430.72   8
   2  -1   9 32607.7 1603.47   3
  -2   1  -9 32485.4 1418.42   8
  -2   1  -9 35045.5 1345.86   1
   2   1   9 31692.2 1571.54   2
  -2  -1  -9 33685.8 1199.30   4
   2   1   9 27769.4 692.575   1
   2   1  10 237.697 167.642   7
   2   1  10-250.569 257.166   2
   2  -1  10-434.795 264.292   7
  -2  -1 -10-30.1560 85.8863   8
  -2   1 -10 25.3675 64.5650   8
  -2   1 -10 210.477 166.836   1
   2   1  11 86.3270 159.096   7
   2   1  11-173.606 232.209   2
  -2   1 -11 10.1349 196.831   1
   2  -1  11 146.070 177.901   7
  -2   1 -11 204.186 148.411   8
   2  -1  11-317.147 290.633   3
  -2  -1 -11 84.4778 120.757   8
   2  -1  12 6349.16 837.546   3
  -2   1 -12 7543.39 692.626   1
   2   1  12 9277.59 893.880   7
   2  -1  12 8768.38 914.936   7
   2   1  12 7827.67 903.772   2
  -2  -1 -12 7224.64 767.101   8
  -2   1 -12 7852.65 785.892   8
   2   1  13-206.009 275.786   2
   2  -1  13 161.072 189.259   7
   2   1  13 176.638 146.259   7
   2  -1  13-630.685 364.320   3
  -2   1 -13 715.609 275.612   8
  -2  -1 -13 20.6186 121.347   8
  -2   1 -13 1291.94 384.966   5
  -2  -1 -13-38.9424 112.738   5
   2  -1  14 272.896 288.749   3
   2  -1  14-382.251 375.963   7
   2   1  14 29.2557 196.821   7
   2   1  14-427.218 405.678   2
  -2  -1 -14 133.704 117.388   5
  -2   1 -14 97.3152 104.280   5
   2  -1  15 225.304 188.474   7
   2   1  15-318.529 363.147   2
   2   1  15 69.6205 165.650   7
  -2   1 -15 330.404 234.763   5
   2  -1  15 86.9839 327.950   3
  -2  -1 -15 352.662 201.519   5
   2  -1  16 3047.57 666.908   7
   2   1  16 3416.15 612.055   7
   2   1  16 2572.79 627.007   2
  -2  -1 -16 3279.93 596.503   5
  -2   1 -16 3108.34 586.082   5
   2   1  17 5850.07 861.374   7
   2   1  17 4055.61 802.657   2
  -2  -1 -17 4741.54 717.703   5
  -2   1 -17 4204.43 720.709   5
   2  -1  17 4828.99 826.942   7
   2   1  18 274.722 220.694   7
  -2  -1 -18 117.528 169.660   5
   2   1  19 3290.37 648.470   7
   2  -2 -18 2768.38 479.991   5
   2   2 -18 3449.43 640.832   5
   2  -2 -17 6201.24 732.137   5
   2   2 -17 7623.90 921.166   5
   2   2 -16 674.384 262.549   5
   2  -2 -16 796.244 266.830   5
   2   2 -15 805.071 300.073   5
   2  -2 -15 585.839 203.792   5
   2  -2 -14 1144.05 285.272   5
   2   2 -14 842.150 260.536   5
   2  -2 -13 1348.08 277.153   5
   2   2 -13 1140.90 305.114   5
   2  -2 -12 18.1792 50.9719   5
   2   2 -12 19.1052 89.7061   5
   2   2 -11 1795.57 353.309   5
  -2   2  11 1364.76 332.860   8
  -2  -2  11 2028.96 379.095   8
   2  -2 -11 1702.81 283.338   5
  -2   2  10 4244.04 527.182   8
  -2  -2  10 4066.02 516.628   8
  -2   2  10 5284.75 601.885   2
   2   2 -10 4562.77 546.294   5
   2  -2 -10 4436.75 446.154   5
   2  -2  -9 42653.7 1334.60   5
   2   2  -9 39513.2 1538.52   5
  -2   2   9 39181.9 1538.26   8
  -2  -2   9 40621.3 1517.18   8
  -2   2   9 38471.7 1529.13   2
  -2   2   8 1324.73 279.974   8
  -2  -2   8 1580.72 292.756   8
  -2   2   8 1011.57 239.558   2
   2   2  -8 1242.69 258.668   5
   2  -2  -8 1369.07 222.308   5
  -2  -2   7 323.848 138.742   8
   2  -2  -7 303.259 119.308   2
  -2   2   7 277.896 136.200   2
  -2   2   7 271.564 126.474   8
   2   2  -7 254.722 122.812   5
  -2   2   7 241.919 88.0478   5
   2  -2  -7 322.284 113.528   5
   2  -2  -6 10301.0 593.709   2
   2   2  -6 10345.3 690.196   5
  -2   2   6 8146.34 576.987   8
  -2  -2   6 8210.04 602.076   8
  -2   2   6 9270.46 493.269   5
   2  -2  -6 7872.64 672.679   4
  -2   2   6 9917.05 586.176   2
   2  -2  -6 9291.59 502.302   5
  -2   2   5 667.513 124.025   5
   2  -2  -5 844.910 238.436   4
  -2   2   5 1339.81 286.041   1
  -2   2   5 821.199 210.219   8
   2  -2  -5 991.340 163.889   5
  -2   2   5 1091.38 182.246   2
   2  -2  -5 1307.86 197.349   2
  -2  -2   5 1046.31 207.724   8
   2   2  -5 1029.70 206.941   5
   2  -2  -4 23626.1 1068.44   4
   2  -2  -4 25018.3 732.801   5
  -2   2   4 25975.3 1169.78   1
  -2  -2   4 23818.3 1170.46   6
  -2   2   4 23652.9 863.849   8
   2   2  -4 26646.0 993.315   5
  -2   2   4 22629.4 649.030   5
  -2  -2   4 23950.9 869.634   8
  -2   2   4 25854.3 724.298   2
   2  -2  -3 5148.61 480.552   4
  -2   2   3 6745.64 488.512   6
  -2   2   3 5554.99 318.541   5
  -2  -2   3 4851.89 495.077   6
   2  -2  -3 5273.41 523.189   3
   2   2  -3 5855.41 424.577   5
  -2  -2   3 6100.48 460.282   5
  -2  -2   3 4531.83 362.406   8
  -2   2   3 5235.91 408.805   8
  -2   2   3 6127.05 294.586   2
  -2   2   3 5966.81 566.991   1
   2  -2  -2 36240.7 1359.09   3
  -2   2   2 29542.7 915.725   6
  -2  -2   2 35231.0 937.839   8
  -2   2   2 40453.6 1495.56   1
   2   2  -2 39678.4 1040.40   5
  -2   2   2 43264.3 910.564   5
  -2  -2   2 43887.4 1125.36   5
  -2   2   2 40312.3 1076.89   8
   2  -2  -2 37423.3 1267.67   4
   2   2  -2 42582.7 917.538   8
  -2  -2   2 39094.3 1419.88   6
   2  -2  -2 43781.5 1047.44   8
  -2   2   2 38982.1 638.039   2
   2  -2  -1 24200.1 987.542   4
  -2   2   1 26408.1 1216.79   1
  -2  -2   1 24772.4 1133.22   6
   2   2  -1 27389.3 863.957   5
   2  -2  -1 25697.5 1158.57   3
  -2  -2   1 27684.3 845.241   5
  -2   2   1 24642.5 799.934   8
  -2   2   1 28019.5 813.855   5
   2  -2  -1 29021.3 839.815   8
   2   2  -1 28275.1 774.349   8
  -2  -2   1 23328.9 744.291   8
  -2  -2   0 17892.6 650.838   5
  -2   2   0 10884.6 579.021   7
  -2  -2   0 15280.3 885.055   6
   2  -2   0 14225.5 880.493   3
   2  -2   0 14395.3 755.819   4
   2   2   0 15355.9 616.411   5
  -2   2   0 11504.9 544.143   5
   2   2   0 18111.8 649.280   8
  -2   2   0 16136.5 973.042   1
  -2   2   0 15206.6 611.251   8
   2  -2   0 16816.2 637.405   8
  -2  -2   0 14168.1 565.732   8
   2   2   1 52240.7 1148.06   8
  -2   2  -1 62424.6 1928.94   1
  -2   2  -1 59368.7 1459.05   7
  -2  -2  -1 58279.2 1769.80   6
   2  -2   1 60699.7 1176.87   6
   2  -2   1 57397.1 1772.46   3
  -2  -2  -1 62816.9 1189.62   5
  -2  -2  -1 54883.0 1153.56   8
   2   2   1 55709.7 1650.26   2
   2  -2   1 61347.2 1246.78   8
  -2   2  -1 56731.1 1211.16   8
  -2   2  -2 111297. 2627.03   1
   2  -2   2 105395. 1584.37   6
   2  -2   2 100595. 2381.30   3
  -2  -2  -2 116544. 1630.55   5
  -2   2  -2 106237. 1717.82   8
  -2   2  -2 98669.9 1544.15   2
  -2  -2  -2 101863. 1675.45   8
   2   2   2 106671. 2343.63   2
   2  -2   2 108798. 1738.40   8
   2   2   3 651.186 228.553   2
  -2   2  -3 247.015 93.3202   2
   2  -2   3 689.747 235.786   3
   2  -2   3 779.280 158.053   8
  -2  -2  -3 1072.21 188.793   8
  -2   2  -3 846.267 258.020   1
   2  -2   3 830.716 202.744   7
  -2   2  -3 959.308 180.748   8
   2   2   3 571.726 129.170   8
  -2  -2  -3 953.520 152.961   5
   2   2   4 1733.66 337.779   2
  -2   2  -4 2231.30 433.737   1
  -2   2  -4 1559.27 241.640   2
  -2  -2  -4 1948.87 238.935   5
   2  -2   4 1449.37 318.026   3
  -2   2  -4 1870.62 268.726   8
   2  -2   4 1735.10 313.086   7
  -2  -2  -4 1605.01 239.741   8
  -2  -2  -4 1679.27 294.205   4
   2  -2   5 539.000 223.749   7
   2   2   5 214.736 177.014   2
  -2   2  -5 151.933 96.2312   8
   2  -2   5 206.763 170.056   3
  -2   2  -5 90.2834 250.519   1
  -2  -2  -5 551.235 220.777   4
  -2  -2  -5 184.806 92.9685   8
  -2   2  -6 1474.81 346.741   1
  -2   2  -6 1243.99 240.712   8
  -2  -2  -6 1092.27 232.777   8
   2  -2   6 1564.72 346.296   7
   2  -2   6 857.563 251.913   3
  -2  -2  -6 1375.85 371.249   4
   2   2   6 1507.86 362.603   2
   2   2   7 604.290 248.887   2
  -2  -2  -7 325.141 186.735   4
   2  -2   7 790.109 249.431   7
  -2   2  -7 642.295 180.229   8
   2  -2   7 359.943 208.927   3
  -2   2  -7 653.589 267.737   1
  -2  -2  -7 678.336 180.675   8
  -2  -2  -8 1788.74 347.625   4
   2  -2   8 2325.35 449.962   7
  -2   2  -8 2214.15 340.541   8
  -2   2  -8 2436.24 454.153   1
  -2  -2  -8 2264.60 366.723   8
   2  -2   8 2117.35 401.775   3
   2   2   8 2495.34 474.474   2
  -2  -2  -9 6299.27 618.385   4
  -2   2  -9 7295.63 744.476   1
   2  -2   9 6210.51 715.423   7
   2  -2   9 6864.65 722.366   3
  -2  -2  -9 6617.32 640.406   8
  -2   2  -9 6452.21 623.011   8
   2   2   9 7853.35 878.902   2
  -2  -2 -10 22249.1 1248.02   8
   2  -2  10 22307.8 1431.54   7
  -2   2 -10 21596.1 1208.90   8
   2  -2  10 20058.5 1235.47   3
  -2  -2 -10 22243.6 1190.41   4
   2   2  10 22936.2 1478.52   2
  -2   2 -10 23863.2 1380.69   1
  -2  -2 -11 4756.78 592.174   4
   2  -2  11 5082.34 703.876   7
  -2  -2 -11 5139.58 632.806   8
  -2   2 -11 5071.14 655.031   5
  -2   2 -11 5277.62 661.742   1
   2  -2  11 4685.44 606.322   3
  -2  -2 -11 5234.23 576.472   5
   2   2  11 4740.62 736.094   2
  -2   2 -11 4858.17 596.770   8
  -2  -2 -12 68.5738 120.776   4
  -2  -2 -12-92.5538 165.099   5
  -2   2 -12-102.970 93.2910   5
   2   2  12 117.104 209.865   2
   2  -2  12 174.838 167.690   3
  -2   2 -12-284.956 207.808   1
   2   2  12 285.157 238.931   7
  -2  -2 -13 1247.09 325.845   5
   2   2  13 1088.76 332.285   7
   2   2  13 653.487 293.530   2
   2  -2  13 973.682 296.340   3
  -2  -2 -13 973.470 284.063   4
  -2   2 -13 828.182 261.893   5
  -2   2 -13 1497.87 374.658   1
  -2  -2 -14 1261.07 363.114   4
   2   2  14 1411.03 392.178   7
  -2  -2 -14 858.004 215.352   5
  -2   2 -14 1738.87 503.396   1
   2  -2  14 915.876 343.172   3
   2   2  14 1106.12 400.724   2
  -2   2 -14 1460.68 406.739   5
   2   2  15 252.402 144.991   7
  -2  -2 -15 438.584 302.197   4
   2   2  15 137.020 251.394   2
  -2  -2 -15 529.405 187.343   5
  -2   2 -15 267.358 183.063   5
  -2  -2 -16 133.585 175.803   5
  -2   2 -16 235.773 129.030   5
  -2  -2 -16 291.125 237.984   4
   2   2  16 233.506 342.288   2
   2   3 -16 1391.40 381.721   5
   2  -3 -15 30.0859 295.951   4
   2   3 -15-31.1032 168.135   5
   2  -3 -14 168.610 194.263   4
  -2   3  14-25.9267 142.398   8
   2   3 -14 232.093 160.042   5
   2  -3 -13 37.2329 156.551   4
  -2  -3  13 317.248 177.891   8
  -2   3  13 262.722 156.740   8
   2   3 -13 259.981 126.319   5
  -2  -3  12 3093.45 504.773   8
  -2   3  12 3031.59 507.223   8
   2  -3 -12 3558.25 601.832   4
   2   3 -12 2677.36 478.438   5
  -2  -3  11 1648.55 352.670   8
  -2   3  11 1905.47 401.788   8
  -2   3  11 1734.63 383.517   2
   2   3 -11 1611.05 371.768   5
   2  -3 -11 1917.91 434.187   4
  -2   3  10 391.444 200.896   8
   2  -3 -10 553.588 257.654   4
  -2   3  10 635.888 233.499   2
  -2  -3  10 415.104 137.404   8
   2   3 -10 332.711 115.048   5
  -2  -3   9 825.317 207.034   8
  -2   3   9 1202.96 297.977   8
   2  -3  -9 1300.08 368.420   4
  -2   3   9 1175.17 283.590   2
   2   3  -9 1158.08 278.747   5
  -2   3   8 1047.96 272.727   8
   2  -3  -8 522.226 271.761   4
   2   3  -8 1246.96 277.958   5
  -2  -3   8 955.307 242.908   8
  -2   3   8 764.587 247.078   2
  -2  -3   7 1064.57 237.242   8
  -2   3   7 539.290 262.597   1
  -2   3   7 1120.02 228.659   2
  -2   3   7 835.670 238.913   8
  -2  -3   7 934.212 302.383   6
   2  -3  -7 1013.76 319.511   4
   2   3  -7 1312.18 277.295   5
  -2  -3   6 373.195 109.749   8
  -2  -3   6 518.942 248.782   6
  -2   3   6 994.744 276.563   1
   2  -3  -6 654.262 249.895   4
  -2   3   6 1306.19 252.417   2
  -2   3   6 596.077 185.587   8
   2   3  -6 667.658 192.996   5
   2  -3  -5 1980.77 391.430   4
  -2  -3   5 2045.42 416.049   6
   2   3  -5 1789.04 290.552   5
  -2   3   5 2026.91 262.298   2
  -2   3   5 1479.48 268.654   8
  -2   3   5 2313.40 442.723   1
  -2  -3   5 1086.92 203.810   8
  -2  -3   4 3908.75 571.171   6
  -2   3   4 3620.67 363.015   8
   2   3  -4 3632.64 358.298   5
  -2   3   4 3706.79 570.632   1
  -2  -3   4 2146.15 234.560   8
   2  -3  -4 3855.08 539.242   4
  -2   3   4 4550.89 352.475   2
  -2   3   3 18514.7 705.303   8
   2  -3  -3 18177.3 1130.42   4
  -2  -3   3 19234.3 1243.87   6
  -2   3   3 21363.8 710.287   2
   2   3  -3 16448.5 706.631   5
  -2   3   3 19025.9 1234.19   1
  -2  -3   2 19898.4 1222.07   6
  -2   3   2 21079.3 670.892   2
  -2   3   2 15496.0 559.266   8
   2   3  -2 18593.1 735.863   5
   2  -3  -2 19543.1 1149.62   4
  -2  -3   2 15992.9 751.393   5
  -2   3   2 21443.2 1308.90   1
  -2   3   1 4633.91 315.755   2
   2  -3  -1 3764.83 559.457   3
  -2  -3   1 4709.76 592.076   6
   2   3  -1 4361.25 323.064   5
  -2  -3   1 3997.49 340.941   5
  -2   3   1 4064.40 256.924   8
  -2   3   1 4694.63 645.525   1
  -2   3   0 3289.26 233.532   8
  -2   3   0 3231.72 539.759   1
  -2  -3   0 3698.60 540.348   6
  -2   3   0 3500.54 283.472   2
   2   3   0 3721.68 491.667   2
  -2  -3   0 2951.46 257.906   5
  -2  -3   0 2638.93 160.742   8
   2  -3   0 2625.19 455.944   3
   2  -3   1 232.436 145.490   3
   2   3   1 129.929 128.323   2
  -2  -3  -1 106.528 43.8085   8
  -2   3  -1 215.346 68.4555   8
   2   3   2 8458.92 767.741   2
   2  -3   2 8295.39 832.141   3
   2  -3   2 8327.27 582.865   6
  -2   3  -2 9484.70 453.009   8
  -2   3  -2 9068.21 898.321   1
  -2  -3  -2 9852.50 443.832   8
   2  -3   3 50599.5 1491.11   6
   2   3   3 53357.0 1934.34   2
   2  -3   3 48088.6 2020.84   3
  -2  -3  -3 54038.4 1173.24   8
  -2   3  -3 53073.4 1184.08   8
  -2   3  -3 53094.4 2169.64   1
   2   3   4 35374.6 1629.62   2
  -2  -3  -4 34396.0 1055.07   8
   2  -3   4 32167.3 1679.50   3
  -2   3  -4 35482.7 1063.23   8
   2  -3   4 34526.4 1295.99   6
  -2   3  -4 34355.3 1782.04   1
   2  -3   5 65537.0 2418.89   3
   2  -3   5 67799.5 1882.69   6
  -2   3  -5 68761.1 1998.06   5
   2   3   5 70842.1 2344.22   2
  -2   3  -5 67562.2 1609.43   8
  -2   3  -5 72370.0 2627.14   1
   2  -3   6 5262.57 704.879   3
  -2   3  -6 5934.27 515.200   8
   2   3   6 5667.25 705.103   2
  -2   3  -6 6127.35 616.090   5
  -2   3  -6 5847.34 743.997   1
  -2  -3  -7-306.646 235.764   4
   2  -3   7-215.491 186.720   3
  -2   3  -7 268.058 250.135   1
  -2   3  -7 29.8807 97.7101   5
   2   3   7 71.0309 141.612   2
  -2   3  -8-283.647 332.037   1
  -2  -3  -8 81.0650 157.157   4
   2  -3   8 380.108 268.614   3
   2   3   8-53.8187 170.974   2
  -2   3  -8-35.5798 94.1980   5
  -2   3  -9 1048.24 385.407   1
  -2   3  -9 954.706 299.927   5
  -2  -3  -9 1162.21 326.378   4
   2  -3   9 438.568 194.645   3
   2   3   9 783.770 256.113   2
  -2  -3 -10 485.246 177.758   4
  -2   3 -10-264.513 322.038   1
   2   3  10 481.393 264.337   2
   2  -3  10 230.343 214.412   3
  -2   3 -10 379.450 220.519   5
  -2  -3 -11 107.767 188.511   4
   2  -3  11 27.0253 215.074   3
   2   3  11-465.250 339.816   2
  -2   3 -11 64.4226 126.116   5
  -2   3 -11 319.851 295.611   1
  -2  -3 -12 5174.61 724.893   4
  -2   3 -12 5524.19 849.934   1
  -2   3 -12 4329.64 675.431   5
   2   3  12 4970.56 850.026   2
   2  -3  12 5123.49 721.312   3
  -2  -3 -13 1951.41 450.294   4
   2  -3  13 1569.41 395.396   3
  -2   3 -13 1421.28 440.005   1
   2   3  13 795.367 377.045   2
  -2   3 -13 1191.30 400.027   5
  -2  -3 -14 165.195 255.716   4
   2   3  14 488.818 395.072   2
  -2   3 -14-73.8028 315.290   1
  -2   3 -14 284.309 181.162   5
  -2   3 -15 170.024 224.043   1
  -2  -3 -15 140.292 214.576   4
  -2   3 -15 242.831 111.415   5
  -2  -3 -16 1302.87 444.248   4
  -2  -4  12-80.1132 193.652   6
   2  -4 -11 222.851 227.626   4
  -2  -4  11-423.770 390.723   6
   2  -4 -10 145.436 186.883   4
  -2  -4  10-492.614 376.507   6
   2  -4  -9-228.390 224.377   4
  -2  -4   9-6.97734 187.780   6
  -2  -4   8 132.506 169.197   6
   2  -4  -8 8.96949 224.434   4
  -2  -4   7 358.884 274.255   6
  -2   4   7-56.9603 188.267   1
   2  -4  -7-23.9291 203.783   4
  -2   4   6 904.923 255.660   1
  -2  -4   6 1780.10 490.421   6
   2  -4  -6 1545.49 437.926   4
  -2  -4   5 2804.11 618.860   6
  -2   4   5 2181.87 499.191   1
   2  -4  -5 2294.54 500.982   4
  -2  -4   4 7320.27 899.299   6
  -2   4   4 6114.11 840.265   1
  -2  -4   3 3241.49 610.926   6
  -2   4   3 2534.68 561.176   1
  -2  -4   2 3718.56 621.350   6
  -2   4   2 3451.61 673.962   1
  -2   4   1 467.207 278.270   1
   2   4  -1 630.206 245.502   2
  -2   4   0 1073.52 363.788   1
   2   4   0 903.078 287.879   2
  -2   4  -1-117.038 202.174   1
   2   4   1 212.484 130.303   2
  -2   4  -2 2999.22 630.440   1
   2   4   2 2937.85 520.562   2
   2   4   3 28994.7 1610.75   2
  -2   4  -3 26706.5 1795.61   1
   2   4   4 36646.8 1846.08   2
   2  -4   4 30391.2 1894.82   3
  -2   4  -4 33035.9 2016.16   1
  -2   4  -5 1604.33 509.666   1
   2   4   5 1350.21 358.275   2
   2  -4   5 782.739 247.296   3
   2  -4   6 14688.3 1308.39   3
   2   4   6 16760.9 1317.73   2
  -2   4  -6 15852.3 1471.43   1
   2   4   7 16205.1 1302.90   2
   2  -4   7 12740.3 1254.56   3
  -2   4  -7 12838.5 1301.24   1
  -2   4  -8-268.503 309.728   1
   2  -4   8 72.8604 169.154   3
   2   4   8 424.637 271.077   2
  -2   4  -9-41.4237 329.261   1
   2  -4   9 426.859 269.818   3
   2   4   9 410.500 296.469   2
   2  -4  10 250.069 241.719   3
   2   4  10-489.528 356.431   2
   2  -4  11 356.024 262.721   3
   2   4  11-96.7197 268.291   2
   2   4  12-280.570 207.662   2
  -2  -5   5 58.4081 227.739   6
  -2   5   5 157.186 380.732   1
  -2  -5   4 137.646 274.112   6
  -2   5   4-178.899 378.208   1
  -2   5   3-617.129 471.794   1
  -2   5   2 763.447 422.140   1
  -3   0  19-125.895 143.032   8
   3   0 -19 54.8903 118.553   5
   3   0 -18 4019.82 651.453   5
  -3   0  18 3598.29 711.161   8
  -3   0  17-301.304 195.857   8
   3   0 -17-73.8723 101.009   5
  -3   0  16-17.0018 111.062   8
   3   0 -16 2.72660 165.839   5
  -3   0  15 121.858 98.6361   8
   3   0 -15 139.614 168.847   5
   3   0 -14 11610.7 976.326   5
  -3   0  14 12271.7 1131.24   8
  -3   0  13-131.202 136.429   8
   3   0 -13-66.4474 186.713   5
  -3   0  12 1007.88 272.202   8
   3   0 -12 1063.48 291.155   5
  -3   0  11 76.7824 136.034   8
   3   0 -11 26.1304 87.6711   5
   3   0 -10 9394.38 754.235   5
  -3   0  10 9703.35 828.171   8
  -3   0   9 204.970 146.130   8
   3   0  -9-55.4311 118.737   5
  -3   0   8 75974.1 2092.84   8
   3   0  -8 72909.0 1931.33   5
   3   0  -7 132.475 47.9047   3
   3   0  -7 84.3437 118.982   5
   3   0  -6 268195. 1821.49   3
   3   0  -6 260827. 3339.78   5
   3   0  -5 52.3757 109.777   5
   3   0  -5-138.034 121.478   3
   3   0  -4 30136.1 1060.11   5
  -3   0   4 32043.8 1146.75   8
  -3   0   3 295.447 157.163   8
   3   0  -3 59.2193 93.7409   8
   3   0  -3-87.3726 111.355   5
  -3   0   3-51.6076 95.2976   5
   3   0  -2 94441.3 1827.36   8
   3   0  -2 93493.8 1901.45   5
  -3   0   2 93372.0 1818.16   5
  -3   0   2 92696.5 1910.51   8
  -3   0   1-87.6894 97.1723   5
  -3   0   1 124.620 98.9065   8
   3   0  -1 23.4482 82.4907   5
  -3   0   1 213.109 100.003   6
   3   0  -1 111.746 74.9161   8
   3   0   0 24675.4 806.109   2
   3   0   0 25685.4 671.299   6
  -3   0   0 27173.3 960.695   5
  -3   0   0 26130.0 989.557   8
   3   0   0 27246.0 994.813   8
   3   0   1-73.7468 81.8714   2
   3   0   1 0.15692 43.5609   6
   3   0   2 281505. 3051.95   2
  -3   0  -2 284436. 3446.62   8
   3   0   3-102.298 81.8446   2
  -3   0  -3 526.374 389.033   8
   3   0   4 4008.17 419.404   2
  -3   0  -4 12131.4 957.835   8
   3   0   5-123.393 177.152   2
  -3   0  -5 17.6563 114.996   8
   3   0   5-234.886 162.668   1
  -3   0  -5-31.3451 38.7144   4
  -3   0  -6 46588.0 799.666   4
  -3   0  -6 44918.7 1635.15   8
   3   0   6 44587.5 1617.59   2
   3   0   7-126.368 204.256   2
  -3   0  -7 5.07199 176.726   8
   3   0   8 6397.96 706.358   7
   3   0   8 5452.63 659.149   2
  -3   0  -8 5483.07 623.815   8
   3   0   9-120.963 273.831   2
   3   0   9 63.8482 171.253   7
  -3   0  -9-178.712 142.840   8
   3   0  10 5813.12 762.447   2
   3   0  10 5236.76 687.178   7
  -3   0 -10 5610.94 674.039   8
   3   0  11-513.046 263.373   2
  -3   0 -11-226.522 224.716   8
   3   0  12 2335.03 515.027   7
   3   0  12 2506.02 532.889   2
  -3   0 -12 1839.59 413.607   8
   3   0  13-134.553 222.121   7
   3   0  13-8.61822 238.103   2
  -3   0 -13 110.159 152.909   8
   3   0  14 456.700 321.839   2
   3   0  14 385.439 206.310   7
  -3   0 -14 441.699 120.258   8
   3   0  15 136.638 184.665   7
   3   0  15-3.62057 307.562   2
  -3   0 -15-167.221 211.144   8
   3   0  16 3114.52 636.471   7
  -3   0 -16 3606.74 696.185   8
  -3   0 -16 3172.30 628.316   5
   3   0  17-277.712 295.177   7
  -3   0 -17-121.019 253.036   5
   3  -1 -20 630.840 282.276   5
  -3  -1  19 171.058 169.954   8
  -3   1  19-188.440 198.192   8
   3   1 -19 328.907 122.799   5
   3  -1 -19 226.637 216.325   5
  -3  -1  18 977.504 341.728   8
  -3   1  18 614.704 376.584   8
   3   1 -18 1225.86 389.667   5
   3  -1 -18 1205.60 354.377   5
  -3   1  17 2268.79 538.812   8
   3   1 -17 2564.06 530.677   5
  -3  -1  17 2088.24 564.687   8
   3  -1 -17 3096.81 530.152   5
  -3  -1  16 82.1739 146.078   8
  -3   1  16 223.096 207.511   8
   3  -1 -16 760.077 278.917   5
   3   1 -16 601.082 233.607   5
  -3  -1  15 2320.43 506.596   8
  -3   1  15 2301.53 522.195   8
   3   1 -15 2779.43 502.390   5
   3  -1 -15 2344.44 430.975   5
   3  -1 -14 11872.8 930.721   5
   3   1 -14 12530.2 1058.85   5
  -3   1  14 12525.9 1112.98   8
  -3  -1  14 11379.8 1083.77   8
   3  -1 -13 47342.9 1803.04   5
   3   1 -13 48707.2 2009.84   5
  -3   1  13 49725.8 2124.76   8
  -3  -1  13 51259.6 2157.40   8
   3  -1 -12 15221.4 980.072   5
   3   1 -12 15567.4 1090.04   5
  -3  -1  12 16228.6 1162.68   8
  -3   1  12 15612.3 1147.23   8
   3  -1 -11 25126.2 1006.44   7
   3  -1 -11 26984.9 1028.16   1
   3  -1 -11 23961.6 1190.16   5
   3   1 -11 24922.6 1343.12   5
  -3  -1  11 23983.5 1385.02   8
  -3   1  11 23724.0 1365.47   8
  -3   1  10 1413.93 186.454   3
  -3   1  10 1445.38 321.668   8
   3  -1 -10 1488.30 286.462   5
   3  -1 -10 1797.29 255.049   7
  -3  -1  10 1491.83 351.721   8
   3   1 -10 1618.22 331.082   5
   3  -1  -9 31949.0 947.094   7
  -3  -1   9 29789.5 1383.71   8
  -3   1   9 29492.8 927.570   3
   3  -1  -9 31758.8 1285.25   5
  -3   1   9 29267.6 1397.58   8
   3   1  -9 29402.1 1357.09   5
   3  -1  -8 14149.7 563.760   7
  -3  -1   8 12124.7 836.497   8
  -3   1   8 13034.3 642.052   3
   3  -1  -8 12639.2 767.959   5
   3   1  -8 13052.6 853.041   5
  -3   1   8 12078.0 852.609   8
   3  -1  -7 11660.7 450.923   7
  -3   1   7 10895.9 620.573   3
   3  -1  -7 10859.8 676.437   5
   3   1  -7 10694.5 739.569   5
  -3   1   7 10462.1 737.509   8
  -3  -1   7 10409.8 736.833   8
   3  -1  -7 12053.4 676.099   2
   3   1  -7 12905.3 425.887   3
   3  -1  -6 8524.70 496.599   3
  -3   1   6 7980.59 536.255   3
  -3   1   6 8132.09 620.958   8
   3  -1  -6 8323.54 582.780   5
   3   1  -6 8693.96 651.178   5
  -3  -1   6 8749.82 647.202   8
   3  -1  -6 9704.00 546.402   2
   3  -1  -5 2537.46 285.851   3
   3  -1  -5 2346.49 309.759   5
   3   1  -5 2580.72 329.050   5
  -3   1   5 2380.75 302.688   3
  -3  -1   5 3105.46 379.159   8
  -3   1   5 2107.24 325.083   8
   3  -1  -5 3571.41 308.430   2
  -3   1   4 83685.1 1877.29   8
  -3  -1   4 80816.0 1858.35   8
   3  -1  -4 80180.4 1618.68   3
  -3   1   4 84170.3 1858.14   3
   3  -1  -4 86176.5 1808.03   5
   3   1  -3 218.950 101.984   5
  -3   1   3 314.094 150.510   8
   3   1  -3-3.91210 302.243   8
   3  -1  -3-64.4751 121.156   3
   3  -1  -3-23.8452 86.1160   5
  -3   1   3 231.520 106.652   5
  -3   1   3 15.5200 204.687   3
  -3  -1   3 296.666 177.223   8
   3   1  -2 303.552 154.082   5
  -3  -1   2 416.607 170.548   6
   3  -1  -2 85.7316 41.4975   2
   3  -1  -2 278.299 137.346   5
   3  -1  -2 167.567 91.6555   8
  -3   1   2 405.147 150.933   5
   3  -1  -2-33.4824 129.623   3
   3   1  -2 1076.36 295.873   8
  -3  -1   2 833.942 209.098   8
  -3   1   2 435.171 207.894   8
   3  -1  -1 62081.2 829.444   2
  -3  -1   1 63985.9 1590.64   6
   3  -1  -1 68928.0 1574.30   8
  -3  -1   1 66931.6 1568.02   8
   3  -1  -1 61357.2 1651.55   3
   3   1  -1 66997.6 1599.49   5
  -3   1   1 72141.2 1641.03   5
  -3  -1   1 67152.1 1518.04   5
  -3   1   1 65865.6 1577.67   8
   3   1  -1 67917.0 1521.17   8
  -3  -1   0 98630.5 1940.45   8
  -3  -1   0 94171.8 1907.58   6
   3  -1   0 92598.1 2149.11   3
   3   1   0 91607.4 1929.42   5
  -3  -1   0 102039. 1905.89   5
   3   1   0 96192.6 1845.94   8
  -3   1   0 93337.4 1916.62   8
   3  -1   0 100800. 1913.70   8
   3  -1   0 91695.3 1273.89   4
   3  -1   0 94470.4 1108.23   2
  -3   1  -1 121326. 1441.93   2
   3   1   1 122810. 2355.97   2
   3  -1   1 123967. 2599.17   3
  -3  -1  -1 134482. 2240.26   5
  -3   1  -1 124024. 2211.02   8
   3  -1   1 122294. 1362.98   4
   3   1   1 123593. 1814.44   4
   3  -1   1 120763. 1475.95   2
  -3  -1  -1 133925. 2293.27   8
   3   1   2 4862.29 354.255   4
   3   1   2 4095.65 454.249   2
  -3   1  -2 4446.74 317.041   2
   3  -1   2 4824.90 347.072   2
   3   1   3 942.301 161.504   4
   3   1   3 1678.77 305.933   2
   3  -1   3 1005.02 209.116   7
  -3   1  -3 1350.67 203.598   2
   3  -1   3 1243.72 216.090   2
   3  -1   3 558.111 228.163   3
  -3  -1  -3 1090.96 246.791   8
  -3   1  -3 993.071 229.121   8
  -3   1  -4 3273.11 181.465   4
  -3   1  -4 3232.86 325.814   2
   3   1   4 2908.25 396.124   2
   3  -1   4 3092.56 402.964   7
   3  -1   4 2511.60 325.713   2
  -3  -1  -4 2919.51 363.822   8
  -3   1  -4 2893.45 363.476   8
   3  -1   4 3172.59 530.346   3
   3  -1   5 2029.51 343.130   7
  -3   1  -5 1995.72 155.970   4
   3  -1   5 1946.93 311.177   2
  -3  -1  -5 2586.34 465.322   8
  -3   1  -5 1965.03 308.811   8
   3   1   5 1844.30 340.863   2
   3  -1   5 935.288 363.860   3
  -3  -1  -5 1918.32 247.824   4
  -3  -1  -6 367.350 151.439   4
   3  -1   6 300.284 195.785   7
   3  -1   6 208.141 182.293   2
  -3  -1  -6 259.043 169.653   8
  -3   1  -6 124.109 98.5421   8
   3  -1   6-23.9091 324.524   3
   3   1   6 27.1291 112.302   2
   3   1   7 6028.20 673.396   2
  -3   1  -7 6586.89 630.917   8
  -3  -1  -7 7920.99 534.051   4
   3  -1   7 6274.53 650.895   7
   3  -1   7 6384.86 638.025   2
  -3  -1  -7 6723.49 647.316   8
   3  -1   7 6991.42 861.512   3
   3  -1   8 2587.70 460.140   7
   3  -1   8 2637.52 467.969   2
   3  -1   8 3031.23 650.683   3
  -3  -1  -8 2973.52 440.895   8
   3   1   8 2646.78 468.847   2
  -3   1  -8 3012.71 437.240   8
  -3  -1  -9 4153.79 551.823   8
   3  -1   9 4141.03 779.355   3
   3  -1   9 3936.61 597.781   7
   3   1   9 3723.39 612.487   2
  -3  -1  -9 4638.25 427.689   4
   3  -1   9 4064.96 558.981   2
  -3   1  -9 4314.44 564.987   8
   3  -1  10 807.642 251.407   7
   3   1  10 510.062 319.753   2
  -3  -1 -10 1037.35 215.878   4
  -3   1 -10 887.281 266.184   8
  -3  -1 -10 975.889 265.157   8
  -3  -1 -11 3291.80 399.116   4
   3  -1  11 3023.87 596.370   7
  -3   1 -11 2987.46 495.134   8
   3   1  11 3382.84 604.468   7
   3   1  11 3179.46 627.911   2
   3  -1  11 2886.28 708.289   3
  -3  -1 -11 3282.89 515.942   8
   3  -1  12 47.6885 152.660   7
   3   1  12 131.333 232.997   7
  -3  -1 -12-159.431 181.961   4
   3   1  12-296.292 294.445   2
   3  -1  12-252.807 374.723   3
  -3  -1 -12 284.044 196.441   8
  -3   1 -12 148.878 149.776   8
   3  -1  13 311.002 372.736   3
  -3  -1 -13-105.742 122.155   4
   3  -1  13 127.519 241.058   7
   3   1  13 107.711 219.869   7
   3   1  13 29.4553 213.708   2
  -3  -1 -13 183.293 111.770   8
  -3   1 -13-23.9150 122.094   8
   3  -1  14 7014.50 964.771   7
   3   1  14 7414.51 931.771   7
  -3   1 -14 6465.35 817.323   8
   3   1  14 6923.87 1000.03   2
   3  -1  14 6714.56 1033.31   3
  -3  -1 -14 6523.00 835.481   8
   3  -1  15 261.201 271.372   7
   3   1  15 529.417 270.015   7
   3   1  15 303.046 347.061   2
  -3  -1 -15 348.779 275.345   8
   3  -1  15 364.019 422.130   3
  -3  -1 -15 622.133 296.533   5
  -3   1 -15 902.115 323.724   8
  -3   1 -15 774.123 292.638   5
   3  -1  16 1213.44 383.714   7
   3   1  16 507.703 300.688   7
   3   1  16-222.332 450.576   2
  -3  -1 -16 528.998 247.275   5
  -3   1 -16 884.188 389.387   5
   3   1  17 330.928 343.584   7
  -3  -1 -17 134.406 241.510   5
  -3  -2  19 209.338 286.728   8
  -3   2  18 1942.85 507.621   8
  -3  -2  18 2090.92 553.989   8
   3   2 -18 2522.20 563.113   5
   3  -2 -18 1671.99 377.557   5
  -3  -2  17 83.4955 138.287   8
  -3   2  17 152.899 144.794   8
   3   2 -17-254.805 221.521   5
   3  -2 -17-56.5168 90.7145   5
  -3  -2  16 1494.02 435.785   8
  -3   2  16 1486.67 424.220   8
   3   2 -16 1586.74 413.259   5
   3  -2 -16 1800.79 366.351   5
  -3  -2  15 776.316 324.168   8
  -3   2  15 554.036 242.878   8
   3   2 -15 1058.02 335.338   5
   3  -2 -15 837.917 265.196   5
  -3   2  14 999.793 317.769   8
   3   2 -14 1076.80 301.517   5
  -3  -2  14 877.392 298.516   8
   3  -2 -14 1280.98 307.982   5
  -3  -2  13 15.5329 88.1526   8
  -3   2  13 51.2184 102.462   8
   3  -2 -13 7.76030 116.098   5
   3   2 -13-207.317 177.864   5
   3  -2 -12 17631.6 1023.80   5
   3   2 -12 16553.5 1162.14   5
  -3  -2  12 17951.1 1221.64   8
  -3   2  12 18029.4 1236.06   8
  -3  -2  11 50307.0 1951.00   8
   3  -2 -11 49359.2 1653.94   5
   3   2 -11 46785.0 1906.90   5
  -3   2  11 47586.5 1947.78   8
   3  -2 -10 41710.3 1443.55   5
   3   2 -10 41855.0 1726.51   5
  -3  -2  10 42269.8 1711.10   8
  -3   2  10 43127.7 1773.32   8
  -3  -2   9 9557.58 778.410   8
   3   2  -9 9130.33 560.037   3
   3  -2  -9 9301.98 647.491   5
   3   2  -9 9508.95 780.561   5
  -3   2   9 9591.10 828.647   8
   3  -2  -8 1176.87 222.793   2
  -3   2   8 1949.73 438.465   8
   3   2  -8 1362.86 307.700   5
  -3  -2   8 1097.07 272.278   8
   3  -2  -8 1534.20 257.827   5
  -3  -2   7 1135.35 253.062   8
  -3   2   7 1451.91 268.474   8
   3  -2  -7 1308.19 226.848   5
   3  -2  -7 1469.94 230.645   2
   3   2  -7 1505.07 290.233   5
  -3   2   6 960.914 219.221   8
   3  -2  -6 1080.11 163.295   2
   3  -2  -6 1204.57 215.577   5
   3   2  -6 925.313 219.422   5
  -3  -2   5 539.431 190.092   8
  -3   2   5 1247.02 238.091   8
   3  -2  -5 649.517 176.205   4
   3  -2  -5 828.544 224.602   3
   3  -2  -5 462.628 98.1855   2
   3   2  -5 551.781 163.405   5
   3  -2  -5 626.537 148.420   5
  -3   2   5 779.956 157.883   5
   3  -2  -4 1012.91 241.296   4
  -3   2   4 1191.60 260.153   6
  -3  -2   4 584.585 188.596   6
   3  -2  -4 773.903 167.773   5
   3  -2  -4 1202.45 271.491   3
  -3   2   4 997.553 178.660   5
   3   2  -4 924.647 198.797   5
  -3  -2   4 730.783 219.302   8
  -3   2   4 791.173 179.086   8
   3  -2  -3 4544.48 459.580   4
   3  -2  -3 5100.89 539.495   3
  -3   2   3 3427.57 301.764   6
  -3  -2   3 4433.35 522.313   6
   3   2  -3 4895.29 449.642   5
  -3   2   3 5887.59 430.662   5
  -3   2   3 4829.55 609.273   1
  -3  -2   3 4893.31 434.001   8
   3   2  -3 5578.54 443.168   8
  -3   2   3 5590.84 500.081   8
   3  -2  -2 47940.5 1434.65   4
  -3  -2   2 49078.2 1722.56   6
   3  -2  -2 48658.3 1676.59   3
  -3   2   2 51213.1 1853.44   1
  -3  -2   2 48762.1 1332.34   8
   3   2  -2 50093.3 1446.44   5
  -3   2   2 53772.2 1327.31   5
   3  -2  -2 57619.6 1452.53   8
   3   2  -2 57616.7 1428.03   8
  -3   2   2 52784.1 1489.61   8
   3  -2  -1 4961.18 423.506   8
   3  -2  -1 3982.98 404.207   4
   3  -2  -1 4805.75 368.057   7
  -3  -2   1 4405.53 499.268   6
   3  -2  -1 4531.31 521.088   3
  -3   2   1 5278.07 620.953   1
   3   2  -1 4356.51 394.908   5
  -3   2   1 4839.50 428.639   5
  -3  -2   1 4545.01 415.078   8
  -3   2   1 4310.26 441.051   8
   3   2  -1 5351.03 443.475   8
   3  -2   0 13047.0 670.482   7
  -3  -2   0 12486.3 867.435   6
  -3   2   0 12453.1 947.113   1
   3  -2   0 12215.4 857.224   3
  -3  -2   0 11698.7 661.064   8
   3   2   0 12764.1 688.068   5
   3  -2   0 13383.1 695.192   8
  -3  -2   0 13407.7 683.861   5
   3   2   0 13888.6 707.795   8
  -3   2   0 12693.9 701.272   8
   3  -2   0 11729.7 665.187   4
  -3   2  -1 1178.13 131.007   2
   3  -2   1 2058.52 300.927   7
  -3  -2  -1 2237.63 278.514   5
   3   2   1 2309.32 371.037   2
  -3   2  -1 2330.74 445.300   1
   3  -2   1 1868.58 344.125   3
  -3   2  -1 1835.08 316.043   8
  -3  -2  -1 1494.46 241.714   8
  -3   2  -2 12170.4 715.845   8
   3  -2   2 13733.3 808.682   7
   3   2   2 13612.7 926.833   2
  -3   2  -2 12523.5 948.919   1
   3  -2   2 14073.4 486.939   6
   3  -2   2 13346.7 927.541   3
  -3  -2  -2 12538.5 710.133   8
  -3   2  -2 10192.0 440.452   2
   3  -2   3 1113.81 236.297   7
   3   2   3 887.572 247.312   2
  -3   2  -3 998.470 366.107   1
   3  -2   3 1010.47 310.710   3
  -3   2  -3 814.452 158.383   2
  -3  -2  -3 1158.79 237.556   8
  -3   2  -3 734.463 181.412   8
   3   2   4 2372.07 449.891   2
   3  -2   4 2198.52 356.813   7
  -3   2  -4 2418.59 426.372   1
   3  -2   4 1885.89 420.819   3
  -3   2  -4 2035.75 259.965   2
  -3  -2  -4 2095.52 321.533   8
  -3   2  -4 1809.85 288.538   8
   3   2   5 7465.91 760.054   2
   3  -2   5 7731.55 701.388   7
  -3   2  -5 8890.11 820.848   1
   3  -2   5 7196.69 690.895   3
  -3   2  -5 7091.99 606.354   8
  -3  -2  -5 6983.93 601.294   8
   3   2   6 81236.3 2539.84   2
   3  -2   6 83399.7 2415.35   7
  -3   2  -6 85245.0 2550.97   1
   3  -2   6 74737.0 2358.22   3
  -3  -2  -6 80245.4 2101.38   8
  -3   2  -6 80545.2 2119.21   8
   3   2   7 36522.2 1773.92   2
   3  -2   7 34113.1 1614.03   7
  -3   2  -7 37248.7 1736.58   1
   3  -2   7 32291.4 1573.33   3
  -3   2  -7 33767.7 1422.31   8
  -3  -2  -7 33487.6 1416.84   8
  -3  -2  -7 36332.0 1462.92   4
  -3  -2  -8 917.064 266.109   4
   3  -2   8 76.1721 161.085   7
  -3   2  -8 569.785 192.371   8
  -3  -2  -8 671.435 222.098   8
  -3   2  -8 1291.31 425.656   1
   3  -2   8 257.166 211.192   3
   3   2   8 167.863 196.303   2
  -3  -2  -9 484.781 183.020   4
   3  -2   9 1015.47 353.300   7
   3   2   9 1429.30 437.651   2
  -3   2  -9 1206.83 332.404   1
  -3  -2  -9 966.717 267.457   8
  -3   2  -9 1079.46 260.848   8
   3  -2   9 973.877 317.008   3
  -3  -2 -10 8812.06 753.322   4
   3  -2  10 8076.52 884.340   7
  -3  -2 -10 7793.65 767.471   8
  -3   2 -10 8876.66 902.827   1
   3  -2  10 7499.91 814.097   3
  -3   2 -10 7433.38 736.917   8
   3   2  10 7896.39 938.596   2
  -3  -2 -11 72.9360 165.947   4
   3  -2  11 230.872 219.038   7
   3  -2  11-63.2489 237.860   3
   3   2  11 171.650 274.750   2
  -3  -2 -11-264.382 234.575   8
  -3   2 -11 143.498 156.984   8
  -3   2 -11-392.167 266.087   1
  -3  -2 -12 1776.06 377.046   4
   3  -2  12 930.782 362.130   7
  -3   2 -12 1342.23 345.072   8
  -3   2 -12 1706.09 425.616   1
   3   2  12 1553.37 522.306   2
   3  -2  12 1153.11 343.656   3
  -3  -2 -12 1532.48 368.321   8
  -3   2 -13 47.0572 209.326   1
   3  -2  13 41.6291 276.610   7
   3   2  13 551.806 353.009   7
  -3  -2 -13 134.303 159.057   4
  -3  -2 -13-12.1661 102.828   8
   3   2  13 31.3846 274.208   2
   3  -2  13-54.9613 318.607   3
  -3   2 -13-41.5542 168.901   8
  -3   2 -13-48.8157 111.334   5
   3  -2  14 228.120 184.592   7
  -3  -2 -14 508.921 215.445   4
   3   2  14-164.592 247.654   7
   3   2  14 89.0313 281.659   2
  -3   2 -14 99.2084 150.644   5
   3  -2  14-43.6167 241.953   3
  -3   2 -14-114.971 164.572   8
  -3  -2 -14 77.4712 147.769   5
  -3   2 -15-150.451 141.981   5
  -3  -2 -15 22.1538 110.961   5
   3   2  15 233.768 269.362   7
   3   2  15 250.508 325.889   2
  -3  -2 -16 481.490 253.127   5
   3   3 -16 53.1970 159.939   5
   3  -3 -15 3726.17 713.494   4
   3   3 -15 3835.79 644.684   5
  -3   3  14 365.816 217.456   8
   3  -3 -14 244.321 200.325   4
   3   3 -14 166.832 187.600   5
  -3   3  13-196.775 251.778   8
   3  -3 -13-120.174 203.727   4
  -3  -3  13-80.1230 151.900   8
   3   3 -13-24.4534 116.989   5
  -3   3  12 2669.11 511.000   8
   3  -3 -12 2978.48 556.913   4
   3   3 -12 2428.72 467.561   5
  -3  -3  12 2238.48 442.372   8
  -3  -3  11 254.976 164.231   8
  -3   3  11 735.971 280.923   8
   3  -3 -11 1007.18 353.958   4
   3   3 -11 444.399 209.890   5
   3  -3 -10 3031.61 540.727   4
   3   3 -10 3223.51 512.459   5
  -3   3  10 3647.19 545.085   8
  -3  -3  10 3409.98 494.973   8
   3  -3  -9 5626.80 734.063   4
  -3  -3   9 5022.46 545.046   8
  -3   3   9 6269.49 654.379   8
   3   3  -9 5870.50 649.783   5
  -3   3   8 17138.8 1010.09   8
  -3  -3   8 16593.6 989.098   8
  -3  -3   8 20709.8 1488.30   6
   3   3  -8 17865.3 1095.64   5
   3  -3  -8 18690.2 1316.72   4
   3  -3  -7 2343.93 461.538   4
  -3   3   7 2549.16 395.280   8
  -3  -3   7 2242.23 494.593   6
  -3  -3   7 1887.44 331.495   8
   3   3  -7 2259.29 368.724   5
   3  -3  -6 161.084 152.604   4
  -3  -3   6-51.8092 80.1473   8
  -3  -3   6 0.72822 154.109   6
   3   3  -6-25.5282 96.8627   5
  -3   3   6 26.6099 61.3474   8
   3  -3  -5 1118.22 358.989   4
  -3  -3   5 779.430 280.439   6
  -3   3   5 522.083 261.593   1
   3   3  -5 866.913 216.376   5
  -3  -3   5 983.260 218.613   8
  -3   3   5 607.944 204.176   8
   3  -3  -4 3298.20 510.513   4
  -3   3   4 3132.31 574.626   1
  -3  -3   4 4130.20 614.096   6
  -3   3   4 3482.15 454.273   8
   3   3  -4 2689.17 358.458   5
  -3  -3   4 2702.20 353.429   8
   3  -3  -3 1948.77 407.615   4
  -3  -3   3 1426.84 322.323   6
   3  -3  -3 1258.81 347.271   3
   3   3  -3 1810.39 280.637   5
  -3   3   3 1148.39 302.451   1
  -3  -3   3 1237.88 240.971   8
  -3   3   3 1539.08 318.195   8
  -3  -3   2 245.337 153.795   6
  -3   3   2-171.718 236.094   1
   3  -3  -2 142.212 190.328   3
   3  -3  -2 115.455 120.411   4
   3   3  -2 107.610 56.9195   5
  -3  -3   2 5.93767 52.6178   8
  -3   3   2 234.997 131.340   8
  -3   3   1 176.354 213.058   1
  -3  -3   1-1.76202 106.304   6
   3   3  -1 11.5712 41.8635   5
   3  -3  -1-97.9552 126.063   3
  -3  -3   1 15.3704 57.2488   8
  -3   3   1-112.291 107.305   8
  -3  -3   0 69.8888 107.446   6
   3  -3   0 94.3232 139.833   3
   3   3   0-42.8778 133.482   2
  -3  -3   0 46.6471 62.9932   8
  -3   3   0 17.3145 63.9713   8
  -3   3   0-289.846 274.456   1
   3  -3   1 1309.38 357.279   3
   3   3   1 1012.69 298.987   2
  -3  -3  -1 1200.40 207.956   8
  -3   3  -1 1085.54 399.317   1
  -3   3  -1 1259.85 218.554   8
   3   3   2 1198.64 328.716   2
   3  -3   2 1162.33 327.877   3
  -3   3  -2 1367.16 429.159   1
  -3   3  -2 1624.49 269.944   8
  -3   3  -3 33105.1 1810.69   1
   3   3   3 31875.4 1611.41   2
   3  -3   3 31456.4 1024.88   6
   3  -3   3 30132.7 1672.17   3
  -3   3  -3 30372.3 1133.93   8
  -3  -3  -3 31744.8 1125.50   8
  -3   3  -4 45004.4 2133.83   1
   3   3   4 46947.0 2028.17   2
   3  -3   4 43717.7 1281.44   6
   3  -3   4 43300.2 2031.83   3
  -3  -3  -4 44692.2 1403.73   8
  -3   3  -4 43859.4 1404.28   8
   3   3   5 27429.4 1583.32   2
  -3   3  -5 26470.6 1659.35   1
   3  -3   5 24820.6 1010.84   6
   3  -3   5 24611.6 1532.83   3
  -3  -3  -5 26371.6 1141.96   8
  -3   3  -5 25099.1 1114.39   8
   3   3   6 7055.03 831.657   2
  -3   3  -6 8718.93 942.904   1
   3  -3   6 8054.30 873.050   3
  -3   3  -6 7777.66 650.729   8
   3  -3   6 8092.39 613.564   6
  -3  -3  -6 7595.06 657.464   8
   3  -3   7 409.834 291.369   3
  -3   3  -7-354.145 333.448   1
  -3  -3  -7 92.0195 90.9552   8
  -3   3  -7-251.552 184.825   8
   3   3   7-26.6417 198.854   2
   3   3   8 5075.98 755.596   2
   3  -3   8 4612.32 700.858   3
  -3  -3  -8 4214.66 564.011   8
  -3   3  -8 4362.74 549.296   8
  -3   3  -8 4780.20 732.302   1
   3  -3   9 1744.91 436.012   3
   3   3   9 1466.15 458.318   2
  -3  -3  -9 1806.91 381.096   8
  -3   3  -9 2357.02 613.118   1
  -3   3 -10 2697.70 609.661   1
   3  -3  10 2482.12 472.808   3
   3   3  10 3504.59 697.722   2
  -3   3 -10 2929.19 568.495   5
  -3  -3 -10 2795.94 497.057   4
  -3   3 -11 8582.50 1028.39   1
   3  -3  11 6426.08 838.041   3
  -3   3 -11 7423.42 903.577   5
   3   3  11 7665.93 1008.86   2
  -3  -3 -11 8238.16 877.367   4
  -3  -3 -12 181.396 154.631   4
  -3   3 -12-122.026 387.095   1
   3  -3  12-156.843 195.332   3
   3   3  12 293.030 287.330   2
  -3   3 -12-187.542 210.160   5
  -3   3 -13 1148.20 400.990   1
  -3  -3 -13 2409.80 495.895   4
   3  -3  13 1583.70 327.397   3
   3   3  13 2087.77 649.034   2
  -3   3 -13 2264.92 554.739   5
  -3  -3 -14 483.939 228.048   4
  -3   3 -14 416.901 396.969   1
  -3   3 -14 460.370 229.322   5
  -3  -4  11 142.025 182.380   6
   3  -4 -10-183.831 295.604   4
  -3  -4  10 269.032 253.508   6
   3  -4  -9 5062.61 803.376   4
  -3  -4   9 5191.37 894.658   6
   3  -4  -8 1658.36 434.389   4
  -3  -4   8 1015.66 339.568   6
   3  -4  -7 48.2782 295.209   4
  -3  -4   7-274.256 308.155   6
   3  -4  -6 931.079 339.583   4
  -3  -4   6 90.4005 253.835   6
  -3   4   6 628.094 301.695   1
   3  -4  -5 50.5664 158.336   4
  -3   4   5-341.325 301.290   1
  -3  -4   5-6.82305 203.632   6
  -3  -4   4 384.425 289.032   6
  -3   4   4 955.913 386.548   1
  -3  -4   3 1195.28 383.202   6
  -3   4   3 1513.67 409.330   1
  -3   4   2-283.700 348.653   1
  -3  -4   2 390.215 266.830   6
   3   4  -2 454.526 227.649   2
  -3   4   1 1227.83 373.150   1
   3   4  -1 1532.01 409.674   2
   3   4   0 116.253 127.039   2
  -3   4   0-447.187 285.434   1
   3   4   1 5981.15 770.025   2
   3  -4   1 5816.46 833.143   3
  -3   4  -1 4829.25 807.868   1
  -3   4  -2 9200.59 1125.51   1
   3   4   2 8096.07 910.340   2
   3  -4   2 8039.20 991.762   3
   3   4   3 127.477 149.867   2
   3  -4   3 564.059 250.693   3
  -3   4  -3 160.492 296.293   1
  -3   4  -4 13735.1 1340.90   1
   3   4   4 16272.6 1329.83   2
   3  -4   4 12754.0 1273.92   3
  -3   4  -5 17711.9 1568.46   1
   3  -4   5 16044.2 1441.00   3
   3   4   5 17985.3 1413.43   2
   3  -4   6 348.929 245.556   3
  -3   4  -6 397.519 283.908   1
   3   4   6 427.086 250.275   2
   3  -4   7-163.301 181.254   3
  -3   4  -7-531.910 398.318   1
   3   4   7-438.329 328.785   2
   3  -4   8 347.230 278.354   3
   3   4   8-53.1387 257.293   2
  -3   4  -8-128.344 361.131   1
   3  -4   9 311.976 360.743   3
   3   4   9 368.979 216.349   2
   3   4  10 2649.53 621.877   2
   3  -4  10 1516.73 476.801   3
   3   5  -4-196.999 181.634   2
   3   5  -3 206.265 103.520   2
   3   5  -2 5.61950 105.176   2
   3   5  -1-51.5819 141.125   2
  -4   0  19 101.800 180.168   8
   4   0 -19 125.573 209.863   5
  -4   0  18 3665.41 767.062   8
   4   0 -18 5986.01 831.609   5
  -4   0  17 121.832 164.975   8
   4   0 -17 150.271 178.719   5
   4   0 -16 5413.40 742.161   5
  -4   0  16 5548.23 828.416   8
  -4   0  15 1402.46 428.595   8
   4   0 -15 7.38780 123.375   5
   4   0 -14 12315.2 1040.45   5
  -4   0  14 13641.4 1243.81   8
  -4   0  13 93.7246 139.146   8
   4   0 -13 108.456 83.7277   5
   4   0 -12 932.328 270.758   5
  -4   0  12 776.225 207.563   8
  -4   0  11-43.4668 201.680   8
   4   0 -11-37.4312 79.4488   5
   4   0 -10 15268.8 1030.41   5
  -4   0  10 14507.5 1065.06   8
  -4   0   9-62.9623 119.096   8
   4   0  -9-78.1137 133.439   5
  -4   0   8 9063.37 783.653   8
   4   0  -8 10005.7 367.572   3
   4   0  -8 8810.92 703.940   5
  -4   0   7-111.376 79.9752   8
   4   0  -7 95.8778 143.363   5
   4   0  -7-6.69049 79.0852   3
   4   0  -6 8392.13 653.797   5
  -4   0   6 8336.75 702.402   8
  -4   0   5 480.207 225.869   8
   4   0  -5 53.0277 77.6345   5
  -4   0   4-8.93491 159.399   8
   4   0  -4-79.3048 109.966   5
   4   0  -3-99.2787 90.1653   5
  -4   0   3 422.807 174.766   8
  -4   0   2 15184.3 637.773   6
   4   0  -2 13744.7 833.661   5
  -4   0   2 14623.1 870.344   8
  -4   0   1-101.824 107.525   6
   4   0  -1 116.951 122.579   5
   4   0  -1-95.7234 67.9189   2
   4   0   0 116460. 2002.40   2
  -4   0   0 116027. 2489.66   8
   4   0   1 88.0136 89.4919   2
   4   0   1 102.910 63.0005   6
  -4   0  -1-58.4718 83.6009   8
   4   0   2 160890. 2583.08   2
  -4   0  -2 166442. 3036.91   8
   4   0   3 16.7371 67.1422   6
  -4   0  -3-3.81228 125.647   8
   4   0   3 20.1051 86.5098   2
   4   0   4 165.394 162.987   2
  -4   0  -4 296.649 135.473   8
   4   0   5 37.1471 131.387   2
  -4   0  -5-167.285 113.325   8
  -4   0  -6 1997.36 545.341   8
   4   0   6 44.8331 158.152   2
   4   0   7-291.480 237.141   2
  -4   0  -7-218.720 150.091   8
   4   0   8 60216.9 2265.75   2
  -4   0  -8 62574.1 2299.76   8
  -4   0  -8 62381.3 908.419   4
  -4   0  -9 44.5853 49.8220   4
   4   0   9-66.5322 263.883   7
   4   0   9 234.010 203.520   2
  -4   0  -9 122.770 158.167   8
   4   0  10 71577.6 2714.65   7
  -4   0 -10 71945.4 2594.40   8
   4   0  10 70175.0 2672.65   2
   4   0  11 122.399 239.131   7
  -4   0 -11 105.498 156.844   8
   4   0  11-242.462 309.282   2
   4   0  12 3477.90 615.256   7
   4   0  12 3445.68 690.363   2
  -4   0 -12 2827.67 537.761   8
   4   0  13-241.806 205.957   7
   4   0  13-242.083 285.688   2
  -4   0 -13-220.288 223.483   8
   4   0  14 28.1598 232.471   7
   4   0  14 28.1835 269.616   2
  -4   0 -14 48.7850 159.700   8
   4   0  15-472.068 369.514   7
   4   0  15-235.184 256.991   2
  -4   0 -15 254.470 280.491   8
   4   0  16 747.068 392.091   2
   4   0  16 1090.59 471.774   7
   4  -1 -20 3582.53 651.938   5
  -4  -1  19 664.059 345.961   8
  -4   1  19 182.321 151.597   8
   4  -1 -19 589.776 268.634   5
  -4  -1  18-3.67374 213.386   8
  -4   1  18-182.610 209.267   8
   4  -1 -18 158.743 172.216   5
   4   1 -18 30.4230 177.903   5
  -4  -1  17 387.603 156.848   8
  -4   1  17 413.982 256.477   8
   4  -1 -17 505.398 206.759   5
   4   1 -17 520.564 226.820   5
  -4  -1  16 1101.87 417.362   8
  -4   1  16 476.774 227.924   8
   4  -1 -16 1122.63 315.615   5
   4   1 -16 1612.64 426.877   5
  -4  -1  15 3605.97 645.151   8
  -4   1  15 3373.76 620.406   8
   4  -1 -15 3782.08 564.862   5
   4   1 -15 4225.98 650.934   5
  -4  -1  14 221.636 141.736   8
  -4   1  14 45.4131 173.006   8
   4  -1 -14 378.550 185.868   5
   4   1 -14 461.077 251.537   5
  -4   1  13 3269.40 593.163   8
   4  -1 -13 3523.93 525.304   5
   4   1 -13 3738.90 580.898   5
  -4  -1  13 3385.20 599.685   8
  -4  -1  12 143.367 178.723   8
   4  -1 -12 86.9595 69.2260   5
   4   1 -12 110.236 124.799   5
  -4   1  12 156.463 136.143   8
  -4   1  11 815.501 305.237   8
  -4  -1  11 43.6215 109.082   8
   4  -1 -11 386.297 153.617   5
   4   1 -11 513.044 210.622   5
  -4  -1  10-109.857 188.977   8
   4  -1 -10-57.3951 79.7030   7
  -4   1  10 38.2947 153.586   8
   4   1 -10 85.2666 121.986   5
   4  -1 -10-7.11298 66.2711   5
   4  -1  -9 22346.6 784.412   7
  -4   1   9 20613.5 1216.55   8
   4  -1  -9 21486.7 1108.96   5
   4   1  -9 21327.9 1196.88   5
  -4  -1   9 19629.3 1184.45   8
  -4  -1   8 130.463 169.669   8
  -4   1   8-283.173 173.415   8
   4  -1  -8 47.3534 68.9719   3
   4  -1  -8-75.9277 111.955   5
   4   1  -8 184.770 141.506   5
   4  -1  -7 15512.3 727.877   3
   4  -1  -7 14970.8 885.404   5
   4   1  -7 14333.5 904.958   5
  -4   1   7 14567.3 958.870   8
   4  -1  -7 18029.2 828.038   2
  -4  -1   7 14541.4 958.406   8
   4  -1  -6 9642.14 577.206   3
   4  -1  -6 10682.0 741.396   5
   4   1  -6 9644.55 727.009   5
  -4  -1   6 9296.71 746.371   8
  -4   1   6 9490.16 741.754   8
   4  -1  -5 59879.8 1559.28   3
   4  -1  -5 63733.4 1837.14   5
   4   1  -5 59601.7 1767.63   5
  -4   1   5 63957.2 1889.56   8
  -4  -1   5 62986.9 1886.92   8
   4  -1  -4 2881.47 370.842   5
   4   1  -4 3097.59 411.222   5
   4  -1  -4 3568.68 394.485   3
  -4  -1   4 2620.68 383.303   8
  -4   1   4 2776.45 384.509   8
  -4   1   3 2685.51 373.121   8
  -4  -1   3 2201.49 316.274   6
   4  -1  -3 2788.30 363.038   5
   4   1  -3 3017.70 417.597   5
  -4  -1   3 2799.07 390.252   8
   4  -1  -3 2155.35 321.166   3
   4  -1  -2 25954.4 659.993   2
  -4  -1   2 22900.9 1057.11   6
   4  -1  -2 26892.9 1220.45   3
   4   1  -2 24730.8 1136.70   5
  -4   1   2 25226.1 1159.61   8
  -4  -1   2 23192.3 1108.53   8
  -4  -1   1 1039.38 201.809   6
   4   1  -1 1206.12 261.405   5
   4  -1  -1 1389.24 366.017   3
  -4  -1   1 1021.27 214.369   8
  -4   1   1 1146.00 226.873   8
   4  -1  -1 1411.13 161.522   2
   4  -1   0 12610.6 538.779   2
   4  -1   0 11282.9 447.793   4
   4   1   0 11759.1 793.107   2
  -4  -1   0 10495.4 696.378   6
   4  -1   0 12426.4 931.776   3
  -4   1   0 10376.0 750.695   8
  -4  -1   0 10657.2 752.988   8
   4  -1   1 2652.95 191.399   4
   4   1   1 2781.28 400.629   2
   4  -1   1 2614.35 459.732   3
  -4   1  -1 2383.17 359.830   8
   4  -1   1 3125.12 303.482   2
   4   1   1 2463.32 272.057   4
  -4  -1  -1 2264.08 356.434   8
   4   1   2 28437.8 905.643   4
   4   1   2 29277.0 1289.18   2
  -4   1  -2 28114.0 887.667   2
   4  -1   2 27309.9 565.897   6
   4  -1   2 29532.5 1513.33   3
  -4  -1  -2 28234.8 1242.90   8
   4  -1   2 28755.7 993.689   2
  -4   1  -2 28048.8 1231.53   8
   4   1   3 83900.9 1544.69   4
   4   1   3 87243.5 2283.26   2
  -4   1  -3 85735.4 1690.50   2
   4  -1   3 84177.3 2728.43   3
  -4   1  -3 77504.3 2120.50   8
  -4  -1  -3 83578.4 2223.63   8
   4  -1   3 85442.7 1870.01   2
   4   1   4 5938.38 638.187   2
   4  -1   4 7455.73 698.865   7
   4  -1   4 6607.56 544.674   2
   4  -1   4 6904.29 879.916   3
  -4  -1  -4 7615.22 684.819   8
  -4   1  -4 6647.12 631.284   8
   4  -1   5 364.671 187.443   7
   4  -1   5 831.527 268.901   2
   4  -1   5 684.065 377.161   3
  -4  -1  -5 237.046 102.032   8
  -4   1  -5 376.044 198.776   8
   4   1   5 648.726 240.811   2
   4   1   6 19125.3 1207.69   2
   4  -1   6 20323.4 1249.39   7
  -4  -1  -6 19775.0 1182.53   8
  -4   1  -6 19707.4 1156.40   8
   4  -1   6 19706.2 1099.54   2
   4   1   7 108661. 2956.24   2
   4  -1   7 108906. 2988.99   7
   4  -1   7 106548. 2780.69   2
  -4   1  -7 109042. 2883.82   8
  -4  -1  -7 109845. 2913.94   8
   4  -1   8 46735.4 2047.78   7
  -4  -1  -8 47930.7 1978.92   8
   4  -1   8 45656.9 1950.97   2
  -4   1  -8 44994.2 1900.45   8
   4   1   8 45119.2 1989.41   2
   4  -1   9 4110.41 652.688   7
   4  -1   9 4212.31 653.356   2
  -4  -1  -9 4481.49 426.013   4
   4   1   9 4208.69 640.469   2
  -4  -1  -9 4271.20 602.454   8
  -4   1  -9 4642.53 620.568   8
  -4  -1 -10 1323.83 218.932   4
   4  -1  10 1616.07 408.649   7
   4  -1  10 1140.79 349.370   2
   4   1  10 1645.81 425.130   2
   4  -1  10 463.182 355.800   3
  -4  -1 -10 1720.45 405.401   8
  -4   1 -10 1312.72 325.247   8
  -4  -1 -11 684.734 293.536   8
   4  -1  11 1194.03 431.499   7
   4   1  11 968.888 337.289   2
   4  -1  11 907.467 541.160   3
  -4   1 -11 454.457 127.908   8
   4  -1  11 804.275 312.586   2
   4  -1  12 2196.17 470.414   7
   4   1  12 2777.24 579.248   7
   4   1  12 2440.70 622.344   2
   4  -1  12 2878.29 723.272   3
  -4  -1 -12 2704.02 491.808   8
  -4   1 -12 2800.88 534.097   8
   4  -1  13-4.69911 240.766   7
   4   1  13-331.954 352.127   7
   4   1  13-86.3877 369.945   2
   4  -1  13-297.412 441.511   3
  -4  -1 -13-56.1568 147.660   8
  -4   1 -13 55.2521 107.198   8
   4  -1  14 397.998 223.182   7
   4   1  14 282.996 252.867   7
   4   1  14-291.139 382.262   2
   4  -1  14 756.087 511.316   3
  -4  -1 -14 53.7580 104.983   8
  -4   1 -14-176.138 149.416   8
   4  -1  15 1368.34 497.850   7
   4   1  15 1134.67 449.175   7
   4   1  15 910.957 486.116   2
  -4  -1 -15 1073.63 383.246   8
  -4   1 -15 1394.31 434.028   8
   4  -1  15 2405.10 836.871   3
   4   1  16 2040.36 569.216   7
   4  -1  16 1575.49 613.499   3
  -4  -2  18 1681.32 536.322   8
  -4   2  18 1446.95 493.292   8
  -4  -2  17 418.260 277.351   8
  -4   2  17 329.071 244.196   8
   4  -2 -17 499.145 128.604   5
   4   2 -17 813.134 302.582   5
  -4  -2  16 2189.13 522.709   8
  -4   2  16 2175.15 531.843   8
   4  -2 -16 2164.14 414.314   5
   4   2 -16 2211.39 510.900   5
  -4   2  15 1395.94 401.254   8
  -4  -2  15 717.950 283.935   8
   4  -2 -15 877.695 276.005   5
   4   2 -15 970.176 317.026   5
   4  -2 -14 10175.5 865.007   5
   4   2 -14 10508.4 1029.77   5
  -4  -2  14 10603.3 1071.53   8
  -4   2  14 11015.3 1094.78   8
   4  -2 -13 5991.15 645.621   5
   4   2 -13 5965.72 754.587   5
  -4  -2  13 5854.57 768.451   8
  -4   2  13 6791.83 840.065   8
   4  -2 -12 9874.76 803.449   5
   4   2 -12 11229.9 1005.36   5
  -4  -2  12 10732.0 969.800   8
  -4   2  12 10599.3 989.426   8
  -4  -2  11 1233.27 311.563   8
  -4   2  11 1586.59 377.258   8
   4  -2 -11 1471.40 289.777   5
   4   2 -11 1863.27 420.101   5
   4  -2 -10 6249.67 594.910   5
   4   2 -10 6712.39 731.376   5
  -4  -2  10 5723.35 672.086   8
  -4   2  10 5867.59 681.476   8
  -4  -2   9 94.5026 133.748   8
  -4   2   9 31.8628 127.863   8
   4   2  -9 154.551 116.984   5
   4  -2  -9 159.968 136.637   5
  -4  -2   8 1014.22 268.084   8
  -4   2   8 458.981 199.692   8
   4  -2  -8 678.426 189.222   5
   4   2  -8 607.482 235.476   5
  -4  -2   7 375.209 183.512   8
   4  -2  -7 387.116 172.850   3
   4   2  -7 580.099 196.015   5
   4  -2  -7 372.755 138.388   5
  -4   2   7 405.634 182.494   8
   4  -2  -7 279.040 122.088   2
  -4  -2   6 132.820 68.6620   8
  -4   2   6 269.584 159.188   8
   4  -2  -6 69.4852 39.9435   2
  -4  -2   6 341.113 198.836   6
   4  -2  -6 127.491 151.874   3
   4  -2  -6 210.811 111.797   5
   4   2  -6 78.4339 86.8960   5
  -4   2   5 12435.9 830.141   8
   4  -2  -5 12198.6 850.640   3
  -4  -2   5 12157.6 934.833   6
   4  -2  -5 11653.0 785.678   5
   4   2  -5 12743.2 829.454   5
  -4  -2   5 12424.1 836.853   8
   4  -2  -4 19861.9 1060.75   4
   4  -2  -4 22686.0 590.248   7
  -4   2   4 22010.7 746.162   6
   4  -2  -4 19772.8 1103.19   3
  -4  -2   4 17804.6 1116.16   6
   4   2  -4 20017.0 1063.46   5
  -4  -2   4 19741.1 1025.59   8
  -4   2   4 19471.1 1093.17   8
   4  -2  -3 16526.5 898.203   4
   4  -2  -3 18209.3 631.556   7
  -4  -2   3 16139.3 1077.91   6
   4  -2  -3 16201.6 1011.74   3
   4   2  -3 16343.9 966.959   5
  -4  -2   3 17103.9 944.121   8
  -4   2   3 16622.1 974.415   8
   4   2  -2 198.260 123.646   5
   4  -2  -2 289.937 180.301   4
   4  -2  -2 246.197 100.792   7
  -4  -2   2 207.031 158.274   6
   4  -2  -2 196.577 136.119   3
  -4  -2   2 384.114 161.075   8
  -4   2   2 189.114 102.755   8
   4  -2  -1 3385.92 361.381   4
   4  -2  -1 3683.57 361.507   7
  -4  -2   1 3886.76 502.922   6
   4   2  -1 3546.80 422.613   5
   4  -2  -1 4050.24 534.966   3
  -4   2   1 4597.45 520.201   8
  -4  -2   1 4165.31 469.556   8
   4  -2   0 7613.54 568.231   7
   4   2   0 8173.99 757.201   2
  -4  -2   0 8271.68 775.590   6
   4  -2   0 8768.56 794.361   3
  -4  -2   0 8283.29 651.798   8
  -4   2   0 8222.46 671.521   8
   4  -2   0 7034.59 532.592   4
   4  -2   1 3554.72 402.852   7
   4   2   1 3169.34 480.035   2
   4  -2   1 2885.58 473.709   3
  -4  -2  -1 3111.29 404.944   8
  -4   2  -1 2752.98 380.422   8
  -4   2  -2 2420.67 216.971   2
   4   2   2 3218.14 501.487   2
   4  -2   2 3303.76 401.667   7
  -4   2  -2 3658.99 447.431   8
   4  -2   2 2456.60 455.474   3
  -4  -2  -2 2300.94 351.592   8
   4  -2   3 974.722 257.354   7
   4   2   3 716.029 241.764   2
   4  -2   3 279.239 64.4619   6
   4  -2   3 149.068 195.414   3
  -4  -2  -3 473.389 153.231   8
  -4   2  -3 557.956 211.354   8
   4   2   4 4597.89 626.854   2
   4  -2   4 3786.34 503.167   7
  -4   2  -4 4369.16 515.211   8
   4  -2   4 3282.44 555.709   3
  -4  -2  -4 3917.66 507.408   8
   4   2   5 66867.5 2432.16   2
   4  -2   5 66134.3 2158.67   7
   4  -2   5 60279.3 2305.15   3
  -4  -2  -5 66530.8 2060.37   8
  -4   2  -5 63705.1 2012.85   8
   4  -2   6 14496.1 1057.13   7
   4   2   6 14035.5 1134.49   2
   4  -2   6 13115.4 1136.65   3
  -4   2  -6 13570.9 969.964   8
  -4  -2  -6 13731.2 966.812   8
   4  -2   7 1212.84 341.830   7
  -4  -2  -7 1743.36 363.108   8
  -4   2  -7 2084.59 388.992   8
   4   2   7 1751.46 414.025   2
   4  -2   7 1630.25 377.817   3
   4  -2   8-144.447 183.930   7
   4  -2   8-507.673 372.662   3
  -4  -2  -8 288.236 159.259   8
  -4   2  -8-10.0350 122.469   8
   4   2   8-176.322 206.858   2
   4   2   9 5831.49 811.901   2
  -4  -2  -9 4990.35 629.272   8
   4  -2   9 5283.59 734.646   7
  -4   2  -9 5312.56 651.708   8
   4  -2   9 6220.84 851.853   3
   4  -2  10 230.039 152.403   7
   4   2  10-340.363 316.128   2
  -4  -2 -10 18.9164 124.609   8
  -4   2 -10 119.353 118.713   8
   4  -2  10 37.2986 287.235   3
   4  -2  11-156.325 178.626   7
   4  -2  11 127.172 252.899   3
   4   2  11-0.73684 203.461   2
  -4  -2 -11-7.39809 132.908   8
  -4   2 -11 33.9794 131.958   8
  -4  -2 -11 196.677 156.463   4
   4  -2  12 3998.80 729.742   7
   4  -2  12 3719.96 668.688   3
   4   2  12 3911.03 732.526   2
  -4  -2 -12 4062.44 640.192   8
  -4   2 -12 3774.82 600.380   8
   4  -2  13 2374.13 615.644   7
   4   2  13 2989.86 619.004   7
   4   2  13 2554.81 603.098   2
   4  -2  13 2580.92 641.375   3
  -4  -2 -13 2750.32 546.145   8
  -4   2 -13 2508.17 543.708   8
   4  -2  14 4648.92 828.448   7
   4   2  14 5995.35 902.973   7
   4   2  14 4419.62 852.152   2
  -4  -2 -14 4210.34 692.630   8
  -4   2 -14 3604.26 632.146   8
   4  -2  14 3705.77 728.681   3
  -4  -2 -15 98.7784 170.299   8
   4  -2  15 297.241 359.914   3
  -4   2 -15-0.47967 116.988   8
  -4  -2 -15 93.6215 133.607   5
   4   3 -16 3296.40 650.267   5
   4   3 -15 2506.61 544.970   5
  -4   3  14 312.004 287.301   8
   4  -3 -14-49.2756 244.965   4
   4   3 -14-42.3091 116.050   5
  -4   3  13 754.852 302.979   8
   4  -3 -13 1053.40 328.391   4
   4   3 -13 973.571 337.900   5
  -4  -3  12-6.31638 238.804   8
  -4   3  12 136.182 109.111   8
   4  -3 -12 312.933 192.865   4
   4   3 -12 401.071 170.678   5
   4  -3 -11 6151.71 819.869   4
   4   3 -11 7653.99 825.735   5
  -4  -3  11 6500.11 749.687   8
  -4   3  11 7588.39 849.569   8
   4  -3 -10 16112.0 1286.09   4
   4   3 -10 15960.3 1137.87   5
  -4  -3  10 16850.3 1136.81   8
  -4   3  10 17370.8 1199.17   8
   4  -3  -9 49240.6 2190.20   4
  -4  -3   9 47002.0 1832.29   8
   4   3  -9 47073.5 1897.30   5
  -4   3   9 48202.9 1902.93   8
  -4   3   8 2470.57 429.576   8
   4  -3  -8 2271.69 484.995   4
  -4  -3   8 2149.56 487.027   6
   4   3  -8 2406.65 404.769   5
  -4  -3   8 2670.64 417.507   8
   4  -3  -7 7534.08 813.038   4
  -4  -3   7 6965.21 878.935   6
   4   3  -7 5912.50 631.273   5
  -4  -3   7 5926.11 616.737   8
  -4   3   7 6409.73 639.930   8
   4  -3  -6 3373.43 532.013   4
  -4  -3   6 3173.20 587.246   6
   4   3  -6 2737.16 405.195   5
  -4  -3   6 2784.70 414.913   8
  -4   3   6 3232.83 463.819   8
   4  -3  -5 67.7958 166.732   4
   4   3  -5 468.037 171.093   5
  -4  -3   5 487.080 251.839   6
   4  -3  -5 152.919 177.034   3
  -4  -3   5 173.620 132.139   8
  -4   3   5 602.879 218.779   8
   4  -3  -4-42.5443 182.663   4
   4   3  -4 261.363 156.682   5
  -4  -3   4 6.79355 148.184   6
   4  -3  -4 126.814 102.834   3
  -4  -3   4 91.0720 127.017   8
  -4   3   4 152.355 123.645   8
   4  -3  -3 773.301 299.894   4
  -4  -3   3 461.289 229.281   6
   4  -3  -3 518.301 262.418   3
   4   3  -3 614.673 202.982   5
  -4  -3   3 667.149 213.670   8
  -4   3   3 712.274 235.222   8
   4  -3  -2 9533.71 792.002   4
   4  -3  -2 9808.57 953.340   3
  -4  -3   2 9508.47 952.666   6
  -4   3   2 9660.83 1054.18   1
   4   3  -2 8304.73 691.607   5
  -4   3   2 10779.5 848.886   8
  -4  -3   2 9583.76 697.065   8
   4   3  -1 3129.68 510.442   2
  -4  -3   1 3366.76 581.320   6
   4  -3  -1 2817.19 541.537   3
  -4   3   1 3895.95 680.525   1
  -4  -3   1 3292.69 413.045   8
  -4   3   1 3735.94 478.870   8
   4  -3   0 1010.57 363.193   3
  -4   3   0 1384.28 480.316   1
   4   3   0 595.354 234.955   2
  -4  -3   0 598.627 167.896   8
  -4   3   0 1074.02 246.585   8
  -4   3  -1 663.701 246.817   1
   4   3   1 1572.14 385.756   2
   4  -3   1 1213.05 374.773   3
  -4  -3  -1 1291.05 247.662   8
  -4   3  -1 1414.55 278.991   8
   4   3   2 2319.58 472.610   2
   4  -3   2 2140.48 476.452   3
  -4  -3  -2 2230.25 324.954   8
  -4   3  -2 2166.65 352.082   8
  -4   3  -2 2148.64 457.484   1
   4   3   3 318.221 193.090   2
   4  -3   3 497.894 312.389   3
  -4   3  -3 40.6591 284.522   1
  -4  -3  -3 464.486 182.561   8
  -4   3  -3 389.607 163.627   8
   4   3   4 1226.06 391.690   2
  -4   3  -4 385.844 241.652   1
   4  -3   4 527.550 297.826   3
  -4  -3  -4 895.172 234.615   8
  -4   3  -4 1242.21 282.461   8
   4   3   5 11.6603 128.300   2
  -4   3  -5 512.243 394.923   1
   4  -3   5 155.950 211.687   3
  -4  -3  -5 35.5457 74.4007   8
  -4   3  -5 375.388 165.944   8
  -4   3  -6 2465.10 441.483   8
  -4   3  -6 2459.04 488.481   1
   4   3   6 2581.20 538.947   2
   4  -3   6 2597.64 511.873   3
  -4  -3  -6 2339.94 421.231   8
   4  -3   7 247.248 225.177   3
  -4  -3  -7-78.6503 93.6584   8
  -4   3  -7-41.5539 252.420   1
   4   3   7-288.574 209.803   2
  -4   3  -8 1146.75 401.439   1
   4  -3   8 973.547 375.843   3
  -4  -3  -8 772.553 267.673   8
   4   3   8 1294.56 443.711   2
  -4   3  -9-316.948 302.664   1
   4  -3   9 97.2182 260.525   3
  -4  -3  -9-81.5960 169.741   8
   4   3   9 541.079 291.360   2
  -4   3 -10 471.574 303.291   1
   4  -3  10 348.999 286.166   3
  -4  -3 -10 191.307 91.7130   8
   4   3  11 4830.73 857.335   2
   4  -3  11 3384.28 645.091   3
  -4   3 -11 4306.22 770.042   1
  -4  -3 -11 3551.69 584.838   8
   4  -3  12 3147.88 637.910   3
  -4   3 -12 3626.33 686.579   5
   4  -3  13 413.903 269.067   3
   4  -4 -10 17610.7 1529.12   4
  -4  -4  10 20082.1 1768.43   6
   4  -4  -9 11.5341 317.362   4
  -4  -4   9 1367.63 518.646   6
   4  -4  -8 22645.4 1672.59   4
  -4  -4   8 25636.8 1974.87   6
   4  -4  -7 14136.0 1295.32   4
  -4  -4   7 16280.3 1532.24   6
   4  -4  -6 1292.58 339.896   4
  -4  -4   6 1175.80 370.830   6
   4  -4  -5-176.464 250.291   4
  -4  -4   5 104.248 192.614   6
  -4  -4   4 100.066 167.648   6
   4  -4  -4 292.598 312.487   4
  -4  -4   3 756.166 339.415   6
  -4   4   3 141.691 269.771   1
  -4   4   2 371.507 297.203   1
  -4  -4   2-20.7371 129.290   6
   4   4  -2 73.3339 119.327   2
  -4   4   1 191.263 371.881   1
   4  -4  -1 956.928 398.274   3
   4   4  -1 1521.10 420.831   2
   4  -4   0 374.518 316.928   3
   4   4   0 1173.61 375.807   2
  -4   4   0 680.928 251.439   1
  -4   4  -1 542.208 307.571   1
   4   4   1 261.538 159.794   2
   4  -4   1 349.844 300.865   3
   4   4   2 2015.74 490.706   2
   4  -4   2 1235.91 429.629   3
  -4   4  -2 1431.20 415.945   1
   4   4   3 2090.55 501.987   2
   4  -4   3 2243.55 554.436   3
  -4   4  -3 2222.48 590.129   1
   4   4   4 1222.26 421.954   2
   4  -4   4 385.076 196.488   3
  -4   4  -4 1003.80 513.289   1
   4   4   5 188.187 166.913   2
   4  -4   5 362.006 346.085   3
   4  -4   6-58.2814 146.178   3
  -4   4  -6-530.651 449.498   1
   4   4   6 22.6196 160.746   2
   4  -4   7-105.652 330.025   3
   4   4   7 761.284 376.193   2
   5   0 -19 165.228 187.740   5
  -5   0  18-204.090 255.954   8
   5   0 -18 34.6188 133.831   5
  -5   0  17-216.318 151.499   8
   5   0 -17-92.8135 160.924   5
   5   0 -16 7128.67 893.769   5
  -5   0  16 5166.26 861.203   8
  -5   0  15 181.727 200.732   8
   5   0 -15 90.5394 203.393   5
  -5   0  14 2742.68 612.811   8
   5   0 -14 2555.28 484.976   5
  -5   0  13-175.007 127.568   8
   5   0 -13-257.297 239.493   5
   5   0 -12 36840.7 1744.66   5
  -5   0  12 35460.7 1925.63   8
  -5   0  11 280.625 320.065   8
   5   0 -11-8.29247 95.4775   5
  -5   0  10 146.068 114.784   8
   5   0 -10 305.526 67.8407   3
   5   0 -10 335.905 141.101   5
  -5   0   9-143.562 115.163   8
   5   0  -9-26.1066 78.8885   3
   5   0  -9-48.1153 99.7077   5
   5   0  -8 32909.8 956.287   3
   5   0  -8 32086.8 1462.93   5
  -5   0   8 31635.2 1565.71   8
  -5   0   7 88.1149 130.688   8
   5   0  -7 96.3043 128.184   5
   5   0  -7-10.9709 171.067   3
   5   0  -6 2587.00 409.361   5
  -5   0   6 2944.49 473.963   8
   5   0  -6 2410.48 364.587   3
   5   0  -5-56.4417 114.746   5
  -5   0   5-191.796 113.682   8
  -5   0   4 13652.7 986.525   8
   5   0  -4 13396.8 931.170   5
  -5   0   3-132.863 93.3029   6
   5   0  -3 11.6298 102.979   5
  -5   0   3-114.776 137.307   8
  -5   0   2 554.537 137.792   6
   5   0  -2 674.141 224.377   5
  -5   0   2 698.566 229.503   8
   5   0  -1 1.01225 85.2187   2
  -5   0   1-154.290 158.473   8
   5   0   0-11.4749 87.2668   2
  -5   0   0-207.393 138.738   8
   5   0   1 119.235 127.978   2
   5   0   1 70.9502 88.3695   6
  -5   0  -1 189.002 123.221   8
   5   0   2 15469.3 903.091   2
  -5   0  -2 16510.2 1062.29   8
  -5   0  -3-12.9293 85.9952   8
   5   0   3-30.6485 144.448   2
   5   0   4 10382.6 822.838   2
  -5   0  -4 20331.1 1282.23   8
   5   0   5 16.3528 150.308   2
  -5   0  -5-80.0433 175.154   8
  -5   0  -6 3581.68 545.866   8
   5   0   6 4940.48 653.626   2
  -5   0  -7 96.8624 183.038   8
   5   0   7-80.6841 250.557   2
  -5   0  -8 184131. 4238.46   8
   5   0   8 191899. 4273.44   2
   5   0   9-250.170 309.673   2
  -5   0  -9-297.284 290.080   8
   5   0  10 7758.05 964.803   7
  -5   0 -10 8336.73 944.113   8
   5   0  10 7031.20 928.848   2
   5   0  11 202.215 248.214   2
  -5   0 -11 227.437 188.127   8
   5   0  12 6608.20 901.207   7
   5   0  12 6587.21 941.802   2
  -5   0 -12 6196.01 851.987   8
   5   0  13 192.818 232.518   7
   5   0  13 444.299 412.477   2
  -5   0 -13 135.701 115.041   8
   5   0  14 397.532 341.309   7
   5   0  14-128.193 272.303   2
  -5   0 -14 730.974 351.486   8
   5   0  15 69.3090 358.214   2
   5  -1 -19-29.2182 116.976   5
  -5  -1  18 3305.81 723.411   8
  -5   1  18 3053.87 714.661   8
   5  -1 -18 3931.33 628.423   5
   5   1 -18 4662.51 763.583   5
  -5  -1  17 63.6101 294.369   8
  -5   1  17 163.132 153.301   8
   5  -1 -17-260.821 211.875   5
   5   1 -17-151.383 211.165   5
  -5  -1  16 488.864 293.595   8
  -5   1  16 265.557 282.719   8
   5  -1 -16 484.160 248.900   5
   5   1 -16 434.682 258.378   5
  -5  -1  15 3257.51 630.721   8
  -5   1  15 2748.41 613.894   8
   5  -1 -15 3530.42 562.082   5
   5   1 -15 3886.09 660.602   5
   5  -1 -14 6318.69 739.170   5
   5   1 -14 7112.89 838.083   5
  -5  -1  14 7340.30 925.596   8
  -5   1  14 6127.99 883.160   8
   5  -1 -13 21941.1 1332.20   5
   5   1 -13 22245.8 1470.99   5
  -5  -1  13 22720.9 1551.86   8
  -5   1  13 21450.0 1514.85   8
  -5  -1  12 424.873 219.713   8
  -5   1  12 1342.73 378.933   8
   5  -1 -12 1007.26 273.283   5
   5   1 -12 1231.45 336.197   5
  -5  -1  11 1158.91 346.653   8
  -5   1  11 1427.51 343.997   8
   5  -1 -11 1594.08 347.625   5
   5   1 -11 1431.62 352.928   5
  -5  -1  10 412.643 214.994   8
  -5   1  10 386.777 193.966   8
   5   1 -10 761.222 232.551   5
   5  -1 -10 733.510 248.500   5
  -5  -1   9 1412.50 345.315   8
  -5   1   9 1391.27 343.398   8
   5  -1  -9 2154.89 288.764   3
   5  -1  -9 1709.20 339.861   5
   5   1  -9 1660.78 351.038   5
  -5  -1   8 27.2973 120.625   8
  -5   1   8 229.930 115.077   8
   5  -1  -8 369.303 159.816   3
   5  -1  -8 243.428 128.186   5
   5   1  -8 140.681 78.3470   5
   5  -1  -7 4171.50 422.792   3
   5  -1  -7 3968.61 524.409   5
   5   1  -7 4023.82 517.877   5
  -5  -1   7 3641.60 535.256   8
  -5   1   7 4222.54 571.790   8
  -5   1   6 2455.69 425.846   8
   5  -1  -6 3021.43 443.958   5
   5  -1  -6 2566.69 354.368   3
  -5  -1   6 2519.53 458.261   8
   5   1  -6 2610.78 402.335   5
  -5  -1   5 11612.9 811.562   6
   5  -1  -5 11642.7 773.535   3
   5  -1  -5 13138.1 889.799   5
   5   1  -5 13353.2 964.515   5
  -5   1   5 12003.4 914.810   8
  -5  -1   5 12365.3 952.029   8
  -5  -1   4 11110.9 802.499   6
   5  -1  -4 12382.0 857.267   3
   5  -1  -4 11656.2 838.418   5
   5   1  -4 11472.1 899.733   5
  -5   1   4 11566.7 910.426   8
  -5  -1   4 12613.8 938.994   8
   5  -1  -3 3091.48 275.721   2
  -5   1   3 2264.06 180.270   6
  -5  -1   3 2625.73 398.867   6
   5  -1  -3 3092.43 441.736   5
   5   1  -3 2784.81 433.366   5
   5  -1  -3 2628.90 469.543   3
  -5  -1   3 2851.52 459.762   8
  -5   1   3 2798.97 449.873   8
   5  -1  -2 715.151 135.637   2
  -5  -1   2 966.228 228.465   6
   5   1  -2 736.473 215.115   5
   5  -1  -2 932.034 341.581   3
  -5  -1   2 812.320 301.620   8
  -5   1   2 740.176 269.665   8
   5  -1  -1 3074.96 297.610   2
   5   1  -1 2624.17 399.194   2
  -5  -1   1 2553.68 372.510   6
   5   1  -1 2617.16 423.314   5
   5  -1  -1 2865.52 496.662   3
  -5  -1   1 2612.16 429.552   8
  -5   1   1 2535.05 418.538   8
   5  -1   0 15698.4 737.223   2
   5  -1   0 13001.6 485.216   4
   5   1   0 13555.5 936.302   2
   5  -1   0 14659.6 1118.82   3
  -5  -1   0 13766.5 973.437   8
  -5   1   0 16259.9 1105.87   8
   5   1   1 19.0079 98.2567   2
   5  -1   1-69.7096 131.282   2
   5  -1   1-307.793 423.610   3
  -5  -1  -1-79.8717 174.696   8
  -5   1  -1-151.784 169.974   8
   5   1   2 9486.73 541.107   4
   5   1   2 8825.64 767.715   2
  -5   1  -2 8943.17 791.182   8
  -5  -1  -2 8940.89 791.896   8
   5  -1   2 10082.5 994.284   3
   5  -1   2 10357.1 688.218   2
   5   1   3 12318.4 601.434   4
   5   1   3 13938.4 985.263   2
   5  -1   3 12128.8 480.777   6
   5  -1   3 14200.8 1236.96   3
  -5  -1  -3 12216.1 948.657   8
  -5   1  -3 13939.2 1001.40   8
   5  -1   3 13683.5 822.846   2
   5   1   4-30.9443 158.717   2
   5  -1   4 15.0931 167.417   2
   5  -1   4 343.914 447.523   3
  -5  -1  -4-189.181 169.523   8
  -5   1  -4-246.861 199.711   8
   5  -1   5 3291.08 546.640   7
   5  -1   5 2775.22 428.126   2
  -5  -1  -5 2517.93 458.500   8
  -5   1  -5 2432.18 460.065   8
   5   1   5 2618.25 450.528   2
   5   1   6 16772.9 1201.64   2
   5  -1   6 18406.6 1325.40   7
  -5  -1  -6 17073.4 1185.59   8
  -5   1  -6 16655.2 1157.16   8
   5  -1   6 18417.8 1187.65   2
   5  -1   7 1378.69 331.803   7
   5  -1   7 1653.32 391.369   2
   5   1   7 1617.10 415.478   2
  -5  -1  -7 1082.78 269.422   8
  -5   1  -7 1480.75 410.461   8
   5  -1   8 2416.92 507.500   7
   5  -1   8 2700.12 528.178   2
   5   1   8 2050.23 432.953   2
  -5  -1  -8 1892.67 421.342   8
  -5   1  -8 1806.77 399.453   8
   5  -1   9 11447.5 1163.72   7
   5  -1   9 9619.87 1037.54   2
  -5  -1  -9 10422.3 1007.75   8
  -5   1  -9 10060.8 994.356   8
   5   1   9 11111.2 1097.30   2
   5  -1  10 40828.5 2224.91   7
   5  -1  10 29102.0 2068.62   3
  -5  -1 -10 35253.3 1929.93   8
  -5   1 -10 35050.0 1900.62   8
   5  -1  10 37301.8 2133.84   2
   5   1  10 33086.7 1968.09   2
   5  -1  11 23114.3 1732.34   7
   5  -1  11 18317.9 1591.75   3
  -5  -1 -11 20651.7 1511.82   8
   5  -1  11 20790.6 1631.71   2
   5   1  11 18877.5 1546.22   2
  -5   1 -11 19844.6 1458.58   8
   5  -1  12 2440.05 568.346   7
   5   1  12 1988.25 543.282   7
   5   1  12 1607.77 513.455   2
   5  -1  12 2671.62 677.354   3
  -5  -1 -12 2168.70 517.199   8
  -5   1 -12 2008.15 479.198   8
   5  -1  12 2226.28 623.381   2
   5  -1  13 5727.38 915.821   7
   5   1  13 5403.83 873.953   7
   5   1  13 3457.04 734.116   2
   5  -1  13 3317.55 750.948   3
  -5  -1 -13 3689.07 686.078   8
  -5   1 -13 3697.67 655.097   8
   5   1  14 2626.79 665.980   7
   5   1  14 2059.36 610.262   2
   5  -1  14 1363.93 564.679   3
  -5  -1 -14 1658.23 461.831   8
  -5   1 -14 2111.45 524.811   8
   5  -1  15 3241.63 850.425   3
  -5  -2  18 596.685 311.572   8
  -5  -2  17 128.512 128.085   8
  -5   2  17 12.7946 129.209   8
   5  -2 -17 390.084 230.359   5
   5   2 -17 327.572 213.297   5
  -5  -2  16 3788.27 732.713   8
  -5   2  16 3979.71 745.282   8
   5  -2 -16 4282.31 621.024   5
   5   2 -16 4718.89 767.694   5
  -5  -2  15 202.153 228.886   8
  -5   2  15-55.1828 139.626   8
   5  -2 -15 308.765 156.535   5
   5   2 -15 94.5009 162.585   5
   5  -2 -14 6982.16 760.849   5
   5   2 -14 7854.17 921.321   5
  -5  -2  14 6450.31 840.387   8
  -5   2  14 6636.01 874.130   8
  -5  -2  13 0.40609 156.371   8
  -5   2  13 102.774 123.703   8
   5   2 -13-122.172 184.096   5
   5  -2 -13 55.1974 84.2720   5
   5  -2 -12 4089.23 581.804   5
   5   2 -12 4922.58 692.926   5
  -5  -2  12 4193.95 646.994   8
  -5   2  12 3870.03 619.075   8
  -5  -2  11 223.267 106.968   8
  -5   2  11 47.2513 152.033   8
   5   2 -11 28.1152 116.480   5
   5  -2 -11 175.504 125.731   5
  -5  -2  10 112.387 131.136   8
  -5   2  10-32.7853 128.283   8
   5  -2 -10 298.198 155.910   5
   5   2 -10 189.066 95.4811   5
  -5  -2   9 1802.50 396.761   8
  -5   2   9 1866.92 410.675   8
   5  -2  -9 2964.17 456.667   5
   5   2  -9 2359.78 424.537   5
   5  -2  -8 51479.2 1804.39   3
   5  -2  -8 56303.4 1944.82   5
   5   2  -8 53371.4 1995.62   5
  -5  -2   8 51117.8 2019.19   8
  -5   2   8 50551.4 1941.54   8
   5  -2  -7 29037.6 1384.38   3
  -5  -2   7 29874.7 1604.89   6
  -5  -2   7 32530.4 1550.16   8
   5  -2  -7 31755.1 1373.93   5
   5   2  -7 30520.0 1456.38   5
  -5   2   7 30619.7 1474.32   8
   5  -2  -6 11497.6 429.123   7
   5  -2  -6 12884.8 922.024   3
  -5  -2   6 12852.2 1012.09   6
   5  -2  -6 12618.0 863.999   5
   5   2  -6 12767.9 942.405   5
  -5  -2   6 12151.0 947.093   8
  -5   2   6 11354.2 917.321   8
   5  -2  -5 6837.95 385.536   7
  -5  -2   5 7087.28 757.076   6
   5  -2  -5 7161.44 713.650   3
   5   2  -5 6366.98 681.400   5
  -5  -2   5 7102.71 700.574   8
  -5   2   5 6677.08 712.573   8
   5  -2  -4 10852.3 790.094   4
   5  -2  -4 11979.3 568.615   7
  -5  -2   4 10190.6 908.656   6
   5  -2  -4 10567.4 874.811   3
   5   2  -4 10735.7 862.132   5
  -5   2   4 10365.2 859.386   8
  -5  -2   4 10634.5 881.547   8
   5  -2  -3 47.2961 105.713   4
   5  -2  -3 96.9565 133.097   7
  -5  -2   3 71.3883 173.111   6
   5  -2  -3 267.003 198.561   3
   5   2  -3-123.272 110.559   5
  -5  -2   3-132.333 134.178   8
  -5   2   3-111.472 143.409   8
   5  -2  -2 1355.17 258.569   4
   5  -2  -2 1486.41 268.805   7
  -5  -2   2 1068.26 308.127   6
   5  -2  -2 809.991 329.228   3
   5   2  -2 1022.97 263.955   5
  -5   2   2 1313.27 345.083   8
   5  -2  -1-51.7950 86.7737   4
   5  -2  -1 178.637 129.577   7
  -5  -2   1 111.020 157.076   6
   5  -2  -1 194.477 256.992   3
   5   2  -1 107.591 128.542   2
  -5  -2   1 30.9811 138.546   8
  -5   2   1-73.4043 94.2219   8
   5  -2   0 2419.07 364.203   7
   5   2   0 2524.75 471.478   2
   5  -2   0 2015.77 427.692   3
  -5   2   0 3091.99 468.431   8
  -5  -2   0 2378.05 389.784   8
   5  -2   0 2396.85 281.514   4
   5  -2   1 1298.83 303.610   7
   5   2   1 1457.21 384.702   2
   5  -2   1 1128.14 416.600   3
  -5  -2  -1 867.858 249.854   8
  -5   2  -1 1153.26 289.205   8
   5  -2   2 4658.68 544.360   7
   5   2   2 4458.99 618.547   2
   5  -2   2 4490.20 690.287   3
  -5   2  -2 4375.63 564.802   8
  -5  -2  -2 4267.59 552.740   8
   5  -2   3 8782.56 769.375   7
   5   2   3 8894.21 924.045   2
   5  -2   3 7513.70 851.930   3
  -5  -2  -3 7543.32 737.181   8
  -5   2  -3 9174.51 845.890   8
   5   2   4 23079.3 1493.07   2
   5  -2   4 22155.6 1280.23   7
   5  -2   4 19619.9 1400.48   3
  -5  -2  -4 19911.0 1229.63   8
  -5   2  -4 19189.5 1214.80   8
   5   2   5 1668.03 424.504   2
   5  -2   5 1590.65 355.597   7
   5  -2   5 1935.43 478.380   3
  -5  -2  -5 1001.14 307.653   8
  -5   2  -5 1420.85 344.189   8
   5   2   6 6328.64 834.680   2
   5  -2   6 6444.95 759.813   7
  -5  -2  -6 5796.58 698.192   8
  -5   2  -6 6129.45 717.404   8
   5  -2   6 6671.65 938.130   3
   5  -2   7 2703.96 499.998   7
  -5  -2  -7 2235.95 462.133   8
  -5   2  -7 2348.87 455.823   8
   5   2   7 2604.44 539.798   2
   5  -2   7 3354.74 669.450   3
   5  -2   8 120.182 201.986   7
   5  -2   8 390.462 338.627   3
  -5  -2  -8 383.616 174.187   8
  -5   2  -8 558.838 180.802   8
   5   2   8 354.410 186.373   2
   5  -2   9 2547.63 534.175   7
   5  -2   9 2064.55 547.723   3
   5   2   9 3024.15 686.187   2
  -5  -2  -9 2553.41 494.304   8
  -5   2  -9 2178.95 469.082   8
   5  -2  10 983.494 423.656   7
   5   2  10 752.869 322.930   2
   5  -2  10 756.975 400.027   3
  -5  -2 -10 480.996 212.168   8
  -5   2 -10 867.740 280.709   8
   5  -2  11 6781.95 971.978   7
  -5  -2 -11 4529.34 711.777   8
  -5   2 -11 4650.05 704.647   8
   5   2  11 5583.57 893.520   2
   5  -2  11 5345.10 892.897   3
   5  -2  12 715.991 412.106   7
   5   2  12 139.954 280.696   2
   5  -2  12 604.227 438.572   3
  -5  -2 -12-11.7382 194.714   8
  -5   2 -12 185.662 140.599   8
   5  -2  13 10101.5 1233.02   3
  -5  -2 -13 10721.0 1116.51   8
  -5   2 -13 10500.1 1112.83   8
   5  -2  14 762.221 469.975   3
   5   3 -15 179.567 264.697   5
   5  -3 -14 338.598 342.127   4
   5   3 -14 71.7852 133.358   5
  -5   3  13 2378.78 531.453   8
   5  -3 -13 2607.76 545.183   4
   5   3 -13 2495.61 517.272   5
  -5   3  12 107.573 202.033   8
   5  -3 -12 94.1846 244.237   4
   5   3 -12 150.307 107.446   5
  -5   3  11 4185.80 631.174   8
   5  -3 -11 5134.36 734.600   4
  -5  -3  11 4657.44 794.095   6
   5   3 -11 4541.44 656.543   5
   5  -3 -10 11372.7 1049.25   4
  -5  -3  10 13120.5 1331.93   6
   5   3 -10 13062.1 1076.12   5
  -5  -3  10 12188.9 1026.03   8
  -5   3  10 12767.1 1066.01   8
   5  -3  -9 23672.9 1516.55   4
  -5  -3   9 26752.1 1815.63   6
   5   3  -9 22961.9 1359.81   5
  -5  -3   9 22099.8 1338.85   8
  -5   3   9 22600.8 1372.62   8
   5  -3  -8 10958.6 1006.30   4
  -5  -3   8 11568.7 1151.19   6
   5   3  -8 11120.9 932.723   5
  -5  -3   8 10654.5 914.217   8
  -5   3   8 10526.2 917.808   8
   5  -3  -7 1525.09 419.077   4
   5  -3  -7 773.438 277.747   3
  -5  -3   7 1313.15 405.565   6
   5   3  -7 1317.42 321.485   5
  -5  -3   7 1181.80 291.398   8
  -5   3   7 1363.51 331.680   8
   5  -3  -6 4275.12 628.239   4
  -5  -3   6 3645.26 644.270   6
   5  -3  -6 3245.88 563.168   3
   5   3  -6 3604.05 516.524   5
  -5  -3   6 3611.57 509.517   8
  -5   3   6 4016.48 542.455   8
   5  -3  -5 1259.21 333.186   4
  -5  -3   5 1447.53 446.676   6
   5  -3  -5 620.908 265.359   3
   5   3  -5 925.275 254.657   5
  -5  -3   5 1112.30 284.639   8
  -5   3   5 1231.74 323.960   8
   5  -3  -4 1184.51 354.755   4
  -5  -3   4 1527.11 418.977   6
   5  -3  -4 1076.52 351.714   3
   5   3  -4 1384.85 322.096   5
  -5  -3   4 1298.76 329.262   8
  -5   3   4 1467.16 362.201   8
   5  -3  -3 7347.55 745.518   4
  -5  -3   3 7875.38 918.266   6
   5  -3  -3 6779.62 855.749   3
   5   3  -3 7336.79 699.876   5
  -5  -3   3 8925.02 807.876   8
  -5   3   3 9622.33 901.907   8
   5  -3  -2 1832.98 323.462   4
  -5  -3   2 1596.07 394.600   6
   5  -3  -2 1904.86 452.167   3
  -5  -3   2 1869.59 372.833   8
  -5   3   2 2554.18 495.798   8
   5   3  -1 4479.66 657.800   2
  -5  -3   1 5584.70 771.059   6
   5  -3  -1 4907.56 734.572   3
  -5   3   1 5958.69 681.996   8
   5   3   0 3412.05 576.882   2
   5  -3   0 2287.20 512.832   3
  -5  -3   0 2834.14 441.262   8
  -5   3   0 3039.01 490.185   8
   5   3   1 257.689 199.520   2
   5  -3   1-83.6879 173.802   3
  -5  -3  -1 47.2352 121.486   8
  -5   3  -1 111.688 133.991   8
   5  -3   2 3279.80 484.374   7
   5   3   2 3196.94 612.429   2
   5  -3   2 3029.00 603.883   3
  -5  -3  -2 2460.08 421.137   8
  -5   3  -2 2893.92 466.757   8
   5  -3   3 250.743 182.818   7
   5   3   3 334.654 242.807   2
   5  -3   3-235.180 269.964   3
  -5  -3  -3 385.945 164.485   8
  -5   3  -3 695.038 255.512   8
   5   3   4 261.374 218.654   2
   5  -3   4 468.762 199.553   7
   5  -3   4 156.166 170.951   3
  -5  -3  -4 125.028 152.207   8
  -5   3  -4 473.087 214.073   8
   5   3   5 7509.37 963.162   2
   5  -3   5 5525.31 726.460   7
   5  -3   5 6394.37 867.572   3
  -5  -3  -5 5407.21 670.312   8
  -5   3  -5 5242.02 657.684   8
   5   3   6 5800.00 842.767   2
   5  -3   6 4918.42 692.741   7
   5  -3   6 4019.95 711.368   3
  -5  -3  -6 4576.23 622.577   8
   5  -3   7 109.982 171.097   7
   5  -3   7 561.890 297.250   3
  -5  -3  -7 401.271 199.203   8
   5   3   7 478.795 282.204   2
   5  -3   8 178.254 158.056   7
   5  -3   8 187.908 239.056   3
  -5  -3  -8 443.786 232.218   8
   5   3   8 427.393 357.485   2
   5  -3   9 253.562 243.278   7
   5  -3   9 122.522 289.992   3
  -5  -3  -9 124.521 138.545   8
   5   3   9 317.839 309.873   2
   5  -3  10 576.190 291.685   7
   5  -3  10 452.945 204.390   3
   5  -4  -9 6985.82 970.247   4
   5  -4  -8 1609.71 515.811   4
   5  -4  -7 793.378 321.109   4
  -5  -4   7 1318.29 437.996   6
   5  -4  -6 6.20592 253.748   4
  -5  -4   6 208.184 276.324   6
   5  -4  -5-103.733 158.635   4
  -5  -4   5 240.732 266.297   6
  -5  -4   4 1165.69 332.858   6
  -5  -4   3 3361.34 668.092   6
   5  -4  -3 2980.14 639.424   3
   5   4  -3 2591.73 564.206   2
   5   4  -2 5044.24 783.556   2
   5  -4  -2 5040.37 845.585   3
   5  -4  -1 1147.82 427.797   3
   5   4  -1 1382.31 433.427   2
   5   4   0 1812.00 488.885   2
   5  -4   0 2121.51 573.429   3
   5   4   1 1943.03 489.795   2
   5  -4   1 1912.60 542.776   3
   5   4   2 40.4401 150.398   2
   5  -4   2 35.7552 205.860   3
   5   4   3-187.165 144.343   2
   5  -4   3-356.304 321.057   3
   5   4   4-85.6819 272.329   2
   6   0 -18-163.453 249.817   5
  -6   0  17 132.896 226.732   8
   6   0 -17 50.5770 88.2379   5
  -6   0  16 2521.50 636.232   8
   6   0 -16 3635.33 646.556   5
  -6   0  15 23.0215 211.122   8
   6   0 -15-66.8599 152.529   5
  -6   0  14 4229.50 702.160   8
   6   0 -14 4050.07 625.730   5
  -6   0  13-45.7391 183.465   8
   6   0 -13-141.529 81.6767   5
   6   0 -12 40105.5 1908.23   5
  -6   0  12 39736.1 2108.09   8
  -6   0  11-111.171 201.720   8
   6   0 -11-9.62332 129.564   5
   6   0 -10 9131.01 473.751   3
   6   0 -10 7850.79 800.991   5
  -6   0  10 7226.98 866.460   8
  -6   0   9 61.9534 157.970   8
   6   0  -9 184.922 119.796   3
   6   0  -9-74.5570 141.733   5
  -6   0   8 921.924 309.626   8
   6   0  -8 996.563 291.590   5
   6   0  -8 528.624 207.383   3
   6   0  -7 320.665 207.910   5
   6   0  -7 506.618 333.774   3
  -6   0   7 261.905 191.994   8
   6   0  -6 41123.6 1731.98   3
   6   0  -6 44526.1 1914.25   5
  -6   0   6 41164.0 1897.64   8
  -6   0   5-98.2140 110.444   6
   6   0  -5-72.9429 103.488   5
  -6   0   5 82.2245 288.023   8
  -6   0   4 156675. 2624.85   6
   6   0  -4 160700. 3501.17   5
  -6   0   4 166050. 3748.30   8
  -6   0   3-94.8817 156.424   6
   6   0  -3 105.066 93.5896   5
  -6   0   3 59.1496 113.656   8
  -6   0   2 260.677 122.264   6
   6   0  -2 255.558 104.024   2
  -6   0   2 492.721 255.336   8
   6   0  -1-49.1166 81.0948   2
  -6   0   1 81.8929 168.158   8
   6   0   0 61.2193 72.1376   2
  -6   0   0 74.5712 133.285   8
   6   0   1-36.9107 162.715   2
  -6   0  -1-131.961 148.385   8
   6   0   2 10252.3 784.781   2
  -6   0  -2 11415.6 976.881   8
  -6   0  -3 91.8830 137.513   8
   6   0   3-78.7530 146.065   2
   6   0   4 2258.42 380.341   2
  -6   0  -4 2756.76 505.555   8
   6   0   5 136.755 204.441   2
  -6   0  -5-24.0534 131.391   8
  -6   0  -6 536.883 229.203   8
   6   0   6 384.076 223.028   2
   6   0   7 749.877 340.282   2
  -6   0  -7-196.052 220.565   8
   6   0   8 1359.93 460.516   2
  -6   0  -8 1336.03 401.317   8
   6   0   9-318.856 246.184   2
  -6   0  -9-359.293 259.950   8
   6   0  10 2365.80 580.835   7
   6   0  10 2047.31 538.020   2
  -6   0 -10 3324.91 625.391   8
   6   0  11-185.286 328.242   7
   6   0  11-251.562 305.518   2
  -6   0 -11 207.377 140.980   8
   6   0  12 2939.46 634.579   7
   6   0  12 3492.42 790.709   2
  -6   0 -12 3177.82 663.157   8
   6   0  13-679.921 534.988   2
   6  -1 -18 830.838 310.975   5
  -6  -1  17 133.893 146.784   8
  -6   1  17-89.7301 207.669   8
   6  -1 -17 260.864 189.589   5
   6   1 -17-3.72330 120.895   5
  -6  -1  16 966.755 427.976   8
  -6   1  16 433.295 331.040   8
   6  -1 -16 855.179 319.554   5
   6   1 -16 984.467 295.151   5
  -6  -1  15 436.219 166.667   8
  -6   1  15 614.027 330.187   8
   6  -1 -15 864.666 343.026   5
   6   1 -15 722.511 254.766   5
  -6  -1  14 3340.24 672.185   8
  -6   1  14 3672.35 720.188   8
   6  -1 -14 3534.19 577.516   5
   6   1 -14 4000.74 652.393   5
  -6  -1  13 924.595 362.277   8
  -6   1  13 297.792 215.805   8
   6  -1 -13 852.310 288.805   5
   6   1 -13 1128.34 353.679   5
  -6  -1  12 1568.93 408.600   8
  -6   1  12 1653.07 448.785   8
   6  -1 -12 2308.58 450.343   5
   6   1 -12 1657.14 394.188   5
   6  -1 -11 26622.7 1536.85   5
   6   1 -11 23843.4 1471.90   5
  -6  -1  11 26263.8 1631.61   8
  -6   1  11 27178.5 1672.58   8
  -6  -1  10 2082.25 459.139   8
  -6   1  10 2156.70 485.805   8
   6  -1 -10 2250.62 299.895   3
   6  -1 -10 2419.40 459.228   5
   6   1 -10 2254.60 455.327   5
  -6  -1   9 3012.63 535.979   8
  -6   1   9 3319.24 565.133   8
   6  -1  -9 3412.69 403.559   3
   6  -1  -9 3579.55 556.588   5
   6   1  -9 3415.44 538.096   5
   6  -1  -8 8972.27 656.719   3
   6  -1  -8 9206.11 870.109   5
   6   1  -8 9791.41 898.951   5
  -6  -1   8 9667.80 932.683   8
  -6   1   8 8858.95 875.841   8
   6  -1  -7 77226.6 2066.40   3
   6  -1  -7 84598.4 2599.08   5
   6   1  -7 83900.7 2686.85   5
  -6  -1   7 83458.5 2722.09   8
  -6   1   7 77308.2 2574.33   8
  -6  -1   6 49728.5 1835.47   6
   6  -1  -6 51258.5 1787.16   3
   6  -1  -6 52710.2 1984.38   5
   6   1  -6 53852.8 2135.02   5
  -6  -1   6 54494.0 2194.54   8
  -6   1   6 52310.7 2111.15   8
  -6  -1   5 23717.6 1245.40   6
   6  -1  -5 26189.9 1348.38   3
   6  -1  -5 22684.5 1290.05   5
   6   1  -5 24462.9 1401.15   5
  -6  -1   5 23905.2 1429.22   8
  -6   1   5 24100.1 1435.18   8
  -6   1   4 434.623 86.7427   6
  -6  -1   4 422.278 158.773   6
   6  -1  -4 287.755 109.069   2
   6  -1  -4 386.446 189.117   5
   6   1  -4 197.338 132.865   5
  -6  -1   4 515.920 177.480   8
  -6   1   4 105.970 118.728   8
   6  -1  -3 1226.88 206.382   2
  -6  -1   3 977.894 248.396   6
   6   1  -3 1279.33 353.282   5
   6  -1  -3 655.264 300.645   3
  -6  -1   3 1130.52 313.460   8
  -6   1   3 1203.62 349.251   8
   6  -1  -2 15253.8 736.048   2
  -6  -1   2 13831.0 963.275   6
   6   1  -2 14170.8 1022.11   2
   6  -1  -2 14346.4 1184.77   3
   6   1  -2 14396.1 1082.31   5
  -6  -1   2 14664.7 1111.61   8
  -6   1   2 14208.8 1104.34   8
   6   1  -1 778.771 243.098   2
  -6  -1   1 524.292 218.881   8
  -6   1   1 575.974 257.872   8
   6  -1  -1 693.937 181.811   2
   6  -1   0 74.7789 47.8856   4
   6   1   0 105.527 146.936   2
   6  -1   0 121.076 356.715   3
   6  -1   0 110.042 138.414   2
  -6  -1   0-148.711 177.829   8
  -6   1   0 115.712 114.684   8
   6   1   1 131.273 127.876   2
   6  -1   1 94.9452 114.497   2
  -6  -1  -1-295.472 258.491   8
  -6   1  -1-210.306 141.937   8
   6   1   2 4294.77 595.778   2
  -6   1  -2 4180.46 586.774   8
  -6  -1  -2 4335.52 650.686   8
   6  -1   2 5884.28 912.011   3
   6  -1   2 5419.85 562.727   2
   6   1   3 815.041 288.234   2
   6  -1   3 814.955 241.563   2
   6  -1   3 237.349 457.757   3
  -6  -1  -3 509.478 203.143   8
  -6   1  -3 745.709 283.815   8
   6   1   4 3438.96 543.102   2
   6  -1   4 3891.69 545.475   2
   6  -1   4 3485.33 732.174   3
  -6  -1  -4 3794.91 591.333   8
  -6   1  -4 2941.81 503.788   8
   6  -1   5 3076.51 465.888   2
   6  -1   5 2955.94 663.107   3
  -6  -1  -5 3066.57 553.226   8
  -6   1  -5 2670.97 517.136   8
   6   1   5 3412.36 564.217   2
   6  -1   6 1141.10 431.748   7
   6  -1   6 474.848 220.387   2
   6  -1   6 1114.99 560.624   3
  -6  -1  -6 1316.00 386.951   8
  -6   1  -6 1111.92 328.617   8
   6   1   6 1036.75 336.572   2
   6  -1   7 1093.17 372.733   7
   6  -1   7 1177.58 412.117   2
   6   1   7 1022.78 297.837   2
   6  -1   7 1613.40 620.716   3
  -6  -1  -7 1290.85 409.851   8
  -6   1  -7 1250.07 378.885   8
   6  -1   8 14465.4 1376.50   7
  -6  -1  -8 12103.7 1162.54   8
  -6   1  -8 11951.9 1139.36   8
   6  -1   8 9821.80 1210.18   3
   6  -1   8 12762.6 1177.88   2
   6   1   8 12302.3 1157.12   2
   6  -1   9 19028.5 1611.86   7
   6  -1   9 12082.9 1355.59   3
  -6  -1  -9 16597.7 1392.93   8
  -6   1  -9 15524.6 1331.79   8
   6  -1   9 17591.8 1439.41   2
   6   1   9 16628.3 1432.78   2
   6  -1  10 678.075 279.963   7
   6  -1  10 327.711 244.812   2
   6   1  10 794.906 389.468   2
   6  -1  10 925.129 545.195   3
  -6  -1 -10 965.015 358.798   8
  -6   1 -10 897.426 405.262   8
   6  -1  11 480.741 337.598   7
   6  -1  11 441.603 348.073   2
   6   1  11 287.715 213.116   2
   6  -1  11-317.805 391.508   3
  -6  -1 -11 26.2254 156.634   8
  -6   1 -11 48.3840 158.779   8
   6  -1  12 125.680 315.607   7
   6   1  12-319.531 357.794   7
   6   1  12 224.540 401.239   2
   6  -1  12 36.4313 428.462   3
  -6  -1 -12 504.924 358.215   8
  -6   1 -12 1.00226 190.774   8
   6  -1  12 212.380 368.301   2
   6  -1  13 1487.67 694.312   3
  -6  -2  17 1383.90 440.658   8
   6  -2 -17 1178.50 297.077   5
  -6  -2  16-16.2860 228.086   8
  -6   2  16 609.624 293.994   8
   6  -2 -16 353.490 227.346   5
   6   2 -16 251.292 222.110   5
  -6  -2  15 239.266 128.595   8
  -6   2  15 535.354 265.318   8
   6  -2 -15 499.484 183.114   5
   6   2 -15 567.545 234.094   5
  -6  -2  14 1061.64 396.850   8
  -6   2  14 972.825 372.557   8
   6  -2 -14 1289.07 356.455   5
   6   2 -14 1631.14 440.706   5
  -6  -2  13 10.0756 120.084   8
  -6   2  13 88.7081 143.347   8
   6  -2 -13 56.7789 164.993   5
   6   2 -13 132.411 157.538   5
  -6  -2  12 543.122 278.408   8
  -6   2  12 910.156 304.841   8
   6  -2 -12 1183.18 333.380   5
   6   2 -12 1568.94 408.505   5
  -6  -2  11-34.3421 137.331   8
  -6   2  11-156.445 197.922   8
   6  -2 -11-15.5532 100.370   5
   6   2 -11 281.639 223.522   5
  -6  -2  10 14.2082 152.916   8
  -6   2  10 49.7129 119.004   8
   6  -2 -10 14.6220 100.837   3
   6  -2 -10-4.60329 158.351   5
   6   2 -10 180.573 145.974   5
   6  -2  -9 28467.5 1392.88   3
   6  -2  -9 31090.6 1541.63   5
   6   2  -9 30279.0 1642.08   5
  -6  -2   9 29035.1 1665.18   8
  -6   2   9 28831.0 1620.14   8
   6  -2  -8 10845.1 869.441   3
  -6  -2   8 10789.4 1009.88   6
   6  -2  -8 11656.0 935.382   5
   6   2  -8 10640.0 970.994   5
  -6  -2   8 11200.7 1014.85   8
  -6   2   8 9582.27 913.872   8
   6  -2  -7 7357.80 724.582   3
  -6  -2   7 6696.14 801.116   6
   6  -2  -7 7115.90 743.488   5
   6   2  -7 7148.83 801.197   5
  -6  -2   7 7377.43 806.557   8
  -6   2   7 6537.76 740.580   8
  -6  -2   6 1963.24 427.636   6
   6  -2  -6 1885.50 370.823   5
   6  -2  -6 2074.87 407.986   3
   6   2  -6 1524.85 363.222   5
  -6  -2   6 2473.39 470.410   8
  -6   2   6 1977.43 425.885   8
  -6  -2   5 5856.40 736.695   6
   6  -2  -5 5930.83 700.600   3
   6   2  -5 6138.59 706.636   5
  -6  -2   5 5092.71 673.243   8
  -6   2   5 5208.48 677.467   8
   6  -2  -4 79.9140 129.676   4
   6  -2  -4-87.6016 143.853   7
  -6  -2   4-116.622 132.163   6
   6  -2  -4 362.622 273.228   3
   6   2  -4 95.6445 103.262   5
  -6  -2   4 162.917 99.0478   8
  -6   2   4 177.818 142.859   8
   6  -2  -3 36.8694 136.054   4
   6  -2  -3 102.261 144.579   7
  -6  -2   3-102.160 175.529   6
   6  -2  -3 208.242 290.683   3
   6   2  -3 139.220 162.968   5
  -6  -2   3-43.7530 131.879   8
  -6   2   3 231.030 148.189   8
   6  -2  -2 4875.70 443.405   4
   6  -2  -2 5872.80 541.652   7
  -6  -2   2 4968.87 690.329   6
   6   2  -2 5669.23 714.897   2
   6  -2  -2 5589.25 764.599   3
   6   2  -2 5164.21 633.182   5
  -6  -2   2 5803.10 690.376   8
  -6   2   2 6183.51 761.232   8
   6  -2  -1 1141.47 210.231   4
   6  -2  -1 1546.37 312.978   7
  -6  -2   1 1250.92 343.619   6
   6   2  -1 1900.72 439.431   2
   6  -2  -1 1268.44 348.513   3
  -6  -2   1 1638.50 374.131   8
  -6   2   1 1245.57 307.638   8
   6  -2   0 4584.76 535.345   7
   6   2   0 5256.67 713.125   2
   6  -2   0 5082.40 711.169   3
  -6   2   0 4857.33 655.570   8
  -6  -2   0 5274.14 651.426   8
   6  -2   1 1507.81 337.394   7
   6   2   1 1668.16 412.358   2
   6  -2   1 1447.21 463.084   3
  -6  -2  -1 1572.37 351.184   8
  -6   2  -1 1693.86 385.151   8
   6  -2   2 1453.82 360.760   7
   6   2   2 1538.05 407.888   2
   6  -2   2 1738.24 472.428   3
  -6  -2  -2 1326.74 358.708   8
  -6   2  -2 1642.33 373.550   8
   6   2   3 1012.68 339.110   2
   6  -2   3 1089.75 344.169   7
   6  -2   3 638.309 298.285   3
  -6  -2  -3 1545.65 465.205   8
  -6   2  -3 782.554 266.274   8
   6   2   4-268.402 226.725   2
   6  -2   4-87.1950 222.601   7
   6  -2   4-318.481 261.386   3
  -6  -2  -4-163.716 249.803   8
  -6   2  -4 123.168 192.894   8
   6   2   5 910.622 377.594   2
   6  -2   5 1052.78 346.245   7
   6  -2   5 365.056 358.701   3
  -6  -2  -5 1334.40 367.653   8
  -6   2  -5 620.526 265.643   8
   6  -2   6-155.418 218.043   7
   6  -2   6-426.317 428.010   3
  -6  -2  -6-151.899 195.418   8
  -6   2  -6 76.4223 142.881   8
   6   2   6 117.309 213.697   2
   6  -2   7 170.903 265.496   7
   6  -2   7 224.652 354.933   3
  -6  -2  -7-212.190 217.107   8
  -6   2  -7 86.5164 144.721   8
   6   2   7-349.719 354.753   2
   6  -2   8 185.850 218.517   7
   6  -2   8 1582.84 598.636   3
   6   2   8 1276.74 492.277   2
  -6  -2  -8 621.641 313.048   8
  -6   2  -8 424.493 210.249   8
   6  -2   9 3457.92 699.140   7
   6  -2   9 3094.74 691.374   3
   6   2   9 3284.97 689.992   2
  -6  -2  -9 2845.59 552.944   8
  -6   2  -9 2912.34 560.936   8
   6  -2  10 11508.5 1315.82   7
  -6  -2 -10 8112.97 980.696   8
  -6   2 -10 7226.34 910.679   8
   6  -2  10 7644.38 1094.38   3
   6   2  10 12124.3 1360.40   2
   6  -2  11 14825.0 1534.83   7
   6  -2  11 11661.0 1357.83   3
  -6  -2 -11 11404.4 1187.19   8
  -6   2 -11 11359.6 1175.30   8
  -6  -2 -12 8294.82 1017.89   8
   6   3 -14 245.334 202.757   5
   6  -3 -13 1472.98 418.988   4
   6   3 -13 1612.52 439.424   5
   6  -3 -12 312.838 302.997   4
  -6  -3  12 155.575 219.683   6
   6   3 -12 190.767 101.049   5
   6  -3 -11-35.9078 214.432   4
  -6  -3  11-76.7264 242.108   6
   6   3 -11 126.407 109.777   5
  -6   3  11-47.6033 134.387   8
   6  -3 -10 1147.63 367.054   4
  -6  -3  10 1937.67 487.520   6
   6   3 -10 1039.76 339.188   5
  -6   3  10 1078.94 351.626   8
   6  -3  -9 348.078 243.736   4
  -6  -3   9 513.721 342.554   6
   6   3  -9 148.281 172.731   5
  -6   3   9 454.469 246.910   8
   6  -3  -8 271.428 159.747   4
   6  -3  -8 657.721 299.293   3
  -6  -3   8 835.171 344.008   6
   6   3  -8 770.753 302.003   5
  -6  -3   8 102.980 134.913   8
  -6   3   8 175.150 113.526   8
   6  -3  -7 282.250 228.433   4
  -6  -3   7-118.053 205.326   6
   6  -3  -7 62.9317 167.841   3
   6   3  -7 165.891 122.158   5
  -6  -3   7-29.2183 159.465   8
  -6   3   7-130.033 137.870   8
   6  -3  -6-250.802 274.735   4
  -6  -3   6 11.1021 188.333   6
   6  -3  -6 81.0060 193.063   3
   6   3  -6 108.248 82.1956   5
  -6  -3   6 193.136 175.215   8
  -6   3   6-75.3230 135.892   8
   6  -3  -5 192.020 283.661   4
  -6  -3   5 294.394 250.994   6
   6  -3  -5 4.66231 142.134   3
   6   3  -5 161.935 110.927   5
  -6  -3   5 99.0413 111.649   8
  -6   3   5 100.533 91.3986   8
   6  -3  -4 10.0154 135.546   4
  -6  -3   4-307.520 218.418   6
   6  -3  -4 85.5635 163.020   3
   6   3  -4 83.0205 72.6311   5
  -6  -3   4-44.2793 148.048   8
  -6   3   4-149.147 187.391   8
   6  -3  -3 2886.23 436.877   4
  -6  -3   3 3329.18 613.886   6
   6   3  -3 2885.45 481.705   5
   6  -3  -3 3183.37 623.407   3
  -6  -3   3 3384.59 574.653   8
  -6   3   3 3445.42 589.730   8
   6   3  -2 5415.97 759.938   2
  -6  -3   2 4941.66 756.302   6
   6  -3  -2 5209.54 813.262   3
  -6  -3   2 4982.72 662.567   8
  -6   3   2 6531.87 804.108   8
   6  -3  -1 1979.41 506.143   3
   6   3  -1 2055.57 467.724   2
  -6  -3   1 2043.89 425.989   8
  -6   3   1 2427.71 505.576   8
   6   3   0 37.6677 224.821   2
   6  -3   0-77.1821 212.455   3
  -6  -3   0-132.943 131.692   8
  -6   3   0 116.151 166.784   8
   6   3   1 842.456 328.649   2
   6  -3   1 1110.42 456.951   3
  -6  -3  -1 738.534 265.214   8
  -6   3  -1 684.079 316.474   8
   6   3   2 2127.62 505.490   2
   6  -3   2 2186.90 483.732   3
  -6  -3  -2 2291.11 472.679   8
  -6   3  -2 2471.46 507.537   8
   6  -3   3 64.4996 128.906   7
   6   3   3 324.543 267.828   2
   6  -3   3 182.138 233.076   3
  -6  -3  -3 61.9422 137.559   8
   6   3   4 3394.95 678.785   2
   6  -3   4 2756.24 510.053   7
   6  -3   4 2358.65 556.486   3
  -6  -3  -4 2579.60 501.655   8
   6   3   5 9494.65 1178.79   2
   6  -3   5 9981.20 1015.60   7
   6  -3   5 8266.71 1042.01   3
  -6  -3  -5 8551.43 915.790   8
   6   3   6 939.194 405.551   2
   6  -3   6 474.897 237.346   7
   6  -3   6 566.734 317.880   3
  -6  -3  -6 256.525 187.756   8
   6  -3   7 2701.51 582.236   7
   6  -3   7 3704.04 744.966   3
   6   3   7 4145.19 810.659   2
   6  -3   8 672.912 303.086   7
   6  -3   9-149.538 251.219   7
   6  -4  -8-210.374 176.342   4
   6  -4  -7 643.411 421.500   4
   6  -4  -6 375.232 318.652   4
   6  -4  -5 1337.94 439.607   3
   6  -4  -4 469.924 223.697   3
   6  -4  -3 218.964 251.957   3
  -7   0  16 1409.07 459.745   8
   7   0 -16 2266.46 527.795   5
  -7   0  15-107.625 220.337   8
   7   0 -15 24.9288 113.122   5
  -7   0  14 498.493 252.464   8
   7   0 -14 372.532 201.287   5
  -7   0  13-372.925 260.907   8
   7   0 -13 206.078 198.313   5
  -7   0  12 1647.64 435.838   8
   7   0 -12 1543.55 408.216   5
  -7   0  11 87.0625 136.009   8
   7   0 -11 18.8946 128.692   5
  -7   0  10 3243.11 651.256   8
   7   0 -10 4043.43 636.323   5
   7   0  -9 20.6474 153.636   3
   7   0  -9-180.107 126.188   5
  -7   0   9 162.864 282.224   8
   7   0  -8 1812.23 374.096   3
   7   0  -8 2141.59 459.902   5
  -7   0   8 1439.27 389.532   8
  -7   0   7 44.5856 104.306   6
   7   0  -7 49.6501 99.7581   5
   7   0  -7 100.294 298.133   3
  -7   0   7-306.532 246.423   8
  -7   0   6 130915. 2640.56   6
   7   0  -6 135072. 3406.12   3
   7   0  -6 147067. 3623.99   5
  -7   0   6 145328. 3901.78   8
  -7   0   5 33.5289 89.2561   6
   7   0  -5 67.6288 117.040   5
  -7   0   5 188.018 187.759   8
   7   0  -4 55952.1 1856.07   2
  -7   0   4 53667.5 1600.89   6
   7   0  -4 55298.0 2283.39   5
  -7   0   4 58551.6 2483.19   8
  -7   0   3 1.72779 102.903   6
   7   0  -3-37.5506 97.7480   2
  -7   0   3-37.4500 184.354   8
   7   0  -2 9139.53 738.686   2
  -7   0   2 10074.5 1031.56   8
   7   0  -1-12.5319 110.835   2
  -7   0   1-156.442 171.178   8
   7   0   0 2032.82 359.291   2
  -7   0   0 2267.72 492.975   8
   7   0   1-205.603 142.659   2
  -7   0  -1 75.8798 156.904   8
   7   0   2 8829.57 806.396   2
  -7   0  -2 9945.00 1014.89   8
   7   0   3-132.876 210.949   2
  -7   0  -3 3.49159 136.687   8
   7   0   4 6699.31 764.466   2
  -7   0  -4 6449.82 855.559   8
   7   0   5 141.057 143.525   2
  -7   0  -5 126.224 126.521   8
   7   0   6 968.027 366.155   2
  -7   0  -6 1206.54 403.704   8
   7   0   7 221.823 232.159   2
  -7   0  -7-43.8475 158.561   8
   7   0   8 2039.31 486.908   2
  -7   0  -8 2776.55 600.805   8
   7   0   9 150.514 300.419   2
  -7   0  -9-204.585 178.441   8
   7   0  10 723.110 399.068   7
   7   0  10 94.0154 290.487   2
  -7   0 -10 159.163 197.806   8
   7   0  11 301.176 406.400   2
   7   0  12 211.009 352.232   2
   7  -1 -17 308.860 113.999   5
  -7  -1  16 265.001 196.795   8
  -7   1  16 412.604 266.181   8
   7  -1 -16 455.441 207.917   5
   7   1 -16-59.8580 127.287   5
  -7  -1  15 550.243 222.881   8
  -7   1  15 314.738 164.940   8
   7  -1 -15 562.808 182.376   5
   7   1 -15 798.044 293.032   5
  -7  -1  14 96.9958 275.509   8
  -7   1  14 359.588 249.963   8
   7  -1 -14 560.069 245.192   5
   7   1 -14 941.692 333.309   5
  -7  -1  13 1050.46 448.643   8
  -7   1  13 740.056 296.734   8
   7  -1 -13 1302.62 385.190   5
   7   1 -13 1422.79 421.449   5
  -7  -1  12 2708.59 547.265   8
  -7   1  12 2111.49 530.844   8
   7  -1 -12 2935.10 559.299   5
   7   1 -12 3047.08 580.650   5
   7  -1 -11 6177.06 805.168   5
   7   1 -11 6998.75 857.734   5
  -7  -1  11 5639.71 816.302   8
  -7   1  11 5567.83 825.275   8
  -7   1  10-105.852 159.431   8
   7  -1 -10 95.3841 111.111   5
   7   1 -10-127.621 133.207   5
  -7  -1  10 162.427 144.543   8
   7  -1  -9 1644.88 318.175   3
   7  -1  -9 1955.80 467.182   5
   7   1  -9 1268.77 357.824   5
  -7  -1   9 1345.80 364.441   8
  -7   1   9 1165.64 361.083   8
  -7  -1   8 7734.13 816.583   6
   7  -1  -8 8734.95 749.635   3
   7  -1  -8 8245.06 861.698   5
   7   1  -8 9060.09 946.148   5
  -7  -1   8 8901.33 976.529   8
  -7   1   8 8478.33 945.423   8
  -7  -1   7 143.842 126.894   6
   7  -1  -7 658.474 178.376   3
   7  -1  -7 454.169 228.987   5
   7   1  -7 357.981 183.495   5
  -7  -1   7 717.612 225.213   8
  -7   1   7 6.17524 185.613   8
  -7  -1   6-78.6918 127.987   6
   7  -1  -6 252.693 128.875   5
   7  -1  -6 150.993 270.928   3
   7   1  -6 226.278 147.038   5
  -7  -1   6 150.571 159.107   8
  -7   1   6 442.847 197.223   8
   7  -1  -5 11447.9 682.960   2
  -7  -1   5 10953.1 937.748   6
   7  -1  -5 12802.9 1060.30   3
   7  -1  -5 11599.1 1005.33   5
   7   1  -5 11334.4 1016.23   5
  -7  -1   5 12239.9 1116.91   8
  -7   1   5 12088.4 1102.21   8
   7  -1  -4 45035.2 1361.88   2
  -7  -1   4 41684.5 1771.14   6
   7  -1  -4 45590.3 2062.23   3
   7   1  -4 46490.9 2103.02   5
  -7  -1   4 47938.2 2238.34   8
  -7   1   4 45672.2 2168.02   8
   7  -1  -3 49258.9 1428.52   2
   7   1  -3 51865.2 2061.54   2
  -7  -1   3 43608.8 1855.49   6
   7  -1  -3 47548.8 2215.98   3
   7   1  -3 48835.5 2171.87   5
  -7  -1   3 50066.6 2256.44   8
  -7   1   3 51091.2 2293.84   8
   7  -1  -2 13032.5 760.345   2
   7   1  -2 12051.8 1018.40   2
  -7  -1   2 11568.6 955.191   6
   7  -1  -2 13045.4 1147.75   3
  -7  -1   2 13215.0 1166.34   8
  -7   1   2 14279.0 1227.12   8
   7   1  -1 1574.32 371.103   2
   7  -1  -1 493.012 369.784   3
   7  -1  -1 1359.13 227.389   2
  -7  -1   1 1105.99 349.276   8
  -7   1   1 1210.53 369.678   8
   7   1   0 1746.06 392.698   2
   7  -1   0 1348.08 509.125   3
   7  -1   0 1777.17 287.421   2
  -7  -1   0 1979.16 473.636   8
  -7   1   0 1540.68 405.118   8
   7   1   1 12349.2 1050.86   2
   7  -1   1 11776.9 1197.84   3
  -7  -1  -1 10664.1 1034.80   8
  -7   1  -1 11249.4 1088.11   8
   7  -1   1 12915.6 855.300   2
   7   1   2 3004.90 499.698   2
   7  -1   2 2705.84 600.247   3
  -7  -1  -2 3329.15 616.578   8
  -7   1  -2 2967.70 571.030   8
   7  -1   2 3911.09 535.473   2
   7   1   3 214.775 195.556   2
   7  -1   3 134.572 214.652   2
   7  -1   3 453.987 411.528   3
  -7  -1  -3-35.8426 150.218   8
  -7   1  -3-77.4700 194.704   8
   7  -1   4 1842.12 376.989   2
   7  -1   4 1740.76 581.261   3
  -7  -1  -4 2139.77 487.531   8
  -7   1  -4 1952.75 469.228   8
   7   1   4 2030.84 472.900   2
   7  -1   5-256.084 172.649   2
   7  -1   5-161.592 421.232   3
  -7  -1  -5 179.369 215.078   8
  -7   1  -5-209.581 168.837   8
   7   1   5 146.100 187.455   2
   7  -1   6 2135.86 604.665   7
   7  -1   6 1948.85 464.733   2
   7  -1   6 765.313 421.281   3
   7   1   6 1041.78 307.869   2
  -7  -1  -6 1910.30 496.122   8
  -7   1  -6 1375.37 402.707   8
   7  -1   7 1129.66 441.696   7
   7  -1   7 247.909 277.946   2
   7   1   7 581.707 219.977   2
   7  -1   7 1085.94 524.048   3
  -7  -1  -7 612.043 320.754   8
  -7   1  -7 234.205 261.153   8
   7  -1   8 382.201 331.868   7
   7  -1   8 620.975 373.521   2
   7   1   8 774.451 318.417   2
   7  -1   8-18.5870 377.351   3
  -7  -1  -8 523.717 326.325   8
  -7   1  -8 318.747 191.377   8
   7  -1   9 7657.51 1129.17   7
   7  -1   9 5751.85 853.637   2
  -7  -1  -9 6822.34 946.347   8
  -7   1  -9 6969.83 949.752   8
   7   1   9 5273.46 777.899   2
   7  -1   9 4816.83 942.327   3
   7  -1  10 215.325 355.842   7
   7  -1  10 117.397 278.027   2
   7   1  10-404.505 447.942   2
   7  -1  10-359.143 518.899   3
  -7  -1 -10-90.0089 185.009   8
  -7   1 -10-199.791 233.711   8
   7  -1  11 651.107 442.721   2
  -7  -2  16 95.6641 213.139   8
   7  -2 -16 176.243 195.866   5
  -7  -2  15 411.566 292.894   8
  -7   2  15 159.491 193.078   8
   7  -2 -15 221.787 146.955   5
  -7  -2  14 1308.17 446.375   8
  -7   2  14 1532.00 458.272   8
   7  -2 -14 1969.41 457.009   5
   7   2 -14 1980.99 533.538   5
  -7  -2  13 1341.49 474.332   8
  -7   2  13 1114.96 395.527   8
   7  -2 -13 1339.25 399.698   5
   7   2 -13 1120.76 372.747   5
  -7   2  12 943.364 328.507   8
   7  -2 -12 1255.67 354.688   5
   7   2 -12 1774.74 441.848   5
  -7  -2  12 982.030 368.937   8
   7  -2 -11 87.0276 89.7148   5
   7   2 -11 195.868 236.988   5
  -7  -2  11 352.908 256.794   8
  -7   2  11 3.08865 123.735   8
   7  -2 -10 12447.1 973.676   3
  -7  -2  10 12569.5 1200.89   6
   7  -2 -10 13993.3 1153.39   5
   7   2 -10 14188.4 1239.49   5
  -7  -2  10 12760.5 1210.75   8
  -7   2  10 11443.8 1107.18   8
  -7  -2   9 1898.29 420.600   6
   7  -2  -9 2341.75 415.297   3
   7  -2  -9 2698.05 508.585   5
   7   2  -9 2892.44 569.814   5
  -7  -2   9 2569.46 544.038   8
  -7   2   9 1545.38 401.204   8
   7  -2  -8 9523.18 862.549   3
  -7  -2   8 8253.72 933.531   6
   7  -2  -8 10195.5 949.728   5
   7   2  -8 10021.7 1011.86   5
  -7  -2   8 8741.62 967.937   8
  -7   2   8 8836.60 950.045   8
  -7  -2   7 358.226 216.034   6
   7  -2  -7 458.801 282.030   3
   7   2  -7 477.825 258.721   5
  -7  -2   7 662.655 279.823   8
  -7   2   7 70.9770 160.332   8
  -7  -2   6 188.325 176.097   6
   7  -2  -6-9.95211 192.467   3
   7   2  -6-78.7922 169.448   5
  -7  -2   6-109.265 170.018   8
  -7   2   6-206.789 120.075   8
   7  -2  -5 1793.77 310.672   4
  -7  -2   5 2142.95 459.780   6
   7  -2  -5 1859.88 475.563   3
   7   2  -5 2366.16 488.948   5
  -7  -2   5 1850.69 449.170   8
  -7   2   5 1809.94 418.152   8
  -7  -2   4 1709.20 408.243   6
   7  -2  -4 1843.31 459.330   3
   7   2  -4 1704.04 399.884   5
  -7  -2   4 1462.99 418.761   8
  -7   2   4 2251.14 493.469   8
  -7  -2   3 2903.50 540.669   6
   7   2  -3 2784.20 504.965   5
   7  -2  -3 2114.53 520.165   3
   7   2  -3 3083.29 570.929   2
  -7  -2   3 3127.18 580.365   8
  -7   2   3 2690.24 560.186   8
   7  -2  -2 2202.17 422.235   7
  -7  -2   2 1846.95 447.097   6
   7   2  -2 1814.21 440.538   2
   7  -2  -2 1975.28 506.758   3
  -7  -2   2 2105.43 448.191   8
  -7   2   2 2191.62 496.068   8
   7  -2  -1 30807.7 1488.20   7
   7   2  -1 31448.3 1859.17   2
   7  -2  -1 26926.1 1763.98   3
  -7  -2   1 27865.8 1696.14   8
  -7   2   1 30403.8 1817.60   8
   7  -2   0 717.144 285.174   7
   7   2   0 1072.34 315.613   2
   7  -2   0 1283.74 439.219   3
  -7  -2   0 1123.98 386.682   8
  -7   2   0 1051.13 327.342   8
   7  -2   1 99.3738 177.138   7
   7   2   1-85.1640 158.780   2
  -7  -2  -1-88.8244 114.006   8
  -7   2  -1 39.1113 149.228   8
   7   2   2 1375.15 384.884   2
   7  -2   2 856.364 261.690   7
   7  -2   2 1533.30 498.103   3
  -7  -2  -2 1444.96 405.492   8
  -7   2  -2 1385.11 385.006   8
   7   2   3 1217.51 438.009   2
   7  -2   3 1038.82 323.822   7
   7  -2   3 555.173 302.560   3
  -7  -2  -3 776.465 338.518   8
  -7   2  -3 830.939 299.828   8
   7   2   4 3864.79 730.159   2
   7  -2   4 3801.86 633.276   7
   7  -2   4 2365.85 666.565   3
  -7  -2  -4 2872.73 579.892   8
  -7   2  -4 2620.28 554.578   8
   7   2   5 673.279 320.549   2
   7  -2   5 494.419 229.284   7
   7  -2   5 1058.25 500.683   3
  -7  -2  -5 1207.93 364.154   8
  -7   2  -5 931.345 367.185   8
   7  -2   6 3163.99 641.894   7
   7  -2   6 2495.46 643.130   3
  -7  -2  -6 3261.05 623.947   8
  -7   2  -6 3762.95 653.605   8
   7   2   6 3860.12 765.865   2
   7  -2   7 5878.03 901.298   7
  -7   2  -7 4849.06 776.598   8
   7  -2   7 4711.51 875.220   3
  -7  -2  -7 3726.33 684.381   8
   7   2   7 5437.83 915.066   2
   7  -2   8 3455.89 696.833   7
   7  -2   8 2890.63 684.212   3
   7   2   8 3976.38 795.688   2
  -7  -2  -8 2985.29 616.493   8
  -7   2  -8 3091.79 654.281   8
   7  -2   9 4414.83 863.911   7
  -7  -2  -9 3443.04 656.558   8
  -7   2  -9 3708.00 683.812   8
   7  -3 -12 1363.59 387.173   4
   7   3 -12 2132.59 494.486   5
   7  -3 -11-326.179 328.485   4
   7   3 -11 360.524 209.101   5
   7  -3 -10-81.6376 258.326   4
  -7  -3  10 178.819 236.146   6
   7   3 -10 258.972 238.131   5
   7  -3  -9 2995.98 543.698   4
   7  -3  -9 3897.44 659.222   3
  -7  -3   9 3656.84 703.783   6
   7   3  -9 4051.08 660.307   5
   7  -3  -8 1889.59 449.698   4
  -7  -3   8 2640.71 583.824   6
   7  -3  -8 2178.09 523.594   3
   7   3  -8 2721.60 529.150   5
   7  -3  -7 1431.04 286.756   4
  -7  -3   7 2301.29 562.726   6
   7  -3  -7 1853.40 478.783   3
   7   3  -7 1386.38 387.038   5
  -7   3   7 1748.59 417.429   8
  -7  -3   6 494.828 269.695   6
   7  -3  -6 573.480 355.425   3
   7   3  -6 1049.20 327.333   5
  -7   3   6 664.290 296.095   8
  -7  -3   5 92.7579 154.782   6
   7  -3  -5-78.5923 197.862   3
   7   3  -5 354.583 232.613   5
  -7   3   5 3.08740 250.285   8
  -7  -3   4 719.267 400.701   6
   7   3  -4 589.710 248.526   5
   7  -3  -4 188.956 206.335   3
   7   3  -4 735.283 339.359   2
  -7   3   4 655.682 264.077   8
  -7  -3   3 520.387 275.322   6
   7  -3  -3-74.7569 248.549   3
   7   3  -3 120.314 199.256   2
  -7  -3   3 138.988 142.409   8
  -7   3   3-213.823 287.469   8
   7  -3  -2 174.801 266.657   3
   7   3  -2 396.679 276.152   2
  -7  -3   2 54.3186 174.768   8
  -7   3   2 123.629 175.079   8
   7   3  -1-184.328 200.878   2
   7  -3  -1-266.698 302.369   3
  -7  -3   1 27.2664 122.610   8
   7   3   0-109.117 266.376   2
   7  -3   0-390.217 351.148   3
  -7  -3   0-194.379 209.637   8
   7   3   1 933.939 335.305   2
   7  -3   1 465.054 314.863   3
   7   3   2 214.095 138.378   2
   7  -3   2 278.955 331.609   3
   7   3   3 101.486 198.543   2
   7  -3   3-244.208 295.651   3
   7  -3   6 3110.33 607.386   7
   7  -3   7 267.706 257.783   7
   8   0 -15-191.369 217.426   5
  -8   0  14 326.367 352.806   8
   8   0 -14 33.1385 233.268   5
  -8   0  13 24.7201 172.734   8
   8   0 -13 343.597 276.242   5
   8   0 -12 9678.71 1084.24   5
  -8   0  12 7555.00 1029.10   8
   8   0 -11-1.38221 160.279   5
  -8   0  11 210.277 122.836   8
   8   0 -10 1427.94 382.069   5
  -8   0  10 1286.88 398.808   8
   8   0  -9-292.720 154.135   5
  -8   0   9 230.909 258.266   8
   8   0  -8 4933.37 707.158   5
   8   0  -8 4569.99 640.684   3
  -8   0   8 4553.11 724.574   8
   8   0  -7-81.3792 146.615   5
   8   0  -7 181.534 276.940   3
  -8   0   7-92.8443 135.039   8
   8   0  -6 2299.32 497.516   5
   8   0  -6 1613.96 490.804   3
  -8   0   6 1944.62 501.278   8
   8   0  -5 148.006 140.694   2
   8   0  -5-271.183 254.413   5
  -8   0   5 130.644 195.647   8
   8   0  -4 2069.08 391.125   2
  -8   0   4 2210.26 525.134   8
   8   0  -3-141.501 149.199   2
  -8   0   3-2.46126 193.940   8
   8   0  -2 6044.27 667.968   2
  -8   0   2 6260.55 891.041   8
   8   0  -1 172.353 133.893   2
  -8   0   1 642.262 317.952   8
   8   0   0 2529.68 440.759   2
  -8   0   0 2808.78 614.806   8
   8   0   1-27.3825 220.591   2
  -8   0  -1 21.9693 175.774   8
   8   0   2 18675.2 1262.21   2
  -8   0  -2 19565.4 1551.28   8
   8   0   3-261.986 226.744   2
  -8   0  -3 98.8487 157.669   8
   8   0   4 302.406 159.248   2
  -8   0  -4 152.469 161.940   8
   8   0   5 12.1985 188.933   2
  -8   0  -5-187.196 156.034   8
   8   0   6 5388.19 765.255   2
  -8   0  -6 5309.26 806.213   8
   8   0   7-411.022 310.202   2
  -8   0  -7-438.579 358.792   8
   8   0   8 1111.42 451.903   2
   8   0   9-234.391 340.833   2
   8   0  10 12660.1 1400.44   2
   8  -1 -15 1584.63 472.267   5
  -8  -1  14-311.513 288.064   8
  -8   1  14-198.894 269.139   8
   8  -1 -14 185.602 281.148   5
   8   1 -14 125.248 112.737   5
  -8   1  13 780.489 409.279   8
   8  -1 -13 61.0709 145.584   5
   8   1 -13 424.946 238.850   5
  -8  -1  13 433.846 262.924   8
   8  -1 -12 2018.10 499.342   5
   8   1 -12 2072.51 516.017   5
  -8  -1  12 1137.46 413.310   8
  -8   1  12 1112.68 414.273   8
   8  -1 -11 174.004 224.184   5
   8   1 -11 149.073 99.5124   5
  -8  -1  11-314.155 237.624   8
  -8   1  11-56.4288 176.502   8
  -8  -1  10 4112.53 610.695   6
   8  -1 -10 6057.15 809.875   5
   8   1 -10 6443.56 849.406   5
  -8  -1  10 3726.94 716.687   8
  -8   1  10 3865.22 716.493   8
  -8  -1   9 1127.20 356.178   6
   8  -1  -9 2498.45 522.697   5
   8   1  -9 1762.68 452.711   5
  -8  -1   9 1859.94 550.933   8
  -8   1   9 1640.01 449.141   8
  -8  -1   8 605.661 277.114   6
   8  -1  -8 12.0304 182.836   3
   8  -1  -8 318.383 186.459   5
   8   1  -8 446.531 250.618   5
  -8  -1   8 155.680 202.951   8
  -8   1   8 152.367 140.994   8
  -8  -1   7 5874.95 710.271   6
   8  -1  -7 6374.31 738.114   3
   8  -1  -7 6469.33 828.999   5
   8   1  -7 6651.00 827.430   5
  -8  -1   7 5316.07 842.300   8
  -8   1   7 5163.31 790.617   8
  -8  -1   6 4675.50 648.648   6
   8  -1  -6 5396.96 740.379   5
   8   1  -6 5102.94 741.889   5
   8  -1  -6 5261.65 708.260   3
  -8  -1   6 5412.63 827.496   8
  -8   1   6 4528.31 758.046   8
  -8  -1   5 6431.10 747.588   6
   8  -1  -5 7486.18 910.436   3
   8   1  -5 8953.78 997.857   5
  -8  -1   5 7831.41 998.896   8
  -8   1   5 7255.80 934.114   8
  -8  -1   4 2448.57 449.974   6
   8   1  -4 2792.79 529.898   5
   8   1  -4 2881.05 536.856   2
   8  -1  -4 2692.61 623.158   3
  -8  -1   4 2593.99 574.198   8
  -8   1   4 2821.11 606.316   8
   8   1  -3 4790.55 675.072   2
  -8  -1   3 5311.51 816.923   8
   8  -1  -3 6088.51 863.710   3
  -8   1   3 5361.44 817.105   8
   8   1  -2 234.372 201.630   2
   8  -1  -2 516.275 344.727   3
  -8  -1   2 235.355 219.116   8
  -8   1   2 373.519 285.478   8
   8   1  -1 1672.15 412.214   2
   8  -1  -1 1243.81 445.224   3
  -8  -1   1 1421.69 433.986   8
  -8   1   1 1904.08 486.679   8
   8   1   0 334.743 181.324   2
   8  -1   0 530.463 411.795   3
  -8  -1   0 406.075 254.006   8
  -8   1   0 261.264 204.074   8
   8   1   1 29.7125 129.965   2
   8  -1   1 38.9416 347.675   3
  -8  -1  -1 126.259 173.242   8
  -8   1  -1 103.946 137.693   8
   8   1   2 1417.26 411.801   2
   8  -1   2 1477.72 516.432   3
  -8  -1  -2 1371.23 440.362   8
  -8   1  -2 1375.63 401.042   8
   8   1   3 1526.70 391.565   2
   8  -1   3 1284.91 523.423   3
  -8  -1  -3 1979.84 532.249   8
  -8   1  -3 1422.71 396.919   8
   8   1   4 6383.94 852.185   2
  -8  -1  -4 7504.28 990.348   8
  -8   1  -4 7383.91 997.949   8
   8  -1   4 6096.52 814.023   3
   8  -1   5 455.070 403.402   3
  -8  -1  -5 1256.31 458.921   8
  -8   1  -5 1363.75 459.171   8
   8   1   5 570.850 358.961   2
   8  -1   6 213.612 237.313   7
   8   1   6 332.174 233.033   2
  -8  -1  -6 435.557 264.692   8
  -8   1  -6-230.707 281.324   8
   8  -1   7 2002.73 585.039   7
   8   1   7 1601.56 459.788   2
   8  -1   7 1639.65 553.117   3
  -8  -1  -7 2271.11 545.678   8
  -8   1  -7 1404.70 463.663   8
   8   1   8 6053.83 999.877   2
   8  -2 -15-226.160 262.901   5
   8  -2 -14 869.065 312.536   5
  -8  -2  14 433.095 272.835   8
  -8  -2  13 1339.99 419.239   6
   8  -2 -13 2487.40 506.263   5
  -8  -2  13 1691.13 487.394   8
  -8   2  13 1486.45 485.385   8
  -8  -2  12 306.329 187.720   6
   8  -2 -12 134.607 108.022   5
   8   2 -12 37.7827 141.329   5
  -8  -2  12 221.217 170.966   8
  -8   2  12 134.063 123.224   8
  -8  -2  11 207.423 215.685   6
   8  -2 -11 163.252 173.732   5
   8   2 -11-467.371 320.261   5
  -8  -2  11 88.2921 163.675   8
  -8   2  11 35.3278 145.711   8
  -8  -2  10 181.627 165.436   6
   8  -2 -10 216.288 210.029   5
   8   2 -10 175.405 168.267   5
  -8  -2  10 144.895 180.443   8
  -8   2  10 54.3602 223.966   8
  -8  -2   9 186.884 281.223   6
   8  -2  -9-44.8079 92.8453   5
   8  -2  -9 100.854 152.693   3
   8   2  -9 323.020 131.357   5
  -8  -2   9 238.863 181.483   8
  -8   2   9 32.9982 126.771   8
  -8  -2   8 867.656 328.842   6
   8  -2  -8 830.468 305.762   3
   8   2  -8 750.348 265.033   5
  -8  -2   8 665.316 311.355   8
  -8   2   8 665.128 284.433   8
  -8  -2   7 158.793 197.281   6
   8  -2  -7 158.440 217.204   3
   8   2  -7-113.544 178.720   5
  -8  -2   7-189.067 211.446   8
  -8   2   7 245.533 117.079   8
  -8  -2   6 2575.71 572.677   6
   8  -2  -6 2674.76 534.475   3
   8   2  -6 2902.45 587.783   5
  -8  -2   6 2046.68 537.618   8
  -8   2   6 2959.65 625.213   8
  -8  -2   5 774.327 290.208   6
   8  -2  -5 571.146 262.610   3
   8   2  -5 854.229 312.231   5
  -8  -2   5 817.625 335.976   8
  -8   2   5 895.319 334.541   8
   8   2  -4 6151.37 833.941   2
  -8  -2   4 5142.46 786.207   6
   8  -2  -4 4814.79 738.488   3
  -8  -2   4 4784.31 782.026   8
  -8   2   4 5690.31 866.486   8
   8   2  -3 17307.4 1413.67   2
   8  -2  -3 16516.9 1419.43   3
  -8  -2   3 17340.6 1466.17   8
  -8   2   3 17285.4 1486.62   8
   8   2  -2 29501.4 1878.45   2
   8  -2  -2 25514.0 1774.42   3
  -8  -2   2 28689.2 1847.25   8
  -8   2   2 28125.2 1901.00   8
   8   2  -1 1959.12 488.578   2
   8  -2  -1 2508.85 628.282   3
  -8  -2   1 1911.88 497.934   8
  -8   2   1 2268.15 544.882   8
   8  -2   0 222.930 171.779   7
   8   2   0 81.1443 191.896   2
   8  -2   0-104.955 282.879   3
  -8  -2   0 17.7529 271.351   8
  -8   2   0 175.628 237.524   8
   8  -2   1-70.2660 166.406   7
   8   2   1-437.910 343.418   2
   8  -2   1-301.995 379.391   3
  -8  -2  -1-223.301 148.566   8
  -8   2  -1 31.0643 178.109   8
   8   2   2 1163.57 358.461   2
   8  -2   2 1484.54 386.111   7
   8  -2   2 621.338 407.393   3
  -8  -2  -2 1020.65 414.738   8
  -8   2  -2 467.721 223.998   8
   8   2   3 559.563 330.437   2
   8  -2   3-203.295 253.280   7
  -8  -2  -3 32.1982 196.130   8
  -8   2  -3 388.817 304.740   8
   8   2   4 451.717 339.579   2
   8  -2   4 317.477 232.021   7
  -8  -2  -4-131.496 317.715   8
  -8   2  -4 20.0403 218.454   8
   8  -2   5 184.339 208.284   7
  -8  -2  -5 179.325 209.640   8
  -8   2  -5 96.9214 166.634   8
   8   2   5-490.265 265.426   2
   8  -2   6 5137.07 875.157   7
  -8  -2  -6 4555.65 778.527   8
  -8   2  -6 4411.83 766.298   8
   8  -2   7 598.454 295.126   7
   8   3 -10 575.234 302.134   5
   8   3  -9 5264.58 783.319   5
   8  -3  -9 3603.89 676.973   3
   8  -3  -8 14.8375 230.297   3
   8   3  -8 71.3064 128.236   5
   8  -3  -7 6706.00 924.867   3
   8   3  -7 8056.82 928.301   5
  -8  -3   6 567.819 330.607   6
   8  -3  -6 617.876 309.836   3
   8   3  -6 664.042 283.100   5
  -8  -3   5 216.276 150.576   6
   8  -3  -5 480.818 300.203   3
  -8  -3   4 1645.94 518.925   6
   8  -3  -4 1387.46 553.993   3
   8  -3  -3 1478.80 483.864   3
   8  -3  -2 1295.94 506.146   3
   8  -3  -1 7659.21 1161.88   3
   9   0 -12 1687.55 461.347   5
   9   0 -11-119.358 136.374   5
  -9   0  11 155.052 209.679   8
   9   0 -10 6108.21 863.048   5
  -9   0  10 3507.70 701.950   8
   9   0  -9 63.3303 124.162   5
  -9   0   9 156.820 162.553   8
   9   0  -8 1106.77 355.405   5
  -9   0   8 455.168 301.747   8
   9   0  -7 87.9045 153.274   5
   9   0  -7 93.2719 83.7796   2
  -9   0   7 119.198 200.949   8
   9   0  -6 3927.78 564.593   2
   9   0  -6 3550.27 662.437   5
   9   0  -6 3828.70 729.454   3
  -9   0   6 3388.32 726.266   8
   9   0  -5-9.75137 126.303   2
   9   0  -5 2.02162 376.671   3
  -9   0   5-196.605 203.920   8
   9   0  -4 688.126 250.419   2
  -9   0   4 1070.22 412.798   8
   9   0  -3-61.7040 113.804   2
  -9   0   3 61.8637 178.938   8
   9   0  -2-76.3158 185.395   2
  -9   0   2-45.6724 187.401   8
   9   0  -1-142.386 223.331   2
  -9   0   1 41.0183 231.693   8
   9   0   0 147.129 162.238   2
  -9   0   0-630.287 385.926   8
  -9   0  -1 354.054 247.565   8
   9   0   1 160.968 182.265   2
   9   0   2 737.476 245.048   2
  -9   0  -2 492.643 269.000   8
   9   0   3 70.9641 240.862   2
  -9   0  -3-128.100 259.563   8
   9   0   4 152.781 175.937   2
  -9   0  -4 92.1007 182.748   8
   9   0   5-150.398 257.021   2
   9   0   6 28.3435 263.577   2
   9   0   7-155.532 374.443   2
   9  -1 -12 2012.97 496.079   5
   9  -1 -11 101.706 144.783   5
  -9  -1  11 373.187 246.636   8
  -9   1  11 190.548 142.169   8
   9  -1 -10 492.257 217.739   5
   9   1 -10 158.458 182.890   5
  -9  -1  10 231.786 226.342   8
  -9   1  10-160.180 294.008   8
   9  -1  -9 22.9871 156.786   5
   9   1  -9 45.3155 213.857   5
  -9  -1   9-91.4653 297.389   8
  -9   1   9-177.210 284.063   8
   9  -1  -8 3354.23 627.505   5
   9   1  -8 2983.84 616.808   5
  -9  -1   8 2758.46 655.783   8
  -9   1   8 2178.38 574.442   8
   9  -1  -7 2676.71 505.071   3
   9   1  -7 2756.32 588.395   5
  -9  -1   7 1932.90 536.611   8
  -9   1   7 2313.64 588.779   8
   9   1  -6 139.305 130.377   5
   9   1  -6-8.12548 150.232   2
   9  -1  -6-95.3668 272.760   3
  -9  -1   6 261.247 184.166   8
  -9   1   6-1.90046 179.721   8
   9   1  -5 12327.7 1128.68   2
   9  -1  -5 10431.4 1075.26   3
  -9  -1   5 10294.9 1230.56   8
  -9   1   5 10924.0 1265.64   8
   9   1  -4 108.393 118.919   2
   9  -1  -4-35.3299 316.659   3
  -9  -1   4 298.115 170.370   8
  -9   1   4 515.638 403.149   8
   9   1  -3 3555.29 643.441   2
   9  -1  -3 3151.60 623.873   3
  -9  -1   3 2994.47 640.772   8
  -9   1   3 3106.49 678.423   8
   9   1  -2-64.4302 197.878   2
   9  -1  -2-337.302 423.251   3
  -9  -1   2 301.202 246.680   8
  -9   1   2 22.6863 141.548   8
   9   1  -1 5097.19 754.229   2
  -9  -1   1 5063.34 872.443   8
   9  -1  -1 3873.66 730.020   3
  -9   1   1 4546.31 822.235   8
   9   1   0 67.9281 148.023   2
   9  -1   0 747.031 536.903   3
  -9  -1   0-135.805 163.762   8
  -9   1   0 586.613 434.564   8
   9   1   1-24.5770 145.221   2
  -9  -1  -1-139.827 219.528   8
  -9   1  -1-184.878 273.890   8
   9   1   2 327.175 287.546   2
   9  -1   2 235.610 477.257   3
  -9  -1  -2 95.0893 307.318   8
  -9   1  -2 62.9752 224.324   8
   9  -1   3 983.856 540.542   3
  -9  -1  -3 2153.78 553.170   8
  -9   1  -3 2360.36 603.873   8
   9   1   3 2033.85 500.886   2
   9   1   4-130.103 272.256   2
   9  -1   5 865.556 348.882   7
   9   1   5 344.904 269.862   2
   9  -2 -12 1370.89 453.257   5
   9  -2 -11 476.857 177.700   5
  -9  -2  10 1659.63 472.586   6
  -9  -2  10 2605.71 652.634   8
  -9  -2   9 2.82145 267.290   6
  -9  -2   9 187.176 211.160   8
  -9   2   9 234.862 121.596   8
  -9  -2   8 821.759 344.116   6
   9   2  -8 1017.22 371.038   5
  -9  -2   8 904.240 303.264   8
  -9   2   8 1042.99 405.639   8
  -9  -2   7 1353.33 341.829   6
   9  -2  -7 2921.48 602.554   3
   9   2  -7 3741.78 683.190   5
  -9  -2   7 2251.17 540.682   8
  -9   2   7 3468.85 716.822   8
  -9  -2   6 8446.69 1040.79   6
   9   2  -6 10846.6 1156.25   2
   9  -2  -6 9967.78 1098.25   3
   9   2  -6 10598.2 1152.48   5
  -9  -2   6 11641.0 1308.69   8
  -9   2   6 10481.3 1173.36   8
  -9  -2   5 2047.72 495.289   6
   9  -2  -5 2968.32 631.729   3
   9   2  -5 2456.94 558.645   2
  -9  -2   5 3013.19 641.663   8
  -9   2   5 2866.57 650.875   8
   9   2  -4 264.228 248.988   2
   9  -2  -4-496.176 489.864   3
  -9  -2   4-101.491 212.769   8
  -9   2   4-130.160 245.539   8
   9   2  -3 82.2253 194.044   2
   9  -2  -3 186.157 414.893   3
  -9  -2   3 68.9459 237.303   8
  -9   2   3-562.847 321.410   8
   9   2  -2 122.781 209.630   2
   9  -2  -2 259.756 462.061   3
  -9  -2   2-303.232 268.064   8
  -9   2   2-388.938 325.717   8
   9   2  -1 34.4777 223.536   2
   9  -2  -1 637.572 477.751   3
  -9  -2   1 843.598 454.818   8
  -9   2   1 333.742 184.779   8
   9   2   0-79.0823 270.466   2
  -9  -2   0-267.083 273.966   8
  -9   2   0-164.617 210.372   8
  -9  -2  -1 98.1065 197.941   8
  -9   2  -1 395.667 290.976   8
  -9  -2  -2 2280.56 550.893   8
  -9   2  -2 3601.16 752.753   8
   9  -2   3 3845.85 664.939   7
   9  -2   4 135.053 334.412   7
  10   0  -5 1391.41 517.739   3
  10   0  -4 17605.3 1590.40   3
  10   0  -3 857.987 409.294   3
  10   1  -8 101.668 152.577   2
  10   1  -7 348.998 222.705   2
  10   1  -6 5083.65 773.308   2
  10  -1  -6 4669.52 734.836   3
  10   1  -5 5220.18 759.010   2
  10  -1  -5 4419.37 747.420   3
  10   1  -4 1696.27 436.929   2
  10  -1  -4 1531.96 547.936   3
  10   1  -3 2457.82 552.855   2
  10  -1  -3 1597.33 520.322   3
  10   1  -2 667.977 336.836   2
  10  -1  -2-347.154 475.284   3
  10   1  -1 788.691 328.291   2
  10  -1  -1 1181.25 580.267   3
  10   1   0 114.629 275.144   2
  10   1   1 1675.74 475.230   2
  10   1   2 2093.04 505.247   2
  10  -2  -6 1278.03 497.857   3
  10  -2  -5-107.468 248.777   3
   0   0   0    0.00    0.00   0
TITL BKS-SS-D--ANTH-163K-SS in P2(1)/c
REM P2(1)/c (#14 in standard setting)
CELL 0.71073   7.878017   3.914658  15.688574  90.0000 102.5686  90.0000
ZERR    2.00   0.000557   0.000367   0.001418   0.0000   0.0074   0.0000
LATT  1
SYMM -x, y+1/2,-z+1/2
SFAC C H O
UNIT 24.00 16.00 4.00
TREF
HKLF 4
END
;
_shelx_hkl_checksum              98790
_olex2_submission_special_instructions 'No special instructions were received'
loop_
_space_group_symop_operation_xyz
'x, y, z'
'-x, y+1/2, -z+1/2'
'-x, -y, -z'
'x, -y-1/2, z-1/2'
loop_
_atom_site_label
_atom_site_type_symbol
_atom_site_fract_x
_atom_site_fract_y
_atom_site_fract_z
_atom_site_U_iso_or_equiv
_atom_site_adp_type
_atom_site_occupancy
_atom_site_site_symmetry_order
_atom_site_calc_flag
_atom_site_refinement_flags_posn
_atom_site_refinement_flags_adp
_atom_site_refinement_flags_occupancy
_atom_site_disorder_assembly
_atom_site_disorder_group
C2 C 0.43468(18) 0.6546(4) 0.41468(9) 0.0270(4) Uani 1 1 d . . . . .
C7 C 0.32576(18) 0.6398(4) 0.47454(9) 0.0268(4) Uani 1 1 d . . . . .
C1 C 0.61442(18) 0.5138(4) 0.43773(10) 0.0293(4) Uani 1 1 d . . . . .
C5 C 0.09819(19) 0.9159(4) 0.36920(11) 0.0354(4) Uani 1 1 d . . . . .
H5 H -0.016362 1.006065 0.353728 0.043 Uiso 1 1 calc R U . . .
O1 O 0.70941(15) 0.5237(4) 0.38558(8) 0.0458(4) Uani 1 1 d . . . . .
C3 C 0.3730(2) 0.7991(4) 0.33263(10) 0.0327(4) Uani 1 1 d . . . . .
H3 H 0.446024 0.808236 0.291828 0.039 Uiso 1 1 calc R U . . .
C6 C 0.15754(19) 0.7709(4) 0.45076(10) 0.0320(4) Uani 1 1 d . . . . .
H6 H 0.083000 0.760677 0.490843 0.038 Uiso 1 1 calc R U . . .
C4 C 0.2056(2) 0.9297(4) 0.31019(10) 0.0357(4) Uani 1 1 d . . . . .
H4 H 0.164469 1.028871 0.254224 0.043 Uiso 1 1 calc R U . . .
loop_
_atom_site_aniso_label
_atom_site_aniso_U_11
_atom_site_aniso_U_22
_atom_site_aniso_U_33
_atom_site_aniso_U_23
_atom_site_aniso_U_13
_atom_site_aniso_U_12
C2 0.0250(7) 0.0266(8) 0.0288(7) -0.0036(6) 0.0045(5) -0.0024(6)
C7 0.0235(7) 0.0263(8) 0.0298(8) -0.0040(6) 0.0042(5) -0.0026(6)
C1 0.0252(7) 0.0344(9) 0.0296(8) -0.0030(6) 0.0086(6) -0.0025(6)
C5 0.0262(8) 0.0338(9) 0.0421(9) -0.0034(7) -0.0017(6) 0.0022(6)
O1 0.0338(6) 0.0709(10) 0.0370(7) 0.0087(6) 0.0170(5) 0.0087(6)
C3 0.0344(8) 0.0346(9) 0.0288(8) -0.0011(6) 0.0065(6) -0.0010(6)
C6 0.0250(7) 0.0334(9) 0.0376(8) -0.0032(6) 0.0072(6) -0.0005(6)
C4 0.0368(9) 0.0358(9) 0.0303(8) 0.0001(6) -0.0019(6) 0.0011(7)
loop_
_atom_type_symbol
_atom_type_description
_atom_type_scat_dispersion_real
_atom_type_scat_dispersion_imag
_atom_type_scat_source
C C 0.0033 0.0016 'International Tables Vol C Tables 4.2.6.8 and 6.1.1.4'
H H 0.0000 0.0000 'International Tables Vol C Tables 4.2.6.8 and 6.1.1.4'
O O 0.0106 0.0060 'International Tables Vol C Tables 4.2.6.8 and 6.1.1.4'
loop_
_geom_angle_atom_site_label_1
_geom_angle_atom_site_label_2
_geom_angle_atom_site_label_3
_geom_angle
_geom_angle_site_symmetry_1
_geom_angle_site_symmetry_3
_geom_angle_publ_flag
C7 C2 C1 120.62(13) . . ?
C3 C2 C7 119.57(14) . . ?
C3 C2 C1 119.80(13) . . ?
C2 C7 C1 121.39(13) . 3_666 ?
C6 C7 C2 119.30(14) . . ?
C6 C7 C1 119.31(13) . 3_666 ?
C7 C1 C2 117.99(12) 3_666 . ?
O1 C1 C2 120.89(14) . . ?
O1 C1 C7 121.12(14) . 3_666 ?
C6 C5 H5 120.0 . . ?
C4 C5 H5 120.0 . . ?
C4 C5 C6 120.10(14) . . ?
C2 C3 H3 119.8 . . ?
C4 C3 C2 120.38(15) . . ?
C4 C3 H3 119.8 . . ?
C7 C6 H6 119.7 . . ?
C5 C6 C7 120.55(14) . . ?
C5 C6 H6 119.7 . . ?
C5 C4 C3 120.10(15) . . ?
C5 C4 H4 119.9 . . ?
C3 C4 H4 119.9 . . ?
loop_
_geom_bond_atom_site_label_1
_geom_bond_atom_site_label_2
_geom_bond_distance
_geom_bond_site_symmetry_2
_geom_bond_publ_flag
C2 C7 1.4045(19) . ?
C2 C1 1.489(2) . ?
C2 C3 1.393(2) . ?
C7 C1 1.482(2) 3_666 ?
C7 C6 1.394(2) . ?
C1 O1 1.2236(17) . ?
C5 H5 0.9500 . ?
C5 C6 1.385(2) . ?
C5 C4 1.384(2) . ?
C3 H3 0.9500 . ?
C3 C4 1.387(2) . ?
C6 H6 0.9500 . ?
C4 H4 0.9500 . ?
loop_
_geom_torsion_atom_site_label_1
_geom_torsion_atom_site_label_2
_geom_torsion_atom_site_label_3
_geom_torsion_atom_site_label_4
_geom_torsion
_geom_torsion_site_symmetry_1
_geom_torsion_site_symmetry_2
_geom_torsion_site_symmetry_3
_geom_torsion_site_symmetry_4
_geom_torsion_publ_flag
C2 C7 C6 C5 -0.3(2) . . . . ?
C2 C3 C4 C5 -0.3(2) . . . . ?
C7 C2 C1 C7 -0.3(2) . . . 3_666 ?
C7 C2 C1 O1 179.45(14) . . . . ?
C7 C2 C3 C4 0.4(2) . . . . ?
C1 C2 C7 C1 0.3(2) . . . 3_666 ?
C1 C2 C7 C6 -179.39(13) . . . . ?
C1 C2 C3 C4 179.69(14) . . . . ?
C1 C7 C6 C5 179.98(14) 3_666 . . . ?
C3 C2 C7 C1 179.58(14) . . . 3_666 ?
C3 C2 C7 C6 -0.1(2) . . . . ?
C3 C2 C1 C7 -179.57(14) . . . 3_666 ?
C3 C2 C1 O1 0.2(2) . . . . ?
C6 C5 C4 C3 -0.1(2) . . . . ?
C4 C5 C6 C7 0.4(2) . . . . ?
