#------------------------------------------------------------------------------
#$Date: 2021-05-14 04:08:02 +0300 (Fri, 14 May 2021) $
#$Revision: 265202 $
#$URL: file:///home/coder/svn-repositories/cod/cif/1/56/25/1562553.cif $
#------------------------------------------------------------------------------
#
# This file is available in the Crystallography Open Database (COD),
# http://www.crystallography.net/
#
# All data on this site have been placed in the public domain by the
# contributors.
#
data_1562553
loop_
_publ_author_name
'Grundy, Matthew'
'Yuan, Kang'
'Nichol, Gary Stephen'
'Ingleson, Michael James'
_publ_section_title
;
 Zinc catalysed electrophilic C-H borylation of heteroarenes
;
_journal_name_full               'Chemical Science'
_journal_paper_doi               10.1039/D1SC01883C
_journal_year                    2021
_chemical_formula_moiety         'C15 H11 B Br N O2'
_chemical_formula_sum            'C15 H11 B Br N O2'
_chemical_formula_weight         327.97
_chemical_name_systematic
3-(1,3,2-benzodioxaborole)5-bromo-N-methylindole
_space_group_crystal_system      monoclinic
_space_group_IT_number           7
_space_group_name_Hall           'P -2yc'
_space_group_name_H-M_alt        'P 1 c 1'
_atom_sites_solution_hydrogens   geom
_atom_sites_solution_primary     dual
_audit_creation_date             2021-03-04
_audit_creation_method
;
Olex2 1.3
(compiled 2020.11.12 svn.r5f609507 for OlexSys, GUI svn.r6272)
;
_audit_update_record
;
2021-03-30 deposited with the CCDC.	2021-05-13 downloaded from the CCDC.
;
_cell_angle_alpha                90
_cell_angle_beta                 113.246(6)
_cell_angle_gamma                90
_cell_formula_units_Z            2
_cell_length_a                   11.8776(6)
_cell_length_b                   4.6452(2)
_cell_length_c                   12.9310(6)
_cell_measurement_reflns_used    3593
_cell_measurement_temperature    119.99(11)
_cell_measurement_theta_max      27.5390
_cell_measurement_theta_min      3.9470
_cell_volume                     655.53(6)
_computing_cell_refinement       'CrysAlisPro 1.171.40.53 (Rigaku OD, 2019)'
_computing_data_collection       'CrysAlisPro 1.171.40.53 (Rigaku OD, 2019)'
_computing_data_reduction        'CrysAlisPro 1.171.40.53 (Rigaku OD, 2019)'
_computing_molecular_graphics    'Olex2 1.3 (Dolomanov et al., 2009)'
_computing_publication_material  'Olex2 1.3 (Dolomanov et al., 2009)'
_computing_structure_refinement  'SHELXL 2018/3 (Sheldrick, 2015)'
_computing_structure_solution    'SHELXT 2018/2 (Sheldrick, 2018)'
_diffrn_ambient_environment      N~2~
_diffrn_ambient_temperature      119.99(11)
_diffrn_detector                 'CCD plate'
_diffrn_detector_area_resol_mean 8.0521
_diffrn_detector_type            Eos
_diffrn_measured_fraction_theta_full 0.998
_diffrn_measured_fraction_theta_max 0.863
_diffrn_measurement_details
;
List of Runs (angles in degrees, time in seconds):

  # Type    Start    End  Width  t~exp~   \w     \q     \k     \f   Frames
#--------------------------------------------------------------------------
  1  \w    -45.00  56.00   1.00   12.50    --  -15.66  20.00 153.00  101
  2  \w    -87.00  13.00   1.00   12.50    --  -15.66 -20.00 -13.00  100
  3  \w    -12.00  89.00   1.00   12.50    --   17.54  20.00 153.00  101
  4  \w    -54.00  10.00   1.00   12.50    --   17.54 -20.00 -13.00   64
  5  \w    -87.00 -40.00   1.00   12.50    --  -15.66-178.00 150.00   47
  6  \w      2.00  79.00   1.00   12.50    --   17.54  57.00-180.00   77
  7  \w     -1.00  39.00   1.00   12.50    --   17.54  77.00  90.00   40
  8  \w     -8.00  29.00   1.00   12.50    --   17.54  77.00-150.00   37
;
_diffrn_measurement_device       'four-circle diffractometer'
_diffrn_measurement_device_type  'Xcalibur, Eos'
_diffrn_measurement_method       '\w scans'
_diffrn_orient_matrix_type
'CrysAlisPro convention (1999,Acta A55,543-557)'
_diffrn_orient_matrix_UB_11      0.0575972000
_diffrn_orient_matrix_UB_12      -0.0141971000
_diffrn_orient_matrix_UB_13      -0.0040251000
_diffrn_orient_matrix_UB_21      -0.0300183000
_diffrn_orient_matrix_UB_22      -0.0380266000
_diffrn_orient_matrix_UB_23      -0.0575750000
_diffrn_orient_matrix_UB_31      -0.0022089000
_diffrn_orient_matrix_UB_32      0.1471952000
_diffrn_orient_matrix_UB_33      -0.0152644000
_diffrn_radiation_monochromator  graphite
_diffrn_radiation_probe          x-ray
_diffrn_radiation_type           'Mo K\a'
_diffrn_radiation_wavelength     0.71073
_diffrn_reflns_av_R_equivalents  0.0362
_diffrn_reflns_av_unetI/netI     0.0449
_diffrn_reflns_Laue_measured_fraction_full 0.998
_diffrn_reflns_Laue_measured_fraction_max 0.863
_diffrn_reflns_limit_h_max       15
_diffrn_reflns_limit_h_min       -14
_diffrn_reflns_limit_k_max       5
_diffrn_reflns_limit_k_min       -6
_diffrn_reflns_limit_l_max       17
_diffrn_reflns_limit_l_min       -16
_diffrn_reflns_number            7683
_diffrn_reflns_point_group_measured_fraction_full 0.888
_diffrn_reflns_point_group_measured_fraction_max 0.726
_diffrn_reflns_theta_full        25.242
_diffrn_reflns_theta_max         29.492
_diffrn_reflns_theta_min         3.429
_diffrn_source                   'fine-focus sealed X-ray tube'
_diffrn_source_type              'Enhance (Mo) X-ray Source'
_exptl_absorpt_coefficient_mu    3.134
_exptl_absorpt_correction_T_max  1.00000
_exptl_absorpt_correction_T_min  0.97097
_exptl_absorpt_correction_type   multi-scan
_exptl_absorpt_process_details
;
CrysAlisPro 1.171.40.53 (Rigaku Oxford Diffraction, 2019)
Empirical absorption correction using spherical harmonics,
 implemented in SCALE3 ABSPACK scaling algorithm.
;
_exptl_crystal_colour            'clear colourless'
_exptl_crystal_colour_lustre     clear
_exptl_crystal_colour_primary    colourless
_exptl_crystal_density_diffrn    1.662
_exptl_crystal_description       plate
_exptl_crystal_F_000             328
_exptl_crystal_recrystallization_method
'Re-crystallisation from solvent: Chlorobenzene'
_exptl_crystal_size_max          0.298
_exptl_crystal_size_mid          0.14
_exptl_crystal_size_min          0.105
_refine_diff_density_max         0.434
_refine_diff_density_min         -0.552
_refine_diff_density_rms         0.083
_refine_ls_abs_structure_details
;
 Flack x determined using 983 quotients [(I+)-(I-)]/[(I+)+(I-)]
 (Parsons, Flack and Wagner, Acta Cryst. B69 (2013) 249-259).
;
_refine_ls_abs_structure_Flack   -0.017(8)
_refine_ls_extinction_method     none
_refine_ls_goodness_of_fit_ref   1.041
_refine_ls_hydrogen_treatment    constr
_refine_ls_matrix_type           full
_refine_ls_number_parameters     182
_refine_ls_number_reflns         2641
_refine_ls_number_restraints     2
_refine_ls_restrained_S_all      1.041
_refine_ls_R_factor_all          0.0356
_refine_ls_R_factor_gt           0.0312
_refine_ls_shift/su_max          0.000
_refine_ls_shift/su_mean         0.000
_refine_ls_structure_factor_coef Fsqd
_refine_ls_weighting_details
'w=1/[\s^2^(Fo^2^)+(0.0347P)^2^+0.0722P] where P=(Fo^2^+2Fc^2^)/3'
_refine_ls_weighting_scheme      calc
_refine_ls_wR_factor_gt          0.0668
_refine_ls_wR_factor_ref         0.0691
_reflns_Friedel_coverage         0.678
_reflns_Friedel_fraction_full    0.777
_reflns_Friedel_fraction_max     0.587
_reflns_number_gt                2480
_reflns_number_total             2641
_reflns_threshold_expression     'I > 2\s(I)'
_cod_data_source_file            d1sc01883c2.cif
_cod_data_source_block           mg309_reprocess
_cod_database_code               1562553
_shelx_shelxl_version_number     2018/3
_chemical_oxdiff_formula         'C15 H11 B Br N O2'
_chemical_oxdiff_usercomment     '120 K'
_shelx_space_group_comment
;
The symmetry employed for this shelxl refinement is uniquely defined
by the following loop, which should always be used as a source of
symmetry information in preference to the above space-group names.
They are only intended as comments.
;
_reflns_odcompleteness_completeness 99.67
_reflns_odcompleteness_iscentric 1
_reflns_odcompleteness_theta     26.32
_olex2_refinement_description
;
1. Fixed Uiso
 At 1.2 times of:
  All C(H) groups
 At 1.5 times of:
  All C(H,H,H) groups
2.a Aromatic/amide H refined with riding coordinates:
 C1(H1), C4(H4), C7(H7), C13(H13), C14(H14), C6(H6), C12(H12), C15(H15)
2.b Idealised Me refined as rotating group:
 C9(H9A,H9B,H9C)
;
_shelx_res_file
;
TITL mg309_reprocess_a.res in Pc
    mg309_reprocess.res
    created by SHELXL-2018/3 at 15:32:49 on 04-Mar-2021
REM Old TITL MG309_reprocess in Pc
REM SHELXT solution in Pc: R1 0.065, Rweak 0.075, Alpha 0.010
REM <I/s> 0.441 for 170 systematic absences, Orientation as input
REM Flack x = -0.018 ( 0.008 ) from 943 Parsons' quotients
REM Formula found by SHELXT: C15 N2 O2 Br
CELL 0.71073 11.8776 4.6452 12.931 90 113.246 90
ZERR 2 0.0006 0.0002 0.0006 0 0.006 0
LATT -1
SYMM +X,-Y,0.5+Z
SFAC C H B N O Br
UNIT 30 22 2 2 4 2

L.S. 20
PLAN  5
CONF
BOND
list 4
fmap 2 53
MORE -1
ACTA
BOND $H
REM <olex2.extras>
REM <HklSrc "%.\\MG309_reprocess.hkl">
REM </olex2.extras>

WGHT    0.034700    0.072200
FVAR       0.94357
BR1   6    0.100060    0.551238    0.564360    11.00000    0.02210    0.02966 =
         0.02102   -0.00099    0.01254    0.00042
O2    5    0.697424    0.734711    0.513736    11.00000    0.01718    0.01582 =
         0.01652   -0.00206    0.00688   -0.00218
O1    5    0.585570    0.798559    0.622298    11.00000    0.01823    0.02080 =
         0.01519   -0.00270    0.00629   -0.00528
N1    4    0.401385    0.118925    0.319377    11.00000    0.01925    0.01697 =
         0.01250   -0.00045    0.00631   -0.00042
C1    1    0.506337    0.270080    0.372883    11.00000    0.01744    0.01916 =
         0.01590    0.00404    0.00782    0.00285
AFIX  43
H1    2    0.575259    0.258389    0.355782    11.00000   -1.20000
AFIX   0
C8    1    0.318505    0.190408    0.366349    11.00000    0.01838    0.01277 =
         0.01354    0.00233    0.00809    0.00181
C4    1    0.309193    0.505830    0.511144    11.00000    0.01806    0.01785 =
         0.01259   -0.00209    0.00533   -0.00084
AFIX  43
H4    2    0.343290    0.642691    0.567406    11.00000   -1.20000
AFIX   0
C9    1    0.375745   -0.085769    0.227928    11.00000    0.02595    0.01756 =
         0.01501   -0.00193    0.00769    0.00303
AFIX 137
H9A   2    0.442828   -0.088077    0.204232    11.00000   -1.50000
H9B   2    0.302110   -0.030149    0.165874    11.00000   -1.50000
H9C   2    0.365355   -0.274331    0.253255    11.00000   -1.50000
AFIX   0
C5    1    0.191944    0.407473    0.482980    11.00000    0.01894    0.02026 =
         0.01561    0.00430    0.00951    0.00444
C3    1    0.375642    0.392608    0.452076    11.00000    0.01795    0.01525 =
         0.01144    0.00442    0.00587    0.00026
C7    1    0.199680    0.092723    0.338595    11.00000    0.01920    0.01537 =
         0.01472    0.00150    0.00318   -0.00079
AFIX  43
H7    2    0.164707   -0.042816    0.281977    11.00000   -1.20000
AFIX   0
C13   1    0.900399    1.273257    0.708231    11.00000    0.01483    0.02049 =
         0.02853    0.00189    0.00124   -0.00086
AFIX  43
H13   2    0.971766    1.379399    0.724574    11.00000   -1.20000
AFIX   0
C14   1    0.834066    1.309217    0.774148    11.00000    0.02219    0.02065 =
         0.02120   -0.00495    0.00141   -0.00445
AFIX  43
H14   2    0.862442    1.437070    0.834330    11.00000   -1.20000
AFIX   0
C2    1    0.497176    0.444755    0.456660    11.00000    0.01774    0.01778 =
         0.01315    0.00087    0.00601   -0.00026
C10   1    0.689126    0.972307    0.662893    11.00000    0.01323    0.01551 =
         0.01676    0.00280    0.00356   -0.00055
C6    1    0.135294    0.203710    0.397924    11.00000    0.01388    0.02163 =
         0.01715    0.00514    0.00404    0.00136
AFIX  43
H6    2    0.055348    0.144390    0.381825    11.00000   -1.20000
AFIX   0
C11   1    0.756438    0.934299    0.597651    11.00000    0.01536    0.01548 =
         0.01577    0.00111    0.00381    0.00048
C12   1    0.863232    1.081958    0.617765    11.00000    0.01877    0.02049 =
         0.02753    0.00288    0.01134    0.00090
AFIX  43
H12   2    0.908135    1.055901    0.573638    11.00000   -1.20000
AFIX   0
C15   1    0.725865    1.159083    0.752841    11.00000    0.02825    0.02557 =
         0.01738   -0.00437    0.01076   -0.00339
AFIX  43
H15   2    0.680816    1.183519    0.796924    11.00000   -1.20000
AFIX   0
B1    3    0.593476    0.653575    0.530776    11.00000    0.01699    0.01618 =
         0.01739    0.00378    0.00667    0.00203
HKLF 4




REM  mg309_reprocess_a.res in Pc
REM wR2 = 0.0691, GooF = S = 1.041, Restrained GooF = 1.041 for all data
REM R1 = 0.0312 for 2480 Fo > 4sig(Fo) and 0.0356 for all 2641 data
REM 182 parameters refined using 2 restraints

END

WGHT      0.0346      0.0718

REM Highest difference peak  0.434,  deepest hole -0.552,  1-sigma level  0.083
Q1    1   0.0979  0.3441  0.5602  11.00000  0.05    0.43
Q2    1   0.2063  0.5537  0.6918  11.00000  0.05    0.43
Q3    1   0.1763  0.4892  0.6333  11.00000  0.05    0.41
Q4    1   0.0003  0.5540  0.4364  11.00000  0.05    0.39
Q5    1   0.0274  0.4604  0.4977  11.00000  0.05    0.39
;
_shelx_res_checksum              90626
_shelx_hkl_file
;
 -14   0   1   -1.06   15.00
 -14   0   8  341.67   43.18
 -14   0   9    8.03   17.88
 -14   0  10  717.24   60.57
 -14   0  11  -33.45   19.35
 -14   1   9   49.23   20.46
 -14  -1   9   28.26   17.96
 -14   1  10  310.76   38.95
 -14  -1  10  217.17   35.16
 -14  -2   2  171.64   30.12
 -14   2   9   80.21   23.69
 -14  -2   9   91.16   24.95
 -14  -2  10   64.13   21.74
 -13   0  -1   -4.61   14.82
 -13   0   0  100.50   24.20
 -13   0   7   -8.12   13.23
 -13   0   8  738.07   59.15
 -13   0   9    7.13   14.11
 -13   0  10  427.61   44.47
 -13   0  11   -1.02   14.08
 -13   0  12  239.78   34.89
 -13  -1  -1   16.31   16.72
 -13   1  -1    2.58   14.08
 -13   1   0  220.72   32.51
 -13  -1   0  214.69   34.14
 -13   1   1   91.50   21.04
 -13  -1   1   67.42   23.77
 -13   1   8  384.26   42.92
 -13  -1   8  441.92   46.26
 -13  -1   9   26.26   17.14
 -13   1   9   22.13   15.65
 -13  -1  10  505.91   48.10
 -13   1  10  487.88   47.17
 -13   1  11    3.15   13.68
 -13  -1  11    5.01   13.99
 -13  -1  12  271.60   37.63
 -13   1  12  282.55   38.43
 -13  -1  13   32.47   13.56
 -13  -2  -1   66.67   20.98
 -13  -2   0  219.06   33.25
 -13   2   0  251.71   35.49
 -13  -2   1  181.93   30.98
 -13   2   1  197.25   31.86
 -13  -2   8  251.29   35.77
 -13   2   8  267.62   35.35
 -13  -2   9  106.73   23.16
 -13   2   9   85.54   20.00
 -13  -2  10  179.11   30.99
 -13   2  10  127.03   25.17
 -13  -2  11  108.64   25.38
 -13   2  11  129.23   26.90
 -13  -2  12  244.52   34.93
 -13  -3   0  151.71   28.36
 -13  -3   1   35.94   15.34
 -13   3   1   76.30   21.22
 -13   3   2   88.48   22.30
 -13  -3   2   93.47   22.71
 -13  -3  10   87.11   22.64
 -13   3  10  113.98   25.94
 -13  -3  11  133.70   27.78
 -12   0  -3   -7.48   14.67
 -12   0  -2  655.23   54.98
 -12   0  -1   27.74   19.32
 -12   0   0  462.72   45.51
 -12   0   6  232.85   32.23
 -12   0   7   -0.25   11.35
 -12   0   8  509.39   45.87
 -12   0   9   18.09   15.47
 -12   0  10  536.15   47.98
 -12   0  11   -9.78   11.19
 -12   0  12  618.08   53.33
 -12   0  13   33.54   17.22
 -12   1  -3   49.63   17.82
 -12  -1  -3   36.49   15.99
 -12  -1  -2  215.95   33.31
 -12   1  -2  177.25   30.33
 -12  -1  -1  114.97   26.59
 -12   1  -1  167.34   28.90
 -12  -1   0  299.09   36.75
 -12   1   0  386.31   41.24
 -12  -1   7   -3.36   11.41
 -12   1   7   -8.26   12.46
 -12  -1   8  547.86   48.30
 -12   1   8  508.88   46.44
 -12   1   9   45.36   17.13
 -12  -1   9   58.31   19.12
 -12  -1  10  743.59   56.36
 -12   1  10  704.10   55.22
 -12   1  11   27.79   13.73
 -12  -1  11   49.87   18.84
 -12   1  12  603.10   52.79
 -12  -1  12  607.47   52.62
 -12   1  13   48.44   18.05
 -12  -1  13   75.67   20.67
 -12  -1  13   56.66   18.70
 -12  -1  14  306.80   34.21
 -12  -2  -3   87.63   23.10
 -12   2  -2    7.81   12.43
 -12  -2  -2   18.29   16.23
 -12   2  -1   11.68   12.64
 -12  -2  -1   14.02   13.76
 -12  -2   0  251.37   33.74
 -12   2   0  247.57   33.45
 -12  -2   1  163.05   26.98
 -12   2   1  156.05   27.33
 -12   2   7  425.93   43.20
 -12  -2   7  374.03   39.72
 -12  -2   8  610.53   50.80
 -12   2   8  505.87   47.40
 -12  -2   9  286.26   35.37
 -12   2   9  282.24   35.71
 -12   2  10  374.45   37.16
 -12  -2  10  361.24   41.30
 -12   2  10  318.83   37.32
 -12   2  11    3.77   12.23
 -12  -2  11   61.18   20.06
 -12  -2  12  187.72   29.56
 -12   2  12  182.26   30.57
 -12   2  13   82.34   21.60
 -12  -2  13   84.63   23.44
 -12  -2  13   75.30   21.80
 -12  -2  14  155.77   28.52
 -12  -3  -2    8.08   13.67
 -12   3  -2   19.48   13.88
 -12  -3  -1   62.17   18.81
 -12   3  -1   90.38   21.46
 -12   3   0   -7.85   14.83
 -12  -3   0   24.19   14.30
 -12   3   1  141.65   25.89
 -12  -3   1  173.38   28.07
 -12   3   2  135.93   25.27
 -12  -3   2  132.64   24.11
 -12   3   8  153.01   26.25
 -12   3   9  163.33   27.75
 -12  -3   9  171.89   28.12
 -12   3  10   99.17   21.73
 -12  -3  10  139.45   25.36
 -12  -3  11  309.02   38.06
 -12   3  11  335.21   39.17
 -12  -3  12  113.53   24.50
 -12   3  12   97.30   24.42
 -12   3  12  172.91   30.30
 -12   3  13   34.08   20.05
 -11   0  -5   -5.16   14.55
 -11   0  -4   58.97   19.00
 -11   0  -3   12.21   11.95
 -11   0  -2  283.81   34.23
 -11   0  -1  -10.92   13.78
 -11   0   0  346.28   36.83
 -11   0   6 1478.72   76.37
 -11   0   7  -11.01   12.00
 -11   0   8 1610.74   79.41
 -11   0   9   -3.57   12.61
 -11   0  10  760.79   54.76
 -11   0  11   -2.16    9.95
 -11   0  11   21.53    8.79
 -11   0  12  671.93   42.12
 -11   0  12  642.63   52.83
 -11   0  13   62.01   22.83
 -11   0  14  563.52   50.37
 -11  -1  -5   81.42   21.87
 -11   1  -5   42.13   18.10
 -11  -1  -4  278.41   36.69
 -11   1  -4  368.40   40.85
 -11   1  -3   48.26   16.78
 -11  -1  -3   65.08   20.67
 -11   1  -2  483.62   45.13
 -11  -1  -2  569.43   48.48
 -11  -1  -1   71.51   18.99
 -11   1  -1   88.82   21.13
 -11  -1   0  547.91   45.73
 -11   1   0  502.84   44.21
 -11   1   5  325.93   21.61
 -11   1   6  241.59   31.39
 -11  -1   6  293.03   34.97
 -11   1   7  262.70   31.45
 -11  -1   7  211.43   28.77
 -11   1   8  420.61   40.29
 -11  -1   8  390.13   38.34
 -11  -1   9  181.60   26.56
 -11   1   9  195.30   26.55
 -11  -1  10  609.51   48.61
 -11   1  10  692.83   52.16
 -11  -1  11  122.82   24.74
 -11   1  11   98.40   20.88
 -11   1  12  502.82   46.64
 -11  -1  12  465.49   44.60
 -11  -1  12  408.67   37.70
 -11  -1  13   50.43   20.13
 -11  -1  13   13.30   10.57
 -11   1  13   42.57   17.79
 -11  -1  14  422.84   44.42
 -11   1  14  430.89   45.38
 -11  -1  14  425.39   39.39
 -11  -1  15   38.49   15.50
 -11  -2  -4  273.86   36.99
 -11   2  -4  273.44   36.57
 -11   2  -3    3.40   12.47
 -11  -2  -3   -3.47   13.04
 -11   2  -2  143.04   26.67
 -11  -2  -2  183.64   28.75
 -11  -2  -1  140.04   25.02
 -11   2  -1  130.15   24.98
 -11   2   0  389.35   39.83
 -11  -2   0  371.23   38.69
 -11   2   6  401.67   29.32
 -11   2   6  352.88   37.79
 -11  -2   6  401.90   39.15
 -11   2   7  176.02   26.75
 -11   2   7  200.31   23.00
 -11  -2   7  188.44   27.71
 -11   2   8  225.17   31.39
 -11  -2   8  252.31   31.86
 -11   2   8  256.96   27.04
 -11   2   9  129.67   24.44
 -11   2   9  129.20   21.50
 -11  -2   9  107.52   22.00
 -11  -2  10  187.39   27.54
 -11   2  10  254.20   32.73
 -11   2  11  186.95   28.78
 -11  -2  11  212.13   29.96
 -11  -2  12  346.85   38.65
 -11   2  12  289.96   35.43
 -11  -2  13  130.78   24.29
 -11   2  13  137.41   24.82
 -11  -2  13  137.45   25.18
 -11   2  14  262.19   37.01
 -11  -2  14  352.01   40.15
 -11  -2  14  369.49   39.38
 -11   3  -4    6.12   12.53
 -11  -3  -4   37.30   16.31
 -11  -3  -3  337.49   38.66
 -11   3  -3  396.20   41.71
 -11  -3  -2  126.29   24.78
 -11   3  -2  153.07   27.38
 -11   3  -1  113.76   21.96
 -11  -3  -1  121.97   23.18
 -11  -3   0   54.36   15.69
 -11   3   0   67.86   17.66
 -11   3   1  238.86   30.35
 -11  -3   1  207.47   29.15
 -11   3   8  207.18   29.23
 -11   3   8  163.07   24.12
 -11  -3   8  127.13   23.61
 -11   3   9  142.29   27.12
 -11  -3   9  196.48   29.26
 -11   3   9  162.66   25.20
 -11   3  10  123.56   24.81
 -11   3  10  157.32   27.01
 -11  -3  10  153.07   25.63
 -11   3  11   89.08   22.36
 -11  -3  11   86.58   21.89
 -11   3  11  106.03   22.01
 -11   3  12   64.44   18.48
 -11  -3  12  100.27   23.67
 -11   3  12   62.26   20.48
 -11   3  13  208.48   35.25
 -11  -3  13  189.08   30.08
 -11  -3  13  183.38   29.18
 -11   3  13  225.95   32.48
 -11   3  13  188.55   29.16
 -11   4  11  148.02   30.22
 -10   0  -6  170.73   29.58
 -10   0  -5   -3.51   13.12
 -10   0  -4  355.35   38.90
 -10   0  -3    8.70   12.89
 -10   0  -2  991.63   61.80
 -10   0  -1   -0.38   10.76
 -10   0   5  -10.37   11.50
 -10   0   6  778.19   50.71
 -10   0   7   30.80   15.75
 -10   0   8  488.58   41.04
 -10   0   9  -18.29   12.45
 -10   0  10  946.22   58.32
 -10   0  11   -0.27   13.22
 -10   0  11    8.23    9.52
 -10   0  12  732.58   43.22
 -10   0  12  711.43   52.97
 -10   0  13    5.08   11.19
 -10   0  13   -6.90   12.51
 -10   0  14  357.99   40.08
 -10   0  14  291.29   29.91
 -10   0  15   14.78   15.80
 -10   0  15    1.82   12.35
 -10   1  -6  257.49   35.96
 -10  -1  -6  261.77   35.91
 -10   1  -5   62.71   19.66
 -10  -1  -5   42.34   17.03
 -10  -1  -4  193.73   29.63
 -10   1  -4  187.53   28.64
 -10  -1  -3  208.53   30.56
 -10   1  -3  205.42   29.02
 -10  -1  -2  538.79   45.20
 -10   1  -2  511.40   44.77
 -10   1  -1  134.27   22.59
 -10  -1  -1   87.89   19.80
 -10   1   3  251.39   11.25
 -10   1   4  786.89   31.43
 -10  -1   5  208.86   26.99
 -10   1   5  195.88   25.98
 -10  -1   6  952.21   56.97
 -10   1   6 1039.29   58.71
 -10  -1   7  267.11   29.19
 -10   1   7  256.60   28.65
 -10  -1   8  475.39   39.83
 -10   1   8  521.34   41.79
 -10   1   9  157.99   24.39
 -10   1   9  161.43   15.01
 -10  -1   9  112.44   20.04
 -10   1  10  682.44   49.35
 -10  -1  10  667.83   48.38
 -10  -1  11   -7.81   11.79
 -10   1  11   12.26   12.34
 -10  -1  12  345.21   33.36
 -10  -1  12  290.69   34.02
 -10   1  12  294.27   33.68
 -10   1  13   82.40   22.70
 -10  -1  13   70.04   16.79
 -10  -1  13   69.28   19.27
 -10  -1  14  345.35   39.83
 -10   1  14  344.77   38.41
 -10  -1  14  323.74   38.11
 -10  -1  14  389.78   38.29
 -10   1  14  357.12   40.68
 -10  -1  15   35.37   16.82
 -10   1  15   29.63   16.78
 -10   1  15   21.50   14.38
 -10  -1  15   39.11   16.99
 -10  -1  15   31.81   14.46
 -10  -1  16  126.55   25.51
 -10  -1  17   61.75   16.58
 -10   2  -6   29.29   15.36
 -10  -2  -6   43.50   18.62
 -10  -2  -5  178.17   29.65
 -10   2  -5  212.03   31.83
 -10  -2  -4  135.86   25.24
 -10   2  -4  125.24   24.26
 -10   2  -3  170.06   27.33
 -10  -2  -3  138.80   25.63
 -10  -2  -2  122.84   23.00
 -10   2  -2  146.66   24.69
 -10  -2  -1  250.27   31.39
 -10   2  -1  234.26   30.37
 -10  -2   0  289.39   31.77
 -10   2   0  285.84   31.31
 -10   2   4  215.41   17.91
 -10   2   5  752.68   38.67
 -10   2   6  360.32   35.17
 -10  -2   6  334.23   33.97
 -10   2   6  307.52   26.74
 -10  -2   7  363.07   34.59
 -10   2   7  348.84   34.71
 -10   2   7  322.92   29.52
 -10  -2   8  612.04   45.62
 -10   2   8  587.32   45.19
 -10   2   8  664.76   45.42
 -10  -2   9  331.11   33.98
 -10   2   9  391.48   36.83
 -10  -2  10  559.65   45.79
 -10   2  10  541.57   45.12
 -10  -2  11   64.95   18.54
 -10   2  11   24.47   11.94
 -10   2  12  612.71   48.92
 -10  -2  12  550.80   46.13
 -10  -2  12  566.83   47.67
 -10   2  13  150.07   25.90
 -10  -2  13  161.49   25.45
 -10  -2  13  110.79   23.54
 -10   2  14  118.58   25.17
 -10  -2  14  138.88   27.25
 -10  -2  14  187.01   28.92
 -10  -2  14  149.45   27.18
 -10   2  14  178.03   28.23
 -10  -2  15   47.65   15.91
 -10  -3  -5   51.02   18.11
 -10   3  -5  101.78   23.33
 -10   3  -4  121.84   23.84
 -10  -3  -4  170.30   26.98
 -10  -3  -3   79.79   20.70
 -10   3  -3  140.61   23.87
 -10   3  -2  108.38   21.43
 -10  -3  -2   64.69   16.92
 -10  -3  -1  184.25   26.24
 -10   3  -1  188.09   26.61
 -10   3   0  107.12   20.20
 -10  -3   0  106.08   20.16
 -10   3   1   57.10   15.16
 -10  -3   1   51.33   15.48
 -10   3   5  373.97   30.73
 -10   3   6   38.66   12.32
 -10   3   7  609.94   43.67
 -10  -3   7  629.82   47.01
 -10   3   7  565.21   44.77
 -10   3   8  164.91   23.03
 -10  -3   8  157.28   25.17
 -10   3   8  140.79   22.44
 -10  -3   9  325.50   34.32
 -10   3   9  351.40   35.24
 -10   3   9  402.70   39.35
 -10   3  10   64.92   16.19
 -10  -3  10   33.41   12.74
 -10   3  10   96.33   21.68
 -10   3  11  184.28   26.83
 -10   3  11  150.88   28.59
 -10  -3  11  171.74   28.06
 -10  -3  12  130.98   25.50
 -10   3  12  201.92   34.09
 -10   3  12  144.49   26.13
 -10   3  13   59.09   16.40
 -10  -3  13   96.46   22.42
 -10   3  13   64.90   18.50
 -10   3  13   91.72   24.71
 -10  -3  13   70.39   18.88
 -10   3  14  122.54   26.49
 -10  -3  14  118.13   25.17
 -10   3  14  111.15   22.20
 -10  -3  14  165.54   28.26
 -10   4   7  245.93   30.81
 -10   4   8   25.19   14.88
 -10   4   9  130.73   25.47
 -10   4  10   -7.49   14.29
 -10   4  11  143.77   29.65
  -9   0  -7   26.18   16.85
  -9   0  -6  424.68   42.90
  -9   0  -5  -12.76   14.28
  -9   0  -4  585.98   46.89
  -9   0  -3  -20.41   13.14
  -9   0  -2  424.41   38.30
  -9   0  -1   16.55   13.87
  -9   0   4 2495.22   93.11
  -9   0   4 2471.44   75.66
  -9   0   5  -11.97   11.66
  -9   0   6  703.26   45.24
  -9   0   7   -1.22   11.28
  -9   0   8  555.15   40.46
  -9   0   9    3.35    9.74
  -9   0  10  978.77   57.60
  -9   0  10  984.87   47.66
  -9   0  11   -3.18    7.32
  -9   0  11   -2.42   10.01
  -9   0  12  592.85   39.44
  -9   0  12  642.43   49.20
  -9   0  13  -10.88    9.08
  -9   0  13  -18.78   13.66
  -9   0  14  989.06   63.72
  -9   0  14  908.57   53.09
  -9   0  14  823.43   60.49
  -9   0  15   -5.09    9.12
  -9   0  15   10.67   13.72
  -9   0  15   -8.11   14.00
  -9   1  -7   21.82   13.16
  -9  -1  -7   55.83   18.99
  -9  -1  -6  223.78   31.91
  -9   1  -6  239.89   32.27
  -9  -1  -5  106.09   21.58
  -9   1  -5   87.27   21.45
  -9  -1  -4  232.52   30.30
  -9   1  -4  214.61   29.66
  -9   1  -3   28.17   13.39
  -9  -1  -3   16.15   13.30
  -9   1  -2  336.81   35.58
  -9  -1  -2  301.36   32.99
  -9  -1  -1   83.45   18.37
  -9   1  -1  130.62   21.53
  -9  -1   1   10.94    4.66
  -9  -1   2 1001.94   36.86
  -9  -1   3   45.43    8.51
  -9   1   3   62.44    7.50
  -9  -1   4 1167.46   38.88
  -9  -1   4 1225.45   61.35
  -9   1   4 1189.88   42.66
  -9   1   4 1189.90   60.55
  -9   1   5   79.57   16.13
  -9  -1   5   85.09   10.74
  -9  -1   5  105.23   18.62
  -9   1   6 1320.62   62.87
  -9  -1   6 1351.44   63.20
  -9  -1   6 1172.69   45.42
  -9  -1   7  888.49   51.36
  -9   1   7  832.27   49.89
  -9   1   8  781.98   32.06
  -9  -1   8  773.32   48.26
  -9   1   8  685.84   46.18
  -9   1   9   93.12   11.26
  -9  -1   9  126.01   21.28
  -9   1   9   92.51   17.78
  -9   1  10  442.89   25.88
  -9   1  10  411.36   37.53
  -9  -1  10  431.41   38.20
  -9  -1  11  207.39   27.19
  -9   1  11  213.47   28.64
  -9   1  11  198.12   18.78
  -9  -1  11  209.38   25.10
  -9  -1  12 1053.73   63.97
  -9  -1  12  984.60   56.34
  -9   1  12 1020.79   62.83
  -9  -1  13   34.61   13.14
  -9   1  13   32.48   14.82
  -9  -1  13   66.73   18.36
  -9   1  14  440.22   42.60
  -9  -1  14  424.44   42.45
  -9  -1  14  399.43   38.27
  -9  -1  14  396.36   40.83
  -9   1  14  356.00   39.54
  -9   1  15   12.28   13.76
  -9  -1  15   35.94   18.72
  -9  -1  15   13.72   12.76
  -9  -1  15   34.89   18.70
  -9   1  15   15.00   17.54
  -9  -1  16  305.02   36.31
  -9  -1  17    3.61   11.71
  -9  -2  -7   49.15   15.63
  -9   2  -7   35.77   14.87
  -9   2  -6   81.49   21.41
  -9  -2  -6  107.76   22.00
  -9  -2  -5   46.50   15.33
  -9   2  -5   49.77   15.34
  -9   2  -4  294.00   33.96
  -9  -2  -4  267.85   31.48
  -9   2  -3  288.76   31.96
  -9  -2  -3  292.39   32.12
  -9  -2  -2  426.41   37.94
  -9   2  -2  382.53   35.80
  -9   2  -1  240.75   28.46
  -9  -2  -1  225.73   27.41
  -9  -2   0  906.67   52.77
  -9   2   0  882.45   52.63
  -9   2   3   15.31    4.98
  -9   2   4 1086.98   44.91
  -9   2   5  363.74   27.18
  -9   2   5  341.42   32.52
  -9  -2   5  314.23   31.19
  -9   2   6  458.22   36.77
  -9  -2   6  480.33   37.14
  -9   2   6  390.28   30.79
  -9  -2   7   39.44   12.67
  -9   2   7   17.83   11.07
  -9   2   7   56.40   15.64
  -9   2   8  119.59   19.44
  -9  -2   8   97.60   17.74
  -9   2   9  959.65   56.00
  -9  -2   9  930.51   55.36
  -9  -2  10  162.50   24.48
  -9   2  10  152.89   23.19
  -9  -2  11  248.66   29.94
  -9   2  11  213.00   28.45
  -9  -2  12  170.91   26.65
  -9   2  12  191.95   27.97
  -9  -2  12  192.72   27.53
  -9  -2  13  103.37   22.45
  -9   2  13   90.80   22.33
  -9  -2  13  168.49   28.13
  -9   2  13  114.13   23.09
  -9  -2  13  134.31   24.43
  -9   2  14  308.95   37.15
  -9  -2  14  304.60   35.40
  -9   2  14  337.39   37.50
  -9  -2  14  281.34   35.34
  -9  -2  14  311.23   35.43
  -9  -2  15  186.27   29.82
  -9   2  15  151.64   26.10
  -9   2  15  198.02   30.95
  -9  -2  15  192.19   31.11
  -9  -2  15  182.22   29.43
  -9  -3  -7   85.24   22.44
  -9   3  -6   37.21   17.52
  -9  -3  -6   47.78   18.99
  -9   3  -5  149.41   25.91
  -9  -3  -5  150.12   25.32
  -9  -3  -4   27.10   14.43
  -9   3  -4   43.79   15.75
  -9   3  -3  195.35   27.15
  -9  -3  -3  180.34   26.35
  -9   3  -2  149.16   23.61
  -9  -3  -2  171.07   24.84
  -9  -3  -1  433.10   37.53
  -9   3  -1  431.71   36.92
  -9   3   0  209.85   25.59
  -9  -3   0  230.45   26.48
  -9  -3   1  415.55   34.74
  -9   3   1  444.58   35.85
  -9   3   3  492.07   32.44
  -9   3   4  486.00   33.86
  -9   3   5  173.47   21.39
  -9   3   6  416.71   34.56
  -9   3   6  443.69   36.80
  -9  -3   6  424.50   36.34
  -9   3   7  739.44   48.60
  -9   3   7  761.26   48.66
  -9  -3   7  692.98   46.29
  -9   3   8   94.70   20.58
  -9   3   8  145.37   22.71
  -9  -3   8  134.46   21.61
  -9   3   9  132.52   23.57
  -9   3   9  208.10   26.51
  -9  -3   9  188.84   25.06
  -9  -3  10  268.14   30.16
  -9   3  10  293.56   33.20
  -9   3  10  329.51   37.99
  -9   3  11  272.43   36.76
  -9  -3  11  275.55   31.93
  -9   3  11  291.27   32.94
  -9   3  12   17.03   17.61
  -9  -3  12  -25.85   14.94
  -9  -3  12   -4.76   13.65
  -9   3  12  -21.19   12.33
  -9   3  12   32.73   15.48
  -9  -3  12   13.53   11.09
  -9  -3  13   33.31   17.47
  -9   3  13   36.72   15.93
  -9   3  13    7.48   12.01
  -9   3  13   -3.86   17.17
  -9  -3  13   37.83   17.04
  -9  -3  13   10.82   11.96
  -9  -3  14    6.35   12.55
  -9  -3  14   55.29   17.32
  -9   3  14   52.98   18.65
  -9   3  14   45.40   17.36
  -9   4   4   33.21   12.29
  -9   4   5  148.41   23.22
  -9   4   6   74.16   17.43
  -9   4   7  610.19   48.26
  -9   4   8   54.99   17.19
  -9   4   9  469.67   45.13
  -9   4  10   35.16   19.55
  -9   4  11  143.18   28.66
  -9   5   6   32.48   16.60
  -9   5   7   97.56   23.17
  -9   5   8   35.83   18.65
  -8   0  -9  -15.34   18.16
  -8   0  -8    3.21   11.97
  -8   0  -7    2.59   10.82
  -8   0  -6  264.50   32.48
  -8   0  -5   -3.94   10.75
  -8   0  -4  548.80   42.80
  -8   0  -3    8.41   11.33
  -8   0  -2 1170.62   60.27
  -8   0  -1   -2.15    9.82
  -8   0   3    0.49    5.44
  -8   0   3   -3.04    8.26
  -8   0   4 2417.04   71.79
  -8   0   4 2473.46   86.66
  -8   0   5    3.31    5.10
  -8   0   5    2.73    9.07
  -8   0   6 3108.95  100.71
  -8   0   7  -10.66    9.01
  -8   0   8 1251.92   59.88
  -8   0   9    0.06    6.29
  -8   0   9  -17.01   12.23
  -8   0  10 1026.71   47.31
  -8   0  10 1041.86   57.82
  -8   0  11   10.79    8.59
  -8   0  11   -2.85   10.04
  -8   0  12  125.12   18.43
  -8   0  12  128.19   22.95
  -8   0  13  -28.06   16.40
  -8   0  13   14.06   12.34
  -8   0  13  -14.86   12.28
  -8   0  14  483.44   44.62
  -8   0  14  401.26   35.75
  -8   0  14  472.78   44.45
  -8   0  15   -8.87   16.49
  -8   0  15   11.26   11.07
  -8   0  15    0.30   12.88
  -8   0  16  438.88   45.14
  -8   0  16  354.67   36.82
  -8  -1  -9   76.14   22.68
  -8  -1  -8  348.24   40.28
  -8   1  -8  374.96   40.94
  -8  -1  -7  112.52   22.83
  -8   1  -7   48.06   18.94
  -8  -1  -6  318.26   35.70
  -8   1  -6  335.72   36.03
  -8  -1  -5    6.50    9.82
  -8   1  -5   15.18   11.46
  -8  -1  -4  285.88   31.10
  -8   1  -4  292.36   31.21
  -8   1  -3  160.79   22.91
  -8  -1  -3  149.84   22.00
  -8  -1  -2  726.12   46.47
  -8   1  -2  739.28   47.36
  -8   1  -1  378.74   32.44
  -8  -1  -1  358.53   31.34
  -8  -1   0  979.98   34.86
  -8  -1   1  405.35   21.08
  -8   1   2  734.16   22.62
  -8  -1   2  686.46   29.91
  -8   1   3  328.40   18.27
  -8   1   4 1983.78   76.69
  -8  -1   4 2070.60   77.68
  -8  -1   4 1981.06   54.53
  -8   1   5  149.60   20.14
  -8  -1   5  126.46   18.00
  -8  -1   5  134.05   12.72
  -8   1   6  850.03   47.31
  -8  -1   6  957.34   49.86
  -8   1   7  271.50   26.57
  -8  -1   7  248.83   25.46
  -8   1   8 1452.37   65.71
  -8  -1   8 1495.64   66.79
  -8   1   8 1503.91   47.02
  -8   1   9  183.73   23.38
  -8  -1   9  207.25   25.05
  -8   1   9  170.67   15.18
  -8   1  10  602.17   43.96
  -8   1  10  574.31   30.31
  -8  -1  10  571.62   43.00
  -8   1  11   46.99    9.19
  -8  -1  11   65.93   15.23
  -8  -1  11   31.74   12.58
  -8   1  11   60.94   15.21
  -8   1  12  437.14   29.53
  -8  -1  12  473.86   38.38
  -8  -1  12  493.58   42.89
  -8   1  12  414.82   39.20
  -8  -1  13  191.81   26.34
  -8  -1  13  157.86   24.37
  -8   1  13  158.83   26.13
  -8  -1  13  194.01   29.05
  -8   1  13  173.07   26.19
  -8   1  14  324.52   37.14
  -8   1  14  283.89   35.72
  -8  -1  14  334.89   38.77
  -8  -1  14  334.77   38.01
  -8  -1  14  255.33   30.68
  -8   1  15  -15.26   15.31
  -8  -1  15   -5.05   12.10
  -8  -1  15    5.33   14.62
  -8   1  15   -3.80   15.20
  -8  -1  15  -12.95   12.53
  -8  -1  16  262.59   33.67
  -8  -1  17   41.76   17.25
  -8  -2  -8   93.33   23.65
  -8   2  -8  126.75   24.96
  -8  -2  -7  137.92   25.20
  -8   2  -7   99.51   22.16
  -8  -2  -6   90.90   20.45
  -8   2  -6   75.66   18.76
  -8   2  -5  182.30   25.64
  -8  -2  -5  161.83   24.52
  -8  -2  -4  190.72   25.82
  -8   2  -4  208.65   27.08
  -8   2  -3  112.15   18.81
  -8  -2  -3  156.41   22.93
  -8  -2  -2  277.29   29.12
  -8   2  -2  227.35   26.28
  -8   2  -1   89.21   16.55
  -8  -2  -1  121.01   19.73
  -8  -2   0  290.22   21.21
  -8  -2   1  767.76   37.07
  -8   2   1  641.80   31.50
  -8   2   2  401.12   21.69
  -8   2   2  477.97   24.48
  -8   2   3  471.63   26.69
  -8   2   3  449.70   19.61
  -8  -2   4  250.94   25.85
  -8   2   4  220.03    9.71
  -8   2   4  241.97   20.74
  -8  -2   4  247.34   10.85
  -8   2   4  225.08   24.54
  -8   2   5  461.48   31.35
  -8   2   5  422.89   32.92
  -8  -2   5  474.18   34.59
  -8   2   6 1219.35   58.68
  -8   2   6 1296.80   58.49
  -8  -2   6 1308.46   59.77
  -8   2   7  375.77   31.06
  -8   2   7  337.58   30.56
  -8  -2   7  379.16   31.95
  -8   2   8 1246.54   60.27
  -8  -2   8 1233.64   59.70
  -8   2   9  182.60   23.64
  -8  -2   9  171.97   23.43
  -8  -2  10  293.80   30.27
  -8   2  10  346.73   32.23
  -8  -2  11  441.61   39.74
  -8  -2  11  450.51   38.86
  -8   2  11  365.34   35.38
  -8  -2  12  280.78   32.74
  -8  -2  12  199.22   26.45
  -8  -2  12  228.36   29.31
  -8   2  12  301.44   32.43
  -8   2  12  246.62   30.05
  -8  -2  13   39.77   16.46
  -8  -2  13   43.65   14.19
  -8   2  13   52.55   16.87
  -8   2  13   58.75   15.70
  -8  -2  13   67.62   18.23
  -8  -2  14  263.05   32.42
  -8  -2  14  270.02   34.36
  -8   2  14  274.83   34.27
  -8   2  14  229.25   31.88
  -8  -2  14  256.71   33.48
  -8  -2  15   55.96   19.26
  -8  -2  15   53.05   18.66
  -8  -2  15   67.84   22.06
  -8   2  15   61.43   19.80
  -8   2  15   87.76   22.83
  -8  -3  -8  117.73   24.80
  -8   3  -8  126.64   27.35
  -8   3  -7  237.36   32.19
  -8  -3  -7  228.16   31.80
  -8   3  -6   47.04   16.64
  -8  -3  -6   67.01   18.56
  -8  -3  -5  218.43   29.13
  -8   3  -5  238.00   29.26
  -8  -3  -4   69.32   18.26
  -8   3  -4   76.03   17.52
  -8  -3  -3  201.85   25.40
  -8   3  -3  216.66   26.23
  -8   3  -2   73.50   16.49
  -8  -3  -2   75.91   15.80
  -8  -3  -1  180.47   22.93
  -8   3  -1  228.58   25.62
  -8  -3   0  142.41   20.31
  -8   3   0  122.71   19.43
  -8  -3   1   91.56   16.03
  -8   3   1   86.42   16.39
  -8   3   3  565.93   35.69
  -8   3   4   78.09   15.69
  -8  -3   5  519.82   36.34
  -8   3   5  448.97   34.66
  -8   3   5  439.75   34.54
  -8   3   6  331.11   29.97
  -8  -3   6  381.03   31.21
  -8   3   6  343.48   32.15
  -8   3   7  230.68   25.39
  -8   3   7  156.43   23.06
  -8  -3   7  230.57   24.89
  -8   3   8   17.52   10.26
  -8   3   8    5.47   11.64
  -8  -3   8   33.15   11.64
  -8   3   9  728.97   46.69
  -8  -3   9  728.64   46.83
  -8   3   9  776.96   55.73
  -8  -3  10  213.03   26.15
  -8   3  10  217.58   26.62
  -8   3  10  204.95   30.97
  -8  -3  11  761.65   49.80
  -8  -3  11  713.53   49.54
  -8   3  11  674.84   55.89
  -8   3  11  680.56   47.03
  -8   3  11  710.80   49.34
  -8   3  12  223.39   28.70
  -8  -3  12  188.17   26.45
  -8   3  12  141.58   28.02
  -8   3  12  232.28   28.62
  -8  -3  12  203.92   30.56
  -8  -3  12  274.33   31.33
  -8  -3  13  242.43   31.91
  -8  -3  13  247.45   33.50
  -8   3  13  209.75   28.03
  -8   3  13  179.34   33.91
  -8  -3  13  204.67   29.20
  -8   3  13  242.71   31.39
  -8   3  14   22.39   15.03
  -8  -3  14    8.54   12.00
  -8   3  14   45.95   16.69
  -8   3  15   82.24   22.26
  -8  -3  15   44.53   19.06
  -8  -3  15   39.69   15.01
  -8   4   4  131.57   20.77
  -8   4   5  156.96   24.45
  -8   4   6   -0.72   11.94
  -8   4   7   57.03   18.79
  -8   4   8   81.61   19.89
  -8   4   9  288.34   36.01
  -8   4  10   70.53   20.36
  -8   4  11   73.97   23.98
  -8   5   5  255.08   33.78
  -8   5   6   -4.61   13.58
  -8   5   7  253.71   36.64
  -8   5   8   41.92   17.90
  -7   0 -10  495.82   49.52
  -7   0  -9   10.58   14.84
  -7   0  -8 1731.10   87.04
  -7   0  -7  -22.04   14.82
  -7   0  -6  333.96   34.14
  -7   0  -5   12.11   12.85
  -7   0  -4  430.59   35.54
  -7   0  -3   -5.08    9.14
  -7   0  -2  117.93   18.17
  -7   0   3    1.38    7.71
  -7   0   3   -1.52    4.48
  -7   0   4 1366.74   47.71
  -7   0   4 1301.34   55.53
  -7   0   5   -3.48    4.82
  -7   0   5   -2.77    6.66
  -7   0   6 1520.55   61.28
  -7   0   7    9.19    8.90
  -7   0   8  906.34   47.95
  -7   0   9   -1.44    8.29
  -7   0   9    3.68    6.43
  -7   0  10 1493.86   59.19
  -7   0  10 1478.76   68.98
  -7   0  11   -1.08    7.42
  -7   0  11    9.32   10.89
  -7   0  12 1607.85   68.67
  -7   0  12 1690.30   77.59
  -7   0  12 1677.95   79.19
  -7   0  13    4.98   10.20
  -7   0  13   -9.43   11.03
  -7   0  13    3.64   12.15
  -7   0  14  276.57   29.42
  -7   0  14  291.64   34.29
  -7   0  14  308.88   36.15
  -7   0  15  -10.34   13.70
  -7   0  15    3.21   11.31
  -7   0  15   15.40   15.54
  -7   0  16  366.53   41.25
  -7   0  16  302.50   40.04
  -7  -1 -10  278.34   37.49
  -7  -1  -9   26.17   15.30
  -7   1  -9  -11.31   14.56
  -7  -1  -8  256.64   33.35
  -7   1  -8  239.51   31.80
  -7  -1  -7  126.80   23.47
  -7   1  -7   97.26   21.26
  -7   1  -6  872.38   56.08
  -7  -1  -6  989.43   59.22
  -7   1  -5  281.52   30.48
  -7  -1  -5  319.77   31.67
  -7  -1  -4  786.10   48.72
  -7   1  -4  855.76   50.30
  -7   1  -3   28.02    9.92
  -7  -1  -3   37.51   14.16
  -7  -1  -2  662.16   42.11
  -7   1  -2  683.99   42.74
  -7  -1  -1  204.72   22.88
  -7   1  -1  211.26   22.92
  -7  -1   0 1238.00   40.10
  -7  -1   0 1156.55   46.99
  -7  -1   1   82.52   12.16
  -7  -1   1  112.68   11.05
  -7  -1   2 1375.17   53.50
  -7  -1   2 1329.67   44.49
  -7   1   2 1391.27   38.40
  -7   1   3   31.57   10.79
  -7  -1   3   38.84    5.48
  -7  -1   3   31.28    8.48
  -7   1   3   36.13    7.19
  -7   1   4 1180.31   52.90
  -7  -1   4 1192.87   37.83
  -7  -1   4 1243.29   53.36
  -7  -1   5   24.20    9.65
  -7   1   5   15.53    8.97
  -7   1   6  994.99   48.45
  -7  -1   6 1071.52   50.01
  -7   1   7   51.76   13.23
  -7  -1   7   43.83   11.54
  -7   1   7   36.86    6.58
  -7  -1   8 1037.55   53.00
  -7   1   8 1051.29   52.90
  -7   1   8 1025.53   37.20
  -7  -1   9  394.62   32.91
  -7   1   9  362.97   22.33
  -7   1   9  368.99   31.21
  -7  -1  10 1178.37   56.49
  -7   1  10 1214.63   60.52
  -7   1  10 1101.54   44.88
  -7  -1  10 1143.92   59.14
  -7   1  11   70.18   17.62
  -7  -1  11   40.45   13.55
  -7   1  11   52.84   11.51
  -7  -1  11   26.36    8.61
  -7  -1  12  448.53   39.44
  -7   1  12  464.10   39.37
  -7   1  12  454.91   40.14
  -7  -1  12  443.41   36.99
  -7  -1  12  461.78   39.20
  -7  -1  13  269.35   32.24
  -7   1  13  223.22   29.91
  -7  -1  13  186.75   26.81
  -7  -1  13  170.40   24.27
  -7   1  13  237.81   29.35
  -7  -1  14  538.64   47.94
  -7  -1  14  504.27   43.65
  -7   1  14  557.16   48.37
  -7  -1  14  547.49   46.51
  -7   1  14  574.73   47.70
  -7  -1  15  161.30   25.87
  -7   1  15  152.53   26.83
  -7  -1  15  183.83   30.28
  -7   1  15  197.73   32.65
  -7  -1  15  169.66   30.56
  -7   1  16  358.20   41.15
  -7  -1  16  300.82   36.24
  -7  -1  16  322.85   39.25
  -7  -1  16  306.31   38.86
  -7  -1  17    6.64   12.98
  -7   2  -9   -5.41   12.17
  -7  -2  -9    6.16   13.42
  -7   2  -8  206.10   30.44
  -7  -2  -8  161.07   26.56
  -7  -2  -7  115.59   22.23
  -7   2  -7  153.06   24.20
  -7  -2  -6  438.53   39.73
  -7   2  -6  469.58   40.94
  -7   2  -5  160.99   23.69
  -7  -2  -5  110.58   19.24
  -7   2  -4   60.90   15.00
  -7  -2  -4   56.79   15.20
  -7   2  -3  539.04   38.97
  -7  -2  -3  445.24   34.75
  -7  -2  -2  122.92   18.06
  -7   2  -2  135.77   19.36
  -7   2  -1  418.01   31.82
  -7  -2  -1  386.24   30.45
  -7   2   0  744.15   34.61
  -7  -2   0  772.90   32.73
  -7  -2   1  137.34   14.02
  -7   2   1  123.64   12.11
  -7  -2   2 1186.03   45.79
  -7   2   2 1163.31   42.84
  -7   2   2 1110.94   35.72
  -7  -2   3  436.78   26.88
  -7   2   3  410.02   25.80
  -7   2   3  392.92   15.02
  -7   2   4  774.07   38.89
  -7   2   4  818.80   43.55
  -7  -2   4  831.79   43.89
  -7   2   5  256.77   23.68
  -7   2   5  238.60   22.65
  -7  -2   5  283.63   24.84
  -7   2   6  445.19   33.26
  -7   2   6  440.47   31.79
  -7  -2   6  442.26   31.23
  -7   2   7  732.18   42.06
  -7  -2   7  746.92   42.40
  -7   2   8  843.38   46.47
  -7  -2   8  720.47   43.99
  -7   2   9  178.20   22.69
  -7  -2   9  200.90   23.94
  -7  -2  10  674.72   44.88
  -7   2  10  722.05   46.64
  -7   2  11  273.48   30.36
  -7   2  11  254.11   28.11
  -7  -2  11  280.86   30.21
  -7  -2  11  227.75   28.71
  -7  -2  11  288.54   29.86
  -7  -2  12  411.33   37.98
  -7  -2  12  322.87   33.50
  -7  -2  12  364.18   37.05
  -7   2  12  361.56   36.17
  -7   2  12  354.43   34.80
  -7  -2  13  251.28   31.21
  -7   2  13  314.67   34.02
  -7  -2  13  304.93   33.33
  -7   2  13  279.22   31.82
  -7  -2  13  298.02   34.77
  -7   2  14  305.19   34.24
  -7  -2  14  323.08   39.36
  -7  -2  14  307.59   36.79
  -7   2  14  359.12   39.31
  -7  -2  14  286.65   34.57
  -7   2  15   95.77   21.39
  -7  -2  15   85.10   21.90
  -7  -2  15  101.72   24.51
  -7   2  15   78.85   20.10
  -7  -2  15  129.31   25.90
  -7   3  -9  142.58   26.12
  -7  -3  -9  101.81   22.00
  -7  -3  -8  126.58   24.34
  -7   3  -8  149.57   26.34
  -7  -3  -7   51.14   16.67
  -7   3  -7   46.54   16.48
  -7   3  -6   83.20   19.61
  -7  -3  -6   91.19   20.06
  -7  -3  -5  215.40   27.27
  -7   3  -5  155.32   23.66
  -7  -3  -4   65.79   15.21
  -7   3  -4   86.99   17.44
  -7  -3  -3  606.41   40.99
  -7   3  -3  586.04   40.18
  -7  -3  -2  204.25   23.25
  -7   3  -2  194.20   22.00
  -7  -3  -1  380.99   30.62
  -7   3  -1  366.37   29.61
  -7   3   0   22.01   10.12
  -7  -3   0   31.79   10.25
  -7   3   2  256.75   23.82
  -7   3   3  462.56   32.97
  -7   3   4  455.68   33.22
  -7  -3   4  423.18   19.71
  -7   3   5  635.91   41.66
  -7   3   5  645.95   39.11
  -7  -3   5  594.30   37.07
  -7   3   6  326.85   31.66
  -7  -3   6  295.31   25.88
  -7   3   6  349.60   28.44
  -7   3   7  284.32   30.62
  -7   3   7  267.57   25.34
  -7  -3   7  241.70   24.10
  -7   3   8  673.90   41.68
  -7  -3   8  714.74   42.72
  -7   3   8  606.85   47.16
  -7   3   9  365.42   31.85
  -7   3   9  351.68   36.80
  -7  -3   9  365.59   31.44
  -7  -3  10  104.96   18.82
  -7   3  10  117.53   19.93
  -7  -3  10  146.13   21.35
  -7   3  10  117.07   18.60
  -7   3  10   88.76   22.82
  -7  -3  11  345.06   33.37
  -7   3  11  277.49   36.73
  -7   3  11  403.13   35.42
  -7   3  11  360.77   33.80
  -7  -3  11  333.14   36.06
  -7  -3  11  322.05   31.61
  -7  -3  12  249.52   30.31
  -7   3  12  165.93   29.90
  -7  -3  12  215.99   27.19
  -7   3  12  184.07   27.27
  -7   3  12  188.78   25.94
  -7  -3  12  175.50   29.00
  -7   3  13  237.38   37.02
  -7   3  13  320.84   35.96
  -7  -3  13  362.98   36.84
  -7  -3  13  311.02   34.81
  -7   3  13  328.69   34.85
  -7  -3  13  275.49   36.37
  -7  -3  14   31.44   16.51
  -7   3  14    5.78   11.58
  -7   3  14   10.35   11.50
  -7  -3  14   10.89   13.45
  -7   3  15  132.44   24.69
  -7  -3  15  178.18   29.12
  -7  -3  15  150.32   27.21
  -7   3  15  169.24   28.33
  -7   4   3  212.64   26.43
  -7   4   4   11.28   10.78
  -7   4   5 1136.59   64.11
  -7   4   6    6.47   11.38
  -7   4   7  643.82   50.38
  -7   4   8   17.99   16.04
  -7   4   9  313.76   38.26
  -7   4  10   87.84   22.96
  -7  -4  11  312.57   38.11
  -7   4  11  217.72   35.22
  -7   5   5   41.01   17.09
  -7   5   6   32.89   13.62
  -7   5   7  185.12   32.08
  -7   5   8   24.56   17.87
  -6   0 -11   24.96   16.74
  -6   0 -10   16.27   13.95
  -6   0  -9   -8.38   12.94
  -6   0  -8 1121.40   66.25
  -6   0  -7  -10.73   11.46
  -6   0  -6 1240.11   63.91
  -6   0  -5  -15.56   10.23
  -6   0  -4 1013.09   52.61
  -6   0  -3    3.53    9.79
  -6   0  -2 3170.57   97.40
  -6   0   1    0.09    5.46
  -6   0   1    1.15    1.80
  -6   0   2 1662.62   59.86
  -6   0   2 1675.12   49.87
  -6   0   2 1699.20   62.17
  -6   0   3  -12.72    8.03
  -6   0   3   -0.01    4.23
  -6   0   3    7.05    7.60
  -6   0   4 4179.26  100.71
  -6   0   4 4180.17  110.53
  -6   0   5   -6.81    7.22
  -6   0   6 2137.04   72.45
  -6   0   7   -0.75    7.10
  -6   0   8  952.16   47.66
  -6   0   8  857.57   39.05
  -6   0   9    3.18    6.57
  -6   0   9   -6.40   10.67
  -6   0  10  933.54   52.73
  -6   0  10  904.09   44.73
  -6   0  11    9.29   11.77
  -6   0  11  -10.72   11.29
  -6   0  11   -5.19    9.17
  -6   0  12  646.75   47.11
  -6   0  12  675.28   47.08
  -6   0  12  612.41   40.65
  -6   0  13   -9.93    8.86
  -6   0  13   17.58   13.34
  -6   0  13    2.74   12.70
  -6   0  14  785.62   56.76
  -6   0  14  764.48   55.16
  -6   0  14  695.04   48.36
  -6   0  15  -18.77   15.95
  -6   0  15   15.67   12.25
  -6   0  16  363.43   43.12
  -6   0  16  338.14   40.71
  -6  -1 -10  426.86   44.30
  -6   1 -10  408.04   43.16
  -6  -1  -9   80.79   20.44
  -6   1  -9  138.35   25.51
  -6  -1  -8  293.24   34.21
  -6   1  -8  329.98   35.67
  -6   1  -7  135.04   21.65
  -6  -1  -7  143.84   22.53
  -6   1  -6  707.12   46.87
  -6  -1  -6  648.98   45.45
  -6   1  -5  497.23   37.83
  -6  -1  -5  540.74   39.06
  -6   1  -4  954.23   51.20
  -6  -1  -4 1034.03   53.07
  -6  -1  -3   23.21   10.49
  -6   1  -3    8.92    8.57
  -6   1  -2  513.26   33.75
  -6  -1  -2  459.64   32.33
  -6   1  -1  180.19   18.98
  -6  -1  -1  213.22   16.95
  -6  -1   0 1233.72   40.16
  -6  -1   0 1240.12   45.32
  -6   1   1 1079.74   29.57
  -6  -1   1 1142.13   44.01
  -6  -1   1 1074.47   36.92
  -6   1   2 2065.79   54.25
  -6  -1   2 2230.45   66.77
  -6   1   3  232.54   20.79
  -6  -1   3  251.33   21.49
  -6  -1   3  243.94   19.13
  -6  -1   3  219.99   12.21
  -6  -1   4 1351.21   50.71
  -6  -1   4 1296.36   52.17
  -6   1   4 1376.39   53.20
  -6   1   5  449.90   29.09
  -6  -1   5  534.06   31.01
  -6   1   6 1665.47   44.20
  -6  -1   6 1712.65   62.89
  -6   1   6 1628.04   61.50
  -6   1   7  325.15   17.66
  -6  -1   7  329.18   26.21
  -6   1   7  317.07   26.10
  -6   1   8 1235.18   41.88
  -6   1   8 1308.06   57.53
  -6  -1   8 1291.59   56.59
  -6  -1   9   31.46   12.34
  -6   1   9   56.89   12.83
  -6   1   9   49.41    9.24
  -6   1  10  510.87   29.45
  -6  -1  10  547.46   39.51
  -6   1  10  551.10   39.56
  -6  -1  10  497.76   35.76
  -6   1  11  156.66   23.46
  -6  -1  11  115.46   18.25
  -6  -1  11  132.11   21.04
  -6  -1  11  149.79   21.38
  -6   1  11  183.18   23.94
  -6  -1  12  850.23   52.38
  -6  -1  12  898.90   56.26
  -6   1  12  925.73   56.81
  -6  -1  12  851.56   53.83
  -6   1  12  912.38   55.82
  -6  -1  13   78.25   18.19
  -6  -1  13   97.68   20.45
  -6   1  13   78.46   19.48
  -6  -1  13   52.57   16.81
  -6   1  13  120.06   22.39
  -6   1  14  541.76   46.91
  -6   1  14  508.27   45.14
  -6  -1  14  454.06   43.83
  -6  -1  14  449.53   41.61
  -6  -1  14  472.81   43.00
  -6   1  15   41.31   19.39
  -6  -1  15    8.87   12.77
  -6   1  15   63.69   19.68
  -6  -1  15   10.93   14.52
  -6  -1  15   27.27   17.14
  -6  -1  16  232.88   33.51
  -6  -1  16  202.07   30.49
  -6   1  16  244.33   34.28
  -6   1  16  204.70   32.31
  -6  -1  16  221.20   33.76
  -6  -2 -10  243.48   35.95
  -6   2 -10  160.53   28.36
  -6  -2  -9   89.65   21.86
  -6   2  -9   94.07   22.24
  -6  -2  -8  134.44   23.95
  -6   2  -8  168.72   25.90
  -6  -2  -7  283.81   32.01
  -6   2  -7  314.13   33.28
  -6  -2  -6  695.51   46.96
  -6   2  -6  586.01   43.85
  -6   2  -5   96.80   17.72
  -6  -2  -5   99.41   17.77
  -6   2  -4 1435.77   64.42
  -6  -2  -4 1340.05   62.41
  -6  -2  -3  316.55   28.23
  -6   2  -3  331.37   28.10
  -6   2  -2  245.00   23.59
  -6  -2  -2  301.15   25.79
  -6  -2  -1  457.99   30.31
  -6  -2  -1  429.41   20.57
  -6   2  -1  410.03   29.30
  -6   2   0  513.05   25.88
  -6  -2   0  537.20   24.18
  -6   2   1  301.53   17.09
  -6  -2   1  339.01   20.20
  -6   2   1  314.23   20.32
  -6   2   2  944.43   38.87
  -6  -2   2  946.11   37.01
  -6   2   2  930.69   28.05
  -6   2   3  495.93   30.79
  -6   2   3  454.71   27.68
  -6  -2   3  465.72   30.01
  -6  -2   3  477.60   26.56
  -6   2   4  564.92   32.65
  -6  -2   4  579.58   33.20
  -6   2   4  530.26   32.56
  -6  -2   4  568.39   30.96
  -6   2   5  623.54   34.81
  -6  -2   5  675.03   35.88
  -6   2   5  634.99   37.50
  -6   2   6  928.99   49.84
  -6  -2   6  994.27   45.77
  -6   2   6  988.05   45.98
  -6  -2   7  165.51   19.36
  -6   2   7  190.01   20.47
  -6  -2   8  325.48   28.11
  -6   2   8  350.65   29.07
  -6   2   9 1180.01   57.55
  -6  -2   9 1118.91   56.14
  -6   2  10  613.88   42.61
  -6   2  10  694.22   43.55
  -6  -2  10  655.06   45.39
  -6  -2  10  589.58   41.71
  -6  -2  10  637.09   41.60
  -6  -2  11  334.48   31.97
  -6  -2  11  351.31   35.04
  -6   2  11  417.31   36.06
  -6  -2  11  359.44   33.50
  -6   2  11  351.80   32.92
  -6   2  12  264.76   30.90
  -6  -2  12  228.65   28.68
  -6  -2  12  307.01   32.95
  -6  -2  12  276.09   30.97
  -6   2  12  312.34   32.60
  -6   2  13  154.97   26.11
  -6  -2  13   90.28   19.51
  -6  -2  13   91.20   19.31
  -6   2  13  102.45   20.22
  -6  -2  13  125.24   23.99
  -6   2  14  317.04   36.55
  -6  -2  14  393.76   39.59
  -6   2  14  388.76   38.92
  -6  -2  14  302.87   36.66
  -6  -2  14  309.00   36.12
  -6  -2  15   83.42   20.40
  -6   2  15  119.60   26.24
  -6  -2  15   45.93   16.10
  -6  -2  15  135.03   27.06
  -6   2  15  108.11   24.25
  -6  -3 -10   11.96   13.08
  -6   3 -10   25.94   15.16
  -6  -3  -9  115.78   23.84
  -6   3  -9  129.11   24.61
  -6   3  -8   49.07   16.36
  -6  -3  -8   51.44   15.15
  -6  -3  -7  132.29   22.49
  -6   3  -7  186.98   26.50
  -6  -3  -6  180.19   25.06
  -6   3  -6  216.39   26.13
  -6  -3  -5  208.86   24.40
  -6   3  -5  208.81   24.97
  -6  -3  -4   98.08   16.77
  -6   3  -4   89.55   16.27
  -6  -3  -3  506.21   34.80
  -6   3  -3  558.03   36.41
  -6   3  -2  410.79   29.54
  -6  -3  -2  455.93   31.37
  -6  -3  -1 1290.78   53.87
  -6   3  -1 1280.73   54.09
  -6   3   0  381.89   26.57
  -6  -3   0  355.76   25.84
  -6  -3   1  677.16   25.95
  -6  -3   2   34.20    6.92
  -6   3   2   52.53   13.84
  -6   3   3  797.82   43.77
  -6  -3   3  804.92   28.46
  -6  -3   3  775.69   34.59
  -6   3   4  334.02   25.28
  -6   3   4  306.12   27.84
  -6  -3   4  315.50   24.50
  -6   3   5  364.59   25.92
  -6   3   5  293.57   28.59
  -6  -3   5  330.59   25.47
  -6  -3   6   30.43   10.26
  -6   3   6   32.92   10.38
  -6   3   6   40.07   14.79
  -6   3   7  791.28   42.05
  -6   3   7  732.79   50.03
  -6  -3   7  795.87   42.22
  -6  -3   8  139.85   18.38
  -6   3   8   86.56   18.51
  -6   3   8  112.52   17.03
  -6   3   9  274.36   26.80
  -6   3   9  307.26   27.48
  -6   3   9  193.82   28.49
  -6  -3   9  253.37   25.05
  -6  -3   9  242.61   25.61
  -6   3  10  257.30   36.03
  -6   3  10  309.64   30.40
  -6  -3  10  246.53   26.45
  -6   3  10  282.90   28.63
  -6  -3  10  284.04   28.74
  -6  -3  10  286.25   32.73
  -6  -3  11  145.12   21.91
  -6   3  11   91.97   17.97
  -6   3  11  104.39   25.60
  -6  -3  11  124.45   21.31
  -6   3  11  151.58   22.77
  -6  -3  11  124.07   25.08
  -6   3  12  112.43   20.24
  -6  -3  12  157.75   23.42
  -6  -3  12  166.22   26.96
  -6   3  12  104.32   25.96
  -6  -3  12  121.19   21.21
  -6   3  12   95.51   19.11
  -6   3  13  137.60   29.69
  -6  -3  13  167.18   26.20
  -6  -3  13  211.73   28.17
  -6  -3  13  170.46   29.22
  -6   3  13  202.36   28.39
  -6   3  13  230.70   29.34
  -6  -3  14  257.59   31.93
  -6   3  14  268.99   33.04
  -6  -3  14  242.31   32.50
  -6   3  14  214.26   30.07
  -6   3  15   39.58   18.78
  -6  -3  15   48.74   18.17
  -6  -3  15   42.18   16.78
  -6   3  15   29.16   15.44
  -6   4   3  180.07   25.08
  -6   4   4   -0.64   11.78
  -6   4   5   67.68   15.72
  -6  -4   5   84.93   13.93
  -6   4   6  138.48   24.13
  -6   4   7  310.43   35.78
  -6   4   8  144.62   27.00
  -6   4   9  174.81   29.41
  -6   4  10  -15.46   12.74
  -6  -4  10   -6.32   12.07
  -6  -4  11  630.82   54.48
  -6   4  11  383.83   45.18
  -6   5   5  293.38   36.44
  -6   5   6  -26.24   19.32
  -6   5   7  193.23   32.16
  -6   5   8   -5.67   12.65
  -5   0 -11   -5.77   16.02
  -5   0 -10  516.28   46.34
  -5   0  -9  -11.38   12.38
  -5   0  -8  247.67   29.34
  -5   0  -7    7.02   10.68
  -5   0  -6 1357.69   63.67
  -5   0  -5    1.42    8.05
  -5   0  -4  477.24   32.39
  -5   0  -3    4.40    6.84
  -5   0  -2 2679.09   82.68
  -5   0  -1   -2.64    4.91
  -5   0   0 3131.62   87.32
  -5   0   0 3126.35   84.52
  -5   0   1    3.66    5.44
  -5   0   1   -7.34    6.49
  -5   0   2 2275.59   58.57
  -5   0   2 2290.27   69.06
  -5   0   2 2322.22   68.71
  -5   0   3   -1.93    4.15
  -5   0   3    7.94    6.78
  -5   0   3   10.81    7.06
  -5   0   4 1027.44   41.80
  -5   0   4  959.39   40.64
  -5   0   5    1.39    6.79
  -5   0   5    1.96    5.05
  -5   0   5   -1.71    5.05
  -5   0   6 4480.95  116.26
  -5   0   7   15.09    8.79
  -5   0   7    0.94    5.88
  -5   0   8 1248.10   54.71
  -5   0   8 1194.50   47.00
  -5   0   9   -9.07   10.15
  -5   0   9    8.20    7.22
  -5   0  10 1673.47   72.84
  -5   0  10 1762.27   66.67
  -5   0  10 1812.85   72.15
  -5   0  11    5.41   11.10
  -5   0  11   -3.15    7.94
  -5   0  11   14.58   11.30
  -5   0  12  373.82   35.91
  -5   0  12  380.10   32.06
  -5   0  12  450.32   38.75
  -5   0  13   -4.11   11.48
  -5   0  13   -3.79    8.93
  -5   0  13    1.84   11.89
  -5   0  14  920.90   60.21
  -5   0  14  834.87   59.43
  -5   0  15   -2.56   12.36
  -5   0  15   17.27   14.24
  -5   0  16  433.70   45.59
  -5   0  16  485.28   49.53
  -5   1 -11   13.92   16.08
  -5  -1 -11   26.32   16.65
  -5   1 -10  144.54   26.67
  -5  -1 -10  176.13   28.20
  -5   1  -9  182.00   27.69
  -5  -1  -9  168.82   26.92
  -5  -1  -8  675.82   48.39
  -5   1  -8  678.76   48.66
  -5   1  -7   13.57   12.02
  -5  -1  -7    9.14    9.93
  -5   1  -6  853.96   49.78
  -5  -1  -6  864.44   50.18
  -5  -1  -5  204.72   22.29
  -5   1  -5  234.23   24.30
  -5  -1  -4 1514.69   62.03
  -5   1  -4 1444.06   60.75
  -5  -1  -3  179.77   20.22
  -5   1  -3  213.33   21.92
  -5  -1  -2 1136.00   48.15
  -5   1  -2 1070.89   47.44
  -5  -1  -1   48.32   10.20
  -5  -1  -1   52.72    7.90
  -5  -1  -1   53.77    7.67
  -5   1  -1   30.34    8.01
  -5  -1   0 2086.96   58.75
  -5  -1   0 2074.30   55.58
  -5   1   0 1923.94   64.31
  -5  -1   0 2028.08   65.29
  -5   1   1  430.83   27.01
  -5  -1   1  438.32   23.45
  -5   1   1  404.10   16.87
  -5  -1   1  436.28   21.28
  -5  -1   1  445.98   26.58
  -5   1   1  457.83   27.60
  -5   1   2  822.87   40.01
  -5   1   2  894.58   37.90
  -5  -1   2  846.10   33.66
  -5   1   2  806.22   29.58
  -5  -1   2  826.90   37.52
  -5   1   2  912.53   39.00
  -5  -1   2  842.98   22.54
  -5   1   2  935.35   39.26
  -5  -1   2  934.29   39.14
  -5  -1   3 1937.44   58.50
  -5   1   3 1878.83   65.32
  -5   1   3 2019.36   62.81
  -5  -1   3 1901.98   60.53
  -5   1   3 1857.48   60.39
  -5  -1   4 2945.51   82.02
  -5   1   4 2872.74   81.57
  -5   1   4 3030.84   84.28
  -5  -1   4 2996.61   81.29
  -5  -1   5  407.53   25.33
  -5   1   5  403.83   26.02
  -5   1   5  436.27   26.26
  -5  -1   5  436.58   26.80
  -5   1   5  443.58   16.37
  -5   1   6 1148.75   34.18
  -5  -1   6 1172.05   47.82
  -5   1   6 1123.04   47.36
  -5  -1   7  292.46   23.98
  -5   1   7  271.22   23.68
  -5   1   7  277.82   16.54
  -5   1   8 1326.79   44.95
  -5  -1   8 1333.13   55.82
  -5  -1   8 1317.10   56.69
  -5   1   8 1418.01   58.37
  -5  -1   9  335.88   27.97
  -5   1   9  340.06   28.40
  -5  -1   9  348.42   28.26
  -5  -1   9  354.52   29.39
  -5   1   9  355.06   29.77
  -5   1  10  312.63   28.82
  -5  -1  10  221.00   24.38
  -5  -1  10  216.92   25.06
  -5   1  10  260.25   26.67
  -5  -1  10  225.79   24.15
  -5  -1  11  365.34   32.54
  -5   1  11  426.88   35.28
  -5  -1  11  404.55   34.91
  -5  -1  11  396.98   34.48
  -5   1  11  397.59   34.88
  -5  -1  12  470.77   38.33
  -5   1  12  494.61   39.91
  -5  -1  12  437.26   37.59
  -5   1  12  508.55   40.99
  -5  -1  12  522.68   42.76
  -5  -1  13  129.48   24.55
  -5  -1  13  102.60   20.31
  -5   1  13  162.53   24.97
  -5   1  13  134.99   23.27
  -5  -1  13  117.86   22.51
  -5  -1  14  343.02   36.86
  -5  -1  14  387.17   39.87
  -5  -1  14  304.88   35.29
  -5   1  14  344.78   38.20
  -5   1  14  418.43   40.73
  -5   1  15   -5.51   14.08
  -5   1  15   -5.36   12.52
  -5  -1  15   21.88   16.04
  -5  -1  15  -15.43   14.24
  -5  -1  15   16.80   14.08
  -5   1  16  417.76   45.27
  -5  -1  16  348.28   42.31
  -5   1  16  417.18   45.15
  -5  -1  16  358.39   44.22
  -5   2 -11   73.29   17.94
  -5  -2 -11   74.48   18.33
  -5  -2 -10  183.33   28.90
  -5   2 -10  215.21   30.73
  -5  -2  -9  117.21   22.32
  -5   2  -9  165.62   27.05
  -5  -2  -8  266.46   30.94
  -5   2  -8  314.29   33.02
  -5  -2  -7  211.92   26.05
  -5   2  -7  163.38   23.37
  -5  -2  -6  122.51   19.33
  -5   2  -6  109.78   18.83
  -5  -2  -5  588.46   39.13
  -5   2  -5  661.57   41.67
  -5   2  -4  910.29   46.79
  -5  -2  -4  888.81   46.23
  -5  -2  -3  886.09   43.88
  -5   2  -3  896.39   44.19
  -5   2  -2 1277.56   51.53
  -5  -2  -2 1185.54   50.16
  -5  -2  -1  449.43   28.29
  -5   2  -1  456.03   28.47
  -5   2  -1  504.79   26.03
  -5   2   0  597.70   25.81
  -5   2   0  501.00   28.69
  -5  -2   0  511.58   28.83
  -5  -2   0  588.26   22.89
  -5   2   1 1240.73   36.65
  -5  -2   1 1265.66   39.75
  -5  -2   1 1293.78   47.99
  -5   2   1 1212.92   46.87
  -5   2   1 1247.41   44.83
  -5   2   2 1968.48   63.34
  -5  -2   2 2133.32   58.44
  -5   2   2 2046.91   65.34
  -5  -2   2 2113.60   65.69
  -5  -2   2 2093.70   46.22
  -5   2   3  330.43   24.05
  -5  -2   3  424.51   25.36
  -5   2   3  358.38   23.65
  -5  -2   3  352.01   21.55
  -5  -2   4  273.23   20.31
  -5  -2   4  298.09   20.57
  -5   2   4  244.75   18.45
  -5   2   4  248.66   19.51
  -5   2   4  247.10   22.21
  -5   2   5  156.69   19.67
  -5   2   5  163.97   16.72
  -5  -2   5  140.03   15.31
  -5  -2   6  716.82   36.38
  -5   2   6  597.50   39.66
  -5   2   6  666.44   35.52
  -5   2   7   68.94   13.35
  -5  -2   7   48.41   10.90
  -5   2   8  973.34   47.73
  -5  -2   8  950.83   47.29
  -5  -2   9  121.20   18.26
  -5   2   9  113.31   17.62
  -5  -2   9  154.35   21.04
  -5   2   9  145.66   19.83
  -5  -2   9  112.40   17.38
  -5   2  10  691.96   43.92
  -5  -2  10  628.88   41.23
  -5   2  10  638.07   41.44
  -5  -2  10  628.82   42.57
  -5  -2  10  644.66   44.26
  -5  -2  11  486.17   39.10
  -5   2  11  489.29   37.60
  -5   2  11  387.78   35.12
  -5  -2  11  517.47   39.28
  -5  -2  11  449.69   38.91
  -5   2  12  399.60   36.10
  -5  -2  12  450.36   38.58
  -5  -2  12  416.87   38.43
  -5   2  12  389.40   37.83
  -5  -2  12  457.02   39.51
  -5  -2  13  111.49   21.46
  -5   2  13  112.97   21.37
  -5  -2  13  144.17   25.01
  -5  -2  13  110.71   22.73
  -5   2  13  136.14   23.56
  -5   2  14  251.60   32.02
  -5  -2  14  263.97   32.70
  -5  -2  14  230.67   31.24
  -5  -2  14  202.15   30.82
  -5   2  14  257.31   32.65
  -5  -2  15  332.20   39.16
  -5  -2  15  320.65   40.20
  -5   2  15  347.86   39.03
  -5  -2  15  339.62   38.67
  -5   2  15  362.25   41.12
  -5  -3 -11   89.98   22.86
  -5  -3 -10   73.67   19.65
  -5   3 -10   86.95   21.62
  -5   3  -9  122.44   23.03
  -5  -3  -9  101.11   21.40
  -5   3  -8  139.81   22.23
  -5  -3  -8  142.08   23.31
  -5   3  -7  204.93   25.42
  -5  -3  -7  182.80   24.97
  -5   3  -6  248.55   26.74
  -5  -3  -6  230.50   25.85
  -5  -3  -5  180.95   21.53
  -5   3  -5  228.08   24.76
  -5  -3  -4  262.26   24.44
  -5   3  -4  277.67   25.47
  -5  -3  -3  159.36   18.21
  -5   3  -3  170.85   19.33
  -5  -3  -2  341.04   24.99
  -5   3  -2  367.03   26.07
  -5   3  -1  898.95   39.99
  -5  -3  -1  880.90   39.64
  -5  -3   0  359.73   23.57
  -5  -3   0  342.66   22.78
  -5   3   0  386.11   24.49
  -5   3   0  362.40   23.59
  -5  -3   1  513.43   27.50
  -5   3   1  506.27   27.68
  -5   3   2  379.97   29.32
  -5  -3   2  366.25   18.93
  -5   3   2  336.13   22.10
  -5  -3   2  355.48   19.52
  -5  -3   2  340.07   22.08
  -5  -3   3  391.67   23.00
  -5   3   3  386.24   22.84
  -5   3   3  409.35   31.71
  -5  -3   3  415.07   22.49
  -5   3   3  385.21   24.59
  -5  -3   3  404.66   25.18
  -5  -3   4  348.87   22.31
  -5   3   4  393.52   23.33
  -5   3   4  390.32   24.70
  -5  -3   4  385.71   24.59
  -5   3   4  309.13   28.89
  -5  -3   5  952.56   40.17
  -5  -3   5 1006.84   42.21
  -5   3   5  923.46   51.92
  -5   3   5  939.08   40.01
  -5   3   5 1034.99   43.08
  -5   3   6  434.04   37.17
  -5   3   6  497.51   30.24
  -5  -3   6  494.36   29.90
  -5  -3   7  350.18   25.94
  -5  -3   7  339.91   25.21
  -5   3   7  352.98   25.90
  -5   3   7  365.13   27.08
  -5   3   7  309.62   32.95
  -5  -3   8  112.77   17.26
  -5   3   8   82.11   14.13
  -5   3   8  114.15   22.19
  -5  -3   8   98.15   14.91
  -5   3   8  106.67   15.38
  -5  -3   9  746.90   43.46
  -5  -3   9  782.91   44.86
  -5  -3   9  774.60   51.27
  -5   3   9  802.32   44.71
  -5   3   9  792.98   45.16
  -5   3  10  323.73   30.94
  -5   3  10  340.08   29.92
  -5  -3  10  342.28   30.81
  -5  -3  10  274.85   28.21
  -5  -3  10  294.47   33.43
  -5   3  11  513.38   39.17
  -5   3  11  581.40   41.70
  -5  -3  11  546.19   40.99
  -5  -3  11  552.18   40.30
  -5  -3  11  530.01   45.09
  -5  -3  12   59.03   16.87
  -5   3  12   44.79   14.62
  -5   3  12   35.80   13.84
  -5  -3  12   81.67   18.54
  -5   3  12   55.02   21.27
  -5  -3  12   51.62   16.88
  -5  -3  13  308.86   38.85
  -5   3  13  379.36   45.24
  -5  -3  13  353.36   37.17
  -5   3  13  352.58   36.45
  -5  -3  13  358.79   35.68
  -5   3  13  485.24   41.45
  -5   3  14   18.37   16.41
  -5   3  14   37.55   16.37
  -5  -3  14   21.33   14.72
  -5  -3  14   33.80   15.34
  -5   3  15  133.20   25.96
  -5  -3  15   78.99   21.53
  -5   3  15   59.66   18.38
  -5  -3  15   70.08   18.35
  -5  -4   2   76.70   10.97
  -5  -4   3  796.82   37.76
  -5   4   3  777.69   51.01
  -5   4   4  167.52   25.28
  -5  -4   4  145.89   16.72
  -5   4   5  165.09   25.75
  -5   4   6   75.71   18.86
  -5   4   7  366.51   38.03
  -5   4   8   38.14   16.14
  -5  -4   9  254.17   31.86
  -5   4   9  167.54   28.78
  -5  -4  10   25.49   15.74
  -5   4  10    9.30   12.05
  -5  -4  11  166.77   29.04
  -5   4  11   65.80   21.38
  -5   5   4   87.75   21.35
  -5   5   5  336.37   38.67
  -5   5   6   50.46   15.29
  -5   5   7  148.63   28.19
  -5  -5   8   27.03   16.24
  -5   5   8   34.91   18.97
  -4   0 -12  132.89   26.30
  -4   0 -11   19.80   14.89
  -4   0 -10  371.80   38.12
  -4   0  -9   16.50   12.70
  -4   0  -8  448.08   37.44
  -4   0  -7   -7.84   10.98
  -4   0  -6 1616.06   66.77
  -4   0  -5   -2.49    8.24
  -4   0  -4 2464.73   79.24
  -4   0  -3   -1.57    6.94
  -4   0  -2 1454.37   52.40
  -4   0  -2 1532.86   52.61
  -4   0  -1    6.25    5.63
  -4   0  -1    7.01    3.99
  -4   0   0 4087.70  101.92
  -4   0   0 4249.27   99.28
  -4   0   1   -1.36    6.27
  -4   0   1    1.92    4.54
  -4   0   1    2.97    5.14
  -4   0   2 4843.20  109.39
  -4   0   2 4670.11  100.70
  -4   0   2 4708.90  109.61
  -4   0   3    0.34    4.97
  -4   0   3   -5.32    5.65
  -4   0   4 2573.24   70.48
  -4   0   4 2531.00   70.32
  -4   0   4 2565.49   69.58
  -4   0   4 2467.35   68.66
  -4   0   5    5.85    6.49
  -4   0   5    8.88    6.26
  -4   0   5   -0.97    5.43
  -4   0   6 2550.67   68.81
  -4   0   6 2577.90   76.94
  -4   0   7    1.86    6.60
  -4   0   7   -4.69    6.05
  -4   0   8 1500.11   58.39
  -4   0   8 1515.10   59.92
  -4   0   8 1429.35   53.33
  -4   0   9    5.31    7.32
  -4   0   9   -2.37    8.66
  -4   0   9  -13.67   10.14
  -4   0  10  415.51   34.10
  -4   0  10  395.26   32.83
  -4   0  10  406.13   30.36
  -4   0  11  -11.32   13.09
  -4   0  11   11.11    9.54
  -4   0  11    9.97   12.02
  -4   0  12 1311.32   63.69
  -4   0  12 1294.47   68.18
  -4   0  12 1308.13   66.64
  -4   0  13    2.01   11.12
  -4   0  13   -0.58    9.65
  -4   0  14  356.05   37.22
  -4   0  14  408.88   41.74
  -4   0  15    8.26   13.29
  -4   0  15  -10.86   14.71
  -4   0  16  355.52   42.12
  -4   0  16  430.91   46.74
  -4   1 -12  116.92   25.59
  -4  -1 -12  145.62   28.37
  -4   1 -11  101.17   21.50
  -4  -1 -11  135.86   25.78
  -4  -1 -10  266.08   32.59
  -4   1 -10  289.27   35.02
  -4  -1  -9   38.65   14.89
  -4   1  -9   58.49   17.27
  -4   1  -8  571.52   42.89
  -4  -1  -8  650.86   45.59
  -4  -1  -7  241.75   26.17
  -4   1  -7  261.99   27.33
  -4   1  -6  500.77   35.56
  -4  -1  -6  521.17   36.70
  -4   1  -5  112.86   16.87
  -4  -1  -5  128.47   17.68
  -4  -1  -4 1466.23   57.44
  -4   1  -4 1477.92   58.16
  -4  -1  -3  719.83   36.36
  -4   1  -3  729.88   36.88
  -4   1  -2 1734.20   58.30
  -4  -1  -2 1669.96   57.23
  -4   1  -2 1743.68   55.77
  -4  -1  -2 1753.10   57.39
  -4   1  -2 1750.43   57.44
  -4  -1  -1  273.54   15.41
  -4   1  -1  271.54   20.55
  -4  -1  -1  300.88   19.98
  -4  -1  -1  292.87   20.76
  -4   1  -1  297.88   20.60
  -4  -1  -1  310.98   18.05
  -4   1  -1  300.30   20.37
  -4   1  -1  335.88   19.28
  -4  -1   0 2570.80   62.82
  -4   1   0 2428.61   68.54
  -4  -1   0 2465.04   61.59
  -4  -1   0 2367.50   67.65
  -4   1   0 2191.65   68.58
  -4   1   1  211.60   17.69
  -4   1   1  193.74   11.59
  -4  -1   1  187.65   13.27
  -4  -1   1  213.46   13.65
  -4   1   1  199.86   15.89
  -4  -1   1  199.25   15.75
  -4   1   2 1544.55   53.77
  -4  -1   2 1587.03   46.03
  -4   1   2 1420.40   44.33
  -4  -1   2 1497.93   48.46
  -4   1   2 1574.75   49.57
  -4   1   2 1694.65   51.84
  -4  -1   3  195.14   15.45
  -4   1   3  209.60   17.51
  -4   1   3  154.60   13.96
  -4   1   3  185.05   15.83
  -4  -1   4 3178.14   84.75
  -4  -1   4 3234.52   83.98
  -4   1   4 3604.80   90.01
  -4   1   4 3287.16   85.46
  -4   1   4 3371.21   84.84
  -4  -1   4 3311.62   84.36
  -4   1   4 3266.28   66.41
  -4   1   4 3603.04   90.48
  -4   1   4 3303.23   84.57
  -4   1   5  194.17   17.12
  -4  -1   5  190.77   16.29
  -4   1   5  179.92   15.32
  -4  -1   5  174.22   15.72
  -4   1   5  204.36   17.56
  -4  -1   5  190.63   16.09
  -4   1   5  197.47   16.21
  -4   1   5  171.41    9.85
  -4   1   6 2539.84   75.78
  -4  -1   6 2614.34   76.18
  -4   1   6 2403.00   60.95
  -4  -1   7  289.25   23.44
  -4  -1   7  280.14   22.98
  -4   1   7  272.76   22.61
  -4  -1   8 2067.93   71.45
  -4  -1   8 2024.13   73.20
  -4  -1   8 2131.15   72.73
  -4   1   8 2050.99   73.25
  -4   1   8 2258.86   74.13
  -4   1   9  189.70   22.13
  -4  -1   9  174.59   20.34
  -4   1   9  191.19   21.18
  -4  -1   9  158.20   19.70
  -4  -1   9  154.49   20.39
  -4  -1  10 1381.00   63.39
  -4   1  10 1500.71   64.80
  -4   1  10 1475.10   65.76
  -4  -1  10 1426.19   64.04
  -4  -1  10 1476.93   66.09
  -4   1  11  142.65   21.48
  -4  -1  11  152.09   21.58
  -4   1  11  167.97   22.62
  -4  -1  11  167.25   22.62
  -4  -1  11  174.91   23.71
  -4  -1  12  417.25   36.72
  -4  -1  12  407.08   37.71
  -4   1  12  491.38   40.96
  -4  -1  12  410.44   36.67
  -4   1  12  412.43   37.04
  -4   1  13  236.78   29.85
  -4  -1  13  164.10   25.81
  -4   1  13  209.97   27.31
  -4  -1  13  229.60   28.97
  -4  -1  13  179.03   26.31
  -4  -1  14  252.21   32.45
  -4  -1  14  226.18   31.64
  -4   1  14  215.32   30.43
  -4   1  14  305.02   35.64
  -4  -1  14  222.14   30.43
  -4   1  15  179.83   30.31
  -4   1  15  223.01   31.60
  -4  -1  15  221.35   31.82
  -4  -1  15  178.37   29.40
  -4  -1  16  145.38   28.81
  -4  -2 -12  151.53   28.09
  -4   2 -12  154.41   29.09
  -4  -2 -11  105.99   23.74
  -4   2 -11  136.98   26.72
  -4  -2 -10  232.01   31.48
  -4   2 -10  208.76   29.92
  -4  -2  -9   96.53   20.56
  -4   2  -9   95.71   20.32
  -4  -2  -8  178.87   24.36
  -4   2  -8  205.81   25.20
  -4  -2  -7  148.93   21.66
  -4   2  -7  207.24   24.40
  -4  -2  -6  602.00   39.32
  -4   2  -6  572.40   38.36
  -4   2  -5  266.09   24.24
  -4  -2  -5  263.34   24.49
  -4  -2  -4  403.35   28.02
  -4   2  -4  360.30   26.82
  -4  -2  -3  194.12   18.42
  -4   2  -3  202.52   18.90
  -4   2  -2  892.68   39.02
  -4  -2  -2  877.54   38.40
  -4   2  -2  833.25   36.54
  -4   2  -2  951.33   39.12
  -4  -2  -2  905.65   38.23
  -4   2  -1 1023.82   37.69
  -4  -2  -1  988.35   39.64
  -4  -2  -1 1040.14   39.59
  -4   2  -1 1004.10   39.86
  -4   2  -1 1045.69   39.70
  -4  -2   0  459.70   17.12
  -4  -2   0  417.35   26.79
  -4  -2   0  422.47   23.32
  -4   2   0  384.29   22.38
  -4   2   1  924.83   38.41
  -4  -2   1 1007.44   26.41
  -4  -2   1  924.72   41.38
  -4  -2   1  998.08   30.78
  -4   2   1  895.49   36.12
  -4  -2   1  930.34   36.37
  -4  -2   2 1666.42   51.90
  -4   2   2 1671.30   52.24
  -4  -2   2 1610.76   51.47
  -4   2   2 1713.98   52.56
  -4   2   2 1485.81   53.80
  -4   2   3 1631.13   59.68
  -4  -2   3 1752.42   53.01
  -4   2   3 1717.98   53.00
  -4   2   3 1618.68   58.79
  -4  -2   4 2508.03   68.03
  -4   2   4 2204.78   76.58
  -4  -2   4 2363.60   67.35
  -4   2   4 2402.70   68.13
  -4   2   4 2520.59   67.87
  -4   2   5  536.53   27.76
  -4   2   5  420.43   31.39
  -4   2   5  519.89   28.49
  -4  -2   5  495.98   27.13
  -4  -2   5  542.83   27.75
  -4  -2   5  516.72   27.00
  -4   2   5  500.65   26.81
  -4   2   6 1030.72   53.07
  -4  -2   6 1152.34   45.93
  -4   2   6 1173.86   46.75
  -4  -2   7 1131.05   47.47
  -4   2   7 1102.64   46.96
  -4  -2   7 1091.83   48.08
  -4   2   7 1093.04   48.40
  -4  -2   8  549.56   34.95
  -4  -2   8  629.32   40.41
  -4  -2   8  563.90   34.47
  -4   2   8  572.53   36.09
  -4   2   8  573.46   34.38
  -4  -2   9  188.64   23.22
  -4   2   9  183.66   21.83
  -4  -2   9  198.02   23.76
  -4   2   9  202.48   22.15
  -4  -2   9  185.42   21.34
  -4  -2  10  268.63   28.38
  -4  -2  10  230.41   25.86
  -4   2  10  217.19   24.48
  -4   2  10  254.70   25.69
  -4  -2  10  270.43   27.36
  -4  -2  11  464.27   39.81
  -4  -2  11  405.60   35.83
  -4  -2  11  502.16   38.50
  -4   2  11  446.22   37.53
  -4   2  11  487.42   38.39
  -4   2  12  269.68   30.54
  -4  -2  12  202.67   28.70
  -4  -2  12  259.03   29.29
  -4   2  12  220.25   26.45
  -4  -2  12  222.49   28.37
  -4   2  13   86.91   19.25
  -4  -2  13  104.30   23.81
  -4  -2  13  105.09   20.19
  -4   2  13  101.56   20.51
  -4  -2  13   90.14   19.96
  -4   2  14  168.64   29.15
  -4  -2  14  187.54   30.23
  -4  -2  14  249.33   32.57
  -4   2  14  238.30   31.21
  -4  -2  14  216.32   30.26
  -4  -2  15   99.78   26.09
  -4  -2  15   60.06   20.35
  -4   2  15   98.28   23.70
  -4   2  15   80.42   21.18
  -4  -2  15   82.08   21.63
  -4  -3 -11  108.97   24.32
  -4   3 -11  144.06   26.02
  -4  -3 -10   13.85   12.67
  -4   3 -10   13.63   11.98
  -4   3  -9  302.38   33.00
  -4  -3  -9  354.77   35.81
  -4   3  -8   31.69   13.64
  -4  -3  -8   64.21   16.17
  -4   3  -7  309.01   30.13
  -4  -3  -7  330.56   30.82
  -4   3  -6   35.67   10.81
  -4  -3  -6   43.76   12.45
  -4   3  -5  504.81   33.29
  -4  -3  -5  514.00   34.08
  -4  -3  -4  358.59   26.76
  -4   3  -4  359.64   26.58
  -4  -3  -3  691.32   34.98
  -4   3  -3  593.19   32.37
  -4   3  -2  528.72   27.86
  -4  -3  -2  444.73   25.74
  -4   3  -2  486.00   26.76
  -4  -3  -2  469.04   26.49
  -4  -3  -1  457.54   24.30
  -4   3  -1  442.93   23.75
  -4   3  -1  446.53   24.04
  -4  -3  -1  427.41   23.25
  -4  -3   0  447.90   23.07
  -4  -3   0  424.32   22.09
  -4   3   0  424.81   22.16
  -4   3   0  426.39   22.65
  -4   3   1  945.90   35.55
  -4  -3   1 1122.15   37.66
  -4   3   1  986.85   48.81
  -4  -3   1 1032.78   36.40
  -4  -3   1 1098.24   31.75
  -4   3   2  469.32   33.23
  -4   3   2  519.02   23.41
  -4   3   2  463.65   23.63
  -4  -3   2  565.37   24.47
  -4  -3   2  529.93   25.98
  -4  -3   2  529.79   24.88
  -4  -3   3  579.58   25.65
  -4   3   3  579.90   25.35
  -4   3   3  522.47   36.26
  -4  -3   3  603.96   27.86
  -4  -3   3  554.12   26.50
  -4   3   3  560.63   27.09
  -4   3   3  575.56   27.49
  -4  -3   4  490.17   24.71
  -4   3   4  454.42   35.62
  -4   3   4  489.88   25.24
  -4  -3   4  482.71   25.06
  -4   3   4  481.36   24.30
  -4   3   5  962.48   53.68
  -4  -3   5 1045.89   41.23
  -4   3   5 1107.35   42.61
  -4  -3   5 1114.59   41.92
  -4   3   5 1069.84   40.80
  -4  -3   6  333.84   22.94
  -4   3   6  310.79   22.25
  -4   3   6  313.69   22.90
  -4   3   6  224.91   27.17
  -4  -3   6  336.71   23.09
  -4   3   7  295.72   32.60
  -4   3   7  363.98   25.68
  -4  -3   7  362.53   25.80
  -4  -3   7  383.78   27.16
  -4   3   7  360.42   25.73
  -4  -3   8   56.39   15.84
  -4   3   8   57.90   12.18
  -4  -3   8   71.12   13.31
  -4   3   8   60.36   11.87
  -4  -3   8   92.76   14.83
  -4   3   8   62.16   17.26
  -4  -3   9  460.70   39.46
  -4   3   9  444.21   43.18
  -4  -3   9  474.40   33.80
  -4  -3   9  494.82   34.06
  -4   3   9  456.89   33.81
  -4   3   9  488.27   33.92
  -4  -3  10  112.46   20.91
  -4  -3  10  118.59   18.59
  -4   3  10  139.38   19.71
  -4   3  10  114.45   24.93
  -4   3  10  162.35   21.56
  -4  -3  10  131.13   19.41
  -4  -3  11  294.83   34.68
  -4   3  11  269.58   29.04
  -4  -3  11  207.17   26.57
  -4   3  11  237.38   27.24
  -4  -3  11  239.92   27.14
  -4   3  11  230.19   32.97
  -4  -3  12  177.68   24.65
  -4   3  12  175.84   25.19
  -4  -3  12  165.67   24.79
  -4   3  12  205.96   27.00
  -4  -3  12  198.21   29.67
  -4   3  12  136.25   28.26
  -4  -3  13  163.88   26.43
  -4   3  13  205.53   28.43
  -4   3  13  216.27   28.33
  -4  -3  13  215.10   27.94
  -4   3  13  189.16   32.82
  -4  -3  13  236.64   33.78
  -4  -3  14   38.42   14.62
  -4  -3  14   48.14   13.33
  -4   3  14   51.46   16.77
  -4   3  14   68.74   17.75
  -4  -3  15   70.23   20.96
  -4  -3  15  120.77   24.94
  -4   3  15   83.59   22.09
  -4   3  15   80.89   22.59
  -4  -4   1 1169.27   46.82
  -4  -4   2   62.66    8.81
  -4   4   2   43.91   13.60
  -4  -4   2   77.27   12.33
  -4   4   3  816.44   52.46
  -4  -4   3  856.07   42.15
  -4   4   4   79.93   19.28
  -4  -4   4   74.13   13.50
  -4   4   5  135.53   23.62
  -4   4   6   31.78   14.61
  -4   4   7  506.15   44.69
  -4  -4   8   18.18   12.09
  -4   4   8   -2.93   11.78
  -4  -4   9  364.23   38.37
  -4   4   9  269.25   35.98
  -4  -4  10   76.95   21.08
  -4   4  10   66.08   20.37
  -4  -4  11  146.56   28.45
  -4   4  11  117.51   26.36
  -4   5   4  190.99   30.35
  -4  -5   5  169.88   23.54
  -4   5   5  193.77   30.42
  -4   5   6  -13.86   19.49
  -4  -5   6   10.97   10.50
  -4  -5   7  118.07   22.92
  -4   5   7  120.36   26.32
  -4  -5   8   27.45   16.65
  -4   5   8   19.23   15.23
  -4  -5   9  287.79   38.41
  -3   0 -13   26.47   17.21
  -3   0 -12  922.93   64.52
  -3   0 -11    0.56   14.25
  -3   0 -10  457.29   39.58
  -3   0  -9   33.44   13.27
  -3   0  -8  771.07   47.32
  -3   0  -7   -0.93    8.38
  -3   0  -6  835.89   43.86
  -3   0  -5   13.67    8.23
  -3   0  -4  649.26   33.77
  -3   0  -3    7.44    5.62
  -3   0  -3    0.80    5.09
  -3   0  -2 1725.62   53.58
  -3   0  -2 1692.19   52.39
  -3   0  -1   -3.33    4.66
  -3   0  -1    4.29    4.41
  -3   0   0 3332.66   79.19
  -3   0   0 3476.44   82.27
  -3   0   1    2.46    4.39
  -3   0   1   -9.75    5.50
  -3   0   1   -0.81    2.91
  -3   0   2  516.15   22.13
  -3   0   2  484.96   21.62
  -3   0   3   -4.77    5.06
  -3   0   3    4.50    4.62
  -3   0   3    3.58    3.78
  -3   0   4 5865.11  130.90
  -3   0   4 6025.87  129.83
  -3   0   4 5974.01  130.16
  -3   0   5    4.79    6.33
  -3   0   5   -2.95    4.89
  -3   0   5    4.11    5.09
  -3   0   5    5.50    5.18
  -3   0   6 5540.32  127.97
  -3   0   6 5611.88  134.38
  -3   0   6 5870.60  134.45
  -3   0   6 5737.24  134.35
  -3   0   7   -0.79    8.08
  -3   0   7    2.81    5.42
  -3   0   7   -0.68    7.61
  -3   0   8 3220.48   98.05
  -3   0   8 3531.60   98.73
  -3   0   8 3213.42   92.65
  -3   0   9   12.91    8.54
  -3   0   9   11.87    9.50
  -3   0   9   10.74    9.74
  -3   0  10 1980.50   77.26
  -3   0  10 2143.46   81.16
  -3   0  10 1983.82   74.66
  -3   0  11  -10.69    9.64
  -3   0  11    5.91    8.76
  -3   0  12  602.42   45.75
  -3   0  12  654.16   46.34
  -3   0  13    2.94   10.96
  -3   0  13   -4.26   11.48
  -3   0  14   17.13   13.25
  -3   0  14   69.51   21.70
  -3   0  15   31.64   17.99
  -3   0  15   -5.26   12.70
  -3  -1 -13   43.97   20.43
  -3   1 -13  -23.84   16.31
  -3   1 -12  227.76   32.96
  -3  -1 -12  183.36   29.54
  -3  -1 -11   84.69   21.84
  -3   1 -11  116.59   24.08
  -3  -1 -10  576.56   45.67
  -3   1 -10  612.48   47.26
  -3   1  -9  310.10   31.65
  -3  -1  -9  333.57   32.71
  -3  -1  -8  668.93   43.88
  -3   1  -8  699.36   44.76
  -3   1  -7   19.71   10.49
  -3  -1  -7   15.73    9.47
  -3  -1  -6  771.61   42.42
  -3   1  -6  820.31   43.68
  -3   1  -5  124.87   16.31
  -3  -1  -5  115.64   14.73
  -3  -1  -4 1381.57   52.75
  -3   1  -4 1457.14   54.23
  -3  -1  -3   54.60    9.33
  -3   1  -3   77.76   10.85
  -3   1  -3   73.36   10.41
  -3  -1  -3   70.51   10.60
  -3   1  -3   72.64   10.94
  -3   1  -2 1595.96   50.97
  -3  -1  -2 1680.81   52.55
  -3   1  -2 1695.38   52.94
  -3  -1  -2 1665.09   51.62
  -3   1  -2 1644.28   50.86
  -3   1  -1  304.07   16.53
  -3   1  -1  278.47   17.81
  -3   1  -1  273.63   18.58
  -3   1  -1  266.06   16.65
  -3  -1  -1  314.80   17.78
  -3  -1  -1  273.34   17.10
  -3  -1  -1  295.81   18.04
  -3  -1  -1  256.05   12.30
  -3   1   0 1080.27   31.11
  -3   1   0 1057.54   30.19
  -3  -1   0 1081.68   30.22
  -3  -1   0 1023.98   33.66
  -3   1   0  954.85   34.46
  -3  -1   0  986.61   34.74
  -3   1   0 1027.76   37.66
  -3   1   1  680.24   19.24
  -3   1   1  640.15   28.58
  -3   1   1  702.58   27.17
  -3  -1   1  677.52   23.02
  -3   1   1  681.87   29.16
  -3   1   1  591.03   23.01
  -3  -1   1  685.81   26.64
  -3  -1   1  713.53   27.17
  -3   1   1  671.29   26.67
  -3  -1   2 3370.51   78.04
  -3   1   2 3651.80   84.39
  -3   1   2 3487.65   84.33
  -3   1   2 3368.15   78.15
  -3   1   3  936.49   35.97
  -3   1   3  942.17   32.03
  -3  -1   3  893.02   31.40
  -3   1   3  879.95   32.02
  -3  -1   3  851.55   30.80
  -3   1   3  908.21   34.67
  -3  -1   3  882.90   31.60
  -3   1   3  918.58   31.90
  -3  -1   4 1635.41   49.37
  -3   1   4 1690.21   49.53
  -3   1   4 1635.30   51.16
  -3  -1   4 1566.31   49.38
  -3   1   4 1612.58   49.92
  -3   1   4 1658.91   49.73
  -3  -1   4 1651.36   49.21
  -3   1   5  300.82   19.64
  -3  -1   5  292.35   19.31
  -3   1   5  273.13   19.70
  -3   1   5  276.96   19.67
  -3  -1   5  279.01   18.86
  -3   1   5  298.86   20.09
  -3  -1   5  281.85   19.31
  -3  -1   6 1337.29   51.03
  -3  -1   6 1436.90   50.73
  -3   1   6 1405.66   51.47
  -3  -1   6 1392.65   51.04
  -3  -1   6 1405.85   50.93
  -3   1   6 1487.77   51.53
  -3   1   6 1454.27   51.54
  -3   1   7 1130.92   47.25
  -3  -1   7 1097.40   47.52
  -3  -1   7 1165.16   47.78
  -3  -1   7 1172.28   48.45
  -3   1   7 1097.61   48.17
  -3   1   8 1474.76   59.21
  -3  -1   8 1447.60   58.32
  -3   1   8 1485.60   58.70
  -3  -1   8 1460.05   58.67
  -3  -1   8 1500.58   59.45
  -3  -1   9  311.59   26.28
  -3   1   9  245.55   23.57
  -3  -1   9  221.03   22.80
  -3  -1   9  232.69   24.26
  -3   1   9  264.12   25.52
  -3  -1  10 1633.84   69.61
  -3   1  10 1672.52   70.31
  -3  -1  10 1614.39   70.49
  -3   1  10 1666.47   71.23
  -3  -1  10 1671.34   71.09
  -3  -1  11   15.34    9.12
  -3   1  11  -11.48   13.29
  -3  -1  11   13.49    9.88
  -3   1  11   14.51   11.12
  -3  -1  11   27.47   10.66
  -3   1  12  550.38   42.44
  -3  -1  12  554.11   43.21
  -3  -1  12  547.03   44.01
  -3   1  12  552.33   43.73
  -3  -1  12  592.19   43.37
  -3  -1  13  164.98   25.49
  -3   1  13  228.53   29.80
  -3  -1  13  208.68   28.83
  -3   1  13  217.84   30.09
  -3  -1  13  165.79   24.99
  -3  -1  14  599.78   48.61
  -3   1  14  549.73   46.86
  -3   1  14  582.07   49.87
  -3  -1  14  577.46   50.15
  -3  -1  15   -6.50   14.07
  -3   1  15    1.98   13.84
  -3   1  15   14.49   12.87
  -3  -1  15   42.82   14.32
  -3  -2 -13  182.56   30.55
  -3  -2 -12  164.66   28.53
  -3   2 -12  151.78   28.26
  -3  -2 -11  177.47   27.88
  -3   2 -11  184.05   26.50
  -3  -2 -10  317.42   34.16
  -3   2 -10  324.36   34.64
  -3   2  -9   84.15   18.49
  -3  -2  -9   67.51   17.46
  -3   2  -8  282.06   28.63
  -3  -2  -8  319.41   31.45
  -3   2  -7  394.00   31.97
  -3  -2  -7  347.06   30.18
  -3  -2  -6  464.00   32.37
  -3   2  -6  460.08   32.54
  -3  -2  -5  274.69   23.69
  -3   2  -5  202.73   20.63
  -3  -2  -4 1153.53   47.35
  -3   2  -4 1175.96   47.78
  -3  -2  -3  163.33   15.26
  -3   2  -3  187.91   16.21
  -3   2  -3  170.97   16.32
  -3  -2  -3  155.51   14.86
  -3  -2  -2 2405.77   65.79
  -3  -2  -2 2298.78   65.61
  -3   2  -2 2380.60   65.46
  -3   2  -2 2343.96   66.05
  -3  -2  -1  597.41   26.20
  -3  -2  -1  628.25   33.33
  -3   2  -1  576.70   25.66
  -3  -2  -1  627.54   26.20
  -3   2  -1  593.86   25.58
  -3  -2   0 1600.40   56.76
  -3   2   0 1598.16   55.19
  -3  -2   0 1658.83   37.03
  -3  -2   0 1685.92   42.13
  -3   2   0 1641.49   46.70
  -3  -2   0 1640.81   46.73
  -3   2   1  428.27   25.05
  -3   2   1  404.32   19.69
  -3  -2   1  469.56   27.72
  -3  -2   1  436.65   18.52
  -3   2   1  417.50   24.65
  -3  -2   1  436.79   20.22
  -3   2   2  747.58   27.25
  -3   2   2  667.94   33.49
  -3  -2   2  712.29   26.69
  -3   2   2  568.34   29.78
  -3  -2   2  622.04   33.10
  -3   2   3  585.41   30.61
  -3  -2   3  637.13   25.67
  -3   2   3  579.05   32.70
  -3  -2   3  646.54   26.16
  -3   2   3  654.07   26.52
  -3   2   3  690.03   26.20
  -3   2   4  475.00   23.40
  -3   2   4  502.83   27.60
  -3   2   4  386.02   28.27
  -3  -2   4  467.21   23.28
  -3   2   4  459.87   23.70
  -3  -2   4  482.70   23.23
  -3   2   4  451.80   22.75
  -3  -2   4  492.54   23.69
  -3   2   5 1183.39   42.61
  -3  -2   5 1229.66   43.20
  -3   2   5 1299.97   47.24
  -3   2   5 1090.48   52.46
  -3  -2   5 1168.51   43.21
  -3  -2   5 1204.85   42.78
  -3   2   5 1177.68   42.56
  -3   2   5 1169.46   43.05
  -3  -2   6 1048.10   42.63
  -3   2   6 1101.23   44.19
  -3   2   6  989.86   51.65
  -3  -2   6 1043.82   42.89
  -3   2   6 1014.91   43.23
  -3  -2   6 1096.59   43.07
  -3   2   6  988.73   41.77
  -3   2   6 1124.52   44.06
  -3  -2   6 1109.08   43.57
  -3   2   7  321.83   23.94
  -3  -2   7  352.84   28.29
  -3  -2   7  369.97   25.30
  -3  -2   7  339.82   25.35
  -3   2   7  355.74   25.46
  -3   2   8 1420.59   57.29
  -3  -2   8 1447.89   58.55
  -3   2   8 1340.96   57.11
  -3  -2   8 1451.87   57.23
  -3  -2   8 1306.88   59.76
  -3  -2   9   99.16   17.02
  -3  -2   9   94.48   15.99
  -3   2   9  122.08   17.15
  -3  -2   9   91.30   15.96
  -3   2   9   99.68   15.82
  -3  -2  10  249.25   26.52
  -3  -2  10  310.63   31.04
  -3  -2  10  241.75   26.00
  -3   2  10  293.37   27.50
  -3   2  10  283.18   28.98
  -3  -2  11  364.83   35.85
  -3   2  11  301.74   30.50
  -3  -2  11  363.26   33.46
  -3   2  11  322.03   32.05
  -3  -2  11  355.08   33.69
  -3  -2  12  246.96   30.13
  -3   2  12  289.88   30.76
  -3  -2  12  248.86   29.17
  -3  -2  12  256.40   32.67
  -3   2  12  248.38   29.89
  -3   2  13  286.79   32.39
  -3  -2  13  353.27   35.90
  -3   2  13  347.22   37.74
  -3  -2  13  413.46   41.73
  -3  -2  13  314.50   35.16
  -3   2  14  122.38   25.05
  -3   2  14  174.02   26.89
  -3  -2  14  143.32   26.15
  -3  -2  14  146.23   25.90
  -3  -2  14  149.46   26.74
  -3   2  15  100.23   22.28
  -3  -2  15  141.38   29.02
  -3   2  15  144.61   27.16
  -3  -2  15  109.15   21.86
  -3  -2  15   81.47   22.64
  -3  -3 -12  132.75   25.99
  -3   3 -12   94.71   23.83
  -3  -3 -11  105.48   22.04
  -3   3 -11  126.92   23.59
  -3  -3 -10   96.38   20.13
  -3   3 -10  103.72   20.24
  -3  -3  -9  221.76   27.74
  -3   3  -9  213.02   27.09
  -3  -3  -8  216.41   25.73
  -3   3  -8  236.00   26.26
  -3  -3  -7  356.82   30.79
  -3   3  -7  328.55   29.70
  -3  -3  -6  304.43   26.12
  -3   3  -6  309.27   26.36
  -3  -3  -5 1146.58   49.56
  -3   3  -5 1143.74   49.46
  -3   3  -4  306.84   22.43
  -3  -3  -4  285.17   21.89
  -3   3  -3 1199.52   44.10
  -3  -3  -3 1214.24   44.59
  -3  -3  -3 1199.00   44.89
  -3   3  -3 1291.34   46.00
  -3  -3  -2  164.07   13.70
  -3   3  -2  158.17   13.48
  -3  -3  -2  150.53   13.43
  -3   3  -2  172.22   13.98
  -3  -3  -1  666.46   26.96
  -3   3  -1  754.12   28.21
  -3   3  -1  681.29   26.83
  -3  -3  -1  718.02   27.28
  -3   3   0  335.47   16.25
  -3  -3   0  281.00   10.68
  -3  -3   0  315.21   10.93
  -3  -3   0  332.91   16.07
  -3  -3   0  322.65   15.92
  -3  -3   0  379.89   21.46
  -3   3   0  351.31   16.59
  -3   3   1  815.01   26.91
  -3  -3   1  924.17   36.14
  -3  -3   1  795.88   26.49
  -3   3   1  776.58   42.88
  -3  -3   1  830.48   26.94
  -3   3   1  838.82   26.93
  -3  -3   2  198.81   11.71
  -3  -3   2  201.65   17.74
  -3   3   2  215.04   12.23
  -3   3   2  213.01   22.99
  -3   3   2  188.64   12.27
  -3  -3   2  192.46   12.37
  -3   3   3 1051.00   34.43
  -3   3   3  897.03   48.66
  -3  -3   3  974.08   32.26
  -3   3   3 1050.78   32.94
  -3  -3   3 1012.34   33.56
  -3  -3   4  604.72   25.68
  -3   3   4  461.20   34.89
  -3   3   4  572.05   24.94
  -3  -3   4  575.01   25.24
  -3   3   4  574.74   25.80
  -3   3   4  586.98   25.40
  -3  -3   4  603.70   25.74
  -3  -3   5  433.90   23.77
  -3   3   5  360.89   32.70
  -3   3   5  427.36   23.48
  -3   3   5  460.16   24.31
  -3  -3   5  472.49   24.50
  -3   3   5  428.44   23.81
  -3  -3   5  454.47   23.65
  -3   3   5  438.03   23.55
  -3  -3   5  458.95   24.64
  -3   3   6  531.50   28.66
  -3  -3   6  581.63   29.64
  -3   3   6  421.94   36.90
  -3  -3   6  560.84   29.65
  -3   3   6  520.98   28.95
  -3  -3   6  518.37   28.10
  -3   3   6  559.85   29.37
  -3  -3   6  502.12   27.66
  -3  -3   7  183.96   18.68
  -3   3   7  205.76   18.92
  -3  -3   7  144.45   20.70
  -3  -3   7  194.14   18.54
  -3   3   7  183.09   25.17
  -3   3   7  187.61   18.35
  -3  -3   8  377.57   27.76
  -3   3   8  375.31   28.72
  -3  -3   8  437.80   36.08
  -3   3   8  293.99   33.56
  -3  -3   8  397.38   28.98
  -3   3   8  424.59   29.17
  -3  -3   9  352.04   28.51
  -3   3   9  301.43   26.51
  -3   3   9  289.84   34.99
  -3  -3   9  304.58   27.03
  -3   3   9  294.99   26.83
  -3  -3   9  329.95   33.17
  -3   3  10   99.34   17.42
  -3  -3  10  123.52   22.96
  -3   3  10   92.47   16.66
  -3  -3  10  100.45   17.17
  -3  -3  10   77.43   16.27
  -3   3  10   94.94   21.18
  -3  -3  11  257.97   29.60
  -3  -3  11  284.06   34.14
  -3   3  11  288.05   30.28
  -3   3  11  320.10   30.82
  -3  -3  11  280.45   28.41
  -3   3  11  269.11   35.60
  -3  -3  12  183.36   29.81
  -3   3  12  209.79   26.48
  -3   3  12  191.82   25.85
  -3  -3  12  222.62   27.63
  -3   3  12  265.74   38.21
  -3  -3  12  235.49   29.42
  -3  -3  13  205.66   29.17
  -3   3  13  196.90   27.62
  -3  -3  13  217.14   33.13
  -3  -3  13  218.41   28.70
  -3   3  13  179.47   26.64
  -3   3  13  252.25   37.70
  -3  -3  14   12.19   14.71
  -3   3  14   11.17   10.82
  -3   3  14   29.59   15.72
  -3  -3  14   20.91   13.24
  -3   3  15  323.39   39.24
  -3  -3  15  352.58   39.90
  -3  -3  15  353.65   40.69
  -3   3  15  369.90   40.77
  -3  -4   0    3.66    6.37
  -3  -4   1  280.09   16.30
  -3  -4   1  318.59   24.81
  -3  -4   2  200.27   20.37
  -3   4   2  151.26   22.99
  -3  -4   2  163.63   14.39
  -3  -4   3  793.15   42.82
  -3   4   3  717.02   49.63
  -3   4   4   96.90   18.92
  -3   4   5  585.99   46.67
  -3   4   6  217.89   28.14
  -3   4   7  260.90   33.57
  -3  -4   7  319.88   33.91
  -3  -4   8   97.30   21.92
  -3   4   8  127.36   24.59
  -3  -4   9  366.43   38.98
  -3   4   9  340.27   40.97
  -3  -4  10   31.72   16.66
  -3   4  10   35.68   16.13
  -3  -4  11  259.60   35.15
  -3   4  11  310.47   41.51
  -3  -5   1  716.33   43.89
  -3  -5   2   72.75   16.43
  -3  -5   3  353.69   31.81
  -3  -5   4   92.05   18.21
  -3   5   4  118.82   24.97
  -3   5   5  336.98   41.15
  -3  -5   5  373.72   35.73
  -3  -5   6   14.60   10.54
  -3  -5   6    3.39   11.77
  -3   5   6   20.50   15.05
  -3  -5   7  227.64   31.13
  -3   5   7  232.04   35.44
  -3   5   8    5.54   13.87
  -3  -5   8   20.58   14.60
  -3  -5   9  141.12   29.13
  -3  -6   5   94.32   23.72
  -2   0 -13    0.60   12.06
  -2   0 -12   56.72   17.11
  -2   0 -11   17.02   14.74
  -2   0 -10  476.57   40.93
  -2   0  -9   -4.96   10.63
  -2   0  -8 1834.51   73.87
  -2   0  -7   -0.22    7.30
  -2   0  -6 2007.50   69.76
  -2   0  -5    3.86    6.05
  -2   0  -4 3512.90   90.59
  -2   0  -4 3460.10   91.41
  -2   0  -3    7.79    7.48
  -2   0  -3    4.73    4.25
  -2   0  -2 5558.54  120.39
  -2   0  -2 5536.81  119.42
  -2   0  -1    0.27    4.14
  -2   0  -1    7.69    3.93
  -2   0  -1   -0.88    4.49
  -2   0   0 1554.69   39.96
  -2   0   0 1520.84   40.80
  -2   0   1    2.91    3.03
  -2   0   1    4.98    2.11
  -2   0   2 8312.06  160.07
  -2   0   2 8161.00  159.72
  -2   0   2 8123.79  159.09
  -2   0   3    4.59    3.98
  -2   0   3    1.70    4.24
  -2   0   3    2.72    4.04
  -2   0   4 1465.22   42.32
  -2   0   4 1539.74   45.80
  -2   0   4 1520.67   46.17
  -2   0   4 1552.24   45.70
  -2   0   5    3.00    4.63
  -2   0   5   10.69    6.57
  -2   0   5   -3.89    5.33
  -2   0   5    0.17    4.23
  -2   0   5    1.20    4.53
  -2   0   6 1167.48   46.52
  -2   0   6 1154.00   42.55
  -2   0   6 1188.87   45.53
  -2   0   6 1238.11   46.37
  -2   0   6 1181.93   45.83
  -2   0   7   -1.67    6.84
  -2   0   7   -6.05    7.38
  -2   0   7   -2.37    6.40
  -2   0   8  416.60   29.63
  -2   0   8  439.55   30.57
  -2   0   8  422.32   28.41
  -2   0   9   -9.29    9.57
  -2   0   9    1.22    9.26
  -2   0   9   -7.93    9.61
  -2   0  10 1246.80   61.08
  -2   0  10 1285.21   59.99
  -2   0  11  -43.14   14.29
  -2   0  11   -2.22   10.33
  -2   0  12 2181.99   89.66
  -2   0  12 2117.78   91.89
  -2   0  13   22.68   13.14
  -2   0  13  -13.26   12.49
  -2   0  14  374.71   41.30
  -2   0  14  403.24   40.79
  -2   0  15   12.92   14.83
  -2   0  15   -8.08   13.21
  -2  -1 -13   75.10   21.47
  -2   1 -13   52.45   18.41
  -2  -1 -12  455.31   43.32
  -2   1 -12  419.06   41.78
  -2  -1 -11  134.10   22.78
  -2   1 -11  135.28   22.83
  -2  -1 -10  345.25   35.79
  -2   1 -10  419.98   38.56
  -2   1  -9   91.42   17.71
  -2  -1  -9   74.71   16.57
  -2  -1  -8  876.50   49.35
  -2   1  -8  988.34   52.20
  -2  -1  -7  121.16   17.73
  -2   1  -7  152.76   19.21
  -2  -1  -6 1865.07   66.72
  -2   1  -6 1757.36   65.41
  -2  -1  -5  601.33   32.82
  -2   1  -5  644.94   33.83
  -2   1  -4 3380.12   90.48
  -2  -1  -4 3360.18   89.46
  -2  -1  -4 3426.34   88.64
  -2   1  -4 3258.13   88.95
  -2   1  -4 3426.19   88.76
  -2   1  -3  304.06   18.95
  -2   1  -3  299.01   19.51
  -2  -1  -3  304.15   19.26
  -2   1  -3  308.96   19.33
  -2  -1  -3  320.54   19.23
  -2   1  -2 2983.81   72.04
  -2   1  -2 2822.69   70.88
  -2  -1  -2 2747.67   70.18
  -2   1  -2 2833.15   69.85
  -2  -1  -2 2857.03   69.99
  -2  -1  -1 3564.79   80.74
  -2   1  -1 3637.53   81.25
  -2   1  -1 3648.02   80.36
  -2   1  -1 3688.60   80.83
  -2  -1  -1 3424.04   83.12
  -2  -1  -1 3609.10   80.44
  -2  -1   0 3619.56   69.14
  -2   1   0 3204.88   75.41
  -2   1   0 3627.13   73.11
  -2   1   0 3393.82   76.53
  -2  -1   0 3475.89   79.91
  -2   1   0 3627.32   81.77
  -2  -1   0 3299.14   75.87
  -2   1   1 1385.04   42.15
  -2   1   1 1333.90   39.80
  -2   1   1 1574.32   44.78
  -2   1   1 1521.55   38.21
  -2  -1   1 1472.85   37.79
  -2   1   2 2192.44   52.45
  -2  -1   2 2187.64   52.45
  -2   1   2 2050.33   57.91
  -2   1   2 2299.84   57.71
  -2  -1   2 2222.22   52.75
  -2   1   2 2220.77   52.95
  -2  -1   2 2256.27   52.54
  -2   1   2 2159.90   52.15
  -2   1   2 2343.90   59.84
  -2  -1   3  336.95   17.04
  -2   1   3  352.68   18.26
  -2  -1   3  347.98   16.92
  -2   1   3  369.60   17.76
  -2  -1   3  334.33   16.78
  -2   1   3  342.00   16.79
  -2   1   3  369.87   20.08
  -2   1   3  354.12   17.01
  -2  -1   4 1620.39   47.67
  -2   1   4 1681.22   48.43
  -2   1   4 1657.84   48.02
  -2  -1   4 1565.70   48.09
  -2   1   4 1657.19   48.52
  -2  -1   4 1605.66   47.78
  -2   1   4 1617.44   47.78
  -2  -1   5   17.69    6.50
  -2  -1   5   27.19    7.55
  -2   1   5   12.50    5.33
  -2  -1   5   23.40    6.26
  -2   1   5   26.40    6.86
  -2   1   5   15.74    6.58
  -2  -1   5   18.05    6.77
  -2   1   5   30.58    7.11
  -2  -1   5   18.37    5.68
  -2   1   6 1427.16   51.08
  -2  -1   6 1404.86   51.11
  -2  -1   6 1419.56   52.54
  -2  -1   6 1365.04   51.23
  -2   1   6 1399.74   51.20
  -2  -1   6 1503.69   51.78
  -2   1   6 1471.24   51.28
  -2   1   6 1425.25   51.23
  -2  -1   6 1418.63   51.63
  -2  -1   7   32.30   10.24
  -2  -1   7   43.82    9.92
  -2  -1   7   28.71    8.79
  -2   1   7   42.39    9.97
  -2   1   7   56.59   11.43
  -2   1   8 1402.77   55.71
  -2  -1   8 1197.02   53.61
  -2   1   8 1271.08   55.07
  -2  -1   8 1241.90   55.21
  -2  -1   8 1235.94   52.72
  -2  -1   9   76.40   14.98
  -2   1   9   94.60   17.41
  -2  -1   9   76.77   14.59
  -2   1   9   90.22   15.40
  -2  -1   9   88.97   15.87
  -2   1  10  904.03   49.86
  -2  -1  10  958.86   51.86
  -2  -1  10  853.07   50.14
  -2   1  10  854.16   49.70
  -2  -1  10  852.38   48.79
  -2  -1  11   11.38   11.87
  -2   1  11   13.73   10.11
  -2  -1  11    6.93   11.67
  -2   1  11    2.74    9.10
  -2  -1  12  576.69   43.92
  -2  -1  12  607.14   46.78
  -2   1  12  516.55   43.04
  -2   1  12  646.60   46.62
  -2  -1  12  548.43   43.73
  -2  -1  13   15.03   12.12
  -2   1  13   27.20   13.36
  -2  -1  13    9.07   11.76
  -2   1  13    3.72   11.18
  -2   1  14  212.86   30.33
  -2  -1  14  228.27   34.64
  -2  -1  14  211.77   30.45
  -2   1  14  178.44   28.70
  -2   1  15  226.94   34.56
  -2  -1  15  244.07   36.67
  -2  -1  15  300.14   39.28
  -2   1  15  267.52   36.69
  -2   2 -13   52.14   17.69
  -2  -2 -13   39.88   15.59
  -2  -2 -12  124.31   23.88
  -2   2 -12  139.79   25.69
  -2  -2 -11  209.48   28.55
  -2   2 -11  251.21   30.50
  -2  -2 -10  578.94   44.62
  -2   2 -10  633.72   45.97
  -2  -2  -9  464.04   37.77
  -2   2  -9  464.08   38.83
  -2  -2  -8  684.14   43.44
  -2   2  -8  664.23   42.77
  -2  -2  -7  642.21   38.88
  -2   2  -7  593.82   37.67
  -2  -2  -6  875.37   43.66
  -2   2  -6  861.62   43.28
  -2  -2  -5  461.68   28.58
  -2   2  -5  456.05   28.24
  -2   2  -4  258.95   19.12
  -2  -2  -4  241.70   18.95
  -2   2  -4  264.88   19.65
  -2  -2  -4  244.44   18.51
  -2   2  -3 1755.25   52.32
  -2  -2  -3 1680.51   52.02
  -2  -2  -3 1707.44   52.82
  -2   2  -3 1766.33   53.23
  -2  -2  -2   29.11    7.38
  -2   2  -2   32.41    5.94
  -2  -2  -2   33.79    6.16
  -2  -2  -2   42.75    7.06
  -2   2  -2   39.05    6.58
  -2   2  -1  551.41   21.15
  -2  -2  -1  554.68   21.24
  -2  -2  -1  515.50   29.79
  -2  -2  -1  547.40   21.35
  -2   2  -1  576.46   21.69
  -2   2   0  304.67   21.28
  -2   2   0  354.46   14.77
  -2  -2   0  340.54   14.53
  -2  -2   0  339.80   14.67
  -2  -2   0  319.11   22.50
  -2   2   0  344.90   14.67
  -2  -2   0  346.96   17.39
  -2  -2   1  346.73   23.36
  -2   2   1  331.13   22.45
  -2  -2   1  379.46   19.33
  -2   2   1  329.53   14.53
  -2  -2   1  368.87   15.16
  -2   2   1  347.96   19.94
  -2   2   2  929.12   27.22
  -2  -2   2  894.64   26.89
  -2   2   2  804.46   38.06
  -2   2   2  934.33   27.78
  -2  -2   2  901.50   27.18
  -2   2   2  910.60   39.26
  -2   2   2  833.80   33.21
  -2  -2   3  337.54   16.62
  -2   2   3  298.85   19.15
  -2   2   3  357.39   17.10
  -2   2   3  312.98   24.54
  -2   2   3  354.37   23.87
  -2   2   3  361.83   17.48
  -2  -2   3  374.46   16.98
  -2   2   3  332.68   16.47
  -2  -2   3  340.22   16.79
  -2   2   4 1920.88   53.04
  -2  -2   4 1896.26   52.71
  -2   2   4 1738.39   65.93
  -2   2   4 1856.12   53.39
  -2  -2   4 1796.69   52.82
  -2  -2   4 1779.32   51.90
  -2   2   4 1867.33   52.77
  -2   2   4 1988.26   57.21
  -2   2   4 1968.94   53.69
  -2  -2   4 1929.05   53.11
  -2   2   5  642.50   29.48
  -2  -2   5  667.48   29.60
  -2   2   5  689.59   30.04
  -2   2   5  648.79   38.76
  -2  -2   5  620.64   29.41
  -2   2   5  609.80   29.00
  -2  -2   5  639.10   29.32
  -2   2   5  617.59   28.87
  -2   2   5  672.53   30.17
  -2  -2   5  667.99   30.05
  -2   2   6  716.31   33.71
  -2  -2   6  683.62   33.18
  -2  -2   6  733.19   39.54
  -2   2   6  727.89   32.78
  -2   2   6  644.96   41.08
  -2   2   6  652.82   33.36
  -2  -2   6  683.12   33.82
  -2  -2   6  752.00   34.42
  -2   2   6  732.87   34.07
  -2   2   6  708.99   33.76
  -2  -2   6  683.33   33.22
  -2   2   7  686.48   35.74
  -2   2   7  591.62   30.87
  -2  -2   7  619.29   33.74
  -2  -2   7  617.26   34.36
  -2   2   7  623.31   34.83
  -2  -2   7  615.49   37.74
  -2  -2   8 1475.99   58.65
  -2   2   8 1380.80   56.90
  -2  -2   8 1368.66   62.25
  -2  -2   8 1475.87   60.47
  -2   2   8 1409.61   58.26
  -2  -2   9  522.80   35.10
  -2   2   9  477.57   33.72
  -2  -2   9  482.93   37.80
  -2   2   9  441.15   33.32
  -2  -2   9  389.12   31.62
  -2   2  10 1321.35   61.88
  -2  -2  10 1269.23   65.50
  -2  -2  10 1307.24   62.99
  -2   2  10 1327.04   63.81
  -2  -2  10 1366.93   62.29
  -2   2  11   39.27   12.62
  -2  -2  11   48.58   16.22
  -2  -2  11   56.36   15.57
  -2  -2  11   52.77   15.37
  -2   2  11   30.63   11.50
  -2   2  12  335.58   33.49
  -2  -2  12  323.58   32.86
  -2  -2  12  316.49   34.02
  -2  -2  12  273.92   34.01
  -2   2  12  322.12   33.69
  -2  -2  13   57.51   17.10
  -2  -2  13   61.86   18.12
  -2   2  13   66.98   17.79
  -2  -2  13   69.17   17.10
  -2   2  13  107.17   22.11
  -2   2  14  354.27   40.65
  -2  -2  14  284.04   35.10
  -2  -2  14  338.95   40.23
  -2  -2  14  335.82   38.14
  -2   2  14  247.68   32.39
  -2  -2  15   81.33   21.94
  -2   2  15   19.21   16.19
  -2   2  15   41.35   16.39
  -2  -2  15   56.69   20.55
  -2  -3 -13  121.67   25.51
  -2   3 -13   73.95   19.21
  -2  -3 -12   86.74   19.99
  -2   3 -12   84.57   19.58
  -2  -3 -11  283.08   32.83
  -2   3 -11  249.18   30.71
  -2  -3 -10  132.99   23.71
  -2   3 -10   82.83   18.26
  -2   3  -9  291.30   30.06
  -2  -3  -9  308.26   31.09
  -2  -3  -8  158.08   20.30
  -2   3  -8  167.86   21.09
  -2  -3  -7  258.02   25.18
  -2   3  -7  293.56   26.10
  -2  -3  -6  737.80   39.55
  -2   3  -6  739.03   39.64
  -2  -3  -5  161.51   16.68
  -2   3  -5  145.41   16.49
  -2   3  -4  201.58   16.74
  -2  -3  -4  189.46   16.11
  -2  -3  -4  176.50   16.15
  -2   3  -4  212.51   17.42
  -2  -3  -3  247.06   16.70
  -2   3  -3  216.80   15.92
  -2  -3  -3  232.27   16.24
  -2   3  -3  232.35   16.47
  -2  -3  -2  360.70   17.56
  -2   3  -2  351.71   17.49
  -2  -3  -2  356.72   17.84
  -2   3  -2  395.36   18.49
  -2   3  -1  464.59   17.54
  -2  -3  -1  478.39   17.95
  -2  -3  -1  488.98   18.09
  -2   3  -1  501.58   18.08
  -2  -3  -1  507.83   27.12
  -2  -3   0  364.25   12.17
  -2   3   0  344.78   11.76
  -2  -3   0  344.32   15.35
  -2   3   0  378.75   12.17
  -2  -3   0  357.02   12.05
  -2  -3   0  390.89   23.91
  -2   3   1  923.43   47.31
  -2  -3   1 1034.70   41.58
  -2  -3   2  434.33   15.31
  -2  -3   2  483.07   29.16
  -2   3   2  491.91   26.12
  -2   3   2  418.46   15.16
  -2   3   2  411.39   31.40
  -2  -3   2  496.73   15.47
  -2   3   2  491.16   15.43
  -2  -3   2  470.65   15.31
  -2   3   2  512.81   15.65
  -2  -3   3  781.19   25.57
  -2   3   3  813.54   26.40
  -2  -3   3  831.06   25.90
  -2   3   3  751.56   32.80
  -2   3   3  651.45   41.14
  -2  -3   3  769.65   25.31
  -2   3   3  817.07   25.83
  -2   3   3  833.68   25.89
  -2   3   4  131.49   13.28
  -2   3   4  104.41   17.37
  -2  -3   4  131.26   11.13
  -2   3   4  112.84   10.53
  -2  -3   4  120.47   10.51
  -2   3   4  135.82   11.09
  -2  -3   4  124.25   10.73
  -2   3   4  142.28   11.36
  -2  -3   4  119.31   10.52
  -2   3   4  130.11   10.87
  -2  -3   5 1338.75   43.91
  -2   3   5 1364.95   44.63
  -2   3   5 1027.43   43.45
  -2  -3   5 1284.53   43.94
  -2   3   5 1355.71   44.94
  -2  -3   5 1332.07   43.98
  -2   3   5 1262.69   43.39
  -2   3   5 1308.43   44.12
  -2  -3   5 1284.78   43.48
  -2   3   5 1327.17   63.79
  -2  -3   6  384.35   31.87
  -2   3   6  355.77   23.51
  -2   3   6  324.14   22.68
  -2   3   6  373.78   33.38
  -2   3   6  320.60   22.00
  -2  -3   6  347.38   23.04
  -2  -3   6  346.82   22.72
  -2   3   6  324.78   22.22
  -2  -3   6  336.24   22.33
  -2  -3   6  337.20   22.38
  -2   3   6  370.74   23.28
  -2  -3   7 1277.55   62.45
  -2  -3   7 1291.76   51.33
  -2   3   7 1369.70   52.02
  -2   3   7 1234.90   66.01
  -2   3   7 1298.27   51.70
  -2  -3   7 1367.10   52.87
  -2   3   7 1222.57   48.31
  -2   3   8  324.23   25.69
  -2  -3   8  305.86   30.56
  -2  -3   8  318.61   25.78
  -2  -3   8  323.33   26.12
  -2   3   8  321.32   26.14
  -2   3   8  324.24   35.42
  -2   3   9  218.07   23.56
  -2  -3   9  232.66   28.95
  -2   3   9  230.72   23.14
  -2  -3   9  225.50   23.70
  -2  -3   9  257.08   24.71
  -2   3   9  250.64   32.32
  -2  -3  10  161.15   21.71
  -2  -3  10  154.36   24.65
  -2   3  10  162.16   21.83
  -2  -3  10  150.58   21.34
  -2   3  10  128.84   24.20
  -2   3  10  179.27   24.01
  -2   3  11  370.62   33.85
  -2  -3  11  374.97   38.76
  -2  -3  11  324.92   31.79
  -2   3  11  269.01   36.46
  -2  -3  11  345.17   34.35
  -2   3  11  323.31   32.29
  -2  -3  12   86.88   20.81
  -2   3  12   97.62   19.64
  -2   3  12  119.86   26.91
  -2   3  12   97.48   18.91
  -2  -3  12   95.71   20.55
  -2  -3  12   76.39   18.76
  -2   3  13  120.53   23.32
  -2  -3  13   89.93   21.39
  -2   3  13  102.34   20.33
  -2  -3  13   94.99   19.92
  -2   3  13   78.45   24.64
  -2  -3  13   87.25   20.04
  -2   3  14  134.42   25.22
  -2   3  14  166.35   28.54
  -2  -3  14  134.91   26.36
  -2  -3  14  133.36   24.50
  -2  -4   0  162.34   18.55
  -2  -4   0  132.35   10.59
  -2  -4   1  267.09   18.38
  -2  -4   1  261.46   23.94
  -2  -4   2   42.89    9.08
  -2   4   2   28.53   13.58
  -2  -4   2   30.52   11.00
  -2  -4   3  578.56   38.08
  -2  -4   3  551.31   31.78
  -2   4   3  427.78   38.24
  -2   4   4   34.85   13.36
  -2   4   5  425.80   39.78
  -2  -4   6  136.55   21.76
  -2   4   6  100.82   21.09
  -2  -4   7  353.65   34.74
  -2   4   7  268.85   34.22
  -2  -4   8   -0.93   12.98
  -2   4   8   23.69   14.39
  -2  -4   9  266.69   32.47
  -2   4   9  164.64   27.40
  -2  -4  10   31.81   15.81
  -2   4  10   10.36   16.36
  -2  -4  11  163.09   29.80
  -2   4  11  122.73   29.97
  -2  -5   0   90.90   16.85
  -2  -5   1  288.33   28.96
  -2  -5   2  124.62   20.47
  -2  -5   3  264.18   29.79
  -2  -5   4   19.79   12.66
  -2   5   4   30.22   16.70
  -2  -5   5  164.46   26.02
  -2  -5   5  152.31   25.65
  -2   5   5  135.08   27.06
  -2  -5   6   19.61   15.27
  -2  -5   6    7.64   10.05
  -2  -5   6   -6.34   13.85
  -2   5   6   18.92   17.57
  -2  -5   7  261.70   30.63
  -2  -5   7  288.54   35.33
  -2   5   7  244.41   36.36
  -2  -5   8    4.97   11.12
  -2   5   8   76.58   24.36
  -2  -5   9  174.07   28.91
  -2  -6   4   70.12   19.55
  -2  -6   5   78.46   20.74
  -1   0 -14  522.51   49.19
  -1   0 -13  -23.56   16.29
  -1   0 -12 1215.13   70.43
  -1   0 -11  -11.35   12.48
  -1   0 -10 1185.84   62.81
  -1   0  -9  -14.27   11.83
  -1   0  -8  913.11   48.74
  -1   0  -7    2.02    7.00
  -1   0  -6 4281.83  112.56
  -1   0  -5   -5.57    6.58
  -1   0  -5   -2.03    4.77
  -1   0  -5    6.22    5.64
  -1   0  -4 1893.07   57.18
  -1   0  -4 1951.87   58.09
  -1   0  -4 2001.71   57.57
  -1   0  -3   -1.71    4.81
  -1   0  -3   -3.09    4.90
  -1   0  -3   -1.52    4.01
  -1   0  -2 9780.84  187.49
  -1   0  -2 9464.18  187.69
  -1   0   3    2.37    3.56
  -1   0   3   -1.99    4.38
  -1   0   3    6.05    4.18
  -1   0   3    3.23    4.11
  -1   0   3    1.42    4.06
  -1   0   4 2762.33   69.43
  -1   0   4 2627.51   67.15
  -1   0   4 2808.10   69.38
  -1   0   4 2735.49   69.81
  -1   0   4 2768.30   69.87
  -1   0   5   10.44    5.65
  -1   0   5    3.67    6.14
  -1   0   5    5.57    4.94
  -1   0   5   -4.03    5.54
  -1   0   5    3.28    5.43
  -1   0   6 1460.51   51.74
  -1   0   6 1488.44   53.47
  -1   0   6 1445.63   51.32
  -1   0   6 1411.59   50.18
  -1   0   6 1437.05   51.33
  -1   0   7    2.89    6.14
  -1   0   7    6.86    6.97
  -1   0   7   -1.06    7.60
  -1   0   8 3185.02   99.19
  -1   0   8 3388.79   98.89
  -1   0   9    7.24    8.77
  -1   0   9    3.36    8.65
  -1   0  10  628.03   42.47
  -1   0  10  642.91   42.07
  -1   0  11    9.35   11.86
  -1   0  11   23.64   12.16
  -1   0  12  703.74   48.85
  -1   0  12  741.19   52.68
  -1   0  13   13.60   13.30
  -1   0  13   12.28   10.14
  -1   0  14  954.29   64.22
  -1   0  14  932.91   65.94
  -1   0  15    5.45   13.05
  -1   0  15   29.38   18.75
  -1  -1 -14  261.56   36.07
  -1   1 -14  247.75   34.47
  -1  -1 -13   76.88   19.98
  -1   1 -13   51.57   17.78
  -1  -1 -12  447.62   41.77
  -1   1 -12  457.50   41.69
  -1  -1 -11  143.51   24.46
  -1   1 -11  132.88   23.16
  -1  -1 -10  381.99   35.50
  -1   1 -10  385.95   35.07
  -1  -1  -9  512.42   37.84
  -1   1  -9  572.99   40.95
  -1  -1  -8  720.57   42.57
  -1   1  -8  772.45   44.40
  -1   1  -7  304.31   25.76
  -1  -1  -7  310.23   26.03
  -1  -1  -6  429.30   27.97
  -1   1  -6  450.56   28.69
  -1  -1  -5   87.18   12.10
  -1   1  -5   84.38   12.10
  -1   1  -5   97.83   12.35
  -1  -1  -5   97.45   12.17
  -1   1  -4 2028.54   59.32
  -1  -1  -4 2097.70   59.68
  -1   1  -4 2025.92   61.27
  -1  -1  -4 2015.18   59.60
  -1   1  -4 1996.71   59.76
  -1   1  -3   14.82    5.17
  -1  -1  -3   16.18    5.00
  -1  -1  -3   30.51    6.44
  -1   1  -3   24.67    5.73
  -1   1  -3   23.04    6.32
  -1   1  -2 8676.49  172.00
  -1  -1  -2 8380.47  168.55
  -1   1  -2 8662.22  169.37
  -1  -1  -2 8488.52  168.10
  -1   1  -2 8595.17  168.54
  -1  -1  -1 3798.86   77.99
  -1  -1  -1 3634.59   86.21
  -1  -1  -1 3776.25   78.27
  -1   1  -1 3846.63   78.38
  -1   1  -1 3802.53   77.95
  -1  -1   0 3628.86   83.32
  -1   1   0 3601.01   81.96
  -1  -1   0 3878.21   76.46
  -1   1   0 3890.85   81.10
  -1   1   0 3721.76   73.90
  -1  -1   0 3712.45   73.84
  -1   1   1 1474.24   40.81
  -1   1   1 1476.12   32.45
  -1  -1   1 1452.19   32.35
  -1   1   1 1276.45   36.67
  -1   1   1 1437.74   40.92
  -1  -1   1 1427.70   32.42
  -1   1   1 1473.31   32.74
  -1  -1   1 1447.52   32.28
  -1   1   1 1456.67   32.46
  -1   1   2 2875.95   62.40
  -1  -1   2 2701.11   60.44
  -1   1   2 2847.58   60.75
  -1   1   2 2775.89   70.52
  -1  -1   2 2762.81   60.72
  -1   1   2 2759.61   60.69
  -1  -1   2 2723.65   60.36
  -1   1   2 2749.56   60.51
  -1   1   2 2904.93   67.82
  -1   1   3   47.41    6.89
  -1   1   3   49.98    6.21
  -1   1   3   38.95    6.33
  -1  -1   3   52.09    6.76
  -1   1   3   36.38    5.60
  -1  -1   3   41.87    6.09
  -1  -1   3   39.24    6.21
  -1   1   3   49.95    6.16
  -1  -1   3   47.28    6.41
  -1   1   4 2050.84   56.07
  -1  -1   4 2054.55   56.13
  -1  -1   4 2067.14   60.35
  -1  -1   4 2036.19   55.92
  -1  -1   4 2044.03   56.48
  -1   1   4 2037.34   56.49
  -1   1   4 2048.38   56.00
  -1   1   4 2064.58   56.36
  -1  -1   4 2060.40   56.51
  -1   1   5  838.97   34.73
  -1  -1   5  823.84   34.10
  -1  -1   5  816.80   36.42
  -1  -1   5  782.66   34.22
  -1   1   5  883.39   35.68
  -1  -1   5  809.65   33.94
  -1   1   5  878.01   34.90
  -1   1   5  856.68   35.08
  -1  -1   5  828.55   34.40
  -1   1   6 2734.30   77.45
  -1  -1   6 2588.05   78.84
  -1  -1   6 2598.69   76.05
  -1  -1   6 2615.93   77.66
  -1   1   6 2665.52   77.70
  -1  -1   6 2647.86   76.74
  -1   1   6 2731.33   77.17
  -1   1   6 2711.99   77.42
  -1  -1   6 2654.85   76.90
  -1   1   7  411.39   26.99
  -1  -1   7  389.00   27.91
  -1  -1   7  384.29   26.17
  -1  -1   7  355.13   26.67
  -1   1   7  385.53   27.16
  -1  -1   8  840.37   43.42
  -1  -1   8  878.04   45.44
  -1  -1   8  922.91   46.04
  -1   1   8  905.71   45.41
  -1   1   8  940.74   45.57
  -1   1   9  357.46   29.29
  -1  -1   9  316.78   28.87
  -1  -1   9  346.97   30.02
  -1   1   9  339.78   29.70
  -1  -1   9  351.61   29.10
  -1  -1  10  922.37   52.61
  -1   1  10  859.33   50.36
  -1  -1  10  894.65   49.87
  -1   1  10  848.05   48.64
  -1  -1  10  832.09   50.07
  -1  -1  11  355.97   34.06
  -1  -1  11  405.34   36.13
  -1   1  11  395.70   35.57
  -1   1  11  341.56   33.48
  -1  -1  12  810.43   55.07
  -1   1  12  792.04   52.46
  -1  -1  12  754.70   51.40
  -1   1  12  857.65   56.07
  -1   1  13  -28.28   15.81
  -1  -1  13  -16.86   13.77
  -1  -1  13   19.93   12.51
  -1   1  13    0.32   13.95
  -1   1  14  397.90   42.46
  -1   1  14  375.62   40.01
  -1  -1  14  386.47   40.57
  -1  -1  14  323.87   39.60
  -1   1  15  -14.39   14.35
  -1  -1  15    5.62   15.36
  -1  -1  15   31.50   18.56
  -1   1  15    2.95   12.28
  -1  -2 -14  158.44   28.93
  -1   2 -14  178.61   29.94
  -1  -2 -13   48.55   18.58
  -1   2 -13   43.56   16.70
  -1   2 -12   90.27   20.72
  -1  -2 -12   80.86   19.38
  -1   2 -11   99.56   20.30
  -1  -2 -11   92.72   20.47
  -1  -2 -10  336.85   32.81
  -1   2 -10  334.65   32.79
  -1  -2  -9  278.65   28.21
  -1   2  -9  292.28   28.43
  -1  -2  -8  161.79   20.66
  -1   2  -8  152.43   20.25
  -1  -2  -7  270.38   24.28
  -1   2  -7  331.04   26.55
  -1  -2  -6  778.57   39.31
  -1   2  -6  789.34   39.69
  -1  -2  -5 1818.04   58.85
  -1   2  -5 1725.54   57.75
  -1  -2  -5 1767.59   59.05
  -1   2  -5 1798.42   59.45
  -1  -2  -4 5620.85  125.46
  -1   2  -4 5454.79  124.82
  -1  -2  -4 5491.13  125.54
  -1   2  -4 5551.57  126.34
  -1  -2  -3   20.42    5.37
  -1   2  -3   36.87    6.45
  -1  -2  -3   32.62    7.03
  -1   2  -3   33.07    6.76
  -1  -2  -2 1746.81   45.13
  -1   2  -2 1782.31   45.23
  -1  -2  -2 1677.97   60.48
  -1  -2  -2 1753.85   45.40
  -1   2  -2 1808.70   45.77
  -1   2  -1 1098.39   28.13
  -1  -2  -1 1159.97   26.31
  -1  -2  -1 1007.10   43.19
  -1  -2  -1 1073.27   28.09
  -1  -2  -1 1097.14   28.37
  -1   2  -1 1097.00   28.30
  -1  -2  -1 1155.00   38.03
  -1  -2   0 2407.95   53.93
  -1   2   0 2296.70   69.19
  -1  -2   0 2468.58   63.71
  -1  -2   0 2270.70   70.38
  -1   2   1  784.55   36.47
  -1  -2   1  873.44   38.07
  -1   2   1  940.86   30.95
  -1   2   2 1612.44   38.11
  -1  -2   2 1540.09   37.59
  -1   2   2 1584.05   52.61
  -1   2   2 1487.32   54.66
  -1  -2   2 1520.79   37.78
  -1   2   2 1635.08   38.52
  -1   2   2 1544.62   43.87
  -1  -2   2 1594.99   37.88
  -1   2   2 1639.70   38.27
  -1   2   2 1683.42   38.69
  -1  -2   2 1589.70   38.18
  -1   2   3 2439.74   69.80
  -1   2   3 1956.07   56.84
  -1   2   3 2339.74   56.26
  -1   2   3 2288.77   73.30
  -1  -2   3 2304.20   56.49
  -1   2   3 2340.35   56.84
  -1  -2   3 2357.65   56.42
  -1   2   3 2320.38   56.30
  -1   2   3 2389.82   56.66
  -1  -2   3 2313.21   56.23
  -1  -2   3 2304.15   55.93
  -1  -2   4  246.60   15.69
  -1   2   4  224.20   14.38
  -1   2   4  230.31   15.37
  -1   2   4  228.03   22.18
  -1  -2   4  237.35   15.77
  -1   2   4  234.61   15.70
  -1  -2   4  219.14   15.01
  -1   2   4  216.71   14.71
  -1   2   4  224.86   14.90
  -1  -2   4  224.65   14.90
  -1   2   4  225.52   18.86
  -1  -2   5  138.39   16.15
  -1   2   5  116.87   10.96
  -1  -2   5  125.52   12.47
  -1   2   5  136.65   14.00
  -1   2   5  132.07   12.95
  -1  -2   5  113.79   12.70
  -1   2   5  133.88   18.66
  -1  -2   5  134.21   13.51
  -1   2   5  134.26   13.21
  -1  -2   5  120.82   12.19
  -1   2   5  136.80   13.15
  -1   2   6  322.56   19.70
  -1  -2   6  326.76   22.45
  -1  -2   6  387.39   28.09
  -1   2   6  378.93   31.49
  -1  -2   6  366.80   24.60
  -1  -2   6  349.28   23.19
  -1   2   6  363.19   23.69
  -1  -2   6  362.17   23.70
  -1   2   6  374.43   23.98
  -1   2   6  356.33   24.35
  -1   2   7  272.73   22.48
  -1  -2   7  267.71   22.20
  -1  -2   7  280.48   25.17
  -1   2   7  266.02   27.16
  -1  -2   7  303.14   24.21
  -1   2   7  259.66   19.20
  -1   2   7  252.16   22.27
  -1   2   8   83.96   14.14
  -1  -2   8  134.63   19.45
  -1   2   8  113.56   16.18
  -1  -2   8  106.09   15.28
  -1  -2   8  109.50   16.07
  -1   2   9  393.97   30.99
  -1  -2   9  318.59   27.98
  -1  -2   9  376.92   31.48
  -1   2   9  349.52   30.49
  -1  -2   9  380.62   33.78
  -1  -2  10  228.39   27.44
  -1   2  10  164.30   22.37
  -1  -2  10  156.77   21.02
  -1   2  10  198.13   24.49
  -1  -2  10  202.53   24.88
  -1  -2  11  319.19   33.82
  -1  -2  11  222.88   26.61
  -1   2  11  222.88   27.07
  -1  -2  11  237.46   28.65
  -1   2  11  246.34   28.10
  -1  -2  12  212.48   30.50
  -1   2  12  187.94   26.02
  -1  -2  12  157.49   23.21
  -1  -2  12  149.93   25.16
  -1   2  12  207.37   29.07
  -1   2  13  152.37   27.35
  -1  -2  13  189.73   30.09
  -1   2  13  224.70   29.67
  -1  -2  13  183.57   27.83
  -1  -2  13  170.18   26.95
  -1   2  14  328.37   39.26
  -1   2  14  197.52   29.63
  -1  -2  14  241.57   31.90
  -1  -2  14  246.57   33.13
  -1  -2  15   65.52   20.49
  -1  -3 -13  165.58   28.45
  -1   3 -13   99.10   24.03
  -1  -3 -12   50.90   16.79
  -1   3 -12   56.87   16.78
  -1   3 -11   93.46   19.39
  -1  -3 -11  108.87   21.53
  -1  -3 -10   50.93   13.55
  -1   3 -10   92.94   17.65
  -1   3  -9  330.02   30.05
  -1  -3  -9  315.37   29.48
  -1  -3  -8  237.95   24.59
  -1   3  -8  326.42   28.47
  -1   3  -7 1356.66   56.60
  -1  -3  -7 1357.39   56.96
  -1   3  -6  771.15   38.40
  -1  -3  -6  871.10   40.57
  -1  -3  -5  155.97   14.99
  -1   3  -5  122.66   13.29
  -1  -3  -5  161.28   16.10
  -1   3  -5  160.20   15.34
  -1  -3  -4  270.68   18.26
  -1   3  -4  289.13   18.26
  -1   3  -4  317.91   19.39
  -1  -3  -4  275.51   18.27
  -1  -3  -3  747.08   27.74
  -1   3  -3  759.05   27.80
  -1  -3  -2  538.69   18.68
  -1   3  -2  551.75   18.69
  -1  -3  -1 1204.90   33.33
  -1  -3  -1 1099.28   45.35
  -1  -3   0  641.54   25.91
  -1  -3   0  709.03   34.92
  -1  -3   1  989.16   36.08
  -1  -3   1  933.43   42.42
  -1   3   1  925.57   47.95
  -1   3   2  339.15   28.76
  -1   3   3  877.08   25.80
  -1   3   3  745.09   44.68
  -1   3   3  802.70   25.25
  -1  -3   3  849.48   25.64
  -1  -3   3  825.07   25.32
  -1   3   3  849.47   25.95
  -1  -3   3  829.38   25.11
  -1   3   3  864.54   25.69
  -1   3   3  839.69   30.87
  -1  -3   3  858.94   25.56
  -1   3   4  327.92   30.09
  -1  -3   4  342.20   18.02
  -1   3   4  352.59   18.53
  -1   3   4  349.06   18.02
  -1  -3   4  337.16   17.76
  -1  -3   4  306.07   17.22
  -1   3   4  338.93   17.76
  -1   3   4  340.29   18.52
  -1  -3   4  350.88   17.94
  -1   3   4  350.16   17.99
  -1   3   5  754.74   31.71
  -1  -3   5  709.28   30.71
  -1  -3   5  760.95   42.86
  -1   3   5  697.36   45.98
  -1   3   5  700.91   29.54
  -1  -3   5  746.64   31.94
  -1   3   5  761.57   32.21
  -1   3   5  762.72   32.05
  -1  -3   5  715.29   31.18
  -1  -3   5  761.80   31.65
  -1   3   5  729.14   31.23
  -1  -3   6  213.93   23.25
  -1   3   6  199.25   17.52
  -1   3   6  194.62   15.63
  -1  -3   6  226.41   18.37
  -1   3   6  254.39   27.93
  -1  -3   6  216.34   18.44
  -1   3   6  231.03   19.10
  -1   3   6  196.85   17.62
  -1  -3   6  210.87   17.79
  -1  -3   6  207.78   17.92
  -1  -3   7  200.38   25.00
  -1   3   7  230.44   20.30
  -1   3   7  237.08   28.66
  -1   3   7  199.53   19.65
  -1  -3   7  169.58   18.17
  -1  -3   7  164.57   17.56
  -1   3   8  163.41   18.64
  -1   3   8  174.47   19.77
  -1  -3   8  189.96   20.45
  -1   3   8  219.04   29.57
  -1  -3   8  173.67   24.48
  -1  -3   8  138.53   18.15
  -1  -3   9  172.45   21.66
  -1  -3   9  198.52   26.15
  -1   3   9  124.46   23.86
  -1   3   9  193.25   22.34
  -1  -3   9  159.00   20.37
  -1   3   9  226.66   24.19
  -1   3  10  247.82   27.02
  -1   3  10  242.36   26.04
  -1  -3  10  287.26   32.71
  -1  -3  10  234.07   27.26
  -1   3  10  249.60   33.14
  -1  -3  10  232.49   26.46
  -1  -3  11  154.81   23.78
  -1  -3  11  144.36   25.54
  -1  -3  11  152.46   22.80
  -1   3  11  158.88   23.22
  -1   3  11  172.28   30.79
  -1   3  11  145.88   23.02
  -1   3  12   97.49   19.88
  -1   3  12   93.23   20.34
  -1  -3  12   99.99   22.43
  -1  -3  12   95.68   19.27
  -1   3  12  155.81   30.11
  -1  -3  12  100.65   21.57
  -1   3  13  156.87   25.77
  -1  -3  13  121.86   25.78
  -1   3  13  147.92   29.47
  -1   3  13  186.60   27.60
  -1  -3  13  132.41   23.48
  -1  -3  13  189.77   28.85
  -1   3  14   79.99   21.81
  -1  -3  14   60.50   16.70
  -1   3  14   84.60   21.39
  -1  -3  14   69.11   19.86
  -1  -4  -1  500.25   21.14
  -1  -4  -1  517.67   34.18
  -1  -4   0   68.79   13.40
  -1  -4   0   70.29   10.71
  -1  -4   1  862.32   38.00
  -1  -4   1  887.72   46.86
  -1  -4   2   15.24    9.98
  -1  -4   2   28.88    7.92
  -1   4   2   25.29   12.53
  -1  -4   3  793.92   47.21
  -1   4   3  758.14   51.35
  -1  -4   3  861.92   42.09
  -1  -4   4  123.77   16.73
  -1   4   4   87.88   18.78
  -1  -4   5  294.84   29.06
  -1   4   5  233.93   30.27
  -1   4   6  177.09   27.82
  -1  -4   6  180.83   24.34
  -1  -4   7  440.64   38.60
  -1   4   7  397.41   40.49
  -1  -4   8   69.81   20.02
  -1   4   8   35.41   17.44
  -1  -4   9  461.49   42.97
  -1   4   9  356.20   40.57
  -1  -4  10   -6.99   14.91
  -1   4  10   36.84   19.81
  -1   4  11  205.27   35.19
  -1  -4  11  167.28   29.32
  -1  -5  -1  349.23   31.94
  -1  -5   0   18.73   11.60
  -1  -5   1  175.06   23.40
  -1  -5   2   66.88   16.34
  -1  -5   3  336.33   33.98
  -1  -5   4    0.84   11.49
  -1  -5   4    2.42   10.22
  -1  -5   4   12.52    7.79
  -1   5   4    1.05   13.05
  -1  -5   5  248.15   32.12
  -1  -5   5  245.14   30.48
  -1  -5   5  271.95   28.97
  -1   5   5  225.33   34.34
  -1  -5   6  107.00   21.32
  -1  -5   6  120.83   20.60
  -1   5   6   79.75   22.70
  -1  -5   7  243.88   31.95
  -1  -5   7  253.52   30.79
  -1   5   7  235.87   35.58
  -1  -5   8    3.14   11.20
  -1  -5   8   -1.97   13.01
  -1  -5   9  165.47   29.83
  -1  -5   9  201.00   30.14
  -1  -6   3  117.22   24.28
  -1  -6   4   -1.42   12.56
  -1  -6   4    0.33   11.67
  -1  -6   5  159.15   27.22
  -1  -6   5   83.80   22.04
  -1  -6   6    5.40   12.18
   0   0 -14   71.36   20.61
   0   0 -13   10.08   13.51
   0   0 -12  266.22   32.04
   0   0 -11   -2.20   10.06
   0   0 -10  586.37   41.26
   0   0  -9    0.93    9.87
   0   0  -8  257.76   24.92
   0   0  -7   -3.67    7.00
   0   0  -6 1180.46   47.06
   0   0  -5   -5.14    5.14
   0   0  -5    1.76    4.60
   0   0  -5    2.97    6.15
   0   0  -4 3299.50   80.90
   0   0  -4 3385.67   82.08
   0   0  -4 3291.92   82.77
   0   0  -3    2.76    5.01
   0   0  -3    5.94    4.41
   0   0  -3    0.80    4.12
   0   0  -2 3479.80   73.54
   0   0   2 3326.87   70.89
   0   0   3    4.27    4.54
   0   0   3    0.71    3.85
   0   0   3   -4.03    4.17
   0   0   4 3302.41   80.57
   0   0   4 3242.58   80.50
   0   0   5   -1.12    5.23
   0   0   5    2.10    6.20
   0   0   6 1005.55   42.57
   0   0   6  988.62   43.41
   0   0   7   -1.71    6.84
   0   0   7    9.08    8.74
   0   0   8  418.51   31.20
   0   0   8  409.27   29.83
   0   0   9   -7.21   10.37
   0   0   9   -4.64    7.19
   0   0  10  513.64   38.06
   0   0  10  486.11   37.71
   0   0  11    2.70   11.26
   0   0  11  -13.95   12.36
   0   0  12  225.78   29.52
   0   0  12  170.82   27.13
   0   0  13   -2.99   12.38
   0   0  13   -4.67   11.30
   0   0  14   75.16   20.88
   0   0  14   61.69   20.64
   0  -1 -14  340.85   39.49
   0   1 -14  332.18   38.70
   0   1 -13   50.74   18.37
   0  -1 -13   26.15   14.25
   0  -1 -12  343.54   36.26
   0   1 -12  308.29   34.06
   0   1 -11    1.33   10.40
   0  -1 -11    7.45   10.02
   0  -1 -10  892.85   51.90
   0   1 -10  967.32   53.56
   0  -1  -9   65.69   14.48
   0   1  -9   60.97   14.52
   0  -1  -8 1184.84   53.54
   0   1  -8 1091.73   51.99
   0  -1  -7  299.40   24.48
   0   1  -7  283.59   24.36
   0  -1  -6 1211.04   46.28
   0  -1  -6 1306.59   49.60
   0   1  -6 1158.93   47.48
   0   1  -5   56.27    9.82
   0   1  -5   45.18    8.08
   0  -1  -5   53.93    9.08
   0  -1  -5   59.70   10.41
   0   1  -5   62.67   10.71
   0  -1  -4 2805.58   71.37
   0   1  -4 2799.15   71.09
   0   1  -4 2648.41   73.21
   0  -1  -4 2789.12   72.26
   0   1  -4 2728.37   71.80
   0  -1  -3 7516.50  151.35
   0   1  -3 7439.33  151.04
   0  -1  -3 7453.12  152.18
   0   1  -3 7458.30  152.16
   0  -1  -2 8382.77  159.67
   0   1  -2 8207.98  159.34
   0  -1  -2 8317.88  159.95
   0   1  -2 8170.46  159.97
   0  -1  -1  302.20   10.22
   0  -1  -1  302.09   16.41
   0   1  -1  310.77   10.29
   0  -1  -1  323.13   10.43
   0  -1  -1  320.46   14.73
   0  -1  -1  323.99   10.64
   0   1  -1  325.53   10.53
   0   1   0 1031.82   32.01
   0  -1   0 1016.75   29.89
   0  -1   0  993.49   31.48
   0  -1   0 1054.96   26.11
   0   1   1  390.39   12.17
   0   1   1  388.71   11.84
   0   1   1  387.90   12.02
   0   1   1  391.34   19.00
   0  -1   1  382.12   11.94
   0   1   1  400.14   12.01
   0   1   1  384.87   11.93
   0  -1   1  391.46   11.96
   0  -1   1  401.04   11.91
   0   1   1  415.30   17.19
   0   1   2 7372.74  142.34
   0  -1   2 7219.62  142.02
   0  -1   2 7261.97  148.01
   0   1   2 7213.71  137.95
   0   1   2 7394.75  153.55
   0   1   2 7247.36  142.96
   0   1   2 7325.76  142.52
   0  -1   2 7342.43  142.50
   0  -1   3 7096.60  151.52
   0  -1   3 7086.48  146.37
   0   1   3 7249.05  147.61
   0   1   3 7339.28  147.40
   0  -1   3 7153.89  146.94
   0   1   3 7360.10  147.14
   0  -1   4 1989.98   56.32
   0   1   4 2001.34   56.50
   0  -1   4 1984.48   60.36
   0   1   4 1971.36   57.04
   0   1   4 2081.03   57.47
   0  -1   4 2037.05   57.06
   0  -1   4 1941.66   56.88
   0   1   5   66.06    9.38
   0  -1   5   84.66   13.00
   0  -1   5   62.65    9.64
   0   1   5   65.52   10.02
   0  -1   5   62.78    9.73
   0  -1   5   63.43    9.95
   0   1   5   42.42    8.87
   0   1   6 1080.09   44.57
   0  -1   6 1137.65   45.61
   0  -1   6 1075.70   46.59
   0  -1   6 1139.50   46.83
   0   1   6 1129.45   46.26
   0  -1   7  225.54   21.15
   0  -1   7  222.37   21.50
   0   1   7  256.57   23.12
   0  -1   7  195.88   20.71
   0   1   7  261.68   22.74
   0  -1   8 1106.08   53.22
   0   1   8 1113.70   51.37
   0  -1   8 1124.48   53.07
   0   1   8 1056.82   51.18
   0  -1   8 1058.94   50.39
   0  -1   9   37.22   12.39
   0   1   9   21.90   10.64
   0  -1   9   47.69   13.26
   0  -1   9   24.64   12.44
   0   1   9   29.60   11.96
   0   1  10 1055.99   55.26
   0  -1  10  982.61   55.40
   0   1  10  950.05   54.80
   0  -1  10  893.73   51.38
   0   1  11   -6.47    9.75
   0  -1  11   -2.10   11.79
   0  -1  11   -0.48   10.86
   0   1  11  -16.64   12.50
   0   1  12  225.69   30.32
   0  -1  12  224.75   29.46
   0   1  12  294.85   34.10
   0  -1  12  254.63   31.86
   0  -1  13   22.14   15.74
   0   1  13   71.05   18.86
   0  -1  13   67.32   19.31
   0   1  13   62.77   20.49
   0  -1  14  350.23   39.22
   0   1  14  387.94   41.84
   0   1  14  302.53   38.20
   0  -1  14  316.55   38.70
   0  -2 -14   76.48   20.69
   0   2 -14   27.91   14.72
   0   2 -13  123.41   24.23
   0  -2 -13  162.32   26.35
   0  -2 -12  355.54   36.40
   0   2 -12  340.72   35.38
   0  -2 -11   89.59   19.25
   0   2 -11  110.19   19.40
   0  -2 -10  530.00   39.50
   0   2 -10  503.31   38.46
   0  -2  -9  228.57   25.48
   0   2  -9  246.53   25.85
   0   2  -8 1297.59   57.04
   0  -2  -8 1243.50   56.28
   0  -2  -7  416.89   28.79
   0   2  -7  408.98   29.06
   0   2  -6  203.69   18.41
   0  -2  -6  204.08   18.82
   0  -2  -5 2628.98   72.08
   0   2  -5 2528.70   71.00
   0   2  -5 2531.00   72.11
   0  -2  -5 2534.54   72.19
   0  -2  -4  715.91   28.65
   0   2  -4  659.84   27.87
   0  -2  -4  670.04   28.50
   0   2  -4  669.75   28.50
   0  -2  -3  568.48   22.66
   0   2  -3  574.01   22.63
   0   2  -2 2454.88   54.56
   0  -2  -2 2441.34   54.33
   0  -2  -2 2486.45   76.33
   0  -2  -2 2444.78   54.73
   0  -2  -1  645.42   22.77
   0  -2  -1  663.15   33.10
   0  -2  -1  700.95   30.11
   0   2   0  530.32   29.06
   0  -2   0  579.66   22.41
   0  -2   0  555.19   29.17
   0  -2   0  586.70   27.50
   0   2   1  538.40   26.29
   0   2   1  530.76   29.50
   0  -2   1  548.60   28.95
   0   2   2 2559.35   54.87
   0  -2   2 2438.30   54.31
   0   2   2 2334.08   73.42
   0   2   2 2411.89   67.29
   0  -2   2 2351.78   71.89
   0  -2   2 2387.50   54.73
   0   2   2 2430.81   54.86
   0   2   2 2526.02   55.09
   0  -2   2 2467.52   54.73
   0  -2   2 2443.91   54.53
   0   2   2 2432.50   54.58
   0   2   2 2445.28   54.23
   0  -2   3  753.80   34.02
   0   2   3  686.27   36.59
   0  -2   3  725.51   26.29
   0   2   3  717.19   26.04
   0  -2   3  708.73   25.74
   0   2   3  757.98   26.29
   0   2   3  720.88   26.15
   0  -2   3  714.33   25.91
   0   2   3  632.41   21.93
   0  -2   3  699.23   25.43
   0   2   3  680.71   25.49
   0   2   3  732.57   32.26
   0  -2   4  640.69   32.78
   0   2   4  624.25   22.34
   0   2   4  655.88   37.39
   0  -2   4  618.63   27.47
   0   2   4  612.31   27.69
   0  -2   4  596.51   26.40
   0   2   4  678.14   28.06
   0   2   4  665.36   27.95
   0  -2   4  660.99   27.81
   0   2   4  670.85   28.02
   0  -2   4  605.92   26.57
   0   2   4  683.51   32.42
   0   2   5 2277.18   66.49
   0  -2   5 2192.94   73.54
   0  -2   5 2249.66   66.11
   0   2   5 2288.28   67.33
   0   2   5 2302.24   58.36
   0   2   5 2465.48   82.05
   0  -2   5 2249.75   68.11
   0  -2   5 2238.85   66.37
   0   2   5 2427.69   67.52
   0   2   5 2326.97   67.34
   0  -2   5 2303.20   67.29
   0   2   6  277.19   21.46
   0  -2   6  303.92   25.83
   0   2   6  347.04   29.64
   0  -2   6  284.72   22.35
   0   2   6  284.86   22.11
   0  -2   6  263.55   20.92
   0   2   7  344.09   25.91
   0  -2   7  326.98   28.43
   0  -2   7  342.87   26.02
   0   2   7  390.28   33.45
   0  -2   7  358.80   27.11
   0   2   7  343.46   26.70
   0  -2   8 1425.45   59.25
   0  -2   8 1375.72   63.98
   0   2   8 1394.98   59.06
   0   2   8 1375.48   67.58
   0  -2   8 1312.49   58.67
   0   2   8 1316.16   58.81
   0  -2   9  123.46   20.75
   0   2   9  167.76   20.77
   0  -2   9  176.47   21.95
   0  -2   9  117.91   19.71
   0   2   9  144.26   20.54
   0  -2  10  431.83   35.36
   0  -2  10  410.30   38.36
   0   2  10  481.00   37.07
   0  -2  10  418.08   35.97
   0   2  10  411.15   35.99
   0   2  11   78.76   18.71
   0  -2  11   91.50   21.05
   0   2  11  103.69   19.17
   0  -2  11   78.96   18.96
   0  -2  11  104.38   20.69
   0  -2  12  413.01   40.25
   0   2  12  426.93   40.96
   0   2  12  458.34   41.18
   0  -2  12  386.79   37.99
   0   2  13  179.73   28.13
   0  -2  13  178.74   28.02
   0  -2  13  140.93   26.90
   0   2  13  185.58   30.86
   0   2  14   87.93   23.59
   0   2  14   56.11   17.36
   0  -2  14   47.71   17.47
   0  -2  14   68.77   21.11
   0  -3 -14   53.20   19.24
   0   3 -14   62.21   20.31
   0  -3 -13   84.77   22.12
   0   3 -13   87.88   21.48
   0  -3 -12  136.32   23.47
   0   3 -12  126.99   21.80
   0  -3 -11  385.02   35.52
   0   3 -11  339.01   33.57
   0   3 -10   58.87   14.92
   0  -3 -10   41.34   12.29
   0  -3  -9  297.89   27.89
   0   3  -9  309.79   29.14
   0  -3  -8   60.58   13.15
   0   3  -8   69.59   13.32
   0  -3  -7 1177.85   50.58
   0   3  -7 1156.02   50.12
   0  -3  -6  235.82   19.52
   0   3  -6  199.62   18.61
   0  -3  -5 1307.12   45.07
   0   3  -5 1231.74   44.52
   0   3  -4  428.51   21.18
   0  -3  -4  441.30   21.56
   0  -3  -3  458.40   18.50
   0   3  -3  455.83   18.35
   0  -3  -2  220.77   12.89
   0  -3  -2  180.09   18.45
   0  -3  -1  220.96   15.33
   0  -3  -1  240.79   21.30
   0  -3   0  548.99   32.64
   0  -3   0  595.71   27.58
   0  -3   1  346.18   21.51
   0   3   1  283.29   26.29
   0  -3   1  324.18   25.06
   0  -3   2  145.01   15.11
   0   3   2  124.59   19.08
   0  -3   3  550.70   20.86
   0  -3   3  544.96   20.74
   0   3   3  575.55   21.24
   0   3   3  528.09   37.07
   0  -3   3  548.95   20.75
   0   3   3  516.53   20.48
   0  -3   3  553.07   20.54
   0   3   3  560.79   20.80
   0   3   3  566.06   21.09
   0   3   4  545.60   23.95
   0  -3   4  497.71   23.29
   0  -3   4  514.03   32.97
   0   3   4  478.82   17.96
   0   3   4  499.30   36.92
   0   3   4  502.00   23.30
   0  -3   4  528.64   23.68
   0  -3   4  494.58   23.19
   0   3   4  523.23   23.89
   0  -3   4  512.40   23.36
   0   3   4  496.31   22.98
   0  -3   5 1326.46   58.29
   0  -3   5 1333.73   46.19
   0   3   5 1331.70   37.19
   0   3   5 1375.42   47.08
   0   3   5 1460.78   66.98
   0  -3   5 1341.99   46.67
   0  -3   5 1384.75   47.66
   0   3   5 1332.74   47.16
   0   3   5 1386.84   47.38
   0  -3   5 1333.70   46.44
   0   3   5 1326.40   46.41
   0  -3   6  223.03   19.02
   0  -3   6  217.39   24.35
   0  -3   6  238.91   20.37
   0   3   6  183.93   17.76
   0   3   6  209.17   26.26
   0   3   6  165.17   12.40
   0   3   6  211.63   18.36
   0  -3   7  998.61   54.64
   0   3   7  932.48   44.21
   0   3   7  990.40   59.01
   0  -3   7  925.58   44.46
   0   3   7  954.42   45.31
   0  -3   7  987.97   44.94
   0   3   8   88.18   15.20
   0  -3   8   93.54   17.48
   0  -3   8  104.79   15.77
   0   3   8   78.38   19.59
   0   3   8  116.53   16.44
   0  -3   8   70.62   13.61
   0   3   9  424.49   33.34
   0   3   9  351.37   30.98
   0  -3   9  329.64   34.65
   0  -3   9  319.94   29.27
   0   3   9  348.28   38.37
   0  -3   9  349.22   31.44
   0  -3  10   35.72   15.53
   0   3  10   48.67   14.41
   0  -3  10   60.72   15.69
   0   3  10   79.21   22.05
   0  -3  10   74.75   17.32
   0   3  10   71.52   18.11
   0   3  11  375.11   35.12
   0  -3  11  309.70   36.90
   0  -3  11  318.36   33.18
   0   3  11  422.48   44.74
   0  -3  11  312.39   33.74
   0   3  11  331.50   34.39
   0  -3  12   90.34   20.06
   0  -3  12   98.86   23.58
   0   3  12   88.62   19.86
   0  -3  12  166.42   24.94
   0   3  12  127.68   27.81
   0   3  12  110.60   21.36
   0   3  13  105.40   22.56
   0  -3  13  106.09   22.73
   0   3  13   10.83   19.32
   0   3  13   62.12   18.07
   0  -3  13   51.15   17.60
   0  -3  14   29.00   16.88
   0  -3  14   27.63   14.60
   0   3  14   39.37   17.42
   0   3  14   51.47   19.29
   0  -4  -2  150.76   19.93
   0  -4  -2  177.01   13.16
   0  -4  -1  404.76   23.54
   0  -4  -1  408.49   31.62
   0  -4   0   66.57   15.94
   0  -4   0   53.67   10.35
   0  -4   1  433.85   28.72
   0  -4   1  527.25   37.58
   0  -4   2  142.42   20.33
   0  -4   2  185.07   19.62
   0   4   2  184.15   25.85
   0  -4   3  584.99   42.44
   0  -4   3  598.57   39.01
   0   4   3  594.25   45.31
   0  -4   3  671.27   38.93
   0  -4   4   13.10   10.21
   0  -4   4   18.74    9.84
   0   4   4    5.04    9.34
   0  -4   5  573.97   41.54
   0  -4   5  527.16   38.44
   0   4   5  591.79   46.87
   0  -4   6  115.75   19.94
   0   4   6  116.49   23.59
   0   4   7  260.94   33.16
   0  -4   7  287.03   32.43
   0  -4   8   13.12   12.51
   0   4   8   51.03   17.62
   0  -4   9  194.76   28.51
   0   4   9  167.29   28.64
   0  -4  10   64.61   21.85
   0   4  10   54.48   18.81
   0  -4  11   73.85   22.66
   0   4  11   15.95   16.58
   0  -5  -1  273.71   30.03
   0  -5   0    1.58    9.40
   0  -5   1  307.56   32.94
   0  -5   2   48.95   16.65
   0  -5   3  298.71   29.02
   0  -5   3  346.87   36.09
   0  -5   3  373.25   34.21
   0  -5   4   68.22   17.38
   0  -5   4  130.55   24.48
   0  -5   4   95.33   17.47
   0   5   4   87.42   22.16
   0  -5   5  242.14   32.31
   0  -5   5  262.87   31.46
   0  -5   5  259.00   29.87
   0   5   5  186.85   30.58
   0  -5   6   12.20   12.67
   0  -5   6   18.51   12.08
   0   5   6   38.83   19.64
   0  -5   7  154.34   26.82
   0  -5   7   97.26   22.04
   0   5   7  121.08   26.63
   0  -5   8   18.56   12.48
   0  -5   8   32.91   17.06
   0  -5   9   98.73   25.01
   0  -5   9  183.21   30.61
   0  -6   0   51.31   18.08
   0  -6   1   73.03   19.46
   0  -6   2   10.40   15.05
   0  -6   3  102.94   23.75
   0  -6   4   16.61   14.67
   1   0 -15   10.08   14.49
   1   0 -14 1072.10   68.28
   1   0 -13   10.67   14.12
   1   0 -12  822.57   54.10
   1   0 -11   -7.27   11.14
   1   0 -10  571.08   40.11
   1   0  -9    1.21    8.28
   1   0  -8 3360.81  100.67
   1   0  -7    4.15    7.01
   1   0  -6 1438.88   49.77
   1   0  -6 1489.37   51.19
   1   0  -6 1408.92   51.55
   1   0  -5    1.82    5.22
   1   0  -5   -6.65    4.96
   1   0  -5   -1.22    4.54
   1   0  -4 2533.84   64.14
   1   0  -4 2569.07   66.53
   1   0  -4 2709.22   67.79
   1   0  -3    1.26    3.21
   1   0  -3   -4.37    3.91
   1   0  -3    4.64    4.31
   1   0  -3    2.94    3.25
   1   0   2 8650.18  170.21
   1   0   2 8641.97  170.60
   1   0   3   -1.01    4.56
   1   0   3    0.76    4.20
   1   0   4 1808.40   54.45
   1   0   4 1714.28   53.50
   1   0   5   10.24    9.05
   1   0   5   -8.53    5.78
   1   0   6 3898.36  104.80
   1   0   7   -9.23    8.33
   1   0   8  944.38   48.05
   1   0   9   14.99    8.67
   1   0   9   -1.93   10.16
   1   0  10 1292.67   64.16
   1   0  10 1195.34   64.37
   1   0  11   -9.16    9.75
   1   0  11   -0.58   10.51
   1   0  12 1133.83   66.00
   1   0  12 1184.39   69.92
   1   0  13    7.36   13.62
   1   0  13   22.92   15.45
   1   0  14  413.73   44.81
   1   0  14  391.50   44.17
   1  -1 -15   31.04   18.09
   1   1 -15    9.21   13.88
   1  -1 -14  364.13   40.50
   1   1 -14  384.10   41.07
   1  -1 -13   10.07   12.73
   1   1 -13   17.01   12.20
   1  -1 -12  692.68   49.24
   1   1 -12  694.20   49.40
   1  -1 -11  388.58   35.34
   1   1 -11  435.20   37.19
   1  -1 -10  861.50   50.16
   1   1 -10  899.86   51.34
   1  -1  -9  330.50   28.63
   1   1  -9  345.05   29.50
   1  -1  -8  895.81   44.55
   1   1  -8  832.99   43.63
   1  -1  -7  381.15   24.47
   1   1  -7  396.76   27.90
   1  -1  -7  394.73   27.16
   1  -1  -6 2470.11   73.48
   1   1  -6 2426.08   73.13
   1  -1  -6 2512.34   69.65
   1  -1  -5  821.02   34.74
   1  -1  -5  869.82   32.43
   1   1  -5  856.07   35.40
   1   1  -4 1883.26   53.14
   1  -1  -4 1897.58   53.24
   1  -1  -3   85.92    8.25
   1   1  -3   92.79    8.60
   1   1  -3   76.08    7.73
   1  -1  -3   80.44    8.40
   1   1  -3   86.12    8.21
   1  -1  -3   83.93    8.30
   1   1  -2 3141.65   66.53
   1  -1  -2 3095.61   66.55
   1  -1  -2 3196.63   68.04
   1   1  -2 3166.26   66.97
   1  -1  -2 3082.34   67.05
   1   1  -2 3075.88   66.37
   1  -1  -2 3111.83   66.74
   1  -1  -1 1335.83   35.73
   1  -1  -1 1393.44   38.90
   1  -1  -1 1452.49   40.59
   1   1  -1 1332.60   30.68
   1  -1  -1 1332.25   30.90
   1   1  -1 1352.94   30.64
   1  -1  -1 1328.26   30.65
   1  -1   0 3867.99   89.93
   1  -1   0 4167.81   88.65
   1   1   0 4072.15   90.16
   1  -1   0 4301.98   87.92
   1  -1   0 4127.62   80.30
   1   1   0 4000.23   80.06
   1  -1   1 3970.23   83.03
   1  -1   1 3826.62   85.78
   1   1   1 3938.34   80.01
   1   1   1 3910.88   87.42
   1   1   1 3883.33   79.98
   1  -1   1 3811.74   79.75
   1  -1   1 3848.96   79.72
   1   1   1 3738.12   79.15
   1  -1   2 9683.16  191.33
   1  -1   2 9756.56  195.34
   1   1   2 9879.83  199.48
   1   1   2 9999.00  192.10
   1   1   2 9863.82  191.61
   1  -1   2 9822.06  191.92
   1  -1   3   28.56    6.86
   1   1   3   23.74    5.82
   1  -1   3   17.77    5.69
   1   1   3   17.31    6.77
   1   1   3   19.75    4.95
   1  -1   3   32.04    6.09
   1   1   4 1890.24   55.84
   1  -1   4 1750.36   54.40
   1  -1   4 1801.83   58.06
   1   1   4 1830.92   55.56
   1  -1   4 1815.52   55.50
   1  -1   5   97.27   12.97
   1   1   5   92.87   12.71
   1  -1   5   85.67   11.87
   1   1   5   95.78   11.96
   1  -1   5   87.80   11.84
   1   1   6  372.28   25.98
   1  -1   6  385.48   27.68
   1  -1   6  355.41   25.41
   1   1   7  379.11   27.69
   1  -1   7  375.16   28.36
   1  -1   8  623.83   38.57
   1  -1   8  660.43   41.37
   1   1   8  624.36   40.04
   1   1   8  627.13   39.17
   1   1   9  508.86   37.34
   1  -1   9  483.36   36.48
   1  -1   9  483.02   37.55
   1   1   9  496.44   38.40
   1   1  10  526.21   39.87
   1  -1  10  407.68   35.22
   1  -1  10  464.57   38.88
   1   1  10  486.22   39.97
   1   1  11  133.66   22.52
   1  -1  11  174.93   25.53
   1  -1  11  132.79   22.78
   1   1  11  150.82   24.73
   1   1  12  459.87   42.22
   1  -1  12  476.96   44.50
   1   1  12  479.77   44.29
   1  -1  12  458.24   41.90
   1   1  13   56.13   18.58
   1  -1  13   71.49   19.68
   1  -1  13   74.49   20.20
   1   1  13   75.63   20.05
   1   1  14  216.10   33.41
   1  -1  14  228.38   34.29
   1   1  14  171.26   31.10
   1  -1  14  160.69   29.20
   1  -2 -14  307.72   37.02
   1   2 -14  242.01   33.04
   1  -2 -13  138.25   22.46
   1   2 -13  185.33   26.66
   1  -2 -12  125.32   22.05
   1   2 -12  228.01   28.72
   1   2 -11  309.54   31.49
   1  -2 -11  238.28   27.74
   1  -2 -10  169.32   22.83
   1   2 -10  190.84   23.66
   1  -2  -9  355.66   29.85
   1   2  -9  392.13   30.80
   1  -2  -8  130.45   16.89
   1   2  -8  130.37   17.58
   1  -2  -7  290.44   23.41
   1   2  -7  263.91   22.51
   1  -2  -6  399.89   25.30
   1   2  -6  388.54   24.85
   1   2  -5  109.38   12.13
   1  -2  -5   94.81   11.28
   1  -2  -4  203.13   14.44
   1   2  -4  224.70   15.00
   1  -2  -3 2098.13   53.47
   1  -2  -3 2101.28   52.05
   1   2  -3 2043.23   51.63
   1  -2  -2 1672.55   59.20
   1  -2  -2 1714.22   46.47
   1  -2  -2 1702.46   55.13
   1  -2  -1  901.01   33.33
   1  -2  -1 1020.09   41.30
   1  -2  -1  973.03   22.48
   1  -2  -1  960.26   22.18
   1  -2  -1 1006.45   39.53
   1  -2   0 2624.03   67.75
   1  -2   0 2642.79   74.09
   1   2   0 2484.81   74.53
   1  -2   0 2475.15   72.08
   1   2   1  852.54   32.85
   1  -2   1  965.70   35.79
   1  -2   1  945.51   38.76
   1   2   1  999.63   41.36
   1  -2   1  935.64   25.72
   1   2   1  885.03   25.44
   1  -2   2 1770.94   53.46
   1   2   2 1734.47   45.13
   1  -2   2 1726.54   45.00
   1  -2   2 1745.76   57.22
   1   2   2 1739.04   60.04
   1   2   2 1581.09   49.73
   1  -2   2 1726.67   45.04
   1   2   2 1725.68   45.06
   1   2   3   97.18   10.84
   1  -2   3   83.31   11.03
   1   2   3   89.21    9.88
   1   2   3   91.05    9.57
   1  -2   3   85.39    8.97
   1   2   3   98.38   14.87
   1  -2   3   96.35   10.23
   1  -2   4 5422.97  130.97
   1  -2   4 5142.80  120.53
   1   2   4 5252.27  120.78
   1   2   4 5237.63  104.86
   1   2   4 5501.01  138.27
   1   2   4 5431.85  122.35
   1  -2   4 5158.44  120.90
   1   2   4 5246.73  123.03
   1   2   5 1966.45   63.25
   1  -2   5 2046.49   71.12
   1  -2   5 1979.92   63.14
   1   2   5 2045.14   74.97
   1   2   5 2017.85   63.81
   1  -2   5 2017.34   63.85
   1   2   6  654.05   35.64
   1  -2   6  624.43   38.09
   1   2   6  794.67   44.82
   1  -2   6  649.39   35.83
   1   2   6  664.40   36.30
   1  -2   6  661.01   35.23
   1   2   7  328.26   26.31
   1  -2   7  309.09   25.59
   1  -2   7  378.13   31.28
   1   2   7  356.61   31.74
   1  -2   7  301.97   26.27
   1   2   7  276.56   25.09
   1  -2   8  161.40   22.03
   1   2   8  154.25   19.69
   1  -2   8  137.37   18.06
   1   2   8  148.06   23.25
   1  -2   8  148.70   20.16
   1   2   8  170.70   21.27
   1  -2   9  305.20   31.74
   1   2   9  389.97   37.04
   1  -2   9  334.08   31.19
   1   2   9  379.26   32.65
   1  -2   9  366.90   31.30
   1   2   9  337.11   30.77
   1   2  10  214.76   26.46
   1  -2  10  240.55   27.54
   1   2  10  243.57   31.95
   1  -2  10  217.13   27.43
   1   2  10  231.58   27.89
   1   2  11   37.18   14.38
   1  -2  11   45.32   14.07
   1   2  11   58.54   20.44
   1  -2  11   68.42   18.45
   1   2  11   51.98   15.29
   1   2  12   89.68   21.32
   1  -2  12   66.95   19.18
   1   2  12  104.43   23.91
   1  -2  12   31.43   15.04
   1   2  12   77.13   20.58
   1   2  13   77.42   22.73
   1   2  13   20.21   14.85
   1   2  13   69.80   21.86
   1  -2  13   72.85   19.45
   1   2  14  121.71   27.03
   1   2  14  192.30   31.79
   1  -2  14  164.74   28.90
   1   2  14  172.13   31.43
   1  -2  14  206.84   32.74
   1  -3 -14   48.13   15.48
   1   3 -14   52.97   19.12
   1  -3 -13  144.81   24.61
   1   3 -13  155.51   26.49
   1  -3 -12  122.33   22.71
   1   3 -12   80.56   19.34
   1  -3 -11  144.42   21.65
   1   3 -11  177.40   24.31
   1  -3 -10  240.30   25.97
   1   3 -10  232.17   25.52
   1  -3  -9  153.60   20.00
   1   3  -9  130.45   18.07
   1  -3  -8  182.67   20.00
   1   3  -8  210.59   21.10
   1   3  -7  115.73   15.34
   1  -3  -7  140.24   15.85
   1  -3  -6  283.46   20.82
   1   3  -6  276.46   20.46
   1   3  -5  848.54   33.79
   1  -3  -5  794.53   33.14
   1  -3  -4  375.34   18.77
   1   3  -4  386.07   19.14
   1  -3  -3 1008.74   35.24
   1  -3  -2  489.82   24.46
   1  -3  -2  485.70   31.34
   1  -3  -1  927.41   44.21
   1  -3  -1  834.96   35.83
   1  -3   0  762.30   40.33
   1  -3   0  767.63   35.31
   1  -3   1  965.12   47.37
   1   3   1 1022.99   51.16
   1  -3   1 1015.00   42.98
   1  -3   2  469.44   28.42
   1  -3   2  456.05   28.82
   1   3   2  411.90   32.93
   1  -3   2  435.17   16.54
   1   3   2  468.44   16.94
   1  -3   2  466.03   16.75
   1   3   2  463.60   16.64
   1  -3   2  436.84   17.04
   1   3   2  396.20   16.71
   1  -3   3  817.49   40.00
   1   3   3  859.46   47.66
   1  -3   3  748.76   28.28
   1   3   3  795.76   28.85
   1  -3   3  753.14   27.89
   1   3   3  797.16   28.30
   1  -3   3  759.21   39.90
   1  -3   3  801.06   29.21
   1   3   3  808.18   29.71
   1  -3   4  329.02   26.47
   1   3   4  363.93   20.94
   1  -3   4  353.37   20.66
   1   3   4  315.23   29.52
   1  -3   4  354.38   21.05
   1   3   4  339.44   20.49
   1  -3   4  333.01   19.86
   1   3   4  362.21   20.62
   1  -3   4  353.07   20.75
   1   3   4  370.04   21.32
   1  -3   5  207.22   17.84
   1  -3   5  171.10   21.04
   1  -3   5  204.91   17.48
   1   3   5  197.35   17.49
   1  -3   5  195.38   16.91
   1   3   5  217.59   17.97
   1   3   5  178.20   23.46
   1  -3   5  154.96   15.22
   1   3   5  177.33   16.00
   1   3   5  236.14   18.64
   1  -3   6  695.57   43.29
   1   3   6  665.01   35.78
   1  -3   6  685.82   36.00
   1   3   6  791.84   50.12
   1  -3   6  691.27   36.87
   1   3   6  663.05   35.80
   1   3   7 1299.10   55.68
   1  -3   7 1297.72   55.30
   1  -3   7 1379.37   66.11
   1   3   7 1396.73   69.81
   1  -3   7 1239.82   55.19
   1   3   7 1241.43   54.81
   1  -3   8  216.43   26.34
   1  -3   8  214.28   23.47
   1   3   8  248.66   25.47
   1   3   8  211.61   29.64
   1   3   8  192.58   22.07
   1  -3   8  188.62   22.64
   1  -3   9  221.93   29.58
   1   3   9  194.32   24.12
   1  -3   9  221.51   26.09
   1   3   9  271.08   28.19
   1   3   9  196.13   28.69
   1  -3   9  189.55   23.91
   1  -3  10   58.55   19.37
   1   3  10   33.52   13.68
   1  -3  10   61.91   14.72
   1   3  10   58.75   18.22
   1   3  10   88.19   18.46
   1  -3  10   51.19   15.28
   1  -3  11   99.59   22.26
   1   3  11  131.01   22.83
   1  -3  11  112.09   21.22
   1   3  11  117.72   25.87
   1  -3  11   96.92   20.61
   1   3  11   94.44   19.36
   1  -3  12   26.71   14.08
   1   3  12   31.27   14.10
   1   3  12   59.99   17.11
   1   3  12   54.66   21.39
   1  -3  12   40.13   15.44
   1  -3  13   61.60   19.21
   1   3  13   87.00   22.39
   1   3  13   87.98   20.78
   1  -3  13   44.36   18.35
   1  -4  -3  954.45   36.46
   1  -4  -2   33.84   12.89
   1  -4  -2   29.18    6.97
   1  -4  -1  811.10   39.24
   1  -4  -1  915.86   50.68
   1  -4   0   55.24   14.30
   1  -4   0   37.07   10.00
   1  -4   1  453.69   35.98
   1  -4   1  400.81   29.53
   1  -4   2   62.51   15.95
   1  -4   2   49.52   11.84
   1  -4   2   64.65   14.16
   1   4   2   69.71   18.15
   1  -4   3  371.42   34.42
   1  -4   3  401.89   30.70
   1   4   3  412.96   38.77
   1  -4   3  395.83   31.78
   1  -4   4    0.63    7.43
   1  -4   4   14.06    8.33
   1   4   4   18.17   13.68
   1  -4   5  574.91   41.07
   1  -4   5  536.66   40.31
   1   4   5  470.04   42.50
   1  -4   6  124.72   20.87
   1  -4   6  127.99   20.99
   1   4   6  151.04   24.86
   1  -4   7  384.22   36.24
   1  -4   7  393.14   37.42
   1   4   7  402.33   40.79
   1  -4   8  193.22   28.09
   1   4   8  184.17   29.81
   1  -4   8  210.27   30.48
   1  -4   9  530.02   46.76
   1   4   9  469.28   46.95
   1  -4   9  505.53   45.77
   1  -4  10    6.55   13.33
   1   4  10  -10.01   14.20
   1  -5  -2   92.56   19.85
   1  -5  -1  174.67   25.79
   1  -5   0   16.23   12.41
   1  -5   1  316.78   34.51
   1  -5   1  363.32   30.91
   1  -5   2   -0.74   12.84
   1  -5   2   11.21    9.02
   1  -5   2   26.07   11.99
   1  -5   3  133.49   24.41
   1  -5   3  157.58   22.25
   1  -5   3  201.97   26.33
   1  -5   4   36.99   13.98
   1  -5   4   33.42   15.00
   1   5   4   -4.59   12.58
   1  -5   4   13.17   11.78
   1  -5   5  220.80   30.60
   1  -5   5  246.70   30.12
   1  -5   5  244.58   30.05
   1   5   5  205.56   31.54
   1  -5   6   -1.51   13.03
   1  -5   6    4.49   12.01
   1  -5   6   16.57   13.28
   1   5   6   27.71   17.21
   1  -5   7  224.72   30.03
   1  -5   7  232.86   31.54
   1   5   7  243.22   36.41
   1  -5   8    2.81   11.87
   1  -5   8   30.69   17.19
   1  -6  -1  385.42   40.90
   1  -6   0   37.56   17.28
   1  -6   1  115.22   25.13
   1  -6   2   -6.43   14.42
   1  -6   3   49.11   18.58
   2   0 -15   -5.11   12.85
   2   0 -14  458.76   43.49
   2   0 -13   14.98   11.69
   2   0 -12 2170.96   91.30
   2   0 -11   -5.11   11.33
   2   0 -10 1284.85   60.47
   2   0  -9    2.27    7.56
   2   0  -8  403.34   28.75
   2   0  -7    3.74    5.28
   2   0  -7   -4.98    7.11
   2   0  -6 1081.21   40.68
   2   0  -6 1152.57   44.71
   2   0  -6 1144.52   44.71
   2   0  -5    4.56    4.05
   2   0  -5   -3.21    5.93
   2   0  -5   -4.94    6.07
   2   0  -5    3.99    5.18
   2   0  -4 1464.20   44.79
   2   0  -4 1492.52   45.24
   2   0  -4 1439.42   44.53
   2   0  -3    1.59    4.08
   2   0  -3   -0.23    4.49
   2   0  -3   -3.30    4.68
   2   0  -2 8702.92  169.84
   2   0  -2 8709.50  169.43
   2   0  -1    5.11    3.14
   2   0   0 2031.65   48.88
   2   0   0 1995.65   49.86
   2   0   1   -5.72    4.95
   2   0   1    0.52    3.98
   2   0   2 5531.47  119.39
   2   0   2 5428.00  119.34
   2   0   3   -6.53    5.95
   2   0   3    0.97    4.34
   2   0   4 3657.41   95.06
   2   0   4 3737.30   95.74
   2   0   5    0.65    7.20
   2   0   6 1664.62   62.08
   2   0   7   -1.46    7.65
   2   0   8 1445.23   63.70
   2   0   9  -10.89   12.81
   2   0  10  407.29   37.07
   2   0  10  400.09   37.88
   2   0  11   -3.89   11.71
   2   0  11  -10.05   11.74
   2   0  12   14.20   13.32
   2   0  12   56.23   19.06
   2   0  13    1.69   13.87
   2   0  13   14.60   14.61
   2  -1 -15  291.27   36.87
   2   1 -15  288.95   37.06
   2  -1 -14  325.04   36.98
   2   1 -14  328.61   38.49
   2  -1 -13   10.48   11.14
   2   1 -13   17.40   12.84
   2  -1 -12  681.69   48.11
   2   1 -12  688.26   48.17
   2  -1 -11   45.69   14.51
   2   1 -11    3.63    9.16
   2  -1 -10  772.41   46.44
   2   1 -10  760.47   46.05
   2  -1  -9  103.86   15.95
   2   1  -9  113.25   17.28
   2  -1  -8 1085.92   49.07
   2   1  -8 1040.94   48.13
   2  -1  -7   13.58    6.27
   2  -1  -7   22.10    7.98
   2   1  -7   24.94    8.50
   2  -1  -6 1476.19   45.63
   2  -1  -6 1414.32   50.61
   2   1  -6 1420.84   51.02
   2   1  -6 1365.79   50.53
   2  -1  -6 1454.94   51.73
   2  -1  -5   26.99    7.10
   2  -1  -5   41.55    5.89
   2   1  -5   25.05    7.31
   2  -1  -5   33.17    7.95
   2   1  -5   43.63    8.42
   2   1  -5   46.72    8.19
   2  -1  -5   35.90    7.66
   2   1  -4 1613.68   48.13
   2  -1  -4 1665.83   41.50
   2   1  -4 1669.53   48.64
   2  -1  -4 1687.79   48.96
   2   1  -4 1619.30   48.28
   2  -1  -4 1643.31   48.33
   2  -1  -4 1655.64   48.62
   2  -1  -3  332.29   11.37
   2  -1  -3  328.71   16.60
   2   1  -3  340.86   17.10
   2   1  -3  348.10   16.99
   2  -1  -3  344.05   17.17
   2   1  -3  329.03   16.63
   2  -1  -3  324.63   16.62
   2  -1  -2 2264.12   56.19
   2   1  -2 2168.81   52.08
   2  -1  -2 2175.30   52.33
   2   1  -2 2097.11   51.44
   2  -1  -2 2214.74   52.34
   2  -1  -2 2222.65   58.56
   2  -1  -1 1398.17   42.98
   2  -1  -1 1571.53   42.46
   2   1  -1 1448.71   37.04
   2  -1  -1 1478.76   37.43
   2  -1  -1 1362.30   42.06
   2  -1   0 2983.14   76.08
   2  -1   0 3344.69   67.31
   2  -1   0 3362.36   77.55
   2  -1   0 3369.06   71.29
   2   1   0 3196.33   74.09
   2  -1   0 3050.33   70.30
   2   1   0 2959.29   69.82
   2  -1   0 3062.49   70.53
   2   1   0 2934.39   70.00
   2  -1   1 3747.91   81.12
   2  -1   1 3732.82   87.19
   2   1   1 3332.47   70.61
   2   1   1 3796.89   84.19
   2  -1   1 3746.12   79.75
   2  -1   1 3702.60   82.31
   2   1   1 3878.60   83.32
   2  -1   2 2973.30   75.16
   2   1   2 3038.48   63.83
   2   1   2 3206.88   76.98
   2   1   2 3036.09   74.95
   2  -1   2 3053.30   75.09
   2  -1   2 3013.36   78.29
   2  -1   2 3013.52   74.93
   2   1   2 3074.97   75.43
   2   1   3  381.91   21.53
   2  -1   3  334.21   21.54
   2   1   3  349.90   21.88
   2   1   3  362.45   21.00
   2  -1   3  393.85   21.97
   2  -1   3  374.14   21.17
   2  -1   4 3386.70   90.08
   2   1   4 3406.58   90.32
   2   1   4 3457.71   91.05
   2  -1   4 3482.96   91.27
   2  -1   5  592.50   31.96
   2   1   5  513.90   30.37
   2   1   6 1907.95   67.43
   2  -1   6 1705.60   64.54
   2   1   7  177.50   21.02
   2  -1   7  177.77   21.02
   2   1   8  940.85   50.03
   2  -1   8  876.95   48.87
   2   1   9   42.66   14.53
   2  -1   9   54.75   13.91
   2   1  10  251.40   29.21
   2  -1  10  284.77   31.27
   2  -1  10  296.99   33.35
   2   1  10  245.99   30.18
   2   1  11   52.63   16.97
   2  -1  11   81.23   18.40
   2  -1  11   86.04   20.52
   2   1  11  106.75   20.76
   2   1  12  467.22   44.08
   2  -1  12  402.38   41.47
   2  -1  12  452.67   45.27
   2   1  12  460.20   44.75
   2   1  13   43.52   18.65
   2  -1  13   35.15   16.73
   2  -1  13   25.93   14.46
   2   1  13   25.69   14.57
   2  -2 -15   12.33   12.95
   2   2 -15   12.55   12.42
   2  -2 -14  287.12   35.93
   2   2 -14  338.58   37.46
   2  -2 -13   71.84   18.98
   2   2 -13   56.29   15.76
   2   2 -12  333.09   33.71
   2  -2 -12  340.61   33.61
   2  -2 -11   41.10   13.14
   2   2 -11   43.70   14.42
   2  -2 -10 1313.72   62.00
   2   2 -10 1279.52   61.52
   2  -2  -9  524.12   35.79
   2   2  -9  524.32   35.45
   2  -2  -8 1491.41   59.69
   2   2  -8 1436.20   58.95
   2  -2  -7  681.24   31.13
   2  -2  -7  678.09   35.50
   2   2  -7  669.41   35.43
   2   2  -6  708.48   33.71
   2  -2  -6  716.24   33.75
   2   2  -5  685.89   30.51
   2  -2  -5  657.26   29.95
   2  -2  -4 1970.22   54.46
   2   2  -4 1947.56   54.45
   2   2  -4 1999.98   54.98
   2  -2  -4 2015.87   54.99
   2   2  -4 1871.35   53.56
   2  -2  -4 1909.53   53.99
   2  -2  -3  429.47   22.08
   2   2  -3  428.74   18.93
   2  -2  -3  432.86   19.22
   2   2  -3  443.59   19.01
   2  -2  -3  419.68   18.78
   2  -2  -2  840.37   33.03
   2  -2  -2  907.20   40.38
   2   2  -2  811.88   25.32
   2  -2  -2  801.65   25.53
   2   2  -2  789.20   25.05
   2  -2  -2  852.52   25.87
   2  -2  -2  874.92   38.32
   2  -2  -1  324.71   20.99
   2  -2  -1  402.67   24.98
   2  -2  -1  431.45   25.78
   2   2  -1  366.47   14.46
   2  -2  -1  363.15   14.61
   2   2  -1  368.26   14.39
   2  -2  -1  359.88   14.42
   2  -2   0  350.50   23.59
   2  -2   0  387.80   18.39
   2  -2   0  433.61   24.95
   2  -2   0  395.05   23.76
   2  -2   0  373.77   15.57
   2   2   0  360.96   15.30
   2   2   1  509.25   22.46
   2  -2   1  583.10   25.40
   2  -2   1  549.71   28.79
   2  -2   1  555.09   28.56
   2   2   1  583.47   31.13
   2  -2   1  507.42   21.88
   2   2   1  507.81   21.84
   2   2   2   88.56    9.38
   2  -2   2  113.38   12.21
   2  -2   2  110.52   10.58
   2   2   2  109.53   10.84
   2  -2   2   88.51   12.88
   2   2   2  121.19   15.11
   2  -2   2   87.77   11.17
   2  -2   3 1399.74   50.66
   2  -2   3 1424.70   54.07
   2   2   3 1455.18   47.16
   2  -2   3 1378.19   46.22
   2   2   3 1537.91   56.78
   2   2   3 1469.85   47.68
   2  -2   3 1330.95   45.81
   2   2   3 1275.95   43.24
   2  -2   4  179.16   18.49
   2   2   4  168.62    8.50
   2   2   4  167.09   16.10
   2   2   4  158.95   15.21
   2  -2   4  145.36   14.76
   2   2   4  169.01   18.77
   2  -2   4  164.08   15.50
   2   2   5  542.35   30.91
   2  -2   5  520.70   30.34
   2  -2   5  499.49   32.40
   2   2   5  516.35   34.39
   2   2   6  874.04   43.89
   2  -2   6  809.46   41.94
   2  -2   6  901.06   47.03
   2   2   6  868.48   48.02
   2   2   7  485.93   34.26
   2  -2   7  525.30   35.51
   2  -2   7  553.16   39.38
   2   2   7  564.75   40.22
   2   2   8  684.57   43.48
   2  -2   8  696.64   43.50
   2   2   8  724.26   48.08
   2   2   9  439.98   36.71
   2  -2   9  475.20   37.94
   2   2   9  523.87   42.46
   2  -2   9  454.75   38.81
   2   2   9  441.13   37.76
   2  -2  10  530.15   42.82
   2   2  10  627.35   48.34
   2  -2  10  555.53   43.90
   2   2  10  483.25   41.83
   2   2  10  571.55   44.54
   2   2  11  217.03   29.54
   2  -2  11  199.20   28.37
   2   2  11  178.80   27.68
   2  -2  11  196.26   28.03
   2   2  11  206.90   29.18
   2  -2  12  134.78   23.55
   2   2  12  186.04   30.41
   2   2  12  149.88   25.60
   2  -2  12  112.11   23.86
   2   2  12  135.62   26.13
   2   2  13  -26.39   17.27
   2  -2  13   24.29   15.35
   2   2  13   56.82   21.30
   2  -2  13  -13.03   12.95
   2   2  13   34.64   17.00
   2   2  14  192.32   34.07
   2  -3 -14  120.40   24.01
   2   3 -14  158.49   27.06
   2  -3 -13   74.12   18.13
   2   3 -13   62.70   15.93
   2  -3 -12  148.34   23.62
   2   3 -12  128.71   22.88
   2  -3 -11  349.70   32.48
   2   3 -11  346.55   32.53
   2  -3 -10  150.11   20.29
   2   3 -10  169.23   21.79
   2   3  -9  281.47   26.15
   2  -3  -9  317.17   27.68
   2  -3  -8  250.33   22.95
   2   3  -8  281.04   24.32
   2   3  -7 1280.19   50.57
   2  -3  -7 1293.39   51.04
   2  -3  -6  347.11   22.83
   2   3  -6  311.73   21.91
   2  -3  -4  106.76   11.98
   2  -3  -3  772.90   33.72
   2  -3  -3  740.55   41.18
   2  -3  -2  371.04   23.82
   2  -3  -2  428.16   31.09
   2  -3  -1 1061.93   49.60
   2  -3  -1  889.60   41.48
   2  -3   0  353.87   27.86
   2  -3   0  388.20   22.44
   2  -3   0  401.84   27.30
   2   3   0  352.19   11.68
   2  -3   0  377.67   12.60
   2   3   0  361.55   11.78
   2  -3   0  356.06   12.19
   2  -3   1  461.63   29.65
   2  -3   1  382.43   30.77
   2  -3   1  456.19   25.95
   2   3   1  384.14   30.73
   2  -3   1  406.02   16.50
   2   3   1  430.25   16.56
   2  -3   2  398.80   25.77
   2   3   2  410.88   32.58
   2  -3   2  347.86   26.69
   2  -3   2  328.19   18.20
   2   3   2  341.49   18.37
   2   3   3  209.16   18.41
   2  -3   3  278.12   23.16
   2  -3   3  242.15   23.73
   2   3   3  291.88   27.99
   2  -3   3  239.76   17.49
   2   3   3  261.57   18.51
   2  -3   4  232.06   23.29
   2  -3   4  271.60   25.86
   2   3   4  240.21   25.92
   2  -3   4  207.36   17.86
   2   3   4  243.78   19.58
   2  -3   5  116.81   18.41
   2  -3   5  109.71   14.32
   2  -3   5   89.00   16.22
   2   3   5   98.74   18.21
   2   3   5  121.78   15.29
   2   3   5  113.19   14.77
   2  -3   6  900.58   50.02
   2  -3   6  790.76   49.05
   2   3   6  837.85   51.95
   2  -3   6  788.62   41.51
   2   3   6  806.16   41.99
   2  -3   6  819.96   42.35
   2   3   6  830.30   42.60
   2  -3   7  350.12   33.18
   2   3   7  377.72   36.17
   2  -3   7  335.23   28.30
   2   3   7  374.07   30.02
   2  -3   7  378.36   29.72
   2   3   7  360.87   29.37
   2  -3   8  114.24   20.71
   2   3   8  152.99   21.79
   2  -3   8  130.36   19.11
   2   3   8  115.45   23.45
   2  -3   8  133.96   20.24
   2   3   8  112.70   17.93
   2  -3   9  215.04   29.44
   2   3   9  264.44   28.72
   2  -3   9  280.65   29.32
   2   3   9  288.73   30.22
   2   3   9  258.26   32.88
   2  -3   9  272.49   29.99
   2  -3  10  114.41   21.80
   2   3  10   72.68   16.49
   2   3  10  135.71   25.39
   2  -3  10  117.12   22.93
   2   3  10   69.39   16.22
   2  -3  11  242.72   30.32
   2   3  11  256.02   31.27
   2   3  11  280.32   36.25
   2  -3  11  190.06   29.21
   2   3  11  200.82   28.25
   2   3  12   86.56   21.59
   2  -3  12   49.82   17.11
   2   3  12   84.33   23.05
   2   3  12   58.27   18.39
   2  -3  12   73.51   18.35
   2  -3  13   72.60   21.25
   2   3  13   78.94   19.98
   2   3  13  100.75   24.70
   2  -3  13   88.15   24.59
   2  -4  -4   29.98    7.70
   2  -4  -3  531.59   29.82
   2  -4  -2   60.88   14.16
   2  -4  -2   45.79   10.25
   2  -4  -1  255.57   28.14
   2  -4  -1  229.76   21.68
   2  -4   0  156.46   21.99
   2  -4   0  163.23   17.57
   2  -4   0  132.18   18.82
   2  -4   1  545.89   40.91
   2  -4   1  594.63   34.58
   2  -4   1  577.18   38.81
   2  -4   2   31.62   13.59
   2  -4   2   67.88   12.93
   2  -4   2   41.60   13.61
   2  -4   3  839.54   54.47
   2  -4   3  863.49   46.58
   2   4   3  836.95   55.51
   2  -4   3  857.49   49.53
   2  -4   4  101.99   17.51
   2  -4   4  123.54   19.83
   2   4   4   93.93   20.71
   2  -4   5  359.11   32.85
   2  -4   5  373.16   34.95
   2   4   5  398.83   38.89
   2  -4   6   32.36   12.55
   2  -4   6   26.32   13.47
   2   4   6    7.41   12.90
   2  -4   7  204.11   27.97
   2  -4   7  137.73   24.48
   2   4   7  138.02   25.88
   2  -4   8  169.49   26.88
   2  -4   8  103.77   22.39
   2   4   8  181.97   30.44
   2  -4   9  504.07   46.47
   2  -4   9  516.37   48.13
   2   4   9  541.04   50.74
   2  -4  10   37.32   18.77
   2  -4  10   33.80   15.52
   2   4  10   63.12   21.75
   2  -5  -2  107.93   22.34
   2  -5  -1  393.02   38.85
   2  -5   0  106.06   20.56
   2  -5   0  111.84   18.04
   2  -5   1  380.37   39.13
   2  -5   1  426.32   32.17
   2  -5   1  436.54   36.73
   2  -5   2   11.15   12.50
   2  -5   2   14.96    8.47
   2  -5   2   22.46   12.63
   2  -5   3  221.26   31.22
   2  -5   3  238.18   27.51
   2  -5   3  262.37   30.60
   2  -5   4   13.04   13.01
   2  -5   4   28.25   12.48
   2  -5   4  -10.04   11.57
   2  -5   5  114.15   26.43
   2  -5   5  144.29   24.04
   2  -5   5  121.42   23.45
   2   5   5  162.71   29.05
   2  -5   6   30.50   16.37
   2  -5   6    3.26   12.12
   2  -5   6   29.55   15.63
   2   5   6   17.13   15.39
   2  -5   7  238.01   31.57
   2  -5   7  191.25   30.40
   2  -5   8   -0.95   12.79
   2  -5   8  -10.59   15.10
   2  -6  -1   22.53   16.71
   2  -6   0   -7.79   16.03
   2  -6   1  134.98   26.16
   2  -6   2   -0.59   16.13
   3   0 -15  -17.37   15.37
   3   0 -14  133.73   24.70
   3   0 -13   11.11   10.95
   3   0 -12  554.33   42.89
   3   0 -11    5.74    8.48
   3   0 -10 2013.32   78.34
   3   0  -9   -5.65    8.39
   3   0  -8 3300.71   98.19
   3   0  -7    5.48    5.98
   3   0  -7    0.21    7.70
   3   0  -6 5341.23  125.73
   3   0  -6 5378.14  126.86
   3   0  -6 5023.50  125.08
   3   0  -5    4.48    4.89
   3   0  -5   -6.44    6.99
   3   0  -5    0.66    5.69
   3   0  -4 6196.84  133.45
   3   0  -4 5971.01  132.73
   3   0  -3   -0.17    4.05
   3   0  -3    0.74    4.62
   3   0  -2  473.59   20.81
   3   0  -2  444.19   20.15
   3   0  -2  444.87   20.12
   3   0  -1    3.21    3.15
   3   0  -1   -1.40    4.81
   3   0  -1   -3.98    4.59
   3   0   0 3338.72   79.63
   3   0   0 3386.33   81.48
   3   0   1   -0.96    5.37
   3   0   1    4.05    5.91
   3   0   2 1426.92   45.05
   3   0   2 1440.12   48.84
   3   0   3   15.12    7.54
   3   0   3    6.89    5.52
   3   0   3    3.99    5.42
   3   0   4  530.29   31.13
   3   0   5    1.82    7.74
   3   0   6  972.55   47.98
   3   0   7   -0.80   11.13
   3   0   8  742.71   46.17
   3   0   9    4.57   10.53
   3   0  10  393.91   37.54
   3   0  11   19.37   14.79
   3   0  12  776.95   58.92
   3   0  12  924.98   65.03
   3   0  13  -24.51   19.40
   3   0  13    0.39   12.84
   3   1 -15   57.88   18.85
   3  -1 -15   22.48   14.75
   3  -1 -14  571.31   48.23
   3   1 -14  589.10   48.17
   3  -1 -13  172.72   25.18
   3   1 -13  163.40   26.43
   3  -1 -12  688.43   48.17
   3   1 -12  805.16   51.58
   3  -1 -11   48.75   13.77
   3   1 -11   63.80   15.65
   3  -1 -10 1781.65   73.06
   3   1 -10 1847.08   74.11
   3  -1  -9  166.20   19.90
   3   1  -9  203.28   21.40
   3  -1  -8 1516.38   51.90
   3  -1  -8 1471.13   58.98
   3   1  -8 1566.78   60.33
   3  -1  -7 1173.39   40.51
   3  -1  -7 1223.18   48.45
   3   1  -7 1115.64   47.70
   3   1  -7 1116.93   47.80
   3  -1  -7 1203.52   48.56
   3  -1  -6 1264.09   39.04
   3  -1  -6 1273.49   47.38
   3   1  -6 1272.96   47.41
   3   1  -6 1257.98   47.86
   3  -1  -6 1341.35   48.77
   3   1  -6 1156.05   46.27
   3  -1  -6 1311.57   48.09
   3  -1  -5  333.92   14.97
   3  -1  -5  309.25   20.23
   3   1  -5  311.96   20.86
   3   1  -5  330.47   20.96
   3  -1  -5  339.43   20.98
   3   1  -5  324.96   20.82
   3  -1  -5  305.03   20.14
   3   1  -4 1251.58   41.16
   3  -1  -4 1239.72   41.40
   3   1  -4 1191.19   40.56
   3  -1  -4 1161.59   40.43
   3  -1  -3  858.81   33.34
   3   1  -3  857.08   30.93
   3  -1  -3  862.30   31.22
   3   1  -3  850.93   30.79
   3  -1  -3  848.61   31.07
   3  -1  -2 3091.13   79.30
   3  -1  -2 3221.45   80.30
   3   1  -2 3179.42   75.00
   3  -1  -2 3229.91   74.93
   3   1  -2 3117.74   74.46
   3  -1  -2 3265.07   75.09
   3  -1  -1  517.66   26.00
   3  -1  -1  557.71   22.49
   3   1  -1  519.07   22.01
   3  -1  -1  483.02   24.36
   3  -1   0 1239.15   43.04
   3  -1   0 1227.39   44.69
   3   1   0 1314.39   33.33
   3  -1   0 1358.75   35.54
   3  -1   0 1207.51   39.83
   3   1   0 1142.25   39.25
   3  -1   0 1219.33   40.27
   3   1   0 1191.73   40.40
   3  -1   1  187.38   15.94
   3   1   1  192.82   13.51
   3  -1   1  188.39   10.97
   3   1   1  165.14   10.26
   3  -1   1  169.05   14.74
   3   1   1  189.39   15.51
   3   1   2 1445.61   39.85
   3  -1   2 1451.03   50.92
   3   1   2 1465.71   45.20
   3  -1   2 1401.96   48.17
   3   1   2 1443.61   48.59
   3  -1   3   58.41   10.54
   3   1   3   49.94    7.19
   3  -1   3   55.64   10.70
   3   1   3   67.89    9.56
   3   1   3   57.44   10.52
   3   1   4 1399.54   44.37
   3   1   4 1415.09   51.01
   3   1   4 1446.45   53.77
   3  -1   4 1473.49   54.14
   3   1   5   70.53   13.34
   3  -1   5   89.20   15.14
   3   1   5   93.69   13.57
   3   1   6  793.77   42.73
   3  -1   6  766.86   42.03
   3   1   7   21.75   11.26
   3  -1   7   37.89   12.35
   3   1   8  696.11   45.88
   3  -1   8  735.49   46.05
   3  -1   9  351.62   33.83
   3   1   9  304.57   32.17
   3   1  10  637.58   48.38
   3  -1  10  620.93   47.55
   3   1  11   73.68   19.83
   3  -1  11  112.19   24.79
   3  -1  11  114.76   23.57
   3   1  11   96.90   22.39
   3   1  12  282.52   36.67
   3  -1  12  202.53   32.26
   3   1  12  181.77   30.53
   3  -1  12  270.21   35.66
   3   1  13    3.62   13.93
   3  -1  13   71.64   23.52
   3  -1  13   39.82   19.01
   3   1  13   49.57   20.79
   3  -2 -15   58.68   19.16
   3   2 -15   91.31   22.17
   3  -2 -14  130.73   26.05
   3   2 -14  142.00   25.77
   3  -2 -13  309.00   33.92
   3   2 -13  355.35   36.05
   3  -2 -12  319.16   32.49
   3   2 -12  311.40   31.69
   3  -2 -11  318.24   31.36
   3   2 -11  292.97   30.21
   3  -2 -10  271.68   27.25
   3   2 -10  294.88   27.67
   3  -2  -9  148.18   18.85
   3   2  -9  154.87   19.63
   3  -2  -8 1194.20   43.31
   3  -2  -8 1194.93   51.65
   3   2  -8 1170.59   51.43
   3  -2  -7  296.32   17.91
   3  -2  -7  286.92   22.88
   3   2  -7  348.97   24.83
   3  -2  -6  910.55   30.52
   3  -2  -6  976.26   40.53
   3   2  -6  897.38   39.46
   3   2  -6  945.91   39.98
   3  -2  -6  898.81   39.32
   3   2  -6  938.13   39.31
   3  -2  -6  942.60   40.13
   3  -2  -5 1159.29   31.88
   3   2  -5 1288.70   44.26
   3  -2  -5 1206.44   43.49
   3   2  -5 1104.96   41.66
   3  -2  -5 1182.74   43.02
   3  -2  -4  449.33   25.21
   3   2  -4  471.28   23.07
   3  -2  -4  446.36   22.72
   3   2  -4  455.25   22.75
   3  -2  -4  422.81   22.18
   3   2  -3  694.71   27.02
   3  -2  -3  640.80   26.40
   3   2  -3  714.71   27.07
   3  -2  -3  687.31   27.01
   3  -2  -3  658.88   31.16
   3  -2  -3  685.28   35.60
   3  -2  -2  597.10   32.79
   3  -2  -2  637.40   18.36
   3  -2  -2  647.35   31.84
   3  -2  -2  699.19   34.80
   3   2  -2  643.25   24.60
   3  -2  -2  619.75   24.30
   3   2  -2  656.75   24.67
   3  -2  -2  630.72   24.38
   3  -2  -1  367.55   25.23
   3  -2  -1  358.56   15.33
   3  -2  -1  322.09   23.58
   3  -2  -1  385.81   24.26
   3   2  -1  373.28   17.62
   3  -2  -1  337.14   17.23
   3  -2   0 1475.46   56.17
   3  -2   0 1620.89   44.63
   3  -2   0 1522.21   56.46
   3  -2   0 1692.68   53.92
   3  -2   0 1477.92   44.68
   3   2   0 1529.82   44.83
   3  -2   1  596.89   26.59
   3  -2   1  580.55   32.56
   3  -2   1  635.33   29.71
   3   2   1  603.36   32.70
   3  -2   1  576.12   27.02
   3   2   1  572.66   26.74
   3  -2   2 2485.14   70.45
   3   2   2 2659.53   78.42
   3  -2   2 2694.30   72.81
   3  -2   2 2501.73   78.62
   3  -2   2 2577.17   71.23
   3   2   2 2579.35   71.46
   3  -2   3  317.45   25.69
   3  -2   3  283.81   21.62
   3   2   3  287.14   23.56
   3  -2   3  275.19   20.68
   3   2   3  289.24   21.38
   3   2   3  260.50   16.04
   3   2   4 1284.90   34.37
   3  -2   4 1300.34   53.60
   3  -2   4 1399.75   58.32
   3   2   4 1363.18   55.60
   3  -2   4 1281.38   51.40
   3   2   4 1332.90   52.32
   3   2   5  143.94   10.70
   3  -2   5  139.37   17.92
   3   2   5  127.28   17.12
   3  -2   5  146.34   19.87
   3   2   5  141.67   18.26
   3   2   6  442.41   22.19
   3   2   6  509.71   36.83
   3   2   6  421.24   31.44
   3  -2   6  465.02   32.83
   3   2   7  384.52   31.25
   3  -2   7  381.60   31.35
   3   2   7  398.38   22.98
   3   2   7  418.78   34.75
   3  -2   8  335.80   31.45
   3   2   8  394.89   34.35
   3   2   8  357.49   33.25
   3   2   9   75.16   17.07
   3  -2   9   74.29   17.02
   3   2   9   57.81   17.63
   3   2  10  330.13   34.94
   3  -2  10  262.06   31.78
   3   2  10  391.50   38.17
   3  -2  10  261.16   32.29
   3   2  10  296.60   33.64
   3   2  11  168.40   28.05
   3  -2  11  153.00   25.79
   3   2  11  170.35   28.03
   3  -2  11  167.33   27.76
   3   2  11  186.07   29.05
   3   2  12   97.99   23.43
   3  -2  12  115.47   24.61
   3   2  12  117.59   25.04
   3  -2  12  108.79   24.35
   3   2  12   38.92   14.49
   3  -2  13  148.03   28.47
   3   2  13  139.38   26.66
   3  -2  13  150.06   28.49
   3  -3 -15  371.70   40.71
   3   3 -15  304.95   37.29
   3   3 -14    8.74   13.06
   3  -3 -14    0.92   11.56
   3   3 -13  201.39   28.17
   3  -3 -13  212.89   28.93
   3  -3 -12  273.18   31.05
   3   3 -12  243.16   28.92
   3  -3 -11  267.11   28.14
   3   3 -11  203.62   26.09
   3  -3 -10  109.63   19.03
   3   3 -10   98.79   17.75
   3  -3  -9  207.01   21.89
   3   3  -9  224.70   22.99
   3  -3  -8  464.53   31.12
   3   3  -8  462.40   31.16
   3  -3  -7  260.82   17.05
   3  -3  -4  586.89   31.34
   3   3  -4  583.00   25.27
   3  -3  -4  581.01   25.55
   3   3  -4  553.81   24.46
   3  -3  -4  571.95   25.26
   3  -3  -3  804.49   38.47
   3   3  -3  858.82   29.35
   3  -3  -3  838.15   29.57
   3   3  -3  854.13   28.99
   3  -3  -3  846.18   29.30
   3  -3  -3  811.88   45.17
   3  -3  -2  282.70   26.53
   3  -3  -2  297.27   15.96
   3  -3  -2  301.20   24.14
   3   3  -2  306.75   14.74
   3  -3  -2  296.50   15.00
   3   3  -2  289.63   14.37
   3  -3  -2  278.28   14.37
   3  -3  -1  792.71   44.43
   3  -3  -1  827.85   31.15
   3  -3  -1  803.14   41.15
   3   3  -1  797.75   26.06
   3  -3  -1  828.29   26.99
   3   3  -1  831.85   26.35
   3  -3  -1  804.76   26.42
   3  -3   0  294.91   27.78
   3  -3   0  287.46   18.94
   3  -3   0  304.87   26.81
   3   3   0  273.23   14.52
   3  -3   0  296.90   15.28
   3  -3   1  708.60   42.88
   3  -3   1  687.27   32.85
   3  -3   1  668.01   39.79
   3  -3   1  697.96   27.56
   3   3   1  651.03   26.73
   3  -3   2  226.79   19.96
   3  -3   2  258.71   24.52
   3   3   2  220.88   23.60
   3  -3   2  183.57   15.60
   3   3   2  212.77   16.29
   3  -3   2  230.98   17.19
   3   3   2  201.74   16.32
   3   3   3  989.62   40.74
   3  -3   3 1270.40   51.91
   3  -3   3 1204.42   57.29
   3   3   3 1231.06   58.44
   3  -3   3 1067.04   44.15
   3   3   3 1105.51   44.93
   3   3   4  124.77   14.13
   3  -3   4  166.64   19.65
   3  -3   4  177.88   18.77
   3  -3   4  173.88   22.82
   3   3   4  168.99   22.34
   3   3   4  186.93   19.13
   3  -3   5 1294.82   60.37
   3  -3   5 1361.09   65.26
   3   3   5 1295.42   63.94
   3  -3   5 1281.28   54.80
   3   3   5 1252.96   54.44
   3  -3   6  226.45   26.37
   3  -3   6  201.88   22.05
   3  -3   6  294.17   30.91
   3   3   6  284.03   30.71
   3   3   6  246.82   24.49
   3  -3   7  391.29   35.78
   3  -3   7  409.90   37.86
   3   3   7  415.05   38.05
   3  -3   7  364.53   31.28
   3   3   7  397.22   32.87
   3  -3   8  285.47   30.41
   3   3   8  290.73   29.96
   3  -3   8  251.01   31.73
   3   3   8  290.38   30.21
   3   3   8  234.26   29.90
   3  -3   8  243.11   27.72
   3   3   9  232.96   28.96
   3  -3   9  148.46   24.05
   3  -3   9  181.14   27.57
   3   3   9  207.60   30.39
   3  -3   9  164.44   24.90
   3   3   9  129.38   22.96
   3  -3  10  107.62   21.51
   3   3  10  103.11   20.98
   3  -3  10  127.12   25.47
   3   3  10  116.38   24.63
   3  -3  10   83.35   19.82
   3   3  10   74.32   17.73
   3   3  11  191.37   29.64
   3  -3  11  150.10   26.00
   3  -3  11  161.16   29.00
   3   3  11  149.98   28.94
   3  -3  11  143.05   25.86
   3   3  11  144.15   25.98
   3   3  12  107.23   23.69
   3  -3  12   96.77   23.04
   3   3  12   74.46   21.98
   3  -3  12  137.11   26.26
   3   3  12  125.23   24.84
   3  -4  -4  112.41   14.92
   3  -4  -3  806.03   41.50
   3  -4  -3  865.82   52.05
   3  -4  -2  156.51   23.02
   3  -4  -2  164.00   14.33
   3  -4  -2  172.27   20.01
   3  -4  -1  402.07   35.91
   3  -4  -1  386.19   23.77
   3  -4  -1  397.28   31.34
   3  -4   0    5.54   10.68
   3  -4   0   -0.48    5.31
   3  -4   0    4.15    8.64
   3  -4   1  175.29   24.60
   3  -4   1  192.50   19.33
   3  -4   1  165.21   21.31
   3  -4   2  142.39   23.26
   3  -4   2  179.24   20.23
   3  -4   2  190.39   24.47
   3  -4   3  142.09   25.46
   3  -4   3  145.44   19.07
   3  -4   3  163.70   23.38
   3   4   3  154.68   25.90
   3  -4   4    2.76    7.43
   3  -4   4    2.41   10.80
   3   4   4    5.94   11.13
   3  -4   5  287.65   29.67
   3  -4   5  347.43   35.84
   3   4   5  342.30   36.08
   3  -4   6   29.36   13.78
   3  -4   6   33.45   14.69
   3   4   6   17.72   13.73
   3  -4   7  356.78   37.15
   3  -4   7  394.03   40.61
   3   4   7  339.29   38.36
   3  -4   8   -2.99   13.01
   3  -4   8  -13.24   14.78
   3   4   8   29.74   16.05
   3  -4   9  260.80   35.08
   3   4   9  313.12   38.90
   3   4  10   45.03   17.28
   3  -5  -2   94.69   21.72
   3  -5  -1  627.75   42.25
   3  -5  -1  586.27   48.39
   3  -5   0   30.35   17.40
   3  -5   0   27.39   13.89
   3  -5   1  245.44   32.97
   3  -5   1  314.59   32.93
   3  -5   2   15.14   12.44
   3  -5   2   37.65   15.03
   3  -5   3  293.62   36.64
   3  -5   3  330.91   30.87
   3  -5   3  263.16   32.94
   3  -5   4   11.59   13.83
   3  -5   4   26.82   12.44
   3  -5   4   12.32   13.09
   3  -5   5  163.85   31.72
   3  -5   5  209.99   27.37
   3  -5   5  182.62   29.40
   3   5   5  214.66   34.27
   3  -5   6   14.15   13.68
   3  -5   6   11.93   12.23
   3  -5   6   16.65   13.86
   3   5   6   -5.30   18.12
   3  -5   7  140.99   24.89
   3  -5   7  184.64   31.17
   3  -5   8    5.37   15.46
   3  -6  -1  187.28   31.12
   3  -6   0   54.72   20.12
   4   0 -16  379.95   43.04
   4   0 -15   25.90   15.80
   4   0 -14  313.43   34.88
   4   0 -13  -13.00   15.09
   4   0 -12 1739.34   78.24
   4   0 -11  -19.07   12.94
   4   0 -10  305.62   28.81
   4   0  -9    3.51    8.29
   4   0  -9   21.12   10.75
   4   0  -8 1722.04   64.40
   4   0  -8 1665.01   64.07
   4   0  -7   -2.36    6.44
   4   0  -7   -0.45    7.24
   4   0  -6 2240.54   68.54
   4   0  -6 2127.33   67.87
   4   0  -5   -6.72    4.83
   4   0  -5   -0.92    6.48
   4   0  -4 1989.03   59.24
   4   0  -4 1977.25   59.10
   4   0  -3    9.82    4.44
   4   0  -3    2.60    5.13
   4   0  -2 4188.32   97.60
   4   0  -2 4091.22   97.43
   4   0  -1   -2.60    3.46
   4   0  -1    6.28    6.32
   4   0  -1    4.63    5.75
   4   0   0 4530.05  106.07
   4   0   0 4479.71   96.00
   4   0   0 4395.73  108.37
   4   0   0 4467.47  109.37
   4   0   1   -3.82    6.16
   4   0   1   -3.55    5.68
   4   0   2 1563.83   53.23
   4   0   2 1640.68   39.26
   4   0   2 1585.35   56.06
   4   0   3  -11.27    8.51
   4   0   3    0.96    5.71
   4   0   4 2515.41   77.50
   4   0   4 2759.43   85.53
   4   0   5    4.65   10.10
   4   0   5   10.06    7.82
   4   0   6 1728.03   64.90
   4   0   6 1630.19   68.32
   4   0   7  -11.54    9.10
   4   0   8  525.70   41.32
   4   0   9   13.35   11.73
   4   0  10  262.25   33.53
   4   0  11   -5.57   12.41
   4   0  12  107.07   21.24
   4   0  12   97.85   24.70
   4   0  12   89.14   21.82
   4   0  13    3.25   12.65
   4  -1 -15  264.69   34.58
   4   1 -15  212.68   30.87
   4  -1 -14  257.50   32.38
   4   1 -14  248.52   31.79
   4  -1 -13  147.46   23.77
   4   1 -13  207.28   27.06
   4  -1 -12  271.96   29.42
   4   1 -12  269.11   30.43
   4  -1 -11  244.66   27.53
   4   1 -11  187.57   23.81
   4   1 -10 1533.02   66.30
   4  -1 -10 1508.78   66.03
   4   1  -9  164.07   19.94
   4  -1  -9  154.93   19.42
   4  -1  -9  185.79   20.83
   4   1  -9  161.46   19.09
   4  -1  -8 2127.03   73.98
   4   1  -8 2115.39   73.69
   4   1  -8 2090.88   72.87
   4  -1  -8 2086.04   72.56
   4   1  -7  188.67   18.92
   4  -1  -7  225.83   20.21
   4   1  -7  223.43   20.45
   4  -1  -7  167.86   17.64
   4   1  -6 2571.38   77.11
   4  -1  -6 2779.91   79.19
   4   1  -5  217.64   17.41
   4  -1  -5  216.30   17.79
   4   1  -5  194.49   16.67
   4  -1  -5  214.03   18.00
   4  -1  -4 3177.96   87.13
   4   1  -4 3372.36   85.47
   4  -1  -4 3368.91   85.36
   4   1  -4 3288.50   84.76
   4  -1  -4 3294.10   84.59
   4  -1  -3  157.93   14.98
   4   1  -3  142.25   13.25
   4  -1  -3  160.08   13.85
   4   1  -3  155.46   13.89
   4  -1  -3  160.59   13.60
   4  -1  -2 1573.43   53.11
   4   1  -2 1627.79   49.30
   4  -1  -2 1679.85   49.89
   4  -1  -2 1561.76   52.08
   4  -1  -1  120.62   13.34
   4  -1  -1  101.33   12.72
   4  -1  -1  131.14   12.10
   4   1  -1  120.53   11.70
   4  -1   0 2197.05   65.16
   4   1   0 2187.31   56.04
   4  -1   0 2349.40   52.75
   4  -1   0 2095.28   63.73
   4   1   0 2106.90   64.12
   4  -1   0 2199.71   65.27
   4   1   0 2133.44   64.82
   4  -1   0 2308.36   70.56
   4   1   1  242.81   15.23
   4  -1   1  267.37   21.31
   4  -1   1  289.92   12.90
   4   1   1  286.32   16.94
   4  -1   1  306.34   21.62
   4   1   1  254.10   19.71
   4   1   2 1843.24   53.92
   4  -1   2 1992.81   66.01
   4   1   2 1962.96   54.89
   4  -1   2 1845.71   63.20
   4   1   2 1993.65   64.66
   4   1   3  724.77   30.52
   4  -1   3  757.24   38.65
   4   1   3  773.40   32.77
   4  -1   3  753.47   38.19
   4   1   3  740.04   38.04
   4   1   4 1429.54   48.35
   4  -1   4 1491.36   59.23
   4   1   4 1473.39   51.65
   4  -1   4 1451.55   58.34
   4   1   4 1389.78   57.54
   4  -1   5  154.29   19.55
   4   1   5  182.87   21.27
   4   1   5  143.02   14.90
   4  -1   5  147.37   18.25
   4   1   5  141.99   16.57
   4   1   6  499.96   29.67
   4  -1   6  565.24   37.75
   4   1   6  615.41   35.55
   4  -1   6  532.62   37.14
   4   1   6  505.96   36.38
   4  -1   7  267.88   27.70
   4   1   7  255.42   27.47
   4   1   7  246.64   21.98
   4  -1   7  225.61   26.12
   4   1   7  253.35   24.92
   4   1   8  472.78   38.59
   4  -1   8  454.70   37.60
   4   1   8  521.36   33.79
   4  -1   8  458.42   37.13
   4   1   9   44.46   15.88
   4  -1   9   66.78   17.85
   4   1   9   51.16   12.30
   4   1  10  306.21   36.12
   4  -1  10  261.92   32.84
   4   1  10  288.63   28.68
   4   1  11   66.07   20.45
   4  -1  11  106.22   23.04
   4   1  11  141.78   21.49
   4  -1  11  107.04   22.32
   4   1  12  146.38   26.84
   4  -1  12  206.28   31.39
   4  -1  12  209.19   30.01
   4  -1  12  140.18   30.07
   4   1  12  227.61   33.37
   4  -1  13  -18.83   14.36
   4  -2 -15   49.14   19.72
   4   2 -15   19.12   13.51
   4  -2 -14  164.37   25.92
   4   2 -14  163.84   25.82
   4  -2 -13   72.27   18.36
   4   2 -13   94.32   18.66
   4  -2 -12  193.92   27.57
   4   2 -12  226.41   27.85
   4  -2 -11  453.48   36.82
   4   2 -11  441.01   37.35
   4  -2 -10  369.68   31.80
   4   2 -10  408.21   33.00
   4  -2  -9   90.11   15.92
   4   2  -9   87.44   15.43
   4  -2  -9  104.35   11.81
   4  -2  -8  563.62   25.12
   4  -2  -8  561.80   34.58
   4   2  -8  533.58   33.82
   4   2  -8  548.83   34.03
   4  -2  -8  520.15   33.74
   4  -2  -7 1066.06   32.94
   4   2  -7 1033.54   45.84
   4  -2  -7 1138.92   47.93
   4   2  -6 1253.31   48.55
   4  -2  -6 1235.93   48.07
   4  -2  -5  589.89   32.06
   4   2  -5  608.30   30.30
   4  -2  -5  641.07   30.96
   4   2  -5  564.92   29.27
   4  -2  -5  603.80   29.93
   4  -2  -4 2643.08   79.45
   4   2  -4 2657.96   72.42
   4  -2  -4 2764.19   73.76
   4   2  -4 2647.15   72.39
   4  -2  -4 2678.97   72.87
   4  -2  -3 1706.67   58.62
   4   2  -3 1722.89   51.64
   4  -2  -3 1666.85   51.61
   4   2  -3 1687.84   51.10
   4  -2  -3 1684.80   51.34
   4  -2  -3 1651.95   61.69
   4  -2  -2 1502.23   57.73
   4  -2  -2 1489.65   56.77
   4   2  -2 1553.07   47.70
   4  -2  -2 1534.59   47.66
   4   2  -2 1563.25   47.58
   4  -2  -2 1606.50   48.03
   4  -2  -1  988.85   45.93
   4  -2  -1 1082.00   47.31
   4  -2  -1 1134.69   43.67
   4   2  -1 1050.17   37.45
   4  -2  -1 1023.68   37.14
   4  -2   0  409.24   29.15
   4  -2   0  422.98   29.77
   4  -2   0  430.20   24.43
   4  -2   0  373.27   21.97
   4   2   0  357.72   21.50
   4  -2   1  955.03   46.74
   4  -2   1 1044.45   39.11
   4   2   1 1018.74   43.27
   4  -2   1  920.19   39.42
   4   2   1 1038.91   41.37
   4  -2   1  900.85   39.72
   4   2   1  971.39   40.88
   4   2   2  631.33   22.75
   4  -2   2  717.01   39.89
   4  -2   2  798.38   33.37
   4   2   2  663.31   35.74
   4  -2   2  712.84   35.89
   4   2   2  684.15   35.50
   4   2   3  221.61   21.12
   4   2   3  170.20    9.74
   4  -2   3  213.07   23.32
   4   2   3  228.48   20.84
   4  -2   3  218.90   17.65
   4  -2   3  186.18   19.07
   4   2   3  197.48   13.23
   4   2   4  291.32   15.70
   4  -2   4  331.50   29.22
   4   2   4  276.07   23.98
   4  -2   4  265.20   24.12
   4   2   4  317.51   26.25
   4  -2   5  375.40   31.78
   4   2   5  329.78   18.92
   4   2   5  349.54   28.42
   4  -2   5  342.76   29.29
   4   2   5  374.73   29.84
   4   2   6  520.50   26.01
   4  -2   6  537.03   40.39
   4   2   6  500.95   35.37
   4  -2   6  590.80   39.81
   4   2   6  521.59   37.54
   4  -2   7  150.19   22.19
   4   2   7  114.34   20.09
   4   2   7  125.47   13.67
   4  -2   7  136.49   22.65
   4   2   7  134.60   19.72
   4  -2   8  166.83   25.15
   4   2   8  194.89   26.59
   4   2   8  176.11   17.60
   4  -2   8  192.04   26.94
   4   2   8  180.37   23.85
   4  -2   9  111.65   21.48
   4  -2   9  148.65   24.92
   4   2   9  145.70   23.55
   4  -2  10  218.16   30.36
   4   2  10  268.48   34.05
   4  -2  10  269.29   34.50
   4   2  10  282.98   33.18
   4   2  11  106.28   24.05
   4  -2  11  121.94   26.69
   4  -2  11   94.85   23.93
   4   2  11   75.28   18.39
   4  -2  11   91.00   21.94
   4   2  11   85.91   21.55
   4   2  12  184.99   31.76
   4  -2  12  143.49   29.00
   4   2  12  198.67   30.15
   4  -2  12  148.34   28.96
   4   2  12  192.89   31.97
   4  -3 -15   72.91   19.59
   4   3 -15   49.25   17.93
   4  -3 -14   28.85   14.40
   4   3 -14   37.99   16.66
   4  -3 -13  216.27   28.07
   4   3 -13  214.92   28.58
   4  -3 -12  183.62   25.32
   4   3 -12  229.49   28.25
   4  -3 -11  198.29   25.12
   4   3 -11  210.82   25.39
   4  -3  -6  346.20   12.79
   4   3  -6  410.54   25.25
   4  -3  -6  409.25   25.55
   4  -3  -5 1151.45   49.10
   4   3  -5 1088.01   41.69
   4  -3  -5 1137.79   43.05
   4   3  -5 1098.55   41.48
   4  -3  -5 1093.87   41.91
   4  -3  -4  423.67   28.81
   4   3  -4  410.78   22.42
   4  -3  -4  406.50   22.70
   4   3  -4  428.32   22.78
   4  -3  -4  427.79   22.90
   4  -3  -3  680.54   20.34
   4  -3  -3  690.98   37.85
   4   3  -3  722.05   28.95
   4  -3  -3  656.20   28.30
   4   3  -3  680.74   28.37
   4  -3  -3  719.41   29.17
   4  -3  -3  699.43   42.16
   4  -3  -2  462.12   34.62
   4  -3  -2  536.97   20.29
   4  -3  -2  419.19   31.05
   4   3  -2  485.43   22.82
   4  -3  -2  502.06   23.58
   4   3  -2  469.37   22.48
   4  -3  -2  499.92   23.31
   4  -3  -1  924.34   50.98
   4  -3  -1 1131.46   36.47
   4  -3  -1 1004.99   50.51
   4   3  -1 1054.44   36.21
   4  -3  -1 1029.80   36.31
   4   3  -1 1099.46   36.61
   4  -3  -1 1038.99   36.13
   4  -3   0  357.32   31.63
   4  -3   0  428.11   22.95
   4  -3   0  366.38   30.50
   4   3   0  389.41   21.05
   4  -3   0  356.45   20.58
   4  -3   1  287.24   28.41
   4  -3   1  268.20   20.01
   4  -3   1  289.88   27.61
   4  -3   1  259.83   18.64
   4   3   1  234.87   17.70
   4  -3   2  394.25   34.91
   4  -3   2  421.02   27.46
   4  -3   2  474.42   36.12
   4   3   2  460.77   34.76
   4  -3   2  366.36   24.69
   4   3   2  389.75   25.46
   4  -3   2  400.13   26.13
   4   3   2  377.85   25.52
   4   3   3  418.77   23.15
   4  -3   3  489.30   31.91
   4  -3   3  364.86   32.93
   4   3   3  509.18   37.01
   4  -3   3  434.98   29.49
   4   3   3  440.97   29.65
   4  -3   4  420.24   32.10
   4  -3   4  549.41   41.29
   4   3   4  469.85   37.23
   4  -3   4  463.17   32.43
   4   3   4  459.75   32.25
   4  -3   5  375.96   35.42
   4   3   5  392.39   35.06
   4  -3   5  391.81   30.85
   4   3   5  407.73   32.93
   4   3   6   39.47   13.56
   4  -3   6   30.96   11.48
   4  -3   6   57.38   16.86
   4   3   6   25.35   13.47
   4  -3   7  334.01   35.80
   4   3   7  335.87   34.03
   4  -3   7  330.42   32.32
   4   3   7  365.14   33.85
   4  -3   8   69.27   19.76
   4   3   8   83.65   18.22
   4  -3   8   45.86   19.94
   4  -3   9  262.09   32.41
   4  -3   9  306.28   38.14
   4   3   9  319.30   35.97
   4   3   9  370.06   36.30
   4  -3   9  302.65   33.20
   4   3   9  305.31   34.59
   4  -3  10    8.67   12.69
   4   3  10   31.50   15.23
   4  -3  10   28.39   17.42
   4   3  10   35.42   16.76
   4  -3  10   28.64   14.99
   4   3  10   21.09   12.61
   4  -3  11  120.64   24.31
   4   3  11  144.32   27.62
   4   3  11  164.26   28.75
   4  -3  11  118.53   25.51
   4   3  11  144.77   27.00
   4  -4  -5  211.83   21.50
   4  -4  -4   28.10    9.10
   4  -4  -3  746.42   42.38
   4  -4  -3  737.98   49.36
   4  -4  -2   80.64   18.20
   4  -4  -2   90.64   10.40
   4  -4  -2   60.68   13.79
   4  -4  -1  985.32   59.40
   4  -4  -1  993.47   54.56
   4  -4  -1 1121.91   41.70
   4  -4   0   16.33   13.65
   4  -4   0   19.15    7.13
   4  -4   0   31.03   11.96
   4  -4   1 1103.02   47.51
   4  -4   1 1113.52   61.14
   4  -4   2   61.33   18.46
   4  -4   2   66.36   12.52
   4  -4   2   53.64   15.97
   4  -4   3  296.98   35.50
   4  -4   3  281.65   26.15
   4  -4   3  297.86   32.92
   4   4   3  345.06   35.94
   4  -4   4   -4.81   14.20
   4  -4   4   39.28   13.29
   4  -4   4   44.53   16.31
   4   4   4   32.29   14.63
   4  -4   5  309.98   31.08
   4  -4   5  323.44   36.16
   4   4   5  278.68   33.66
   4  -4   6  102.06   24.39
   4   4   6   95.80   23.18
   4  -4   7  239.49   33.74
   4   4   7  204.20   31.35
   4  -4   8   28.65   15.38
   4   4   8   61.54   18.78
   4   4   9   38.47   19.55
   4  -5  -3  117.29   23.89
   4  -5  -2  119.47   24.37
   4  -5  -2  137.29   21.27
   4  -5  -1  116.99   19.67
   4  -5  -1  116.78   25.25
   4  -5   0  -23.20   17.39
   4  -5   0   10.33   11.52
   4  -5   1  187.79   30.25
   4  -5   1  221.36   30.03
   4  -5   2   29.93   18.02
   4  -5   2   20.77   13.81
   4  -5   3  143.35   28.39
   4  -5   3  128.44   25.56
   4  -5   4   31.73   16.58
   4  -5   4   31.00   16.48
   4  -5   5  149.18   31.99
   4  -5   5   98.33   23.54
   4  -5   6   -1.09   13.67
   5   0 -16  447.81   46.07
   5   0 -15  -10.16   12.77
   5   0 -14  666.97   51.42
   5   0 -13   -6.39   11.41
   5   0 -12  373.77   35.13
   5   0 -11   13.71   12.06
   5   0 -10 1625.30   70.19
   5   0 -10 1660.47   69.83
   5   0  -9    9.95    8.60
   5   0  -9    9.19    8.60
   5   0  -8 1300.78   55.94
   5   0  -7    7.04    8.07
   5   0  -6 5056.12  126.66
   5   0  -5   -0.01    4.90
   5   0  -5   -2.93    6.43
   5   0  -4  895.20   37.98
   5   0  -4  860.81   37.31
   5   0  -3   -0.64    4.02
   5   0  -3   -2.64    7.31
   5   0  -3    5.98    5.55
   5   0  -2 2201.91   65.52
   5   0  -2 2259.07   66.62
   5   0  -1   -3.24    3.58
   5   0  -1    5.25    6.84
   5   0  -1    3.27    5.17
   5   0   0 3494.14   82.26
   5   0   0 3542.85   93.52
   5   0   0 3444.46   95.86
   5   0   0 3561.42   97.14
   5   0   1   -9.49    7.67
   5   0   1    8.67    7.60
   5   0   2 2778.02   83.77
   5   0   2 2872.97   59.19
   5   0   2 2797.56   87.50
   5   0   3  -15.06   11.80
   5   0   3   -2.36    8.04
   5   0   3    4.82    3.06
   5   0   4  405.76   28.78
   5   0   4  443.78   33.04
   5   0   5   -9.07   10.12
   5   0   5    2.54    7.18
   5   0   6 1389.70   59.73
   5   0   6 1220.80   62.91
   5   0   7   -9.99   13.87
   5   0   7    3.83    8.88
   5   0   8  135.20   23.63
   5   0   8  152.34   21.45
   5   0   9   14.66   16.77
   5   0   9   -6.25   11.77
   5   0  10  617.66   46.57
   5   0  10  634.28   52.71
   5   0  11    1.18   13.27
   5   0  11   -0.76   10.57
   5   0  12   81.00   21.01
   5   0  13   36.00   15.40
   5  -1 -16  261.75   37.27
   5   1 -16  275.39   36.69
   5  -1 -15  -12.12   12.57
   5   1 -15   -7.76   12.17
   5  -1 -14  375.06   38.46
   5   1 -14  335.77   37.13
   5  -1 -13  121.35   22.20
   5   1 -13  114.34   22.43
   5  -1 -12  522.92   41.85
   5   1 -12  475.19   39.88
   5  -1 -11  312.72   30.45
   5   1 -11  341.27   32.27
   5  -1 -10  287.60   28.79
   5   1 -10  278.38   28.36
   5   1 -10  302.23   28.92
   5  -1 -10  315.62   28.77
   5  -1  -9  388.19   30.49
   5   1  -9  385.46   30.83
   5   1  -9  420.03   31.26
   5  -1  -9  373.24   30.00
   5   1  -8 1184.28   53.77
   5  -1  -8 1221.00   53.96
   5  -1  -7  239.86   21.59
   5   1  -7  207.32   20.32
   5   1  -6 1034.07   44.84
   5  -1  -6 1006.81   44.38
   5   1  -5  535.59   29.50
   5  -1  -5  546.46   29.78
   5   1  -5  504.69   28.85
   5  -1  -5  510.10   28.75
   5  -1  -4 2710.50   80.47
   5   1  -4 2757.33   78.16
   5  -1  -4 2856.96   78.90
   5   1  -4 2831.49   78.32
   5  -1  -4 2720.47   77.34
   5  -1  -3 1936.73   64.55
   5   1  -3 2014.60   61.22
   5  -1  -3 2011.13   61.25
   5   1  -3 1899.98   59.82
   5  -1  -3 1959.32   60.33
   5  -1  -2  916.84   41.64
   5   1  -2  998.68   39.71
   5  -1  -2 1032.42   40.37
   5  -1  -2  963.27   39.89
   5  -1  -1  423.43   25.21
   5   1  -1  440.65   22.13
   5  -1  -1  493.18   30.64
   5  -1  -1  384.71   24.24
   5   1  -1  404.08   24.68
   5  -1   0 1976.04   62.62
   5   1   0 1754.91   53.92
   5  -1   0 2018.24   69.27
   5  -1   0 2006.71   65.08
   5   1   0 1948.47   64.18
   5  -1   0 1953.22   65.57
   5   1   0 1993.96   66.09
   5  -1   1   25.15    8.60
   5   1   1   26.09    9.92
   5   1   1   28.27    7.02
   5  -1   1   28.63   11.52
   5  -1   1   34.37    4.08
   5   1   2 1192.86   43.90
   5  -1   2 1259.03   53.88
   5   1   2 1229.54   40.44
   5  -1   2 1217.72   32.24
   5  -1   2 1173.58   51.99
   5   1   2 1113.42   51.16
   5   1   3  216.34   22.70
   5   1   3  200.65   17.66
   5  -1   3  219.75   21.89
   5   1   3  202.03   15.78
   5  -1   3  197.55   21.55
   5   1   4 1452.34   53.27
   5  -1   4 1479.20   61.84
   5   1   4 1505.50   51.31
   5  -1   4 1337.08   60.50
   5   1   4 1428.42   62.13
   5  -1   5  174.70   22.34
   5   1   5  173.03   21.39
   5   1   5  140.14   16.49
   5  -1   5  155.02   20.74
   5   1   5  165.83   16.89
   5   1   6  764.38   39.90
   5  -1   6  790.18   47.35
   5   1   6  808.99   41.04
   5  -1   6  835.52   50.17
   5   1   6  812.72   49.94
   5  -1   7   -9.51   10.96
   5   1   7   22.26   11.25
   5   1   7    7.28    6.95
   5  -1   7   16.23   11.01
   5   1   7  -13.06   11.15
   5   1   8  749.88   43.51
   5  -1   8  753.43   50.65
   5   1   8  827.84   47.28
   5  -1   8  770.64   53.68
   5   1   8  716.95   51.83
   5  -1   9  166.57   27.36
   5   1   9  124.88   25.23
   5   1   9   84.56   15.46
   5  -1   9  138.74   22.78
   5   1   9  182.76   23.01
   5  -1  10  125.45   25.52
   5   1  10  105.66   23.85
   5   1  10  105.21   17.94
   5  -1  10  114.81   22.97
   5   1  10  146.38   23.35
   5  -1  11   -3.55   13.73
   5   1  11   17.84   17.98
   5  -1  11    5.44   15.39
   5  -1  12  152.68   28.10
   5  -2 -15  373.47   40.74
   5   2 -15  398.75   41.65
   5  -2 -14  289.73   34.34
   5   2 -14  304.50   34.73
   5  -2 -13  133.38   21.63
   5   2 -13  109.12   20.97
   5  -2 -12  421.50   37.26
   5   2 -12  350.68   33.61
   5  -2 -11  441.45   36.93
   5   2 -11  477.38   38.26
   5   2  -9   76.99   14.98
   5  -2  -9   60.71   13.61
   5   2  -8 1099.53   50.73
   5  -2  -8 1074.60   49.84
   5   2  -7   76.32   13.49
   5  -2  -7   46.04   10.07
   5   2  -6  509.61   30.27
   5  -2  -6  477.80   29.26
   5  -2  -5  144.81   17.28
   5   2  -5  131.16   14.46
   5  -2  -5  156.81   15.99
   5  -2  -4  256.20   22.20
   5   2  -4  252.58   19.25
   5  -2  -4  255.39   19.35
   5   2  -4  264.88   19.54
   5  -2  -4  241.49   18.85
   5  -2  -3  338.39   25.73
   5   2  -3  325.77   21.39
   5  -2  -3  352.28   22.04
   5   2  -3  313.58   21.24
   5  -2  -3  345.48   21.89
   5  -2  -3  329.51   26.71
   5  -2  -2 1901.55   68.54
   5  -2  -2 1842.86   69.37
   5   2  -2 1874.22   58.77
   5  -2  -2 1928.72   59.57
   5   2  -2 1945.13   59.19
   5  -2  -2 1857.68   58.67
   5  -2  -1 1022.61   48.86
   5  -2  -1 1038.18   50.04
   5  -2  -1  971.39   40.47
   5   2  -1 1028.61   41.30
   5  -2   0  452.56   32.12
   5  -2   0  575.53   36.95
   5  -2   0  558.13   27.66
   5  -2   0  457.64   27.36
   5   2   0  472.20   27.76
   5  -2   1  534.40   35.50
   5  -2   1  548.51   37.49
   5  -2   1  515.13   26.15
   5  -2   1  510.86   31.52
   5   2   1  543.42   32.65
   5   2   2 1268.71   32.54
   5   2   2 1265.10   36.33
   5  -2   2 1446.33   62.86
   5  -2   2 1444.76   46.81
   5   2   2 1369.98   53.18
   5  -2   2 1277.24   54.93
   5   2   2 1338.48   56.17
   5   2   3  629.01   25.25
   5  -2   3  889.45   49.03
   5   2   3  752.89   38.93
   5  -2   3  811.08   33.99
   5  -2   3  779.51   43.15
   5   2   3  791.92   43.77
   5   2   4  997.03   35.71
   5  -2   4 1093.92   57.11
   5   2   4 1085.66   49.11
   5  -2   4 1013.46   41.13
   5  -2   4  987.45   51.69
   5   2   4  988.18   52.14
   5   2   5  754.42   32.86
   5  -2   5  713.14   47.13
   5   2   5  820.57   43.34
   5  -2   5  778.14   46.90
   5   2   5  775.82   46.39
   5  -2   6  190.59   24.02
   5   2   6  150.17   22.57
   5   2   6  197.66   17.53
   5  -2   6  173.10   25.51
   5   2   6  151.80   19.80
   5  -2   7  168.44   25.00
   5   2   7  166.54   24.06
   5   2   7  188.52   18.43
   5  -2   7  164.76   25.04
   5   2   7  158.85   22.57
   5  -2   8  233.63   29.43
   5   2   8  295.84   34.28
   5  -2   8  252.76   31.20
   5   2   8  291.29   29.37
   5  -2   9  126.33   24.21
   5   2   9  161.02   27.22
   5  -2   9  139.20   25.40
   5   2   9  127.13   21.23
   5  -2  10  152.39   28.41
   5   2  10  123.40   26.47
   5  -2  10   84.71   21.35
   5   2  10  128.15   22.10
   5  -2  11   89.96   21.71
   5   2  11   80.36   22.79
   5  -2  11   97.06   24.28
   5   3  -8   48.43   11.53
   5  -3  -8   68.99   13.28
   5   3  -7  313.13   24.40
   5  -3  -7  300.79   24.80
   5   3  -6  501.38   29.28
   5  -3  -6  466.66   28.52
   5  -3  -5 1056.31   50.60
   5   3  -5 1168.98   45.21
   5  -3  -5 1061.31   43.84
   5   3  -5 1168.14   44.89
   5  -3  -5 1110.79   44.30
   5  -3  -4  443.19   31.70
   5   3  -4  442.12   25.21
   5  -3  -4  442.61   25.53
   5   3  -4  483.40   26.35
   5  -3  -4  447.66   25.71
   5  -3  -4  496.69   37.53
   5  -3  -3  295.86   26.78
   5   3  -3  341.29   21.26
   5  -3  -3  291.73   20.13
   5   3  -3  323.46   21.11
   5  -3  -3  311.81   20.75
   5  -3  -3  345.23   31.05
   5  -3  -2  362.60   31.86
   5  -3  -2  384.26   31.99
   5   3  -2  406.58   23.39
   5  -3  -2  374.92   22.57
   5   3  -2  429.71   23.83
   5  -3  -2  392.74   23.11
   5  -3  -1  662.50   43.58
   5  -3  -1  650.98   43.24
   5   3  -1  648.56   30.68
   5  -3  -1  656.12   31.21
   5   3  -1  658.08   30.89
   5  -3  -1  645.07   30.77
   5  -3   0  425.88   34.37
   5  -3   0  485.75   37.27
   5  -3   0  371.41   23.77
   5   3   0  382.81   24.32
   5  -3   1  815.07   50.91
   5  -3   1  917.56   53.30
   5  -3   2  266.71   29.00
   5  -3   2  277.30   30.84
   5  -3   2  300.84   24.84
   5   3   2  284.80   24.65
   5  -3   3  328.49   33.01
   5   3   3  335.86   30.71
   5  -3   3  328.96   27.89
   5   3   3  298.41   26.66
   5  -3   4  188.02   22.43
   5   3   4  194.27   23.36
   5  -3   4  206.66   26.82
   5   3   4  232.56   26.05
   5  -3   5  167.35   22.42
   5   3   5  190.65   23.42
   5  -3   5  186.19   27.33
   5   3   5  250.36   28.13
   5  -3   6  222.59   28.00
   5   3   6  189.76   25.09
   5  -3   6  240.56   30.60
   5   3   6  247.72   29.13
   5  -3   7  227.64   28.27
   5   3   7  246.69   29.80
   5  -3   7  247.90   33.25
   5   3   7  240.31   28.72
   5  -3   8  113.65   22.20
   5   3   8   97.12   20.81
   5  -3   8   84.67   20.83
   5   3   8  109.18   20.97
   5  -3   9  116.74   24.76
   5   3   9   91.04   21.48
   5  -3   9   53.27   22.72
   5   3   9  114.42   22.48
   5  -3  10  106.03   21.54
   5   3  10  132.30   27.95
   5   3  10   44.79   18.75
   5  -3  10  104.93   23.98
   5   3  10  101.18   22.60
   5  -3  11   84.59   24.19
   5   3  11   96.42   24.75
   5  -3  11   54.34   20.23
   5  -4  -5  166.56   21.32
   5  -4  -4  183.68   22.69
   5  -4  -3  757.66   46.34
   5  -4  -3  813.60   53.34
   5  -4  -2   87.93   18.33
   5  -4  -2   78.18   17.90
   5  -4  -1  316.28   34.42
   5  -4  -1  322.00   32.27
   5  -4   0  542.80   44.33
   5  -4   0  651.22   46.87
   5  -4   1  223.51   29.96
   5  -4   1  256.13   31.83
   5  -4   2   79.30   20.39
   5  -4   2   72.77   18.57
   5  -4   3  499.60   45.86
   5  -4   3  588.56   49.77
   5  -4   4  -11.66   13.03
   5  -4   4   -7.56   12.57
   5   4   4    5.14   10.48
   5  -4   5  279.26   34.84
   5   4   5  277.54   33.90
   5  -4   6   82.02   22.85
   5   4   6   60.21   19.48
   5  -4   7  260.66   36.60
   5   4   7  297.84   36.99
   5   4   8   27.60   17.17
   5   4   9  147.70   28.22
   5  -5  -3  385.15   41.32
   5  -5  -3  428.94   36.98
   5  -5  -2  173.71   29.37
   5  -5  -2  120.57   20.76
   5  -5  -1  312.10   37.24
   5  -5  -1  261.08   30.65
   5  -5   0    5.02   14.71
   5  -5   0    9.17   13.59
   5  -5   1  247.74   34.95
   5  -5   1  243.14   32.88
   5  -5   2   42.76   18.06
   5  -5   2   55.28   21.21
   5  -5   3  258.21   36.34
   5  -5   3  216.18   33.01
   5  -5   4   11.51   18.14
   5  -5   5  147.03   30.27
   6   0 -16  319.49   38.51
   6   0 -15    2.97   13.92
   6   0 -14  865.49   59.44
   6   0 -13   16.53   12.66
   6   0 -12  624.29   46.29
   6   0 -12  632.12   45.95
   6   0 -11   -0.70    9.63
   6   0 -11   13.32   10.92
   6   0 -10 1147.78   57.55
   6   0  -9   -2.96    8.42
   6   0  -8  895.07   46.31
   6   0  -7    7.23    8.96
   6   0  -6 2127.10   71.73
   6   0  -5    3.00    6.54
   6   0  -4 3756.28  101.51
   6   0  -4 3706.24  100.01
   6   0  -3   19.55    9.67
   6   0  -2 1107.81   45.41
   6   0  -1   -2.39    4.72
   6   0  -1   -4.55    7.07
   6   0   0  454.00   22.88
   6   0   0  460.95   28.94
   6   0   0  447.91   31.39
   6   0   1   10.78    9.36
   6   0   1   -1.85    7.19
   6   0   2 3823.14  108.65
   6   0   2 3674.20  112.18
   6   0   3    0.42    8.12
   6   0   3    2.61    8.01
   6   0   3   -5.47    2.86
   6   0   4 1124.22   53.56
   6   0   4 1196.38   37.19
   6   0   4 1152.29   59.22
   6   0   5   -3.03    9.10
   6   0   5   12.13    8.46
   6   0   5    8.79    5.21
   6   0   6 1408.12   64.11
   6   0   6 1533.52   74.33
   6   0   7   -5.18   11.43
   6   0   7    6.57    8.58
   6   0   8 1084.93   60.27
   6   0   8 1085.42   67.67
   6   0   9  -16.11   12.67
   6   0   9   -9.95   12.54
   6   0  10   72.97   24.53
   6   0  10   43.72   13.52
   6   0  11   10.18   14.94
   6   0  11   34.39   16.68
   6   0  12  167.01   28.98
   6  -1 -16  282.07   37.98
   6   1 -16  338.98   40.67
   6   1 -15   10.21   12.09
   6  -1 -15   34.98   15.44
   6  -1 -14  398.72   40.26
   6   1 -14  441.46   42.33
   6  -1 -13   95.62   20.26
   6   1 -13  148.02   24.32
   6  -1 -12  822.92   52.99
   6   1 -12  772.83   51.07
   6  -1 -12  825.43   52.37
   6   1 -11  244.70   28.28
   6  -1 -11  197.24   24.59
   6   1 -10  521.39   37.84
   6  -1 -10  549.94   39.03
   6   1  -9   74.56   15.46
   6  -1  -9   98.54   17.66
   6   1  -8 1366.65   58.29
   6  -1  -8 1349.96   58.45
   6   1  -7  303.18   25.57
   6  -1  -7  301.53   25.34
   6   1  -6 1829.64   65.79
   6  -1  -6 1833.78   65.82
   6  -1  -5  396.59   28.57
   6   1  -5  405.15   26.60
   6  -1  -5  349.61   25.41
   6  -1  -4 1371.16   54.98
   6   1  -4 1362.63   51.81
   6  -1  -4 1269.59   50.31
   6  -1  -3  152.97   16.31
   6  -1  -3  137.64   17.29
   6   1  -3  151.29   16.32
   6  -1  -3  167.71   16.82
   6   1  -2 1746.89   55.01
   6  -1  -2 1649.01   62.18
   6  -1  -2 1531.05   56.07
   6  -1  -1  999.84   42.87
   6   1  -1  939.19   38.60
   6  -1  -1 1020.92   48.21
   6  -1   0 1463.60   53.59
   6  -1   0 1501.65   60.66
   6   1   1  222.70   11.31
   6  -1   1  255.66   23.63
   6   1   1  201.98   17.61
   6  -1   1  225.81   23.66
   6   1   1  246.63   24.59
   6   1   2  653.54   33.97
   6  -1   2  647.89   41.00
   6  -1   2  670.41   18.18
   6   1   2  697.90   28.59
   6  -1   2  721.84   42.49
   6   1   2  678.60   41.49
   6  -1   3    8.38    8.35
   6   1   3   18.72   10.81
   6   1   3   18.83    7.75
   6  -1   3   21.11   11.47
   6   1   3    4.46    4.26
   6  -1   3   19.88    3.88
   6   1   4 1135.87   50.11
   6  -1   4 1166.00   57.99
   6   1   4 1234.74   44.29
   6  -1   4 1124.72   59.18
   6   1   4 1253.77   61.53
   6   1   5  576.28   35.55
   6  -1   5  526.38   39.97
   6   1   5  540.45   30.10
   6  -1   5  526.43   40.29
   6   1   5  555.12   41.69
   6   1   6  640.51   38.31
   6  -1   6  589.37   43.45
   6   1   6  633.32   34.92
   6  -1   6  608.66   45.59
   6   1   6  568.00   44.31
   6  -1   7  243.23   30.65
   6   1   7  217.35   29.19
   6   1   7  183.20   22.04
   6  -1   7  275.63   31.06
   6   1   7  203.71   21.41
   6  -1   8  259.91   33.97
   6   1   8  278.42   34.66
   6   1   8  251.17   26.73
   6  -1   8  289.23   33.18
   6   1   8  304.87   27.16
   6  -1   9  146.81   27.35
   6   1   9   83.55   21.80
   6   1   9   92.49   18.49
   6  -1   9   80.33   21.24
   6  -1  10  290.99   38.53
   6   1  10  301.71   39.26
   6  -1  10  291.02   37.31
   6  -1  11   26.26   14.11
   6  -1  11   57.69   19.32
   6   2 -11  355.59   33.88
   6  -2 -11  327.81   31.65
   6   2 -10  479.05   35.91
   6  -2 -10  465.72   35.90
   6   2  -9 1120.44   55.25
   6  -2  -9 1169.96   56.74
   6   2  -8  384.19   29.98
   6  -2  -8  403.07   30.62
   6   2  -7  237.45   22.77
   6  -2  -7  242.93   23.05
   6  -2  -6  949.23   47.74
   6   2  -6 1020.24   46.37
   6  -2  -6 1000.88   46.17
   6  -2  -5  665.31   39.04
   6   2  -5  591.16   33.51
   6  -2  -5  646.84   34.98
   6  -2  -4  526.44   34.99
   6   2  -4  556.28   31.36
   6  -2  -4  574.50   31.73
   6  -2  -3  541.01   35.70
   6   2  -3  593.98   31.80
   6  -2  -3  587.39   31.73
   6  -2  -3  575.46   36.58
   6  -2  -2 1069.55   51.43
   6  -2  -2 1120.43   54.36
   6  -2  -1  366.08   29.41
   6  -2  -1  376.46   31.93
   6  -2   0  484.22   34.94
   6  -2   0  526.07   38.31
   6  -2   0  557.07   27.30
   6  -2   1  486.29   34.73
   6  -2   1  493.89   37.39
   6  -2   1  477.13   24.54
   6  -2   1  467.92   33.32
   6   2   1  455.22   32.26
   6   2   2  267.46   16.58
   6  -2   2  326.01   31.69
   6  -2   2  330.33   19.64
   6  -2   2  303.38   28.04
   6   2   2  356.93   30.21
   6  -2   3  229.35   26.03
   6   2   3  276.53   27.62
   6   2   3  239.96   16.54
   6  -2   3  298.22   31.58
   6  -2   3  245.29   17.41
   6   2   3  272.55   22.95
   6   2   4 1437.22   48.55
   6  -2   4 1399.56   70.16
   6   2   4 1421.62   58.17
   6  -2   4 1344.31   65.93
   6   2   4 1430.98   67.52
   6  -2   5   28.36   13.05
   6   2   5   45.55   15.93
   6   2   5   61.27   10.47
   6  -2   5   53.85   17.21
   6   2   5   70.33   14.23
   6  -2   6  695.29   50.50
   6   2   6  655.17   40.35
   6  -2   6  601.58   47.12
   6   2   6  679.58   49.47
   6  -2   7  321.00   35.15
   6   2   7  356.17   37.26
   6  -2   7  306.81   35.61
   6   2   7  308.72   28.86
   6  -2   8   91.45   21.90
   6   2   8  115.38   24.00
   6  -2   8  119.61   24.80
   6   2   8  127.12   20.86
   6  -2   9   54.26   20.06
   6   2   9   58.91   22.20
   6  -2   9   60.96   19.93
   6  -2  10  140.17   28.74
   6   2  10  215.15   34.24
   6  -2  10  180.47   32.32
   6   3  -9  200.45   22.74
   6  -3  -9  187.58   22.70
   6   3  -8  130.04   17.19
   6  -3  -8  124.22   16.83
   6   3  -7  597.06   35.75
   6  -3  -7  625.15   36.82
   6  -3  -6   17.45   11.10
   6   3  -6    5.57    6.13
   6  -3  -6    4.70    6.67
   6  -3  -5  421.09   33.13
   6   3  -5  428.16   27.93
   6  -3  -5  406.86   27.27
   6  -3  -4  231.82   24.78
   6   3  -4  214.17   19.33
   6  -3  -4  256.36   21.04
   6  -3  -4  226.34   25.90
   6  -3  -3  729.18   45.01
   6   3  -3  785.22   36.82
   6  -3  -3  795.08   37.12
   6  -3  -3  798.90   49.28
   6  -3  -2   26.49   13.24
   6  -3  -2   23.39   10.15
   6   3  -2   34.83    8.38
   6  -3  -2   23.99    7.39
   6  -3  -1  710.79   47.54
   6  -3  -1  745.59   48.18
   6  -3   0  364.11   33.91
   6  -3   0  437.69   37.84
   6  -3   1 1557.15   72.74
   6  -3   1 1432.35   72.67
   6  -3   2  540.26   43.76
   6  -3   2  604.89   46.50
   6  -3   3  449.11   40.44
   6  -3   3  408.24   39.55
   6   3   3  459.72   36.02
   6  -3   3  445.16   34.99
   6   3   3  421.00   34.19
   6  -3   4   73.33   17.47
   6   3   4   80.31   17.06
   6  -3   4   70.22   18.71
   6   3   4   95.84   18.39
   6  -3   5  210.45   27.14
   6   3   5  233.13   28.17
   6  -3   5  272.65   33.91
   6   3   5  237.15   27.63
   6  -3   6  174.02   26.31
   6   3   6  206.29   28.03
   6  -3   6  220.16   31.25
   6   3   6  228.97   28.26
   6  -3   7  134.48   24.54
   6   3   7  166.21   27.20
   6  -3   7  216.08   31.89
   6   3   7  157.34   23.39
   6  -3   8   55.86   18.78
   6   3   8   58.83   17.98
   6  -3   8   43.72   19.97
   6   3   8   54.99   18.58
   6  -3   9  121.68   27.26
   6   3   9  123.31   26.87
   6  -3  10    8.56   13.53
   6   3  10   46.27   19.91
   6  -4  -6  112.83   17.96
   6  -4  -5   72.72   16.27
   6  -4  -4   15.26   12.31
   6  -4  -4    9.21   10.39
   6  -4  -3  247.14   30.29
   6  -4  -3  227.70   26.29
   6  -4  -2   12.16   13.92
   6  -4  -2   -3.70   10.72
   6  -4  -1  548.16   46.02
   6  -4  -1  636.26   47.92
   6  -4   0   97.07   21.07
   6  -4   0  110.84   22.45
   6  -4   1  281.29   35.39
   6  -4   1  229.80   31.07
   6  -4   2   59.73   19.51
   6  -4   2   79.05   19.32
   6  -4   3  502.28   47.59
   6  -4   3  564.92   50.01
   6  -4   4    4.98   14.37
   6  -4   4   19.94   15.83
   6  -4   5   49.54   18.24
   6  -4   5   12.51   15.14
   6   4   5   68.56   19.43
   6  -4   6    8.41   17.05
   6   4   6    0.03   11.82
   6   4   7   89.68   19.91
   6   4   8   78.12   22.36
   6  -5  -4   60.54   16.82
   6  -5  -3  289.11   37.04
   6  -5  -3  202.72   28.48
   6  -5  -2   63.16   21.71
   6  -5  -2   24.54   12.09
   6  -5  -1  244.97   34.53
   6  -5  -1  209.07   29.84
   6  -5   0   27.08   17.52
   6  -5   0   16.62   12.87
   6  -5   1  120.98   24.94
   6  -5   1   79.38   22.50
   6  -5   2   46.23   21.65
   6  -5   2   15.62   16.45
   6  -5   3  143.32   29.61
   6  -5   4   32.58   19.32
   7   0 -13    4.07   10.48
   7   0 -12 1605.58   76.15
   7   0 -11   -7.43   10.40
   7   0 -10 1385.95   65.56
   7   0  -9   -7.09    9.24
   7   0  -8  764.63   44.49
   7   0  -7   -5.31    8.68
   7   0  -6 1325.27   56.69
   7   0  -5   -1.16    7.02
   7   0  -4 1394.05   56.13
   7   0  -4 1385.70   55.71
   7   0  -3   -1.47    8.99
   7   0  -2 1153.70   50.37
   7   0  -1    4.09    3.94
   7   0  -1   11.75    8.45
   7   0   0  798.02   33.35
   7   0   0  817.15   43.36
   7   0   1   -0.16    4.73
   7   0   1   -6.91   10.00
   7   0   1   11.39    9.47
   7   0   2  114.48   19.25
   7   0   2  136.13   19.11
   7   0   3  -13.89   13.96
   7   0   3    1.09    9.67
   7   0   4  583.38   40.59
   7   0   4  549.52   19.69
   7   0   4  526.18   41.83
   7   0   5   -5.27   12.29
   7   0   5   20.05   11.69
   7   0   5   -1.63    4.52
   7   0   6  394.71   35.77
   7   0   6  428.41   41.14
   7   0   7  -10.56   16.06
   7   0   7   -0.02   10.89
   7   0   8 1628.16   79.48
   7   0   8 1713.49   90.22
   7   0   9   22.15   18.23
   7   0   9  -14.69   10.52
   7   0  10  331.33   43.06
   7   0  10  323.45   36.93
   7   0  11    7.77   13.79
   7   1 -13  177.49   27.41
   7  -1 -13  221.74   29.21
   7   1 -12  410.69   37.61
   7  -1 -12  436.43   38.59
   7   1 -11   33.20   12.67
   7  -1 -11   36.74   14.74
   7   1 -10 1109.26   57.61
   7  -1 -10 1058.86   57.17
   7   1  -9  348.70   30.39
   7  -1  -9  334.69   29.94
   7   1  -8  921.86   48.85
   7  -1  -8  903.91   48.00
   7   1  -7   57.89   13.02
   7  -1  -7   58.00   12.79
   7   1  -6  954.45   46.64
   7  -1  -6  881.49   44.93
   7  -1  -5   11.28    8.54
   7   1  -5   19.53    9.05
   7  -1  -5   38.96   10.35
   7  -1  -4 1122.68   52.78
   7   1  -4 1175.77   50.19
   7  -1  -4 1106.47   48.96
   7  -1  -3   47.61   10.52
   7  -1  -3   38.90   10.70
   7   1  -2 1163.62   46.52
   7  -1  -2 1153.73   53.80
   7  -1  -2 1174.11   48.88
   7  -1  -1  146.61   16.60
   7   1  -1  125.32   14.77
   7  -1  -1  163.57   20.36
   7  -1   0 1010.11   46.13
   7   1   0  889.29   40.75
   7   1   1  248.28   12.78
   7  -1   1  254.20   22.96
   7   1   1  268.82   26.85
   7   1   1  268.28   21.85
   7  -1   1  244.44   26.37
   7  -1   1  317.87   29.24
   7   1   2  745.32   38.97
   7  -1   2  829.85   49.56
   7  -1   2  733.19   46.31
   7   1   2  688.82   45.14
   7  -1   3   53.80   15.66
   7   1   3   37.28   14.70
   7   1   3   50.96   11.68
   7  -1   3   67.09   14.89
   7   1   3   30.00    6.27
   7   1   4 1054.85   51.42
   7  -1   4 1071.54   59.99
   7   1   4 1106.27   40.86
   7  -1   4 1087.52   60.77
   7   1   4 1071.44   60.63
   7  -1   5  228.96   28.81
   7   1   5  293.01   33.08
   7   1   5  277.60   26.62
   7  -1   5  282.15   32.15
   7   1   5  242.86   19.09
   7   1   6 1065.25   55.27
   7  -1   6 1059.81   63.24
   7   1   6 1138.52   46.51
   7  -1   6 1027.70   64.50
   7   1   6  988.07   63.92
   7  -1   7  103.42   23.63
   7   1   7   52.32   15.61
   7   1   7  110.55   18.66
   7  -1   7   82.05   18.95
   7  -1   8  304.30   37.59
   7   1   8  349.99   40.23
   7   1   8  317.97   31.87
   7  -1   8  258.53   33.76
   7  -1   9   13.33   14.60
   7  -1   9    5.10   12.28
   7  -1  10  230.71   37.55
   7   1  10  288.69   39.97
   7  -1  10  213.09   31.39
   7   2 -12  376.12   36.17
   7  -2 -12  474.38   40.47
   7   2 -11  230.91   27.28
   7  -2 -11  244.42   28.03
   7   2 -10  830.30   50.23
   7  -2 -10  817.47   49.41
   7   2  -9  159.78   22.00
   7  -2  -9  169.16   21.86
   7   2  -8  630.16   39.99
   7  -2  -8  717.51   42.54
   7   2  -7  697.47   40.42
   7  -2  -7  665.45   40.25
   7  -2  -6  477.78   35.08
   7   2  -6  477.01   32.37
   7  -2  -6  427.86   31.12
   7  -2  -5  196.58   22.54
   7   2  -5  251.63   22.81
   7  -2  -5  224.93   22.05
   7  -2  -4  660.84   41.83
   7   2  -4  655.82   37.07
   7  -2  -4  721.18   38.63
   7  -2  -3  312.66   29.44
   7   2  -3  367.22   26.86
   7  -2  -3  298.55   24.36
   7  -2  -3  326.06   28.92
   7  -2  -2  911.04   48.77
   7  -2  -2 1020.05   54.52
   7  -2  -1  164.00   20.85
   7  -2  -1  159.71   22.32
   7  -2   0  696.19   42.52
   7  -2   0  713.10   47.48
   7  -2   1  548.55   39.27
   7   2   1  449.91   24.28
   7  -2   1  552.59   42.96
   7  -2   2  198.40   23.71
   7  -2   2  224.41   25.87
   7   2   2  193.71   24.25
   7   2   2  171.75   15.21
   7  -2   2  192.02   25.79
   7   2   3  473.05   26.23
   7  -2   3  614.88   47.20
   7  -2   3  490.98   39.37
   7   2   3  583.86   42.19
   7  -2   4   88.30   18.54
   7   2   4   60.63   15.49
   7   2   4   75.04   11.49
   7  -2   4   41.88   15.39
   7   2   4   63.08   12.02
   7  -2   5   89.11   20.99
   7   2   5  118.79   22.40
   7  -2   5   93.25   21.27
   7   2   5   93.37   15.23
   7  -2   6  479.52   44.11
   7   2   6  483.80   34.36
   7  -2   6  474.84   43.50
   7   2   6  459.75   43.63
   7  -2   7  135.75   25.70
   7   2   7  151.00   26.60
   7  -2   7  102.55   24.13
   7  -2   8  242.62   35.36
   7   2   8  222.39   32.65
   7  -2   8  285.38   36.70
   7  -2   9  -18.52   16.43
   7   2   9  -37.46   21.20
   7  -2   9    3.98   13.76
   7  -3 -11  384.93   34.70
   7   3 -10   84.75   18.22
   7  -3 -10   76.11   16.90
   7   3  -9  476.48   35.36
   7  -3  -9  429.84   34.06
   7   3  -8  628.33   39.42
   7  -3  -8  614.47   39.40
   7   3  -7  318.10   27.03
   7  -3  -7  308.61   26.77
   7  -3  -6  381.46   32.65
   7   3  -6  323.40   26.58
   7  -3  -6  366.92   28.42
   7  -3  -5  406.76   34.61
   7   3  -5  476.95   31.23
   7  -3  -5  471.77   31.27
   7  -3  -4  411.56   34.87
   7   3  -4  403.31   28.30
   7  -3  -4  424.87   29.23
   7  -3  -4  380.00   34.57
   7  -3  -3  292.95   30.87
   7  -3  -3  284.56   30.16
   7   3  -3  290.81   23.79
   7  -3  -3  324.09   24.98
   7  -3  -2  188.11   24.87
   7  -3  -2  193.38   25.45
   7   3  -2  243.33   21.80
   7  -3  -2  216.60   20.95
   7  -3  -1  260.56   29.34
   7  -3  -1  224.08   28.31
   7  -3   0   75.17   18.05
   7  -3   0   69.80   18.35
   7  -3   1  355.54   35.95
   7  -3   1  437.43   41.63
   7  -3   2  186.29   27.60
   7  -3   2  222.38   30.22
   7  -3   3  613.71   48.12
   7  -3   3  581.69   49.85
   7  -3   3  531.00   41.06
   7   3   3  605.27   44.08
   7  -3   4  105.96   19.96
   7   3   4   65.88   17.37
   7  -3   4   92.59   22.47
   7  -3   5  184.75   26.57
   7   3   5  170.92   25.99
   7  -3   5  222.95   33.59
   7   3   5  196.79   25.39
   7  -3   6   79.36   20.60
   7   3   6  125.48   24.13
   7  -3   6   64.25   20.83
   7   3   6   90.08   18.89
   7  -3   7   12.75   13.18
   7   3   7   10.00   12.38
   7  -3   7   24.75   18.26
   7  -3   8   93.78   21.38
   7   3   8  138.56   27.76
   7  -3   9  143.21   29.50
   7   3   9  136.71   29.52
   7  -4  -6   26.92   12.02
   7  -4  -5 1029.22   58.96
   7  -4  -4   18.44   15.28
   7  -4  -4   34.30   14.59
   7  -4  -3  229.73   32.56
   7  -4  -3  224.20   28.49
   7  -4  -2   52.97   17.09
   7  -4  -2   41.19   14.40
   7  -4  -1  476.25   44.09
   7  -4  -1  473.33   43.48
   7  -4   0  -15.26   12.85
   7  -4   0   18.62   11.14
   7  -4   1  303.90   37.14
   7  -4   1  245.57   33.49
   7  -4   2   64.89   20.57
   7  -4   2  106.64   25.69
   7  -4   3  257.51   36.42
   7  -4   3  209.92   33.59
   7  -4   4   31.20   15.84
   7  -4   4  102.48   24.48
   7  -4   5  251.76   38.10
   7  -4   5  273.41   39.17
   7  -5  -5   67.37   17.83
   7  -5  -4   24.59   14.85
   7  -5  -3  166.76   30.96
   7  -5  -3  119.28   23.23
   7  -5  -2   82.83   24.53
   7  -5  -2   49.07   17.03
   7  -5  -1  210.20   33.29
   7  -5  -1  214.43   31.56
   7  -5   0   -5.19   16.29
   7  -5   0   -8.55   16.24
   7  -5   1  349.85   42.21
   7  -5   2   10.39   15.62
   8   0 -14  386.04   40.84
   8   0 -13    4.19   11.79
   8   0 -12  257.93   30.01
   8   0 -11   14.11   12.57
   8   0 -10 1114.51   60.30
   8   0  -9  -20.11   12.85
   8   0  -8 1350.99   62.12
   8   0  -7    0.08    8.39
   8   0  -6 3023.43   97.78
   8   0  -5  -10.27    9.27
   8   0  -4 1997.03   73.57
   8   0  -4 2066.75   74.50
   8   0  -3   -2.60    9.42
   8   0  -2 1590.62   63.94
   8   0  -1    4.19    5.56
   8   0  -1    8.24    8.04
   8   0   0 1747.57   56.89
   8   0   0 1823.24   71.16
   8   0   1   -3.81    5.55
   8   0   1    0.35    9.51
   8   0   1   -4.03    8.28
   8   0   2 1159.71   58.57
   8   0   2 1177.03   62.50
   8   0   3    8.49   10.43
   8   0   3    3.83    9.77
   8   0   4  422.95   36.63
   8   0   4  429.47   41.15
   8   0   5   -3.87   11.94
   8   0   5   19.63   13.96
   8   0   6  516.82   44.02
   8   0   6  525.22   48.93
   8   0   7   -4.96   13.50
   8   0   7   -5.99   12.25
   8   0   8   39.03   20.45
   8   0   8   74.90   20.54
   8   0   9    7.46   15.18
   8   0   9   -8.17   12.81
   8   0  10  188.15   31.38
   8   1 -14  277.54   33.92
   8  -1 -14  274.72   33.27
   8   1 -13  281.63   33.14
   8  -1 -13  231.42   30.72
   8   1 -12  439.52   38.71
   8  -1 -12  443.30   39.07
   8   1 -11   69.70   16.68
   8  -1 -11   78.55   17.79
   8   1 -10  812.86   49.95
   8  -1 -10  778.60   49.60
   8   1  -9  278.78   28.45
   8  -1  -9  265.86   27.95
   8   1  -8 1677.31   70.79
   8  -1  -8 1750.28   72.21
   8   1  -7  299.10   27.48
   8  -1  -7  248.80   25.80
   8  -1  -6  795.18   46.13
   8   1  -6  807.42   44.82
   8  -1  -6  787.67   44.26
   8  -1  -5  160.44   20.88
   8   1  -5  192.80   21.50
   8  -1  -5  141.81   18.33
   8  -1  -4 1580.57   67.90
   8   1  -4 1696.13   66.22
   8  -1  -4 1698.40   66.58
   8  -1  -3  306.92   28.12
   8  -1  -3  254.87   22.22
   8   1  -2  623.91   35.42
   8  -1  -2  698.79   43.13
   8  -1  -2  611.92   35.69
   8  -1  -1  396.73   28.57
   8   1  -1  365.15   26.75
   8  -1  -1  363.85   32.77
   8  -1   0  888.83   44.15
   8  -1   0  991.66   55.15
   8   1   1  298.87   15.36
   8  -1   1  310.89   27.05
   8  -1   1  316.58   31.48
   8   1   1  277.91   30.95
   8   1   1  321.98   25.52
   8  -1   1  324.15   32.09
   8   1   2  729.46   28.63
   8  -1   2  626.55   39.96
   8   1   2  760.31   41.80
   8  -1   2  721.87   48.47
   8  -1   2  671.54   47.00
   8   1   2  709.12   48.65
   8  -1   3  184.01   25.69
   8   1   3  199.67   28.47
   8   1   3  202.45   22.82
   8  -1   3  225.27   28.92
   8  -1   4  280.57   33.35
   8   1   4  271.65   32.87
   8   1   4  297.98   28.47
   8  -1   4  303.18   33.39
   8  -1   5   17.66   12.38
   8   1   5    1.33   13.27
   8   1   5   10.97    8.88
   8  -1   5   29.47   15.44
   8  -1   6  323.19   38.14
   8   1   6  275.08   35.47
   8   1   6  298.44   31.20
   8  -1   6  377.99   39.42
   8  -1   7   40.93   18.55
   8   1   7   58.51   17.03
   8  -1   7   21.18   13.32
   8  -1   8  375.23   43.71
   8   1   8  431.99   47.26
   8  -1   8  419.08   43.94
   8  -1   9   16.71   16.75
   8  -1   9   52.40   20.04
   8   2 -13   73.01   19.29
   8  -2 -13   90.08   21.44
   8   2 -12  218.74   28.68
   8  -2 -12  190.78   27.14
   8   2 -11  541.43   42.71
   8  -2 -11  433.89   38.15
   8   2 -10  268.52   29.27
   8  -2 -10  238.30   27.85
   8   2  -9  155.32   22.08
   8  -2  -9   88.07   18.43
   8   2  -8 1107.57   55.95
   8  -2  -8 1102.65   55.83
   8   2  -7  330.56   29.47
   8  -2  -7  401.22   31.87
   8  -2  -6 1183.13   59.68
   8   2  -6 1196.67   55.94
   8  -2  -6 1217.89   56.64
   8  -2  -5  431.39   35.19
   8   2  -5  444.27   32.02
   8  -2  -5  424.78   31.39
   8  -2  -4  252.60   25.89
   8  -2  -4  228.70   26.15
   8   2  -4  269.75   25.17
   8  -2  -4  267.35   24.60
   8  -2  -3  421.59   35.06
   8   2  -3  434.39   31.81
   8  -2  -3  444.14   32.04
   8  -2  -3  441.69   34.65
   8  -2  -2  492.26   36.70
   8  -2  -2  519.12   40.24
   8  -2  -1  700.67   44.71
   8  -2  -1  816.78   51.61
   8  -2   0  309.55   29.56
   8  -2   0  357.95   35.36
   8  -2   1  124.25   20.86
   8   2   1  116.60   13.62
   8  -2   2  299.35   30.97
   8  -2   2  324.06   33.04
   8   2   2  239.26   19.82
   8  -2   2  318.18   35.94
   8   2   2  363.34   34.35
   8  -2   3  171.51   24.98
   8  -2   3  176.03   26.80
   8   2   3  135.52   22.98
   8   2   3  137.24   15.28
   8  -2   3  159.56   26.85
   8  -2   4  273.39   33.22
   8   2   4  298.79   33.82
   8  -2   4  277.08   35.41
   8  -2   5  157.30   25.55
   8   2   5  168.88   26.39
   8  -2   5  217.62   31.27
   8  -2   6   83.25   22.08
   8   2   6   72.00   20.34
   8  -2   6  118.66   26.32
   8  -2   7   61.43   20.10
   8   2   7   69.22   22.60
   8  -2   7   78.76   20.30
   8  -2   8  147.51   29.61
   8   2   8  137.88   29.21
   8  -2   8  139.90   27.56
   8   3 -12  299.75   32.78
   8  -3 -12  258.32   30.82
   8   3 -11  611.99   44.45
   8  -3 -11  618.34   45.80
   8   3 -10  216.54   25.75
   8  -3 -10  232.79   26.76
   8   3  -9  692.26   45.07
   8  -3  -9  729.12   46.06
   8   3  -8   35.15   12.53
   8  -3  -8   11.87    9.14
   8  -3  -7  152.87   22.61
   8   3  -7  192.73   22.22
   8  -3  -7  176.67   21.55
   8  -3  -6  251.77   28.89
   8   3  -6  314.66   27.41
   8  -3  -6  261.51   25.19
   8  -3  -5  505.43   40.51
   8   3  -5  590.71   37.36
   8  -3  -5  549.57   36.32
   8  -3  -4   38.34   13.97
   8  -3  -4   30.25   13.64
   8   3  -4   46.39   11.60
   8  -3  -4   38.71   10.27
   8  -3  -3  509.14   41.37
   8   3  -3  529.30   35.13
   8  -3  -3  551.35   35.62
   8  -3  -3  492.21   40.73
   8  -3  -2  208.65   27.50
   8  -3  -2  222.59   28.93
   8   3  -2  233.29   23.70
   8  -3  -2  194.53   21.54
   8  -3  -1  178.80   26.66
   8  -3  -1  161.40   25.65
   8  -3   0  145.40   23.28
   8  -3   0  151.39   26.29
   8  -3   1  296.61   33.02
   8  -3   1  277.50   34.12
   8  -3   2   78.63   20.12
   8  -3   2  103.09   23.49
   8  -3   3  255.06   33.12
   8  -3   3  226.94   33.12
   8  -3   4   63.49   21.51
   8  -3   4   67.66   18.27
   8   3   4   79.91   20.62
   8  -3   4  105.72   25.90
   8  -3   5  317.68   36.59
   8   3   5  256.39   34.13
   8  -3   5  377.85   44.03
   8  -3   6   59.50   20.76
   8   3   6   62.19   22.42
   8  -3   6   45.53   20.93
   8  -3   7  199.96   32.29
   8   3   7  210.48   34.08
   8  -3   8  178.00   33.06
   8   3   8  185.99   33.34
   8  -4  -7   59.56   16.59
   8  -4  -6   12.54   13.12
   8  -4  -5  110.21   21.79
   8  -4  -4  123.03   24.35
   8  -4  -4  124.71   23.03
   8  -4  -3  382.98   40.03
   8  -4  -3  391.20   39.45
   8  -4  -2   17.31   13.26
   8  -4  -2   27.92   13.17
   8  -4  -1  302.20   37.46
   8  -4  -1  400.06   42.29
   8  -4   0   17.91   11.57
   8  -4   0   41.31   17.75
   8  -4   1  187.49   29.73
   8  -4   1  242.40   35.37
   8  -4   2   38.81   19.18
   8  -4   2   37.68   17.65
   8  -4   3  143.69   28.49
   8  -4   3  155.00   32.89
   8  -4   4   25.55   18.73
   8  -4   4   24.65   18.39
   8  -5  -5  250.07   32.36
   8  -5  -4    1.23   13.37
   8  -5  -3   99.88   22.39
   8  -5  -2   21.94   16.23
   8  -5  -1   75.76   23.39
   8  -5   0    8.13   13.60
   8  -5   1   94.93   24.71
   9   0 -15   13.19   12.11
   9   0 -14  909.79   63.36
   9   0 -13   -9.28   12.63
   9   0 -12  528.42   45.05
   9   0 -11   -8.86   14.16
   9   0 -10  733.37   49.90
   9   0  -9   10.26   10.38
   9   0  -8  455.56   36.58
   9   0  -7   -4.63    9.91
   9   0  -6  852.82   48.17
   9   0  -5   -7.21    8.41
   9   0  -5   -6.64   10.12
   9   0  -4 1721.44   71.69
   9   0  -4 1794.35   72.07
   9   0  -3   12.21   10.68
   9   0  -2 1541.03   66.22
   9   0  -1   -3.02    6.05
   9   0  -1   -0.81    9.86
   9   0   0  298.14   21.78
   9   0   0  293.97   28.69
   9   0   1   -7.44    7.88
   9   0   1   20.58    9.10
   9   0   2  634.18   35.16
   9   0   2  592.02   43.89
   9   0   2  633.56   48.77
   9   0   3   -6.97   11.04
   9   0   3  -11.72   11.71
   9   0   4  630.24   47.90
   9   0   4  622.20   51.10
   9   0   5   24.50   17.03
   9   0   5   -8.76   11.48
   9   0   6  392.92   44.73
   9   0   6  496.61   44.70
   9   0   7  -19.62   18.38
   9   0   7    5.89   13.39
   9   0   8  479.77   53.11
   9   0   8  487.61   46.47
   9   0   9   15.90   15.80
   9   1 -15    3.04   14.61
   9  -1 -15   -1.43   13.46
   9   1 -14  342.21   39.67
   9  -1 -14  329.51   38.26
   9   1 -13   84.90   19.89
   9  -1 -13   18.06   14.32
   9   1 -12  975.81   61.15
   9  -1 -12 1008.45   62.77
   9   1 -11  200.00   27.43
   9  -1 -11  186.37   26.62
   9   1 -10  313.32   32.51
   9  -1 -10  314.83   32.90
   9   1  -9  111.15   19.88
   9  -1  -9  119.70   21.99
   9   1  -8  855.35   50.92
   9  -1  -8  820.57   49.09
   9   1  -7  761.92   46.60
   9  -1  -7  787.36   47.39
   9  -1  -6 1324.51   64.49
   9   1  -6 1285.49   60.96
   9  -1  -6 1321.77   61.61
   9  -1  -5   68.67   16.01
   9   1  -5   57.67   13.49
   9  -1  -5   61.09   13.46
   9  -1  -4 1172.67   59.72
   9   1  -4 1188.40   57.60
   9  -1  -4 1198.31   57.43
   9  -1  -3   70.90   13.13
   9   1  -3   73.98   13.90
   9  -1  -3   96.49   17.61
   9   1  -2  730.88   41.42
   9  -1  -2  794.19   48.14
   9  -1  -2  761.65   42.18
   9  -1  -1   34.49   11.15
   9   1  -1   61.13   12.59
   9  -1  -1   44.64   14.15
   9  -1   0  518.51   34.99
   9   1   0  487.74   33.68
   9  -1   0  570.32   43.39
   9  -1   1  160.67   20.37
   9   1   1  143.48   18.59
   9  -1   1  150.26   23.16
   9   1   1  148.72   10.97
   9  -1   2  415.22   33.32
   9   1   2  370.77   38.31
   9   1   2  460.00   34.55
   9  -1   2  375.71   37.18
   9  -1   2  418.17   40.13
   9  -1   3  -13.88   10.20
   9  -1   3   29.44   15.70
   9   1   3   12.37   16.33
   9   1   3    0.56    7.94
   9  -1   3   11.06   13.63
   9  -1   4  279.02   35.76
   9   1   4  276.65   28.24
   9  -1   4  219.50   30.80
   9  -1   5  143.59   26.98
   9   1   5   97.02   24.69
   9   1   5   98.85   19.19
   9  -1   5  103.19   24.47
   9  -1   6  262.85   36.83
   9   1   6  208.15   33.67
   9   1   6  262.47   29.56
   9  -1   6  259.36   36.46
   9  -1   7   23.31   17.95
   9   1   7   23.41   17.65
   9  -1   7   75.20   21.88
   9  -1   8   26.26   18.73
   9   2 -14  339.64   38.24
   9  -2 -14  308.46   36.66
   9   2 -13  178.93   27.17
   9  -2 -13  145.25   25.89
   9   2 -12  157.00   24.93
   9  -2 -12  217.50   29.39
   9   2 -11  356.77   35.59
   9  -2 -11  321.29   34.23
   9   2 -10  266.48   29.80
   9  -2 -10  253.16   29.29
   9   2  -9  865.88   52.93
   9  -2  -9  957.22   55.72
   9   2  -8  191.65   24.79
   9  -2  -8  130.78   20.16
   9  -2  -7    6.86   10.08
   9   2  -7   30.57   11.40
   9  -2  -7   27.51   11.47
   9  -2  -6  366.73   34.48
   9   2  -6  424.71   33.53
   9  -2  -6  463.27   35.00
   9  -2  -5  201.91   26.30
   9   2  -5  225.13   24.50
   9  -2  -5  239.35   25.36
   9  -2  -4  996.64   57.22
   9   2  -4  889.60   49.51
   9  -2  -4  917.53   49.81
   9  -2  -3   -1.51   10.22
   9  -2  -3   -1.55   10.33
   9  -2  -2  835.66   54.42
   9  -2  -2 1028.88   55.66
   9  -2  -1  281.07   29.11
   9  -2  -1  348.11   35.98
   9  -2   0  841.31   51.53
   9  -2   0  897.72   58.55
   9  -2   1  188.48   25.00
   9   2   1  166.20   17.69
   9  -2   2  432.99   38.41
   9   2   2  373.14   27.09
   9  -2   2  401.65   40.72
   9  -2   3  362.57   36.45
   9  -2   3  338.68   37.61
   9   2   3  308.89   36.35
   9  -2   3  370.21   41.18
   9  -2   4  321.13   35.54
   9  -2   4  307.66   36.95
   9   2   4  386.51   41.63
   9  -2   4  305.45   37.85
   9  -2   5   50.48   18.22
   9   2   5  112.84   26.37
   9  -2   5  118.55   27.97
   9  -2   6  108.97   24.90
   9   2   6  187.80   32.03
   9  -2   6  107.90   26.28
   9  -2   7   48.03   22.05
   9   2   7   77.84   24.49
   9  -2   7   53.71   20.32
   9   3 -13   62.55   17.11
   9  -3 -13   55.95   18.08
   9   3 -12  -11.76   12.07
   9  -3 -12   -0.82   11.14
   9  -3 -11  366.21   35.93
   9   3 -11  345.79   35.26
   9   3 -10  256.80   29.57
   9  -3 -10  266.38   29.90
   9   3  -9  238.98   28.08
   9  -3  -9  194.09   24.68
   9   3  -8  133.81   20.86
   9  -3  -8  149.54   22.25
   9  -3  -7  628.36   47.68
   9   3  -7  663.60   44.12
   9  -3  -7  629.05   42.53
   9  -3  -6  433.47   40.29
   9   3  -6  502.81   37.35
   9  -3  -6  475.43   36.12
   9  -3  -5  138.07   24.13
   9   3  -5  111.25   17.93
   9  -3  -5  155.92   20.33
   9  -3  -4  386.36   37.45
   9  -3  -4  397.15   38.24
   9   3  -4  414.23   33.17
   9  -3  -4  435.96   34.12
   9  -3  -3  466.05   41.91
   9   3  -3  454.01   34.34
   9  -3  -3  359.42   30.72
   9  -3  -3  389.88   38.55
   9  -3  -2  127.87   23.60
   9   3  -2  117.37   18.34
   9  -3  -2   90.82   16.38
   9  -3  -1  452.62   41.31
   9  -3  -1  449.45   43.34
   9  -3   0  225.09   30.70
   9  -3   0  267.05   33.65
   9  -3   1  571.05   47.12
   9  -3   1  642.51   54.00
   9  -3   2  163.81   28.64
   9  -3   2  152.30   28.20
   9  -3   3  141.64   26.26
   9  -3   3  171.32   33.50
   9  -3   4   54.78   19.13
   9  -3   4   35.18   20.28
   9  -3   5  124.90   25.39
   9  -3   5  128.61   25.63
   9   3   5  141.98   27.12
   9  -3   5   85.45   24.63
   9  -3   6    6.16   14.52
   9  -3   6  -18.01   14.18
   9   3   6   23.85   15.21
   9  -3   7  133.05   29.85
   9   3   7  110.49   27.36
   9  -4  -7  501.83   44.34
   9  -4  -6   67.97   18.18
   9  -4  -5  113.99   23.90
   9  -4  -4   30.96   15.81
   9  -4  -4   41.09   18.13
   9  -4  -3  304.75   37.85
   9  -4  -3  234.86   31.79
   9  -4  -2   20.62   15.90
   9  -4  -2   56.54   18.51
   9  -4  -1  372.82   41.80
   9  -4  -1  438.99   46.70
   9  -4   0   91.98   24.72
   9  -4   0   81.77   22.11
   9  -4   1  182.54   30.67
   9  -4   1  145.60   29.79
   9  -4   2  -18.31   15.49
   9  -4   2   -5.16   15.71
   9  -5  -6   43.96   18.53
   9  -5  -5  192.28   29.31
   9  -5  -4   56.21   18.06
   9  -5  -3  110.47   26.07
   9  -5  -2   10.31   13.69
  10   0 -15   16.87   13.32
  10   0 -14  306.56   37.26
  10   0 -13  -10.66   12.88
  10   0 -12  750.14   54.65
  10   0 -11  -21.37   14.49
  10   0 -10 1097.54   63.09
  10   0  -9    9.53   10.34
  10   0  -8  381.36   35.12
  10   0  -7   -3.19    9.33
  10   0  -6  967.25   54.92
  10   0  -5    8.62   10.16
  10   0  -5   -7.85    9.29
  10   0  -4  910.57   52.00
  10   0  -4  808.15   49.39
  10   0  -3   -1.25    9.30
  10   0  -2  540.02   39.84
  10   0  -1    3.23    5.29
  10   0  -1    0.27    9.34
  10   0   0 2150.67   69.80
  10   0   0 2219.46   88.16
  10   0   1   -7.95    7.44
  10   0   1   -5.15    9.44
  10   0   2  909.98   44.41
  10   0   2 1030.35   60.39
  10   0   2  879.31   61.29
  10   0   3   -2.93    7.24
  10   0   3    1.36   13.09
  10   0   3    4.09   11.07
  10   0   4  332.25   41.50
  10   0   4  385.43   38.41
  10   0   5   12.75   17.24
  10   0   5   20.87   13.61
  10   0   6  171.21   32.25
  10   0   6  144.41   27.65
  10   0   7  -12.03   13.78
  10   0   8  241.76   35.86
  10   1 -15   26.46   15.76
  10  -1 -15   47.20   18.76
  10   1 -14  328.15   37.95
  10  -1 -14  299.92   36.12
  10   1 -13  123.49   26.80
  10  -1 -13   43.52   17.14
  10   1 -12  424.84   41.51
  10  -1 -12  409.88   40.35
  10   1 -11    6.06   11.65
  10  -1 -11    4.83   10.93
  10   1 -10  585.30   45.02
  10  -1 -10  543.85   43.61
  10   1  -9  179.61   24.62
  10  -1  -9  153.26   23.57
  10   1  -8  385.04   35.32
  10  -1  -8  369.24   34.46
  10   1  -7  250.00   28.94
  10  -1  -7  277.19   30.65
  10  -1  -6  797.22   51.21
  10   1  -6  770.73   48.21
  10  -1  -6  804.49   49.37
  10  -1  -5  125.40   20.65
  10   1  -5  152.80   22.05
  10  -1  -5  118.91   18.88
  10  -1  -4  698.62   48.16
  10   1  -4  761.76   47.60
  10  -1  -4  719.22   46.40
  10   1  -3  254.36   25.88
  10  -1  -3  291.99   31.18
  10   1  -2 1819.35   74.22
  10  -1  -2 2010.09   75.28
  10  -1  -1  233.82   23.73
  10   1  -1  159.16   21.33
  10  -1  -1  164.99   25.53
  10  -1   0  844.02   47.03
  10   1   0  705.81   44.07
  10  -1   0  804.73   55.27
  10  -1   1   90.23   15.95
  10   1   1   71.34   13.99
  10  -1   1   92.30   20.79
  10  -1   2  503.28   37.81
  10   1   2  525.17   38.39
  10  -1   2  559.42   47.50
  10  -1   3  227.06   26.00
  10  -1   3  222.41   32.83
  10   1   3  178.47   30.42
  10   1   3  210.35   25.20
  10  -1   3  252.88   33.59
  10  -1   4  211.99   26.38
  10  -1   4  132.79   27.28
  10   1   4  131.79   27.49
  10   1   4  177.40   24.75
  10  -1   4  188.55   30.56
  10  -1   5   41.90   17.28
  10   1   5   30.83   18.67
  10   1   5   40.48   13.59
  10  -1   6  237.71   37.66
  10   1   6  329.94   42.67
  10  -1   6  345.41   42.55
  10  -1   7    6.17   14.97
  10   2 -14  178.84   29.65
  10  -2 -14  104.83   22.63
  10   2 -13  112.05   24.30
  10  -2 -13   70.71   18.39
  10   2 -12  572.98   47.74
  10  -2 -12  525.79   45.69
  10   2 -11   40.84   12.85
  10  -2 -11   48.10   16.04
  10   2 -10  422.91   39.10
  10  -2 -10  462.06   40.79
  10   2  -9  421.01   38.17
  10  -2  -9  455.69   39.42
  10   2  -8  635.80   45.23
  10  -2  -8  738.78   49.41
  10  -2  -7  324.87   34.37
  10   2  -7  283.13   29.97
  10  -2  -7  298.34   31.30
  10  -2  -6  184.00   27.58
  10   2  -6  204.10   25.87
  10  -2  -6  241.83   27.33
  10  -2  -5  551.35   44.32
  10   2  -5  618.90   43.76
  10  -2  -5  611.86   43.32
  10  -2  -4  215.14   28.25
  10   2  -4  197.52   24.31
  10  -2  -4  174.77   24.62
  10  -2  -3  235.18   31.09
  10  -2  -3  315.80   31.60
  10  -2  -2  411.42   39.31
  10  -2  -2  389.93   35.05
  10  -2  -1  156.69   24.11
  10  -2  -1  121.89   24.45
  10  -2   0  251.11   29.63
  10  -2   0  300.72   35.11
  10  -2   1  239.76   29.45
  10  -2   1  318.28   37.42
  10  -2   2  162.91   25.22
  10  -2   2  176.59   30.74
  10  -2   3  162.12   26.42
  10  -2   3  170.90   29.98
  10  -2   4  195.98   29.00
  10  -2   4  136.89   27.09
  10   2   4  158.26   29.27
  10  -2   4  203.05   33.65
  10  -2   5  167.73   28.85
  10  -2   5  171.47   30.74
  10   2   5  235.72   35.69
  10  -2   5  171.96   34.06
  10  -2   6   45.67   23.69
  10   2   6   62.72   23.47
  10   3 -14  128.39   24.78
  10  -3 -14  125.49   26.18
  10   3 -13   78.43   20.79
  10  -3 -13   89.44   21.83
  10   3 -12  108.03   21.86
  10  -3 -12   79.14   19.27
  10   3 -11  176.14   27.34
  10  -3 -11  222.51   29.40
  10   3 -10   85.51   18.39
  10  -3 -10   87.69   21.40
  10   3  -9  280.59   30.77
  10  -3  -9  312.19   33.03
  10   3  -8   94.40   19.38
  10  -3  -8   97.70   19.91
  10  -3  -7  559.00   46.64
  10   3  -7  691.42   46.19
  10  -3  -7  677.91   45.95
  10  -3  -6    6.51   11.92
  10   3  -6   15.61   11.65
  10  -3  -6   12.17    8.73
  10  -3  -5  338.55   36.69
  10   3  -5  339.91   32.18
  10  -3  -5  339.61   31.96
  10  -3  -4  178.30   27.68
  10  -3  -4  175.56   25.64
  10   3  -4  189.30   24.56
  10  -3  -4  162.37   22.10
  10  -3  -3  118.50   22.77
  10  -3  -3  125.40   23.79
  10   3  -3  153.17   21.74
  10  -3  -3  150.81   22.36
  10  -3  -2   11.82   14.31
  10  -3  -2   39.49   16.52
  10   3  -2   20.88    9.43
  10  -3  -1   65.01   18.31
  10  -3  -1   46.16   17.73
  10  -3   0  169.97   28.45
  10  -3   0  154.77   28.63
  10  -3   1  349.84   38.66
  10  -3   1  370.90   43.18
  10  -3   2  113.85   22.62
  10  -3   2  157.41   30.96
  10  -3   3  128.60   24.45
  10  -3   3  120.37   27.89
  10  -3   4  130.13   27.21
  10  -4  -7  257.34   34.07
  10  -4  -6   32.33   14.65
  10  -4  -5  232.12   33.21
  10  -4  -4   -8.73   14.70
  10  -4  -4   -9.10   13.59
  10  -4  -3   56.40   17.89
  10  -4  -3   89.25   21.37
  10  -4  -2   16.26   17.93
  10  -4  -2    9.73   14.34
  10  -4  -1  132.91   26.62
  10  -4  -1  152.35   30.73
  10  -4   0   52.62   18.40
  10  -4   0   49.07   21.90
  10  -5  -7   77.61   20.76
  10  -5  -6    3.97   14.14
  11   0 -14  549.92   50.86
  11   0 -13  -17.59   13.53
  11   0 -12  616.54   50.65
  11   0 -11   -3.60   12.28
  11   0 -10  762.68   53.81
  11   0  -9   -4.46   11.76
  11   0  -8 1427.79   72.55
  11   0  -7    8.36   10.41
  11   0  -6 1167.72   63.53
  11   0  -5    9.90   10.78
  11   0  -5    4.15   11.60
  11   0  -4 1438.49   69.26
  11   0  -4 1218.37   65.10
  11   0  -3   14.20   13.13
  11   0  -2  133.24   21.89
  11   0  -1   -6.69    6.25
  11   0  -1  -13.60   13.94
  11   0   0  539.66   43.19
  11   0   0  547.59   32.36
  11   0   1    2.95   11.72
  11   0   2  409.37   40.10
  11   0   3   37.22   22.01
  11   0   3    5.24   13.47
  11   0   4   24.29   19.44
  11   0   4   69.55   20.75
  11   0   5   -5.50   15.01
  11   0   5    1.88   12.82
  11   0   6  121.55   27.51
  11   0   7  -23.41   17.51
  11   1 -14  452.17   44.67
  11  -1 -14  421.38   44.02
  11   1 -13   33.14   15.91
  11  -1 -13   12.08   15.20
  11  -1 -12  494.94   44.34
  11   1 -12  389.14   40.95
  11   1 -11  105.31   22.61
  11  -1 -11  102.48   22.58
  11   1 -10  591.68   48.20
  11  -1 -10  543.05   45.69
  11   1  -9  155.82   24.81
  11  -1  -9  158.01   24.93
  11   1  -8  328.82   34.73
  11  -1  -8  342.68   34.76
  11   1  -7  241.82   29.49
  11  -1  -7  266.12   31.15
  11  -1  -6  234.14   29.97
  11   1  -6  237.37   28.73
  11  -1  -6  214.34   27.20
  11  -1  -5  156.80   24.49
  11   1  -5  225.03   27.63
  11  -1  -5  176.56   25.58
  11  -1  -4  149.45   23.89
  11   1  -4  125.52   21.51
  11  -1  -4  124.92   22.13
  11   1  -3   51.41   14.13
  11  -1  -3   51.44   18.61
  11  -1  -2  484.32   42.02
  11  -1  -2  460.09   34.38
  11  -1  -1  165.07   20.72
  11   1  -1  171.18   22.27
  11  -1  -1  139.64   24.84
  11  -1   0  499.38   37.04
  11   1   0  501.26   38.53
  11  -1   0  593.68   48.46
  11  -1   1   94.04   18.77
  11   1   1   47.68   14.44
  11  -1   1   67.98   20.00
  11  -1   2  601.07   42.33
  11   1   2  570.35   42.52
  11  -1   2  622.69   53.29
  11  -1   3   49.03   14.32
  11   1   3   76.44   17.55
  11  -1   3   69.72   20.25
  11  -1   4  406.79   37.47
  11  -1   4  339.94   43.77
  11   1   4  399.05   47.73
  11  -1   4  396.50   44.22
  11  -1   5   33.66   15.64
  11   1   5   54.92   22.39
  11  -1   5   77.64   24.19
  11  -1   6  143.19   32.31
  11   2 -14  270.30   37.45
  11  -2 -14  267.63   35.34
  11   2 -13  171.58   28.27
  11  -2 -13   87.66   22.11
  11   2 -12  419.49   42.00
  11  -2 -12  380.47   41.13
  11   2 -11  194.62   28.89
  11  -2 -11  207.25   29.84
  11   2 -10  200.55   28.45
  11  -2 -10  182.88   27.62
  11   2  -9  127.02   21.60
  11  -2  -9  144.69   24.25
  11   2  -8  188.48   26.39
  11  -2  -8  177.20   26.14
  11  -2  -7  201.50   28.52
  11   2  -7  164.52   24.98
  11  -2  -7  159.35   23.96
  11  -2  -6  331.89   36.25
  11   2  -6  370.14   36.02
  11  -2  -6  384.68   36.04
  11  -2  -5  114.43   23.51
  11   2  -5   77.47   17.77
  11  -2  -5   85.13   19.25
  11  -2  -4  232.54   31.89
  11   2  -4  168.41   24.88
  11  -2  -4  151.69   23.75
  11  -2  -3  206.31   26.52
  11  -2  -3  242.54   32.14
  11  -2  -2  520.66   45.49
  11  -2  -2  415.16   37.90
  11  -2  -1   -4.15   11.34
  11  -2  -1   28.67   15.86
  11  -2   0  508.71   42.03
  11  -2   0  431.93   45.11
  11  -2   1  146.28   23.87
  11  -2   1  140.19   27.01
  11  -2   2  149.05   25.24
  11  -2   2  133.89   27.04
  11  -2   3   48.97   17.59
  11  -2   3   43.34   22.69
  11  -2   4  416.59   41.63
  11  -2   4  374.98   46.86
  11  -2   5  150.66   26.60
  11  -2   6  190.61   32.06
  11   3 -13  163.84   27.73
  11  -3 -13  206.69   31.37
  11   3 -12   36.24   14.07
  11  -3 -12   39.60   17.36
  11   3 -11  133.66   23.29
  11  -3 -11  163.52   27.32
  11   3 -10   86.14   19.56
  11  -3 -10  137.94   23.69
  11   3  -9  166.47   26.02
  11  -3  -9  195.58   29.00
  11   3  -8  125.18   22.74
  11  -3  -8  144.58   22.81
  11  -3  -7   64.88   20.54
  11   3  -7   80.52   17.38
  11  -3  -7   93.25   19.65
  11  -3  -6  109.84   24.94
  11   3  -6  112.17   21.43
  11  -3  -6   54.93   15.93
  11  -3  -5  257.05   34.21
  11   3  -5  244.17   29.16
  11  -3  -5  241.42   29.14
  11  -3  -4  147.29   26.79
  11   3  -4  158.77   23.77
  11  -3  -4  188.97   25.85
  11  -3  -3  331.86   36.61
  11  -3  -3  360.15   41.23
  11   3  -3  296.90   32.34
  11  -3  -3  311.85   33.44
  11  -3  -2   71.97   22.52
  11   3  -2   65.41   17.16
  11  -3  -2   94.56   19.94
  11  -3  -1  214.90   31.29
  11  -3  -1  156.02   30.67
  11  -3   0   79.84   21.27
  11  -3   0   55.84   19.67
  11  -3   1  158.99   28.70
  11  -3   1  175.42   33.62
  11  -3   2  213.14   32.41
  11  -3   3  421.27   45.76
  11  -4  -7  232.11   34.04
  11  -4  -6   69.43   22.62
  11  -4  -5  219.78   34.29
  11  -4  -4   44.66   18.55
  11  -4  -3  140.79   29.58
  12   0 -14  424.58   46.18
  12   0 -13    1.84   13.85
  12   0 -12  632.85   52.82
  12   0 -11    0.06   12.50
  12   0 -10  482.81   44.51
  12   0  -9   -4.41   12.53
  12   0  -8  420.38   40.18
  12   0  -7    6.32   10.19
  12   0  -6  155.40   25.07
  12   0  -5  -20.96   15.37
  12   0  -5   -3.29   10.16
  12   0  -4  423.92   38.56
  12   0  -4  492.79   42.36
  12   0  -3    4.93   11.20
  12   0  -2  896.70   57.15
  12   0  -1   -0.90   10.86
  12   0   0  478.70   42.90
  12   0   1  -13.25   13.81
  12   0   2  781.18   57.34
  12   0   3   20.81   17.14
  12   0   4  361.74   41.69
  12   0   5   -3.46   13.39
  12   1 -13   11.72   12.39
  12  -1 -13   60.14   21.18
  12   1 -12  684.29   55.02
  12  -1 -12  650.40   53.66
  12   1 -11   51.57   16.13
  12  -1 -11   45.42   19.52
  12   1 -10  725.55   54.64
  12  -1 -10  744.46   55.08
  12   1  -9   86.29   19.64
  12  -1  -9   66.45   18.30
  12   1  -8  501.93   43.81
  12  -1  -8  547.51   45.83
  12   1  -7   -0.61   12.49
  12  -1  -7   33.87   15.47
  12  -1  -6  687.60   52.12
  12   1  -6  590.34   47.68
  12  -1  -6  651.69   49.13
  12  -1  -5   42.54   16.23
  12   1  -5   33.12   14.61
  12  -1  -5   49.77   16.35
  12  -1  -4  585.26   47.88
  12   1  -4  518.75   44.14
  12  -1  -4  561.10   46.32
  12   1  -3   26.76   10.80
  12  -1  -3   49.55   19.81
  12  -1  -2  221.15   25.16
  12   1  -2  196.46   26.22
  12  -1  -2  228.07   30.51
  12  -1  -1  121.31   19.74
  12   1  -1  137.42   22.54
  12  -1  -1  136.63   25.83
  12  -1   0  301.36   30.10
  12   1   0  304.74   32.41
  12  -1   0  294.68   37.10
  12  -1   1   89.48   18.05
  12   1   1  128.79   22.80
  12  -1   1  159.44   27.13
  12   1   2  233.87   28.74
  12  -1   2  151.88   26.96
  12  -1   3   22.26   16.33
  12  -1   4  219.22   36.37
  12   2 -13  101.42   23.72
  12  -2 -13   55.33   18.98
  12   2 -12  116.26   24.06
  12  -2 -12  132.85   25.48
  12   2 -11   46.87   19.20
  12  -2 -11   39.56   14.98
  12   2 -10  335.59   37.41
  12  -2 -10  320.37   36.59
  12   2  -9  178.06   27.49
  12  -2  -9  276.19   34.07
  12   2  -8  487.18   43.75
  12  -2  -8  423.93   41.00
  12  -2  -7  306.57   37.05
  12   2  -7  351.98   36.47
  12  -2  -7  303.91   34.69
  12  -2  -6  236.77   31.56
  12   2  -6  295.21   35.06
  12  -2  -6  322.60   35.50
  12   2  -5  140.16   22.89
  12  -2  -5  184.29   27.88
  12  -2  -4  314.97   39.49
  12   2  -4  259.91   32.13
  12  -2  -4  224.47   29.30
  12  -2  -3  390.62   42.43
  12  -2  -3  382.00   37.24
  12  -2  -2  339.48   35.35
  12  -2  -2  342.03   39.80
  12  -2  -1  188.30   26.81
  12  -2  -1  179.72   30.66
  12  -2   0  280.77   33.69
  12  -2   0  293.25   40.79
  12  -2   1   25.88   14.60
  12  -2   1   41.09   20.20
  12  -2   2   12.41   12.02
  12  -2   2   10.19   15.55
  12  -2   3   24.02   14.07
  12   3 -12  120.27   23.96
  12  -3 -12  141.23   26.46
  12   3 -11  317.67   36.66
  12  -3 -11  286.96   35.17
  12   3 -10  120.79   23.58
  12  -3 -10   51.21   19.33
  12   3  -9  184.23   27.63
  12  -3  -9  185.85   27.86
  12   3  -8  113.95   23.21
  12  -3  -8  148.69   24.82
  12  -3  -7  160.68   30.06
  12   3  -7  238.70   30.67
  12  -3  -7  243.87   30.81
  12  -3  -6   75.23   22.19
  12   3  -6   75.75   19.77
  12  -3  -6   73.46   17.91
  12  -3  -5  378.31   43.51
  12   3  -5  334.53   35.89
  12  -3  -5  309.25   34.46
  12  -3  -4   48.53   19.79
  12   3  -4   22.28   11.44
  12  -3  -4   42.07   16.21
  12  -3  -3  200.61   30.53
  12  -3  -3  168.30   30.41
  12   3  -3  101.63   21.29
  12  -3  -3  137.02   24.42
  12  -3  -2  105.11   22.49
  12  -3  -2  119.01   26.60
  12   3  -2  115.34   23.52
  12  -3  -2   98.73   21.56
  12  -3  -1  139.16   28.02
  12  -3  -1  144.32   29.99
  12  -3   0  -23.09   17.07
  12  -3   1   61.21   20.23
  13   0 -12  328.93   39.66
  13   0 -11   -7.58   11.95
  13   0 -10  515.33   47.77
  13   0  -9  -17.63   14.05
  13   0  -8  721.10   55.91
  13   0  -7   22.97   11.55
  13   0  -6  375.02   39.91
  13   0  -5  -15.36   15.67
  13   0  -5    0.98   11.24
  13   0  -4  760.79   54.79
  13   0  -4  621.93   51.74
  13   0  -3   -0.79   13.11
  13   0  -2  266.59   34.09
  13   0  -1   -9.07   12.95
  13   0   0   83.44   21.60
  13   0   1  -12.42   13.39
  13   0   2  178.24   29.11
  13   0   3    1.89   12.34
  13   0   4  118.95   26.75
  13   1 -12  308.53   38.86
  13  -1 -12  279.16   36.78
  13   1 -11    2.30   13.21
  13  -1 -11    3.90   13.46
  13   1 -10  519.88   48.32
  13  -1 -10  503.04   47.73
  13   1  -9   -6.86   14.79
  13  -1  -9   21.08   13.94
  13  -1  -8  424.86   42.91
  13   1  -8  414.98   41.61
  13   1  -7  171.45   27.29
  13  -1  -7  158.06   25.72
  13  -1  -6  443.24   44.18
  13   1  -6  456.94   42.77
  13  -1  -6  451.47   43.17
  13  -1  -5  129.25   24.61
  13   1  -5   94.16   22.43
  13  -1  -5   97.77   22.46
  13  -1  -4  314.84   37.89
  13   1  -4  284.20   35.02
  13  -1  -4  311.42   36.33
  13  -1  -3   44.49   17.87
  13   1  -2  383.18   36.38
  13  -1  -2  379.21   41.46
  13   1  -1   56.70   16.83
  13  -1  -1   60.15   20.44
  13   1   0  216.86   28.39
  13  -1   0  272.68   36.16
  13  -1   1   21.59   15.33
  13  -1   2  186.65   32.65
  13   2 -12  284.19   36.92
  13  -2 -12  267.45   36.32
  13   2 -11   98.32   22.62
  13  -2 -11  118.78   24.93
  13   2 -10  104.08   22.53
  13  -2 -10  147.40   28.54
  13   2  -9  129.55   27.55
  13  -2  -9   83.34   20.04
  13   2  -8  234.92   32.10
  13  -2  -8  231.36   31.06
  13  -2  -7    2.34   14.99
  13   2  -7   34.46   14.73
  13  -2  -6  262.92   36.62
  13   2  -6  167.78   27.22
  13  -2  -6  189.26   29.05
  13  -2  -5  134.23   26.91
  13   2  -5   74.41   20.35
  13  -2  -5  112.27   24.48
  13  -2  -4  103.44   26.25
  13   2  -4   58.69   19.79
  13  -2  -4   76.65   20.64
  13  -2  -3   80.04   24.20
  13   2  -3   68.57   20.54
  13  -2  -3  100.81   23.21
  13  -2  -2   27.23   13.21
  13  -2  -2   46.49   22.69
  13  -2  -1  120.08   23.33
  13  -2  -1  202.41   32.73
  13  -2   0  192.27   29.04
  13  -2   1   50.75   16.36
  13   3 -11  242.29   33.58
  13  -3 -11  205.75   32.11
  13   3 -10  107.04   23.75
  13  -3 -10   94.04   22.06
  13   3  -9  158.98   27.12
  13  -3  -9  160.36   27.70
  13   3  -8   70.11   20.39
  13  -3  -8   51.00   18.68
  13   3  -7   63.85   17.12
  13  -3  -7  122.71   24.16
  13   3  -6  162.16   26.52
  13  -3  -6  160.93   27.98
  13   3  -5   75.46   20.66
  13  -3  -5  120.59   23.44
  13   3  -4   98.34   21.66
  13  -3  -4   71.78   18.74
  13  -3  -3  108.86   26.15
  13   3  -3   55.93   19.33
  13  -3  -3  105.57   23.34
  13  -3  -2   92.43   22.77
  13   3  -2   40.10   16.32
  13  -3  -2   78.60   21.00
  13  -3  -1   42.44   18.97
  14   0 -11    1.17   13.14
  14   0 -10  575.18   52.39
  14   0  -9   18.55   16.53
  14   0  -8  310.78   37.54
  14   0  -7   -8.98   14.82
  14   0  -6  184.45   30.10
  14   0  -5   -2.55   13.44
  14   0  -5   -2.19   12.48
  14   0  -4  342.95   39.78
  14   0  -4  349.70   40.98
  14   0  -3  -25.31   14.12
  14   0  -2  445.30   44.42
  14   0  -1   -6.29   11.96
  14   0   0  217.34   32.32
  14   0   1   15.28   12.91
  14   0   2  159.99   29.01
  14   1 -10  216.22   32.67
  14  -1 -10  228.37   34.81
  14   1  -9   -1.18   12.66
  14  -1  -9    2.81   13.97
  14   1  -8  243.31   34.49
  14  -1  -8  241.61   33.83
  14   1  -7   25.04   15.33
  14  -1  -7   15.79   13.04
  14  -1  -6  409.38   44.62
  14   1  -6  379.71   42.07
  14  -1  -6  407.51   42.09
  14   1  -5   60.90   19.44
  14  -1  -5   61.44   20.14
  14  -1  -4  251.00   35.75
  14   1  -4  222.58   33.67
  14  -1  -4  253.88   35.41
  14  -1  -3    8.39   12.77
  14   1  -2  369.74   38.81
  14  -1  -2  313.40   40.74
  14   1  -1    7.41   11.41
  14  -1  -1   40.45   18.21
  14   2 -10  129.05   27.35
  14  -2 -10   59.53   18.80
  14   2  -9  106.84   24.64
  14  -2  -9   68.41   20.00
  14   2  -8  108.15   24.90
  14  -2  -8   98.17   24.13
  14   2  -7   53.36   19.40
  14  -2  -7   64.26   17.95
  14  -2  -6  215.00   34.89
  14   2  -6  206.40   31.93
  14  -2  -6  212.84   32.08
  14   2  -5   74.90   20.99
  14  -2  -5  106.31   23.77
  14   2  -4  339.73   39.51
  14  -2  -4  283.72   38.20
  14   2  -3  177.20   29.80
  14  -2  -3  115.60   25.34
  14   3  -8   73.39   22.90
  14  -3  -8   17.18   13.07
  14   3  -7  161.40   29.31
  14  -3  -7  168.08   28.99
  14   3  -6   26.05   14.53
  14  -3  -6   15.51   13.96
  14   3  -5  266.21   35.23
  14  -3  -5  227.43   33.73
  14   3  -4   93.03   23.18
  14  -3  -4  114.92   26.16
  15   0  -4   99.92   23.57
  15   0  -3   -9.94   12.64
  15   0  -2  183.93   30.89
  15   0  -1    9.65   15.56
   0   0   0    0.00    0.00


TITL MG309_reprocess in Pc
REM Pc (#7 in standard setting)
CELL 0.71073  11.877565   4.645166  12.930988  90.0000 113.2462  90.0000
ZERR    2.00   0.000638   0.000185   0.000594   0.0000   0.0058   0.0000
LATT -1
SYMM  x,-y, z+1/2
SFAC C H B N O Br
UNIT 30.00 22.00 2.00 2.00 4.00 2.00
TREF
HKLF 4
END
_computing_structure_solution     'SHELXT 2018/2 (Sheldrick, 2018)'
;
_shelx_hkl_checksum              96008
_olex2_submission_special_instructions 'No special instructions were received'
_oxdiff_exptl_absorpt_empirical_details
;
Empirical correction (ABSPACK) includes:
- Absorption correction using spherical harmonics
- Frame scaling
;
_oxdiff_exptl_absorpt_empirical_full_max 1.156
_oxdiff_exptl_absorpt_empirical_full_min 0.924
loop_
_space_group_symop_operation_xyz
'x, y, z'
'x, -y, z+1/2'
loop_
_atom_site_label
_atom_site_type_symbol
_atom_site_fract_x
_atom_site_fract_y
_atom_site_fract_z
_atom_site_U_iso_or_equiv
_atom_site_adp_type
_atom_site_occupancy
_atom_site_site_symmetry_order
_atom_site_calc_flag
_atom_site_refinement_flags_posn
_atom_site_refinement_flags_adp
_atom_site_refinement_flags_occupancy
_atom_site_disorder_assembly
_atom_site_disorder_group
Br1 Br 0.10006(3) 0.55124(9) 0.56436(3) 0.02300(13) Uani 1 1 d . . . . .
O2 O 0.6974(3) 0.7347(7) 0.5137(2) 0.0164(6) Uani 1 1 d . . . . .
O1 O 0.5856(3) 0.7986(7) 0.6223(2) 0.0182(7) Uani 1 1 d . . . . .
N1 N 0.4014(4) 0.1189(8) 0.3194(3) 0.0162(8) Uani 1 1 d . . . . .
C1 C 0.5063(4) 0.2701(11) 0.3729(4) 0.0171(11) Uani 1 1 d . . . . .
H1 H 0.575259 0.258389 0.355782 0.021 Uiso 1 1 calc R U . . .
C8 C 0.3185(4) 0.1904(10) 0.3663(3) 0.0143(9) Uani 1 1 d . . . . .
C4 C 0.3092(4) 0.5058(10) 0.5111(4) 0.0164(9) Uani 1 1 d . . . . .
H4 H 0.343290 0.642691 0.567406 0.020 Uiso 1 1 calc R U . . .
C9 C 0.3757(5) -0.0858(10) 0.2279(4) 0.0196(10) Uani 1 1 d . . . . .
H9A H 0.442828 -0.088077 0.204232 0.029 Uiso 1 1 calc R U . . .
H9B H 0.302110 -0.030149 0.165874 0.029 Uiso 1 1 calc R U . . .
H9C H 0.365355 -0.274331 0.253255 0.029 Uiso 1 1 calc R U . . .
C5 C 0.1919(4) 0.4075(9) 0.4830(4) 0.0174(10) Uani 1 1 d . . . . .
C3 C 0.3756(4) 0.3926(9) 0.4521(3) 0.0149(9) Uani 1 1 d . . . . .
C7 C 0.1997(4) 0.0927(10) 0.3386(4) 0.0175(10) Uani 1 1 d . . . . .
H7 H 0.164707 -0.042816 0.281977 0.021 Uiso 1 1 calc R U . . .
C13 C 0.9004(5) 1.2733(11) 0.7082(4) 0.0236(11) Uani 1 1 d . . . . .
H13 H 0.971766 1.379399 0.724574 0.028 Uiso 1 1 calc R U . . .
C14 C 0.8341(4) 1.3092(12) 0.7741(4) 0.0236(11) Uani 1 1 d . . . . .
H14 H 0.862442 1.437070 0.834330 0.028 Uiso 1 1 calc R U . . .
C2 C 0.4972(4) 0.4448(10) 0.4567(4) 0.0162(9) Uani 1 1 d . . . . .
C10 C 0.6891(4) 0.9723(10) 0.6629(4) 0.0159(9) Uani 1 1 d . . . . .
C6 C 0.1353(4) 0.2037(10) 0.3979(3) 0.0182(10) Uani 1 1 d . . . . .
H6 H 0.055348 0.144390 0.381825 0.022 Uiso 1 1 calc R U . . .
C11 C 0.7564(4) 0.9343(10) 0.5977(4) 0.0163(9) Uani 1 1 d . . . . .
C12 C 0.8632(4) 1.0820(10) 0.6178(4) 0.0216(10) Uani 1 1 d . . . . .
H12 H 0.908135 1.055901 0.573638 0.026 Uiso 1 1 calc R U . . .
C15 C 0.7259(5) 1.1591(12) 0.7528(4) 0.0232(12) Uani 1 1 d . . . . .
H15 H 0.680816 1.183519 0.796924 0.028 Uiso 1 1 calc R U . . .
B1 B 0.5935(5) 0.6536(13) 0.5308(4) 0.0169(11) Uani 1 1 d . . . . .
loop_
_atom_site_aniso_label
_atom_site_aniso_U_11
_atom_site_aniso_U_22
_atom_site_aniso_U_33
_atom_site_aniso_U_23
_atom_site_aniso_U_13
_atom_site_aniso_U_12
Br1 0.0221(2) 0.0297(3) 0.02102(19) -0.0010(3) 0.01254(15) 0.0004(4)
O2 0.0172(17) 0.0158(17) 0.0165(15) -0.0021(12) 0.0069(13) -0.0022(13)
O1 0.0182(17) 0.021(2) 0.0152(15) -0.0027(13) 0.0063(13) -0.0053(15)
N1 0.019(2) 0.017(2) 0.0125(17) -0.0004(14) 0.0063(16) -0.0004(16)
C1 0.017(3) 0.019(3) 0.016(2) 0.0040(19) 0.0078(18) 0.003(2)
C8 0.018(2) 0.013(3) 0.014(2) 0.0023(17) 0.0081(18) 0.0018(19)
C4 0.018(2) 0.018(2) 0.0126(19) -0.0021(16) 0.0053(17) -0.0008(18)
C9 0.026(3) 0.018(3) 0.015(2) -0.0019(17) 0.0077(19) 0.0030(19)
C5 0.019(2) 0.020(3) 0.016(2) 0.0043(17) 0.0095(18) 0.0044(19)
C3 0.018(2) 0.015(3) 0.0114(19) 0.0044(16) 0.0059(17) 0.0003(19)
C7 0.019(2) 0.015(3) 0.015(2) 0.0015(17) 0.0032(18) -0.0008(18)
C13 0.015(2) 0.020(3) 0.029(3) 0.002(2) 0.0012(19) -0.001(2)
C14 0.022(3) 0.021(3) 0.021(2) -0.005(2) 0.001(2) -0.004(2)
C2 0.018(2) 0.018(3) 0.0131(19) 0.0009(17) 0.0060(17) -0.0003(19)
C10 0.013(2) 0.016(3) 0.017(2) 0.0028(17) 0.0036(17) -0.0005(18)
C6 0.014(2) 0.022(3) 0.017(2) 0.0051(17) 0.0040(17) 0.0014(19)
C11 0.015(2) 0.015(3) 0.016(2) 0.0011(16) 0.0038(17) 0.0005(18)
C12 0.019(3) 0.020(3) 0.028(2) 0.0029(19) 0.011(2) 0.001(2)
C15 0.028(3) 0.026(3) 0.017(2) -0.004(2) 0.011(2) -0.003(3)
B1 0.017(3) 0.016(3) 0.017(2) 0.0038(19) 0.007(2) 0.002(2)
loop_
_atom_type_symbol
_atom_type_description
_atom_type_scat_dispersion_real
_atom_type_scat_dispersion_imag
_atom_type_scat_source
C C 0.0033 0.0016 'International Tables Vol C Tables 4.2.6.8 and 6.1.1.4'
H H 0.0000 0.0000 'International Tables Vol C Tables 4.2.6.8 and 6.1.1.4'
B B 0.0013 0.0007 'International Tables Vol C Tables 4.2.6.8 and 6.1.1.4'
N N 0.0061 0.0033 'International Tables Vol C Tables 4.2.6.8 and 6.1.1.4'
O O 0.0106 0.0060 'International Tables Vol C Tables 4.2.6.8 and 6.1.1.4'
Br Br -0.2901 2.4595 'International Tables Vol C Tables 4.2.6.8 and 6.1.1.4'
loop_
_geom_angle_atom_site_label_1
_geom_angle_atom_site_label_2
_geom_angle_atom_site_label_3
_geom_angle
_geom_angle_site_symmetry_1
_geom_angle_site_symmetry_3
_geom_angle_publ_flag
C11 O2 B1 105.3(4) . . ?
C10 O1 B1 104.8(4) . . ?
C1 N1 C8 108.7(4) . . ?
C1 N1 C9 127.5(4) . . ?
C8 N1 C9 123.8(4) . . ?
N1 C1 H1 124.5 . . ?
N1 C1 C2 111.1(4) . . ?
C2 C1 H1 124.5 . . ?
N1 C8 C3 107.5(4) . . ?
N1 C8 C7 129.3(4) . . ?
C7 C8 C3 123.2(4) . . ?
C5 C4 H4 121.2 . . ?
C5 C4 C3 117.5(4) . . ?
C3 C4 H4 121.2 . . ?
N1 C9 H9A 109.5 . . ?
N1 C9 H9B 109.5 . . ?
N1 C9 H9C 109.5 . . ?
H9A C9 H9B 109.5 . . ?
H9A C9 H9C 109.5 . . ?
H9B C9 H9C 109.5 . . ?
C4 C5 Br1 118.6(3) . . ?
C4 C5 C6 123.7(4) . . ?
C6 C5 Br1 117.7(3) . . ?
C8 C3 C2 108.0(4) . . ?
C4 C3 C8 118.7(4) . . ?
C4 C3 C2 133.3(4) . . ?
C8 C7 H7 121.2 . . ?
C6 C7 C8 117.7(4) . . ?
C6 C7 H7 121.2 . . ?
C14 C13 H13 119.1 . . ?
C14 C13 C12 121.7(5) . . ?
C12 C13 H13 119.1 . . ?
C13 C14 H14 119.2 . . ?
C13 C14 C15 121.7(5) . . ?
C15 C14 H14 119.2 . . ?
C1 C2 C3 104.8(4) . . ?
C1 C2 B1 126.4(5) . . ?
C3 C2 B1 128.8(4) . . ?
C11 C10 O1 109.5(4) . . ?
C15 C10 O1 128.6(4) . . ?
C15 C10 C11 121.9(5) . . ?
C5 C6 H6 120.4 . . ?
C7 C6 C5 119.2(4) . . ?
C7 C6 H6 120.4 . . ?
C10 C11 O2 109.1(4) . . ?
C12 C11 O2 128.7(4) . . ?
C12 C11 C10 122.2(4) . . ?
C13 C12 H12 122.0 . . ?
C11 C12 C13 116.1(5) . . ?
C11 C12 H12 122.0 . . ?
C14 C15 H15 121.8 . . ?
C10 C15 C14 116.3(5) . . ?
C10 C15 H15 121.8 . . ?
O2 B1 O1 111.4(4) . . ?
O2 B1 C2 124.7(4) . . ?
O1 B1 C2 123.9(4) . . ?
loop_
_geom_bond_atom_site_label_1
_geom_bond_atom_site_label_2
_geom_bond_distance
_geom_bond_site_symmetry_2
_geom_bond_publ_flag
Br1 C5 1.911(5) . ?
O2 C11 1.389(5) . ?
O2 B1 1.389(6) . ?
O1 C10 1.389(6) . ?
O1 B1 1.397(6) . ?
N1 C1 1.358(6) . ?
N1 C8 1.386(6) . ?
N1 C9 1.453(5) . ?
C1 H1 0.9300 . ?
C1 C2 1.392(7) . ?
C8 C3 1.406(6) . ?
C8 C7 1.388(7) . ?
C4 H4 0.9300 . ?
C4 C5 1.371(7) . ?
C4 C3 1.400(6) . ?
C9 H9A 0.9600 . ?
C9 H9B 0.9600 . ?
C9 H9C 0.9600 . ?
C5 C6 1.405(6) . ?
C3 C2 1.442(7) . ?
C7 H7 0.9300 . ?
C7 C6 1.379(6) . ?
C13 H13 0.9300 . ?
C13 C14 1.380(7) . ?
C13 C12 1.395(7) . ?
C14 H14 0.9300 . ?
C14 C15 1.391(7) . ?
C2 B1 1.517(7) . ?
C10 C11 1.384(6) . ?
C10 C15 1.377(7) . ?
C6 H6 0.9300 . ?
C11 C12 1.374(7) . ?
C12 H12 0.9300 . ?
C15 H15 0.9300 . ?
loop_
_geom_torsion_atom_site_label_1
_geom_torsion_atom_site_label_2
_geom_torsion_atom_site_label_3
_geom_torsion_atom_site_label_4
_geom_torsion
_geom_torsion_site_symmetry_1
_geom_torsion_site_symmetry_2
_geom_torsion_site_symmetry_3
_geom_torsion_site_symmetry_4
_geom_torsion_publ_flag
Br1 C5 C6 C7 -179.1(3) . . . . ?
O2 C11 C12 C13 179.3(4) . . . . ?
O1 C10 C11 O2 -0.1(5) . . . . ?
O1 C10 C11 C12 179.3(4) . . . . ?
O1 C10 C15 C14 -179.4(5) . . . . ?
N1 C1 C2 C3 -0.1(5) . . . . ?
N1 C1 C2 B1 -177.3(4) . . . . ?
N1 C8 C3 C4 178.3(4) . . . . ?
N1 C8 C3 C2 0.1(5) . . . . ?
N1 C8 C7 C6 -178.8(4) . . . . ?
C1 N1 C8 C3 -0.2(5) . . . . ?
C1 N1 C8 C7 179.4(5) . . . . ?
C1 C2 B1 O2 10.8(8) . . . . ?
C1 C2 B1 O1 -172.2(4) . . . . ?
C8 N1 C1 C2 0.2(5) . . . . ?
C8 C3 C2 C1 0.0(5) . . . . ?
C8 C3 C2 B1 177.0(4) . . . . ?
C8 C7 C6 C5 -0.2(6) . . . . ?
C4 C5 C6 C7 0.2(7) . . . . ?
C4 C3 C2 C1 -177.9(5) . . . . ?
C4 C3 C2 B1 -0.9(8) . . . . ?
C9 N1 C1 C2 -179.8(4) . . . . ?
C9 N1 C8 C3 179.8(4) . . . . ?
C9 N1 C8 C7 -0.6(7) . . . . ?
C5 C4 C3 C8 1.2(6) . . . . ?
C5 C4 C3 C2 179.0(4) . . . . ?
C3 C8 C7 C6 0.7(7) . . . . ?
C3 C4 C5 Br1 178.6(3) . . . . ?
C3 C4 C5 C6 -0.8(7) . . . . ?
C3 C2 B1 O2 -165.6(4) . . . . ?
C3 C2 B1 O1 11.4(8) . . . . ?
C7 C8 C3 C4 -1.3(7) . . . . ?
C7 C8 C3 C2 -179.5(4) . . . . ?
C13 C14 C15 C10 0.3(8) . . . . ?
C14 C13 C12 C11 0.6(7) . . . . ?
C10 O1 B1 O2 -0.5(5) . . . . ?
C10 O1 B1 C2 -177.9(5) . . . . ?
C10 C11 C12 C13 0.1(7) . . . . ?
C11 O2 B1 O1 0.5(5) . . . . ?
C11 O2 B1 C2 177.8(5) . . . . ?
C11 C10 C15 C14 0.4(7) . . . . ?
C12 C13 C14 C15 -0.8(8) . . . . ?
C15 C10 C11 O2 -180.0(4) . . . . ?
C15 C10 C11 C12 -0.6(7) . . . . ?
B1 O2 C11 C10 -0.2(5) . . . . ?
B1 O2 C11 C12 -179.5(5) . . . . ?
B1 O1 C10 C11 0.3(5) . . . . ?
B1 O1 C10 C15 -179.8(5) . . . . ?
