#------------------------------------------------------------------------------
#$Date: 2021-04-29 11:24:25 +0300 (Thu, 29 Apr 2021) $
#$Revision: 264687 $
#$URL: file:///home/coder/svn-repositories/cod/cif/1/56/22/1562265.cif $
#------------------------------------------------------------------------------
#
# This file is available in the Crystallography Open Database (COD),
# http://www.crystallography.net/
#
# All data on this site have been placed in the public domain by the
# contributors.
#
data_1562265
loop_
_publ_author_name
'Tanaka, Masashi'
'Nagao, Masanori'
'Matsushita, Yoshitaka'
'Fujioka, Masaya'
'Denholme, Saleem J.'
'Yamaguchi, Takahide'
'Takeya, Hiroyuki'
'Takano, Yoshihiko'
_publ_section_title
;
 First single crystal growth and structural analysis of superconducting
 layered bismuth oxyselenide; La(O,F)BiSe2
;
_journal_name_full               'Journal of Solid State Chemistry'
_journal_page_first              168
_journal_page_last               172
_journal_paper_doi               10.1016/j.jssc.2014.07.026
_journal_volume                  219
_journal_year                    2014
_chemical_formula_moiety         'Bi1.98 F0.36 La2.02 O1.64 Se4'
_chemical_formula_sum            'Bi1.98 F0.36 La2.02 O1.64 Se4'
_chemical_formula_weight         1043.29
_space_group_crystal_system      tetragonal
_space_group_IT_number           129
_space_group_name_Hall           '-P 4a 2a'
_space_group_name_H-M_alt        'P 4/n m m :2'
_atom_sites_solution_hydrogens   .
_audit_creation_method           SHELXL-2014
_cell_angle_alpha                90
_cell_angle_beta                 90
_cell_angle_gamma                90
_cell_formula_units_Z            1
_cell_length_a                   4.1408(2)
_cell_length_b                   4.1408(2)
_cell_length_c                   14.1096(6)
_cell_measurement_reflns_used    8879
_cell_measurement_temperature    160(2)
_cell_measurement_theta_max      46.18
_cell_measurement_theta_min      2.89
_cell_volume                     241.926(19)
_computing_cell_refinement       'CrystalClear (Rigaku, 1997--2012)'
_computing_data_collection       'CrystalClear (Rigaku, 1997--2012)'
_computing_data_reduction        'CrystalClear (Rigaku, 1997--2012)'
_computing_structure_refinement  'SHELXL-2014 (Sheldrick, 2014)'
_computing_structure_solution    'SHELXS-2013 (Sheldrick, 2013)'
_diffrn_ambient_temperature      160(2)
_diffrn_detector_area_resol_mean 28.5714
_diffrn_measured_fraction_theta_full 0.976
_diffrn_measured_fraction_theta_max 0.993
_diffrn_measurement_device
;
Rigaku AFC11 Saturn724+ (4x4 bin mode)
;
_diffrn_measurement_method       dtprofit.ref
_diffrn_radiation_detector       CCD
_diffrn_radiation_monochromator  Confocal
_diffrn_radiation_source         'Rotating Anode'
_diffrn_radiation_type           MoK\a
_diffrn_radiation_wavelength     0.71073
_diffrn_reflns_av_R_equivalents  0.0520
_diffrn_reflns_av_unetI/netI     0.0226
_diffrn_reflns_Laue_measured_fraction_full 0.976
_diffrn_reflns_Laue_measured_fraction_max 0.993
_diffrn_reflns_limit_h_max       8
_diffrn_reflns_limit_h_min       -7
_diffrn_reflns_limit_k_max       8
_diffrn_reflns_limit_k_min       -8
_diffrn_reflns_limit_l_max       28
_diffrn_reflns_limit_l_min       -28
_diffrn_reflns_number            9173
_diffrn_reflns_point_group_measured_fraction_full 0.976
_diffrn_reflns_point_group_measured_fraction_max 0.993
_diffrn_reflns_theta_full        25.242
_diffrn_reflns_theta_max         46.242
_diffrn_reflns_theta_min         5.131
_exptl_absorpt_coefficient_mu    59.900
_exptl_absorpt_correction_T_max  0.0769
_exptl_absorpt_correction_T_min  0.0109
_exptl_absorpt_correction_type   multi-scan
_exptl_absorpt_process_details
;
CrystalClear (Rigaku, 1997--2002)
;
_exptl_crystal_colour            Black
_exptl_crystal_density_diffrn    7.174
_exptl_crystal_description       Platelet
_exptl_crystal_F_000             432
_exptl_crystal_size_max          0.100
_exptl_crystal_size_mid          0.090
_exptl_crystal_size_min          0.030
_refine_diff_density_max         4.923
_refine_diff_density_min         -2.039
_refine_diff_density_rms         0.476
_refine_ls_extinction_coef       .
_refine_ls_extinction_method     none
_refine_ls_goodness_of_fit_ref   1.165
_refine_ls_hydrogen_treatment    undef
_refine_ls_matrix_type           full
_refine_ls_number_parameters     23
_refine_ls_number_reflns         700
_refine_ls_number_restraints     8
_refine_ls_restrained_S_all      1.158
_refine_ls_R_factor_all          0.0244
_refine_ls_R_factor_gt           0.0243
_refine_ls_shift/su_max          0.001
_refine_ls_shift/su_mean         0.000
_refine_ls_structure_factor_coef Fsqd
_refine_ls_weighting_details
'w=1/[\s^2^(Fo^2^)+(0.0333P)^2^+0.9988P] where P=(Fo^2^+2Fc^2^)/3'
_refine_ls_weighting_scheme      calc
_refine_ls_wR_factor_gt          0.0634
_refine_ls_wR_factor_ref         0.0636
_reflns_Friedel_coverage         0.000
_reflns_Friedel_fraction_full    .
_reflns_Friedel_fraction_max     .
_reflns_number_gt                694
_reflns_number_total             700
_reflns_threshold_expression     'I > 2\s(I)'
_cod_data_source_file            JSSC-2014-219-168.cif
_cod_data_source_block           shelx
_cod_original_cell_volume        241.93(3)
_cod_original_sg_symbol_H-M      'P 4/n m m'
_cod_database_code               1562265
_shelx_space_group_comment
;
The symmetry employed for this shelxl refinement is uniquely defined
by the following loop, which should always be used as a source of
symmetry information in preference to the above space-group names.
They are only intended as comments.
;
_shelx_estimated_absorpt_t_min   0.066
_shelx_estimated_absorpt_t_max   0.267
_shelxl_version_number           2014-3
_shelx_res_file
;
TITL Tanaka1@160K1_0m in P4/nmm
CELL  0.71073   4.1408   4.1408  14.1096   90.000   90.000   90.000
ZERR     1.00   0.0002   0.0002   0.0006    0.000    0.000    0.000
LATT   1
SYMM  1/2 - Y,   X,   Z
SYMM    Y, 1/2 - X,   Z
SYMM  1/2 + X, - Y, - Z
SYMM  - X, 1/2 + Y, - Z
SYMM  1/2 - X, 1/2 - Y,   Z
SYMM  1/2 + Y, 1/2 + X, - Z
SYMM  - Y, - X, - Z
SFAC  O    F    SE   LA   BI
UNIT  1.5  0.5  4    2    2
MERG   2
OMIT     0   0   1
OMIT     0   0   2
OMIT     0   0   3
OMIT     0   0   4
OMIT     2   2  19
eadp O F
ISOR  0.10 0.20 LA
FMAP   2
PLAN    5
SIZE     0.03   0.09   0.10
ACTA
BOND
rem exti
rem anis bi''
rem twin
rem basf 0.5
sump 1.0 0.01 1.0 3 1.0 4 1.0 5
sump 3.0 0.01 3.0 3 3.0 4 3.0 5

L.S. 50
TEMP  -113.00
WGHT    0.033300    0.998800
FVAR       0.08738   0.82353   0.98194   0.00969   0.01048
LA    4    0.250000    0.250000    0.090515    10.12500    0.01474    0.01474 =
         0.01281    0.00000    0.00000    0.00000
BI    5    0.250000    0.250000    0.623006    30.12500    0.01420    0.01420 =
         0.01177    0.00000    0.00000    0.00000
BI'   5    0.250000    0.250000    0.585508    40.12500    0.00342
LA'   4    0.250000    0.250000    0.663942    50.12500    0.00385
SE1   3    0.250000    0.250000    0.812602    10.12500    0.01343    0.01343 =
         0.01021    0.00000    0.00000    0.00000
SE2   3    0.250000    0.250000    0.387387    10.12500    0.01299    0.01299 =
         0.01899    0.00000    0.00000    0.00000
O     1    0.750000    0.250000    0.000000    20.12500    0.01315    0.01315 =
         0.01196    0.00000    0.00000    0.00000
F     2    0.750000    0.250000    0.000000   -20.12500    0.01315    0.01315 =
         0.01196    0.00000    0.00000    0.00000
HKLF    4

REM  Tanaka1@160K1_0m in P4/nmm
REM R1 =  0.0243 for     694 Fo > 4sig(Fo)  and  0.0244 for all     700 data
REM     23 parameters refined using      8 restraints

END

WGHT      0.0333      0.9987

REM Highest difference peak  4.923,  deepest hole -2.039,  1-sigma level  0.476
Q1    1   0.2500  0.2500  0.1286  10.12500  0.05    4.92
Q2    1   0.2500  0.2500  0.5305  10.12500  0.05    4.02
Q3    1   0.2500  0.2500  0.3516  10.12500  0.05    3.94
Q4    1   0.2500  0.2500  0.7262  10.12500  0.05    3.70
Q5    1   0.2500  0.2500  0.4825  10.12500  0.05    2.93
;
_shelx_res_checksum              85527
_shelx_hkl_file
;
   0   1   0   -1.14    0.04
   1   0   0   -1.06    0.04
   1   0   0   -1.08    0.02
   0   1   0   -1.01    0.02
  -1   0   0   -1.02    0.02
  -1  -1   0 1000.00   52.20
   1  -1   0  943.29   52.19
   1   1   0  776.68   52.19
   1   1   0  831.47   56.55
   1   1   0  748.93   52.08
  -1   1   0  798.10   56.57
  -1   2   0   -0.28    0.02
   2   1   0   -0.34    0.03
   2   1   0   -0.21    0.04
   2   1   0   -0.29    0.03
  -2  -1   0   -0.22    0.03
  -1   2   0   -0.16    0.15
  -2  -1   0   -0.29    0.05
   0   2   0  853.68   47.93
   2   0   0  772.06   47.92
   2   0   0  745.56   48.19
   2   0   0  807.38   48.03
   0   2   0  825.83   47.93
  -2   0   0  688.77   52.05
  -1  -2   0   -0.30    0.03
  -1  -2   0   -0.25    0.03
   1   2   0   -0.23    0.04
  -1  -2   0   -0.18    0.05
  -2   1   0   -0.27    0.07
   2   2   0  463.39   28.21
   2  -2   0  525.01   29.77
   2   2   0  510.13   29.62
   2   2   0  462.99   29.67
  -2  -2   0  469.17   32.16
   2  -2   0  465.76   29.67
  -2   2   0  485.49   32.20
   3   2   0    0.04    0.05
  -2   3   0    0.18    0.17
  -3  -2   0    0.08    0.04
   3   2   0    0.11    0.04
   3   2   0   -0.01    0.05
   2  -3   0    0.13    0.06
  -2   3   0    0.33    0.11
  -3  -2   0    0.09    0.07
   3   1   0  358.38   22.59
   3   1   0  393.55   22.54
  -1   3   0  364.81   22.54
  -1   3   0  339.17   22.58
   3   1   0  398.58   22.66
   1  -3   0  395.17   22.65
   3   1   0  349.77   21.47
   1  -3   0  343.69   23.55
  -3  -1   0  355.34   24.49
  -3  -1   0  378.31   23.54
   0  -3   0    0.10    0.10
   0  -3   0    0.10    0.05
   1   3   0  350.37   21.80
   3  -1   0  324.33   20.72
  -1  -3   0  324.64   23.65
   1   3   0  370.41   21.76
  -1  -3   0  383.70   22.73
   3  -1   0  367.85   21.81
  -3   1   0  325.88   22.72
   3  -1   0  392.23   21.88
  -3   1   0  354.86   23.65
  -2  -3   0    0.19    0.06
  -3   2   0    0.24    0.07
   3  -2   0    0.10    0.05
   2   3   0    0.21    0.06
  -3   2   0    0.20    0.13
  -3  -3   0  200.26   13.02
   3  -3   0  188.53   12.49
  -3   3   0  221.17   13.59
   3   3   0  203.05   12.49
   3  -3   0  208.53   12.53
   3   3   0  194.52   11.88
   3   3   0  209.60   12.47
  -3  -3   0  199.72   13.55
  -3   4   0    0.32    0.17
  -4  -3   0    0.18    0.05
  -4  -3   0    0.27    0.10
   4   3   0    0.09    0.05
   4   3   0    0.08    0.06
   4   3   0    0.07    0.05
  -2   4   0  163.77   12.62
  -2   4   0  159.24   12.11
   4   2   0  200.88   11.61
   4   2   0  186.90   11.58
   2  -4   0  201.95   11.61
   4   2   0  185.18   11.01
   4   2   0  204.00   11.56
  -4  -2   0  196.76   12.07
  -4  -2   0  195.62   12.57
  -4  -1   0    0.11    0.04
   4   1   0    0.04    0.05
  -1   4   0    0.09    0.04
  -4  -1   0    0.21    0.09
   1  -4   0    0.08    0.05
   4   1   0    0.07    0.03
   4   1   0    0.07    0.04
   4   0   0  240.94   14.32
  -4   0   0  247.21   15.70
   0   4   0  216.40   15.06
   0   4   0  268.58   15.04
   4   0   0  247.12   15.02
   0  -4   0  222.72   16.37
   4   0   0  244.02   15.07
  -4   0   0  253.02   16.35
   4   0   0  261.46   15.11
   0  -4   0  249.50   15.71
  -1  -4   0    0.13    0.10
   4  -1   0    0.09    0.04
   1   4   0    0.05    0.04
   1   4   0    0.06    0.04
   1   4   0    0.09    0.05
   4  -1   0    0.06    0.05
  -4   2   0  198.23   12.63
   4  -2   0  199.17   11.66
  -2  -4   0  177.76   12.62
   2   4   0  179.71   11.05
  -2  -4   0  187.05   12.12
   4  -2   0  179.75   11.62
   2   4   0  198.65   11.60
   2   4   0  191.57   11.62
   3   4   0    0.11    0.07
   3   4   0    0.06    0.05
   4  -3   0    0.12    0.05
  -3  -4   0    0.25    0.10
   4  -3   0    0.06    0.05
   3   4   0    0.11    0.05
  -4   3   0    0.23    0.13
  -4   4   0   91.52    5.99
   4   4   0   92.30    5.47
   4   4   0   86.44    5.21
   4   4   0   84.32    5.47
   4  -4   0   89.99    5.49
  -4  -4   0   88.08    5.71
  -4  -4   0   88.39    5.96
   5   4   0    0.09    0.06
   4  -5   0    0.06    0.05
   3  -5   0   77.54    4.70
   5   3   0   72.83    4.67
  -5  -3   0   76.81    4.88
   5   3   0   76.28    4.46
   5   2   0    0.10    0.05
   5   2   0    0.11    0.04
  -2   5   0    0.39    0.19
  -5  -2   0    0.18    0.06
   5   2   0    0.01    0.05
  -5  -2   0    0.27    0.12
   5   2   0    0.12    0.06
  -5  -1   0  123.51    8.06
   5   1   0  127.51    7.44
   1  -5   0  113.92    7.74
  -5  -1   0  121.63    7.72
  -1   5   0  119.79    7.40
   5   1   0  118.05    7.42
   5   1   0  118.55    7.05
   5   0   0    0.09    0.05
   0   5   0    0.19    0.04
   5   0   0    0.06    0.05
   0  -5   0    0.18    0.06
   0   5   0    0.15    0.06
  -5   0   0    0.09    0.04
   0  -5   0    0.11    0.10
  -1  -5   0  123.30    8.05
   5  -1   0  118.33    7.40
   1   5   0  117.07    7.01
  -1  -5   0  118.43    7.69
   5  -1   0  113.87    7.38
   1   5   0  124.26    7.37
  -5   1   0  123.22    8.03
  -2  -5   0    0.14    0.06
  -5   2   0    0.17    0.11
   5  -2   0    0.04    0.05
   5  -2   0    0.09    0.05
  -2  -5   0    0.31    0.12
   2   5   0    0.11    0.07
  -3  -5   0   72.67    4.68
   3   5   0   72.31    4.27
   5  -3   0   75.65    4.50
  -5   3   0   69.99    4.91
   5  -4   0    0.21    0.06
   4   5   0    0.03    0.05
  -4  -5   0    0.08    0.06
   5   5   0   33.98    1.96
  -5  -5   0   31.20    2.14
   5  -5   0   33.45    2.06
   6   5   0    0.07    0.06
  -6  -5   0    0.06    0.06
   6   4   0   34.87    2.00
  -6  -4   0   32.39    2.18
   6   3   0    0.07    0.06
  -6  -3   0    0.14    0.06
  -6  -2   0   60.77    3.99
   6   2   0   63.30    3.65
   6   1   0    0.06    0.04
   6   1   0    0.08    0.04
   1  -6   0    0.04    0.06
   0   6   0   65.27    4.31
   0  -6   0   74.65    4.52
  -1  -6   0    0.14    0.06
   6  -1   0    0.07    0.05
   1   6   0    0.11    0.05
   2   6   0   59.13    3.44
  -2  -6   0   58.23    3.77
   6  -2   0   57.92    3.63
   3   6   0    0.08    0.06
  -3  -6   0    0.21    0.07
   6  -3   0    0.06    0.05
  -4  -6   0   31.68    2.09
   6  -4   0   32.86    2.01
   4   6   0   31.86    1.91
  -5  -6   0    0.01    0.06
   6  -5   0    0.01    0.05
   5   6   0    0.10    0.06
  -7  -4   0    0.01    0.05
   7   4   0    0.01    0.06
   7   3   0   24.11    1.45
   7   2   0    0.03    0.05
   7   1   0   33.34    2.08
   7   0   0    0.07    0.05
   0  -7   0    0.04    0.06
  -1  -7   0   32.19    2.14
   7  -1   0   33.29    2.05
   7  -2   0    0.17    0.06
  -2  -7   0    0.04    0.07
   7  -3   0   22.29    1.41
  -3  -7   0   22.38    1.47
   3   7   0   22.09    1.33
  -4  -7   0    0.02    0.07
   4   7   0    0.00    0.05
   7  -4   0    0.02    0.05
   8   0   0   18.27    1.16
  -1  -8   0    0.01    0.06
   8  -1   0    0.02    0.05
  -2  -8   0   16.67    1.06
   8  -2   0   15.02    1.01
   0   0  -1   -0.01    0.00
   0   0   1   -0.01    0.00
   0   1  -1   30.91    2.05
  -1   0  -1   33.81    2.05
   0  -1  -1   34.73    2.05
   1   0  -1   36.02    2.06
  -1   0  -1   32.16    2.06
   1   0  -1   31.90    2.23
   1   0  -1   34.76    2.05
   1   0   1   36.24    2.05
   0  -1   1   31.14    2.05
  -1   0   1   33.57    2.23
   1   0   1   29.50    2.23
   0   1   1   28.71    2.23
  -1   0   1   35.43    2.05
   0   1   1   35.14    2.05
  -1   0   1   35.60    2.06
   1   0   1   34.06    2.06
  -1  -1  -1   23.29    1.44
   1   1  -1   23.15    1.57
   1  -1  -1   24.38    1.45
  -1   1  -1   22.41    1.61
  -1  -1  -1   24.39    1.57
   1   1  -1   23.24    1.45
   1   1  -1   23.40    1.44
  -1   1  -1   20.58    1.44
  -1   1  -1   25.52    1.44
   1   1  -1   25.74    1.44
   1  -1   1   24.83    1.44
  -1  -1   1   19.55    1.57
  -1   1   1   24.65    1.59
  -1  -1   1   22.23    1.45
   1  -1   1   21.63    1.43
   1   1   1   22.62    1.45
  -1   1   1   24.53    1.45
   1   1   1   25.00    1.44
   1   1   1   22.66    1.57
   2   1  -1   21.45    1.28
   2   1  -1   20.14    1.22
  -1   2  -1   21.06    1.28
  -2  -1  -1   20.78    1.34
  -2  -1  -1   21.05    1.28
   2   1  -1   20.37    1.29
   1  -2  -1   18.30    1.30
  -1   2  -1   21.46    1.28
  -2  -1  -1   21.37    1.41
  -1   2  -1   22.59    1.28
   1  -2  -1   22.84    1.29
  -1   2   1   20.83    1.28
  -1   2   1   19.27    1.29
   1  -2   1   19.18    1.35
  -1   2   1   22.18    1.28
   2   1   1   23.54    1.30
   2   1   1   20.36    1.29
   2   1   1   19.99    1.22
   1  -2   1   19.39    1.29
  -1   2   1   17.15    1.45
  -2  -1   1   21.41    1.34
  -2  -1   1   20.86    1.41
   0   2  -1    6.54    0.42
   0   2  -1    7.00    0.42
   0   2  -1    7.11    0.42
  -2   0  -1    6.99    0.42
   2   0  -1    6.72    0.42
   2   0  -1    6.54    0.41
  -2   0  -1    7.57    0.49
   2   0  -1    5.81    0.43
   2   0  -1    6.62    0.42
   0  -2  -1    6.70    0.44
   0  -2   1    6.07    0.49
  -2   0   1    6.21    0.47
   0  -2   1    6.93    0.44
   0   2   1    5.99    0.45
   2   0   1    6.82    0.42
   2   0   1    6.44    0.43
   0   2   1    6.66    0.42
   2   0   1    7.03    0.43
  -1  -2  -1   21.62    1.23
  -1  -2  -1   21.81    1.34
   1   2  -1   20.32    1.29
   1   2  -1   19.58    1.22
  -2   1  -1   20.08    1.43
   2  -1  -1   22.68    1.29
   2  -1  -1   21.66    1.29
   1   2  -1   20.36    1.29
  -1  -2  -1   17.62    1.40
  -1  -2  -1   19.87    1.28
  -2   1   1   20.64    1.41
  -1  -2   1   20.91    1.41
   2  -1   1   22.46    1.29
  -1  -2   1   21.56    1.34
   2  -1   1   20.97    1.29
   1   2   1   19.23    1.29
   2  -2  -1    5.83    0.37
   2   2  -1    5.11    0.37
   2   2  -1    5.71    0.37
   2  -2  -1    5.67    0.36
   2   2  -1    5.16    0.35
  -2  -2  -1    5.89    0.38
   2   2   1    5.22    0.37
  -2  -2   1    6.22    0.42
   2  -2   1    5.77    0.36
  -2   2   1    6.03    0.44
   2  -2   1    5.15    0.36
  -2  -2   1    5.64    0.38
   2  -3  -1   11.11    0.66
  -2   3  -1    9.61    0.82
  -3  -2  -1   10.28    0.69
   3   2  -1   10.83    0.66
   2  -3  -1    9.65    0.68
   3   2  -1   10.74    0.66
  -3  -2  -1   10.54    0.74
   3   2  -1   10.04    0.63
   3   2  -1    9.99    0.67
   3   2   1    9.94    0.63
  -3  -2   1   10.77    0.69
  -2   3   1   10.24    0.79
   3   2   1   10.37    0.67
   3   2   1   11.50    0.66
   3   2   1   10.75    0.66
   2  -3   1   11.10    0.66
   2  -3   1    9.27    0.67
  -3  -2   1   10.61    0.74
   3   1  -1   10.35    0.62
   3   1  -1    8.84    0.59
   3   1  -1   10.12    0.62
   1  -3  -1    9.71    0.65
  -3  -1  -1   10.27    0.65
  -1   3  -1   10.63    0.62
   3   1  -1    9.07    0.63
   1  -3  -1    9.27    0.58
  -1   3  -1    8.83    0.64
  -1   3  -1    9.87    0.61
   1  -3  -1    9.83    0.62
   3   1   1   10.68    0.62
  -1   3   1   11.24    0.62
  -3  -1   1    9.96    0.64
   1  -3   1    9.85    0.62
   3   1   1    8.78    0.59
   1  -3   1    9.10    0.65
   3   1   1    9.04    0.63
  -3  -1   1   10.35    0.70
   3   0  -1   14.79    0.90
  -3   0  -1   13.85    0.93
  -3   0  -1   14.49    0.99
   0  -3  -1   15.20    0.93
   0   3  -1   14.16    0.89
   3   0  -1   15.04    0.88
   3   0  -1   13.45    0.84
   3   0  -1   14.85    0.88
   0   3  -1   13.17    0.88
   0  -3  -1   14.64    0.84
   0  -3  -1   12.11    1.00
   3   0  -1   15.56    0.89
   3   0   1   14.40    0.88
   3   0   1   13.35    0.84
   0   3   1   14.13    0.89
   0  -3   1   14.49    0.93
   3   0   1   14.78    0.89
   0  -3   1   12.91    1.01
  -3   0   1   14.40    0.99
   3   0   1   14.41    0.90
  -3   0   1   14.34    0.92
   0   3   1   13.04    0.90
   1   3  -1    9.99    0.60
   3  -1  -1    9.92    0.60
   3  -1  -1   10.16    0.63
   3  -1  -1   10.33    0.63
   1   3  -1   10.37    0.63
  -1  -3  -1   10.13    0.66
  -1  -3  -1   10.13    0.60
   1   3  -1   10.21    0.63
  -3   1  -1    8.89    0.66
  -1  -3  -1    9.53    0.71
   1   3   1   10.60    0.63
  -3   1   1   10.34    0.71
   1   3   1    9.43    0.63
   3  -1   1   10.16    0.63
  -1  -3   1    9.93    0.71
   3  -1   1    9.30    0.63
  -3   1   1    8.42    0.65
  -1  -3   1   10.46    0.66
  -2  -3  -1   10.11    0.74
   2   3  -1    9.85    0.63
  -3   2  -1   10.89    0.78
  -2  -3  -1   10.87    0.69
   3  -2  -1   10.44    0.67
   2   3  -1   10.20    0.66
   3  -2  -1   10.66    0.66
   2   3  -1   10.39    0.66
   2   3   1   10.00    0.67
   2   3   1    9.75    0.63
   3  -2   1   10.81    0.66
  -3   2   1   10.63    0.75
  -2  -3   1   10.15    0.74
   3  -2   1   10.38    0.66
   2   3   1   11.09    0.67
   3   3  -1    6.11    0.38
   3   3  -1    5.18    0.37
   3  -3  -1    5.35    0.37
   3   3  -1    5.42    0.36
  -3   3  -1    5.15    0.43
   3  -3  -1    5.07    0.38
   3   3   1    6.47    0.38
   3  -3   1    4.78    0.37
   3   3   1    6.35    0.38
   3   3   1    5.23    0.35
   3  -3   1    5.54    0.37
  -3  -3   1    5.79    0.39
  -3  -3   1    6.33    0.43
   4   3  -1    4.68    0.34
  -4  -3  -1    4.86    0.39
   4   3  -1    4.85    0.32
   3  -4  -1    4.80    0.33
  -3   4  -1    4.77    0.46
  -4  -3  -1    4.96    0.35
   4   3  -1    4.96    0.33
   3  -4   1    4.93    0.33
   4   3   1    4.79    0.33
  -3   4   1    4.86    0.43
  -4  -3   1    5.63    0.40
   4   3   1    4.62    0.32
   4   3   1    4.68    0.34
  -4  -3   1    5.20    0.35
   4   2  -1    2.46    0.20
   4   2  -1    2.49    0.21
   4   2  -1    2.86    0.20
   2  -4  -1    2.86    0.20
   4   2  -1    2.78    0.20
   4   2   1    3.37    0.21
  -4  -2   1    2.85    0.21
   4   2   1    3.04    0.20
   4   2   1    3.00    0.22
   2  -4   1    2.68    0.20
  -4  -1  -1    6.89    0.57
   4   1  -1    7.07    0.47
  -4  -1  -1    8.10    0.52
  -1   4  -1    6.69    0.68
   1  -4  -1    7.64    0.52
   4   1  -1    7.50    0.51
   4   1  -1    8.07    0.50
   1  -4  -1    7.46    0.50
   1  -4  -1    7.89    0.47
   4   1  -1    8.05    0.49
  -1   4  -1    7.82    0.50
   4   1   1    8.08    0.51
   4   1   1    8.09    0.49
   4   1   1    8.42    0.50
  -1   4   1    7.44    0.67
  -4  -1   1    8.04    0.52
  -1   4   1    8.02    0.50
   1  -4   1    7.45    0.53
   4   1   1    7.23    0.47
  -4  -1   1    8.03    0.57
   4   0  -1    3.33    0.23
   4   0  -1    3.43    0.24
   4   0  -1    3.41    0.23
   4   0  -1    3.40    0.25
   0   4  -1    4.08    0.23
   0  -4  -1    3.36    0.25
   0   4  -1    3.96    0.23
  -4   0  -1    3.59    0.25
   0  -4  -1    3.63    0.32
   0  -4  -1    3.38    0.23
   4   0   1    3.10    0.25
   0   4   1    3.47    0.25
   0  -4   1    3.04    0.31
  -4   0   1    3.45    0.24
   4   0   1    3.92    0.25
  -4   0   1    3.73    0.29
   4   0   1    3.01    0.22
   0  -4   1    3.42    0.26
  -4   1  -1    7.74    0.59
  -1  -4  -1    7.55    0.59
   4  -1  -1    7.61    0.48
   4  -1  -1    7.54    0.51
   1   4  -1    7.54    0.48
   1   4  -1    8.34    0.51
   4  -1  -1    7.97    0.51
  -1  -4  -1    7.95    0.53
   1   4  -1    7.45    0.50
  -4   1  -1    7.19    0.52
  -4   1   1    7.92    0.58
   4  -1   1    7.60    0.51
   4  -1   1    8.33    0.51
  -1  -4   1    8.38    0.60
   1   4   1    8.20    0.51
  -1  -4   1    7.85    0.53
   1   4   1    7.20    0.50
   2   4  -1    3.19    0.21
  -2  -4  -1    3.61    0.28
   4  -2  -1    2.82    0.22
   2   4  -1    2.96    0.21
   4  -2  -1    2.69    0.22
  -4   2  -1    3.16    0.23
   2   4   1    2.91    0.22
  -2  -4   1    2.87    0.23
   4  -2   1    2.60    0.22
  -2  -4   1    3.53    0.28
   2   4   1    3.53    0.22
   4  -2   1    2.97    0.22
   3   4  -1    5.11    0.34
   3   4  -1    4.77    0.33
  -3  -4  -1    4.73    0.39
  -3  -4  -1    4.88    0.35
   3   4  -1    4.82    0.32
   4  -3  -1    5.02    0.33
   4  -3  -1    4.62    0.34
  -4   3  -1    5.24    0.44
  -3  -4   1    4.73    0.34
   3   4   1    5.18    0.34
  -4   3   1    5.09    0.41
   4  -3   1    4.61    0.33
   4  -3   1    4.92    0.33
   3   4   1    4.62    0.33
  -3  -4   1    5.26    0.40
   3   4   1    4.48    0.32
   4   4  -1    1.87    0.16
   4  -4  -1    1.59    0.15
   4   4  -1    1.42    0.14
   4   4  -1    1.67    0.15
   4   4   1    1.79    0.15
  -4  -4   1    1.82    0.20
   4   4   1    2.04    0.15
   4  -4   1    1.42    0.14
  -4  -4   1    1.81    0.16
   4   4   1    2.03    0.16
  -5  -4  -1    2.11    0.19
   5   4  -1    2.21    0.18
   4  -5  -1    2.27    0.18
   5   4   1    2.08    0.18
   4  -5   1    2.28    0.18
  -5  -4   1    2.21    0.19
   5   3  -1    2.25    0.18
   5   3  -1    2.20    0.18
   3  -5  -1    2.28    0.18
   5   3   1    2.42    0.18
  -5  -3   1    2.38    0.19
   5   3   1    2.43    0.18
   5   2  -1    4.15    0.27
   5   2  -1    3.67    0.26
  -2   5  -1    3.05    0.39
  -2   5  -1    3.85    0.38
   5   2  -1    3.62    0.27
   5   2  -1    3.98    0.27
  -5  -2  -1    3.97    0.28
  -5  -2  -1    3.82    0.33
   5   2   1    3.86    0.26
  -5  -2   1    4.25    0.28
   5   2   1    3.58    0.26
   5   2   1    3.83    0.26
   5   2   1    3.51    0.28
  -2   5   1    3.36    0.38
  -5  -2   1    4.37    0.33
   5   1  -1    3.00    0.24
   5   1  -1    3.63    0.24
   5   1  -1    3.07    0.22
   1  -5  -1    3.09    0.25
  -5  -1   1    3.77    0.24
   5   1   1    3.16    0.22
   5   1   1    3.34    0.25
   1  -5   1    3.39    0.26
   0  -5  -1    4.95    0.41
   5   0  -1    4.71    0.34
   5   0  -1    4.84    0.31
   0   5  -1    4.74    0.33
   0  -5  -1    4.93    0.35
  -5   0  -1    4.75    0.40
  -5   0  -1    4.80    0.34
   5   0  -1    5.34    0.33
   0   5   1    5.11    0.34
  -5   0   1    5.20    0.39
   5   0   1    4.94    0.33
   0  -5   1    4.97    0.42
   0  -5   1    4.93    0.35
   5   0   1    4.53    0.34
   0   5   1    4.79    0.31
   5   0   1    4.72    0.31
   1   5  -1    4.23    0.24
  -1  -5  -1    3.50    0.33
   5  -1  -1    3.43    0.26
  -1  -5  -1    3.66    0.27
   5  -1  -1    3.50    0.26
  -1  -5   1    3.28    0.27
  -1  -5   1    3.12    0.33
   5  -1   1    3.45    0.26
   1   5   1    3.59    0.24
   1   5   1    4.36    0.27
  -5   2  -1    4.00    0.35
  -2  -5  -1    3.51    0.28
   2   5  -1    3.77    0.27
   2   5  -1    3.86    0.26
  -2  -5  -1    3.88    0.34
   5  -2  -1    3.86    0.27
   5  -2  -1    3.58    0.27
   5  -2   1    3.72    0.27
  -2  -5   1    3.76    0.34
  -5   2   1    4.09    0.33
   2   5   1    3.69    0.27
   5  -2   1    3.71    0.27
  -2  -5   1    3.68    0.28
   2   5   1    3.84    0.26
   5  -3  -1    2.47    0.19
   3   5  -1    2.48    0.19
   5  -3   1    2.50    0.19
  -3  -5   1    2.34    0.20
   3   5   1    2.50    0.19
  -4  -5  -1    2.09    0.19
   4   5  -1    1.95    0.17
   5  -4  -1    2.32    0.18
   4   5   1    2.12    0.18
  -4  -5   1    2.30    0.19
   5  -4   1    2.15    0.18
   5   5  -1    1.24    0.13
  -5  -5   1    1.05    0.13
   5  -5   1    1.14    0.13
   5   5   1    1.36    0.14
   6   5  -1    0.99    0.12
  -6  -5  -1    0.92    0.12
  -6  -5   1    0.96    0.12
   6   5   1    0.89    0.12
   6   4  -1    0.81    0.12
   6   4   1    0.89    0.12
  -6  -4   1    0.88    0.11
  -6  -3  -1    2.02    0.17
   6   3  -1    1.88    0.17
  -6  -3   1    2.13    0.17
   6   3   1    1.85    0.17
   6   2  -1    1.04    0.12
   6   2   1    1.07    0.12
   6   1  -1    2.66    0.19
   6   1  -1    2.76    0.20
   1  -6  -1    2.38    0.21
  -6  -1  -1    2.80    0.20
   6   1   1    2.56    0.19
   6   1   1    2.67    0.20
   1  -6   1    2.37    0.22
   6   0  -1    1.69    0.14
   0  -6  -1    1.31    0.15
   0  -6   1    1.42    0.15
   0   6   1    1.64    0.15
   6  -1  -1    2.52    0.20
  -1  -6  -1    2.52    0.21
   1   6  -1    2.44    0.18
  -1  -6   1    2.66    0.21
   6  -1   1    2.48    0.20
   1   6   1    2.79    0.19
   2   6  -1    2.03    0.16
  -2  -6  -1    1.97    0.18
   2   6   1    1.70    0.15
   6  -3  -1    1.75    0.16
  -3  -6  -1    1.77    0.17
   3   6  -1    1.75    0.16
   6  -3   1    1.91    0.17
   3   6   1    1.93    0.16
  -3  -6   1    1.84    0.17
  -4  -6   1    0.96    0.13
   4   6   1    0.89    0.12
   5   6  -1    0.76    0.11
   6  -5  -1    0.91    0.12
  -5  -6  -1    0.91    0.12
   5   6   1    0.98    0.12
   6  -5   1    0.84    0.12
  -5  -6   1    0.98    0.12
   7   4  -1    0.84    0.11
  -7  -4  -1    0.87    0.11
  -7  -4   1    0.76    0.10
   7   4   1    0.78    0.11
   7   3  -1    0.78    0.11
   7   3   1    0.75    0.11
   7   2  -1    1.30    0.13
   7   2   1    1.22    0.13
   7   1  -1    1.18    0.13
   7   1   1    1.73    0.14
   0  -7  -1    1.43    0.15
   7   0  -1    1.57    0.14
   7   0   1    1.57    0.14
   0  -7   1    1.46    0.16
  -1  -7  -1    1.48    0.15
   7  -1  -1    1.26    0.14
   7  -1   1    1.62    0.14
  -1  -7   1    1.32    0.15
  -2  -7  -1    1.26    0.14
   7  -2  -1    1.28    0.14
   7  -2   1    1.21    0.14
  -2  -7   1    1.48    0.15
   2   7   1    1.38    0.13
  -3  -7  -1    1.17    0.14
   7  -3  -1    1.11    0.13
  -3  -7   1    0.83    0.13
   3   7   1    0.94    0.12
   4   7  -1    0.69    0.10
  -4  -7  -1    0.76    0.12
   7  -4  -1    0.74    0.11
   7  -4   1    0.71    0.11
   4   7   1    0.79    0.11
  -4  -7   1    0.78    0.12
   8   0  -1    0.40    0.07
   8  -1  -1    0.87    0.11
  -1  -8  -1    0.80    0.12
   8  -1   1    0.77    0.11
  -1  -8   1    0.82    0.12
   8  -2  -1    0.35    0.07
  -2  -8  -1    0.61    0.10
  -2  -8   1    0.52    0.11
   0   0  -2    4.10    0.30
   0   0  -2    3.84    0.30
   0   0   2    3.77    0.30
   0   0   2    4.74    0.31
   1   0  -2  145.38    8.42
  -1   0  -2  125.35    9.15
  -1   0  -2  133.03    8.44
   0   1  -2  138.25    8.42
   1   0  -2  124.73    9.14
   1   0  -2  152.29    8.44
   0  -1  -2  139.37    8.42
  -1   0  -2  138.81    8.42
   1   0   2  133.51    8.44
   1   0   2  129.74    8.42
  -1   0   2  138.87    8.41
  -1   0   2  135.61    9.14
   0  -1   2  129.38    8.42
   0   1   2  131.75    9.14
  -1   0   2  145.74    8.44
   0   1   2  147.69    8.42
   1   1  -2   -0.22    0.04
  -1   1  -2   -0.08    0.13
  -1   1  -2   -0.20    0.03
   1  -1  -2   -0.16    0.04
   1   1  -2   -0.20    0.03
   1   1  -2   -0.09    0.03
  -1   1  -2   -0.09    0.04
   1  -1  -2   -0.01    0.08
  -1  -1  -2   -0.12    0.05
  -1  -1   2   -0.20    0.03
  -1  -1   2   -0.14    0.06
  -1   1   2   -0.06    0.06
   1  -1   2   -0.04    0.10
   1  -1   2   -0.15    0.03
   1   1   2   -0.10    0.04
   1   1   2   -0.05    0.05
  -2  -1  -2   87.23    5.43
   1  -2  -2   93.46    5.22
  -1   2  -2   90.61    5.20
   1  -2  -2   73.20    5.22
   2   1  -2   87.46    5.19
  -2  -1  -2   83.90    5.19
   2   1  -2   85.28    5.21
  -2  -1  -2   87.05    5.66
   2   1  -2   82.07    4.95
  -2  -1  -2   84.89    4.95
  -1   2  -2   87.87    5.19
   1  -2   2   78.20    5.20
   2   1   2   89.54    5.22
   2   1   2   84.24    5.21
   1  -2   2   76.42    5.19
  -2  -1   2   81.86    5.65
  -1   2   2   92.29    5.19
   1  -2   2   79.99    5.43
  -1   2   2   79.16    5.68
  -2  -1   2   95.07    5.42
  -1   2   2   72.56    5.21
   0  -2  -2    3.01    0.21
  -2   0  -2    3.25    0.21
   0  -2  -2    2.62    0.26
  -2   0  -2    2.84    0.23
   0   2  -2    2.86    0.22
   2   0  -2    3.02    0.21
   2   0  -2    3.17    0.21
   2   0  -2    3.17    0.22
  -2   0  -2    3.18    0.27
   2   0  -2    3.31    0.21
   2   0  -2    2.97    0.20
   0  -2  -2    2.96    0.20
  -2   0   2    2.86    0.25
   2   0   2    3.39    0.21
   2   0   2    3.14    0.22
   0   2   2    3.14    0.21
   2   0   2    2.70    0.22
   0  -2   2    3.42    0.23
   0  -2   2    3.05    0.28
   0   2   2    2.61    0.24
  -1  -2  -2   81.39    5.82
  -1  -2  -2   90.50    5.10
   2  -1  -2   92.93    5.37
  -1  -2  -2   89.83    5.59
  -2   1  -2   88.44    5.37
   1   2  -2   82.20    5.35
   1   2  -2   79.68    5.10
   2  -1  -2   91.77    5.38
  -2   1  -2   84.33    5.85
   1   2  -2   87.25    5.36
   1   2   2   80.97    5.37
   2  -1   2   90.12    5.38
  -1  -2   2   86.99    5.83
  -2   1   2   88.78    5.82
   2  -1   2   85.22    5.36
  -1  -2   2   91.30    5.59
  -2   2  -2    1.54    0.24
  -2  -2  -2    1.62    0.13
   2  -2  -2    1.78    0.13
  -2  -2  -2    1.71    0.13
  -2   2  -2    1.37    0.17
  -2   2  -2    1.53    0.12
  -2  -2  -2    1.77    0.16
   2   2  -2    1.58    0.13
   2   2  -2    1.49    0.12
   2   2  -2    1.53    0.13
  -2  -2  -2    1.61    0.13
   2  -2  -2    1.56    0.13
  -2   2   2    1.56    0.18
   2  -2   2    1.73    0.13
  -2  -2   2    1.65    0.13
  -2  -2   2    1.65    0.16
   2   2   2    1.45    0.14
   2   2   2    1.66    0.12
  -2   3  -2   37.92    2.97
   2  -3  -2   46.05    2.67
  -3  -2  -2   43.63    2.77
   2  -3  -2   38.53    2.67
   3   2  -2   44.89    2.65
   3   2  -2   41.65    2.53
  -3  -2  -2   43.93    2.90
   3   2  -2   43.68    2.66
   3   2  -2   42.68    2.66
  -3  -2   2   44.24    2.77
  -3  -2   2   41.49    2.90
   2  -3   2   40.79    2.66
   2  -3   2   46.06    2.66
   3   2   2   42.02    2.53
  -2   3   2   41.80    2.93
   3   2   2   42.78    2.67
   3   2   2   46.90    2.66
   3   1  -2    0.09    0.03
  -1   3  -2    0.20    0.18
  -3  -1  -2    0.07    0.04
  -1   3  -2    0.03    0.04
   3   1  -2    0.09    0.05
   3   1  -2    0.04    0.03
   1  -3  -2    0.04    0.04
  -3  -1  -2    0.04    0.04
   3   1  -2    0.11    0.04
   1  -3  -2    0.04    0.03
  -1   3   2    0.05    0.04
   1  -3   2    0.00    0.04
  -3  -1   2    0.02    0.03
   3   1   2    0.09    0.04
  -3  -1   2    0.02    0.07
   3   1   2    0.06    0.05
   3   1   2    0.04    0.04
   1  -3   2    0.01    0.02
   3   0  -2   60.77    3.61
   3   0  -2   62.65    3.61
  -3   0  -2   64.32    3.59
   3   0  -2   59.67    3.59
   3   0  -2   57.54    3.43
   0  -3  -2   60.03    3.43
   3   0  -2   57.85    3.58
   0  -3  -2   59.27    3.95
   0   3  -2   56.02    3.42
   0   3  -2   55.17    3.60
   0  -3  -2   59.41    3.76
  -3   0  -2   58.78    3.94
  -3   0  -2   56.86    3.76
   0   3   2   57.37    3.60
   3   0   2   56.26    3.42
   3   0   2   56.96    3.61
   3   0   2   61.89    3.62
   3   0   2   55.06    3.59
   0  -3   2   55.79    3.95
   0   3   2   52.40    3.63
  -3   0   2   58.51    3.75
   0  -3   2   60.13    3.76
  -3   0   2   58.92    3.92
   3  -1  -2    0.07    0.04
   1   3  -2    0.00    0.03
   1   3  -2    0.02    0.04
   1   3  -2    0.05    0.03
  -3   1  -2    0.09    0.05
  -1  -3  -2    0.00    0.03
   3  -1  -2    0.17    0.05
  -1  -3  -2    0.03    0.04
   3  -1   2    0.06    0.04
  -1  -3   2    0.14    0.05
  -1  -3   2    0.19    0.09
  -1  -3   2    0.14    0.05
  -3   1   2    0.09    0.07
   2   3  -2   44.55    2.67
  -2  -3  -2   42.61    2.79
  -2  -3  -2   41.07    2.92
   2   3  -2   44.79    2.68
  -3   2  -2   43.87    2.96
  -2  -3  -2   41.88    2.55
   3  -2  -2   44.30    2.68
   3  -2  -2   42.38    2.68
   2   3  -2   41.41    2.54
   2   3   2   45.50    2.69
  -3   2   2   41.84    2.92
   2   3   2   43.80    2.68
   3  -2   2   42.48    2.68
  -2  -3   2   43.68    2.79
   3  -2   2   45.02    2.68
  -2  -3   2   42.02    2.92
  -3   3  -2    0.25    0.10
   3   3  -2    0.14    0.05
  -3   3  -2    0.13    0.17
   3  -3  -2    0.13    0.05
   3   3  -2    0.12    0.04
   3   3  -2    0.08    0.05
   3  -3  -2    0.09    0.04
  -3  -3   2    0.15    0.08
   3   3   2    0.09    0.06
   3   3   2    0.04    0.05
   3  -3   2    0.05    0.04
  -3  -3   2    0.15    0.05
   3  -3   2    0.07    0.04
  -3   3   2    0.15    0.11
   3   3   2    0.06    0.05
   4   3  -2   20.11    1.24
   3  -4  -2   20.66    1.24
  -4  -3  -2   19.80    1.29
   4   3  -2   19.43    1.18
   4   3  -2   19.46    1.24
  -3   4  -2   18.57    1.44
  -4  -3  -2   20.28    1.37
   4   3   2   19.48    1.24
   4   3   2   19.18    1.18
   4   3   2   19.44    1.25
  -4  -3   2   20.09    1.29
  -4  -3   2   19.75    1.37
   3  -4   2   20.46    1.24
  -3   4   2   18.72    1.38
   4   2  -2    0.68    0.08
   2  -4  -2    0.66    0.08
   4   2  -2    0.61    0.08
   4   2  -2    0.58    0.08
   2  -4  -2    0.64    0.10
   4   2  -2    0.62    0.07
   4   2   2    0.59    0.08
  -4  -2   2    0.66    0.08
   4   2   2    0.75    0.08
   4   2   2    0.47    0.08
   4   2   2    0.72    0.09
   2  -4   2    0.61    0.07
  -4  -1  -2   31.42    2.10
   4   1  -2   33.00    2.00
  -4  -1  -2   33.83    2.22
  -1   4  -2   32.89    2.01
   4   1  -2   31.67    2.02
   1  -4  -2   31.31    2.02
   4   1  -2   34.58    2.02
   1  -4  -2   31.00    1.91
   4   1  -2   30.11    1.91
   1  -4  -2   31.38    2.10
  -4  -1   2   32.15    2.20
   1  -4   2   31.51    2.11
   4   1   2   34.11    2.02
   4   1   2   32.42    2.02
  -4  -1   2   35.56    2.09
   4   1   2   33.57    2.00
   4   1   2   31.03    1.91
  -1   4   2   31.81    2.00
   0  -4  -2    0.75    0.08
   0  -4  -2    0.94    0.09
   4   0  -2    0.85    0.09
   0   4  -2    1.08    0.10
   0   4  -2    0.84    0.07
   4   0  -2    0.79    0.08
  -4   0  -2    0.86    0.09
   0  -4  -2    1.10    0.15
   4   0  -2    0.75    0.09
   4   0  -2    0.81    0.07
  -4   0   2    0.86    0.08
   0   4   2    0.96    0.10
   0   4   2    0.94    0.11
   4   0   2    0.69    0.07
   0  -4   2    1.11    0.17
  -4   0   2    1.11    0.13
   4   0   2    0.73    0.09
   4   0   2    0.77    0.09
   4   0   2    0.78    0.07
  -4   1  -2   30.92    2.06
  -1  -4  -2   31.54    2.06
  -1  -4  -2   30.25    2.18
  -4   1  -2   32.44    2.19
   4  -1  -2   33.94    1.99
  -1  -4  -2   31.57    1.88
   1   4  -2   32.51    1.97
   4  -1  -2   32.21    1.98
   1   4  -2   32.67    1.98
   1   4  -2   30.32    1.88
   4  -1  -2   30.53    1.88
   4  -1   2   33.53    1.99
  -1  -4   2   31.25    2.19
   4  -1   2   31.49    1.98
   1   4   2   33.45    1.98
  -4   1   2   31.66    2.17
   1   4   2   29.66    1.98
  -1  -4   2   32.58    2.06
   2   4  -2    0.63    0.07
  -4   2  -2    0.84    0.18
   2   4  -2    0.78    0.10
   2   4  -2    0.73    0.08
   4  -2  -2    0.57    0.09
  -4   2  -2    0.55    0.09
   4  -2  -2    0.70    0.09
  -2  -4  -2    0.88    0.09
   2   4   2    0.63    0.10
  -4   2   2    0.67    0.13
  -2  -4   2    0.77    0.09
   2   4   2    0.65    0.09
  -2  -4   2    0.73    0.13
   4  -2   2    0.65    0.09
   4  -2   2    0.52    0.08
   2   4   2    0.65    0.09
   3   4  -2   19.67    1.22
   4  -3  -2   20.29    1.23
   3   4  -2   18.53    1.17
  -3  -4  -2   20.06    1.36
  -3  -4  -2   19.10    1.28
  -4   3  -2   20.98    1.41
   4  -3  -2   18.63    1.23
   3   4  -2   20.09    1.23
   3   4   2   20.39    1.23
   3   4   2   18.90    1.23
  -3  -4   2   19.09    1.36
   4  -3   2   20.13    1.23
  -3  -4   2   19.33    1.28
   3   4   2   18.01    1.17
  -4   3   2   19.58    1.36
  -4  -4  -2    0.59    0.13
  -4  -4  -2    0.46    0.10
   4   4  -2    0.35    0.07
   4   4  -2    0.36    0.07
   4   4  -2    0.34    0.08
   4  -4  -2    0.42    0.09
   4  -4   2    0.35    0.06
   4   4   2    0.37    0.08
  -4   4   2    0.59    0.15
   4   4   2    0.30    0.09
   4   4   2    0.41    0.08
  -4  -4   2    0.49    0.09
  -5  -4  -2    8.64    0.62
   4  -5  -2    9.34    0.60
   5   4  -2    9.07    0.58
   4  -5   2    9.00    0.60
  -5  -4   2   10.03    0.63
   5   4   2    9.02    0.58
   5   3  -2   -0.03    0.06
  -5  -3  -2    0.17    0.06
   3  -5  -2    0.10    0.05
  -3   5  -2    0.59    0.21
   5   3  -2    0.06    0.05
   5   3   2   -0.02    0.05
  -5  -3   2    0.12    0.05
   5   3   2    0.08    0.05
  -5  -2  -2   16.34    1.05
   5   2  -2   15.64    0.96
  -2   5  -2   15.24    1.12
   5   2  -2   15.35    1.01
  -5  -2  -2   16.34    1.13
   5   2   2   15.74    0.96
   5   2   2   16.64    1.00
   5   2   2   15.44    1.00
   5   2   2   15.09    1.02
  -5  -2   2   17.21    1.04
  -5  -2   2   15.56    1.11
  -1   5  -2    0.24    0.07
  -5  -1  -2    0.39    0.08
  -5  -1   2    0.34    0.11
   0   5  -2   20.29    1.26
  -5   0  -2   20.59    1.31
   5   0  -2   19.46    1.19
   5   0  -2   18.92    1.26
  -5   0  -2   19.69    1.40
   0  -5  -2   21.14    1.41
   5   0  -2   20.69    1.26
   0  -5  -2   19.30    1.31
   0   5   2   19.22    1.25
   5   0   2   19.67    1.19
   5   0   2   19.87    1.26
   5   0   2   20.53    1.26
  -5   0   2   19.40    1.38
   0  -5   2   20.73    1.32
   0  -5   2   20.45    1.42
  -5   1  -2    0.41    0.14
  -5   1  -2    0.12    0.05
   5  -1  -2    0.07    0.05
  -1  -5  -2    0.12    0.05
   5  -1  -2    0.07    0.04
   5  -1   2    0.10    0.05
   1   5   2    0.11    0.06
  -1  -5   2    0.17    0.06
  -5   1   2    0.26    0.10
   5  -1   2    0.14    0.06
  -2  -5  -2   14.53    1.01
  -2  -5  -2   15.65    1.10
   2   5  -2   15.36    0.97
   5  -2  -2   12.89    0.97
   2   5  -2   16.00    0.92
  -5   2  -2   15.58    1.11
   5  -2  -2   14.92    0.97
  -5   2   2   15.06    1.08
  -2  -5   2   16.14    1.10
   2   5   2   15.07    0.92
   5  -2   2   15.38    0.97
   2   5   2   15.14    0.97
   5  -2   2   15.96    0.97
  -2  -5   2   15.99    1.01
   3   5  -2    0.12    0.06
  -3  -5  -2    0.24    0.07
   5  -3  -2    0.09    0.05
   5  -3  -2    0.04    0.06
  -3  -5  -2    0.14    0.10
   5  -3   2    0.01    0.05
  -5   3   2    0.22    0.09
   3   5   2    0.10    0.06
  -3  -5   2    0.15    0.07
   5  -4  -2    8.88    0.56
   4   5  -2    8.48    0.54
  -4  -5  -2    8.46    0.59
   5  -4   2    8.71    0.56
  -4  -5   2    8.44    0.58
   4   5   2    8.21    0.54
   5   5  -2    0.16    0.07
  -5  -5  -2    0.07    0.07
   5  -5  -2    0.04    0.06
   5   5   2    0.03    0.06
   5  -5   2    0.01    0.05
   6   5  -2    3.97    0.27
  -6  -5  -2    3.64    0.28
  -6  -5   2    3.35    0.28
   6   5   2    3.98    0.27
   6   4  -2    0.23    0.07
  -6  -4  -2    0.21    0.07
  -6  -4   2    0.19    0.06
   6   4   2    0.17    0.07
  -6  -3  -2    7.44    0.52
   6   3  -2    7.62    0.48
  -6  -3   2    7.10    0.51
   6   3   2    7.74    0.48
  -6  -2  -2    0.35    0.07
   6   2  -2    0.24    0.06
  -6  -2   2    0.30    0.06
   6   2   2    0.17    0.06
   6   1  -2   11.07    0.69
   1  -6  -2   10.18    0.73
   6   1  -2   10.86    0.67
  -6  -1  -2   11.60    0.72
   6   1   2   10.95    0.66
   1  -6   2   10.17    0.74
   6   1   2   10.77    0.70
   0   6  -2    0.33    0.09
   6   0  -2    0.41    0.08
   0  -6  -2    0.36    0.08
   0  -6   2    0.36    0.09
   6   0   2    0.32    0.07
  -1  -6  -2   10.55    0.71
   6  -1  -2   10.34    0.68
  -1  -6   2   10.59    0.71
   1   6   2   10.47    0.64
   6  -2  -2    0.26    0.06
  -2  -6  -2    0.38    0.08
   2   6  -2    0.28    0.06
   2   6   2    0.29    0.07
  -2  -6   2    0.37    0.08
   6  -2   2    0.28    0.07
  -3  -6  -2    7.09    0.50
   3   6  -2    7.13    0.46
   6  -3  -2    7.44    0.48
  -3  -6   2    7.17    0.50
   6  -3   2    7.20    0.48
   4   6  -2    0.20    0.07
   6  -4  -2    0.17    0.06
  -4  -6  -2    0.20    0.08
   4   6   2    0.15    0.07
   6  -4   2    0.20    0.06
  -4  -6   2    0.24    0.08
   5   6  -2    3.53    0.26
   6  -5  -2    3.55    0.27
  -5  -6  -2    3.58    0.28
   6  -5   2    3.59    0.27
  -5  -6   2    3.71    0.28
   5   6   2    3.87    0.27
   7   4  -2    3.36    0.25
  -7  -4  -2    2.96    0.25
   7   4   2    3.71    0.25
   7   3  -2    0.04    0.06
  -7  -3  -2    0.14    0.06
   7   3   2    0.03    0.06
   7   2  -2    5.34    0.37
   7   2   2    5.75    0.37
   7   1  -2    0.05    0.05
   7   1   2    0.08    0.05
   7   0  -2    5.87    0.41
   0  -7  -2    6.35    0.44
   0  -7   2    6.12    0.44
   7   0   2    6.30    0.42
   7  -1  -2    0.02    0.05
  -1  -7  -2    0.12    0.07
  -1  -7   2    0.05    0.07
   7  -1   2    0.05    0.05
   7  -2  -2    5.15    0.36
  -2  -7  -2    5.03    0.37
   2   7   2    4.94    0.33
   7  -2   2    5.02    0.35
  -2  -7   2    5.18    0.37
   3   7  -2    0.08    0.05
   7  -3  -2    0.07    0.06
  -3  -7  -2    0.00    0.07
   3   7   2    0.06    0.06
  -3  -7   2    0.05    0.07
   7  -3   2    0.03    0.05
  -4  -7  -2    3.14    0.24
   4   7  -2    2.73    0.21
   4   7   2    2.87    0.22
  -4  -7   2    2.91    0.24
   7  -4   2    3.01    0.23
   8   0  -2    0.01    0.05
   8   0   2    0.03    0.05
  -1  -8  -2    3.15    0.25
   8  -1  -2    2.83    0.23
   8  -1   2    2.98    0.23
  -1  -8   2    3.25    0.25
  -2  -8  -2    0.01    0.06
   8  -2  -2    0.06    0.05
  -2  -8   2    0.12    0.07
   8  -2   2    0.10    0.05
   0   0  -3   32.97    2.01
   0   0  -3   30.08    2.00
   0   0   3   29.80    2.00
   0   0   3   36.25    2.16
   0  -1  -3   35.99    1.98
   0   1  -3   35.50    1.99
  -1   0  -3   33.90    1.99
   1   0  -3   29.79    2.16
   1   0  -3   35.36    1.99
  -1   0  -3   30.27    2.17
  -1   0  -3   31.87    2.00
  -1   0   3   32.03    1.98
  -1   0   3   34.95    2.16
   0  -1   3   27.42    2.17
  -1   0   3   34.37    1.99
   0  -1   3   29.42    1.98
   0   1   3   33.36    1.98
   1   0   3   31.13    1.99
   1   0   3   32.96    2.00
   1   0   3   26.91    2.17
   1   1  -3   15.37    0.87
  -1   1  -3   14.36    0.87
  -1  -1  -3   14.52    0.95
   1   1  -3   14.80    0.87
   1   1  -3   12.25    0.95
   1  -1  -3   14.82    0.87
  -1  -1  -3   14.53    0.87
   1  -1  -3   14.21    0.88
  -1   1  -3   12.29    1.00
   1  -1   3   15.01    0.87
   1   1   3   15.61    0.87
   1   1   3   13.77    0.89
  -1   1   3   13.07    0.95
   1  -1   3   11.83    0.87
  -1   1   3   12.80    0.88
  -1  -1   3   14.99    0.87
  -1  -1   3   15.25    0.96
   1   1   3   13.03    0.95
  -1  -1   3   13.28    0.87
   1  -2  -3   18.49    1.11
  -2  -1  -3   18.50    1.24
  -2  -1  -3   18.40    1.17
   1  -2  -3   14.93    1.14
   2   1  -3   18.53    1.12
  -2  -1  -3   18.62    1.12
   1  -2  -3   20.12    1.07
   1  -2  -3   19.28    1.13
  -2  -1  -3   18.63    1.07
   2   1  -3   17.88    1.07
   2   1  -3   18.39    1.12
  -1   2  -3   18.54    1.12
  -1   2   3   17.70    1.11
  -2  -1   3   19.57    1.17
  -2  -1   3   17.32    1.22
   1  -2   3   15.60    1.11
   2   1   3   17.92    1.14
  -1   2   3   16.08    1.24
   2   1   3   18.87    1.13
   1  -2   3   16.54    1.18
   0  -2  -3   28.01    1.60
   0  -2  -3   27.82    1.68
  -2   0  -3   27.30    1.85
  -2   0  -3   25.25    1.76
   0  -2  -3   24.14    1.84
   2   0  -3   28.56    1.69
   2   0  -3   27.97    1.60
   0   2  -3   26.43    1.68
  -2   0  -3   27.16    1.67
   2   0  -3   29.13    1.69
   2   0  -3   28.28    1.68
   0   2   3   25.82    1.82
  -2   0   3   26.95    1.67
   2   0   3   26.10    1.69
  -2   0   3   29.02    1.83
   2   0   3   28.93    1.69
   0  -2   3   28.90    1.76
   2   0   3   25.41    1.68
   0  -2   3   24.72    1.86
  -1  -2  -3   18.25    1.11
   1   2  -3   17.35    1.06
  -2   1  -3   18.27    1.11
  -1  -2  -3   18.59    1.16
  -2   1  -3   17.03    1.25
  -1  -2  -3   17.11    1.21
   2  -1  -3   17.18    1.12
   2  -1  -3   19.97    1.12
   1   2  -3   18.92    1.11
  -1  -2  -3   18.52    1.06
   2  -1  -3   15.95    1.06
  -2   1  -3   17.55    1.11
  -1  -2   3   15.45    1.11
  -1  -2   3   19.87    1.16
   1   2   3   16.51    1.13
  -2   1   3   17.44    1.22
   2  -1   3   19.51    1.12
   2  -1   3   17.96    1.11
  -2   2  -3   16.46    1.07
  -2  -2  -3   17.72    1.07
   2  -2  -3   17.16    1.08
   2  -2  -3   15.25    1.02
   2   2  -3   16.75    1.02
   2  -2  -3   18.41    1.08
  -2  -2  -3   17.48    1.12
  -2  -2  -3   17.96    1.03
  -2   2  -3   16.23    1.24
   2   2  -3   17.74    1.07
  -2  -2  -3   17.29    1.18
   2   2  -3   17.75    1.07
  -2  -2   3   18.23    1.12
   2  -2   3   14.63    1.06
  -2   2   3   16.32    1.18
   2  -2   3   17.22    1.07
   2   2   3   16.86    1.09
  -2  -2   3   17.33    1.18
   2  -2   3   18.86    1.07
   2   2   3   16.96    1.08
   2  -3  -3    7.58    0.49
   3   2  -3    7.93    0.50
   3   2  -3    8.43    0.53
  -3  -2  -3    8.30    0.52
  -3  -2  -3    8.27    0.55
   2  -3  -3    7.44    0.55
   3   2  -3    8.48    0.53
  -2   3  -3    7.16    0.68
  -2   3  -3    6.94    0.52
   2  -3  -3    8.85    0.53
  -3  -2  -3    8.49    0.60
   3   2  -3    8.21    0.52
   3   2   3    8.17    0.50
   2  -3   3    7.79    0.53
  -2   3   3    8.17    0.61
   3   2   3    8.16    0.54
  -3  -2   3    8.55    0.59
   2  -3   3    8.84    0.52
  -3  -2   3    8.59    0.54
   3   2   3    8.84    0.53
   1  -3  -3    7.85    0.48
   3   1  -3    8.34    0.51
   3   1  -3    8.16    0.51
   3   1  -3    7.83    0.52
  -3  -1  -3    8.02    0.59
  -3  -1  -3    7.90    0.54
   1  -3  -3    7.44    0.53
  -3  -1  -3    6.70    0.51
   1  -3  -3    8.10    0.56
   3   1  -3    8.01    0.49
  -1   3  -3    8.32    0.51
   1  -3  -3    8.80    0.52
   3   1   3    8.20    0.49
   3   1   3    7.93    0.53
   3   1   3    8.98    0.52
   1  -3   3    8.38    0.51
  -3  -1   3    7.82    0.57
  -1   3   3    6.79    0.62
  -1   3   3    8.13    0.51
   1  -3   3    7.64    0.54
  -3  -1   3    8.45    0.53
   0   3  -3   11.94    0.75
   3   0  -3   12.24    0.74
   3   0  -3   12.17    0.75
   0  -3  -3   11.94    0.75
  -3   0  -3   11.26    0.79
  -3   0  -3   12.84    0.74
   0  -3  -3   11.68    0.71
  -3   0  -3   12.31    0.85
   0   3  -3   11.09    0.71
   0  -3  -3   11.97    0.78
   3   0  -3   11.93    0.74
   3   0  -3   11.82    0.71
   3   0  -3   11.49    0.76
   0  -3   3   11.98    0.87
  -3   0   3   12.36    0.77
   0  -3   3   12.43    0.79
  -3   0   3   11.22    0.83
   3   0   3   12.43    0.76
   3   0   3   12.42    0.76
   0   3   3   10.92    0.80
   3   0   3   11.29    0.71
  -1  -3  -3    7.91    0.52
   3  -1  -3    8.73    0.53
  -3   1  -3    8.09    0.62
   1   3  -3    8.45    0.52
   1   3  -3    7.97    0.50
  -1  -3  -3    8.65    0.55
  -1  -3  -3    8.59    0.59
  -3   1  -3    7.17    0.56
  -1  -3  -3    8.20    0.50
   3  -1  -3    7.51    0.50
   1   3   3    8.24    0.55
  -1  -3   3    8.16    0.61
   3  -1   3    8.35    0.53
  -3   1   3    8.09    0.58
  -1  -3   3    8.30    0.55
   3  -1   3    8.64    0.53
  -2  -3  -3    7.73    0.53
  -2  -3  -3    8.18    0.56
  -2  -3  -3    8.44    0.52
  -2  -3  -3    8.05    0.60
  -3   2  -3    8.59    0.66
   3  -2  -3    8.75    0.54
   2   3  -3    8.01    0.51
   3  -2  -3    8.57    0.54
   2   3  -3    8.46    0.53
   2   3  -3    8.40    0.54
  -3   2   3    8.11    0.60
   3  -2   3    8.64    0.54
  -2  -3   3    8.28    0.56
  -2  -3   3    8.66    0.61
   3  -2   3    8.28    0.53
   2   3   3    8.18    0.55
   3   3  -3    4.67    0.31
  -3  -3  -3    4.90    0.34
   3   3  -3    5.00    0.33
   3  -3  -3    4.95    0.32
   3   3  -3    4.99    0.32
  -3   3  -3    4.00    0.39
  -3   3  -3    4.78    0.47
  -3  -3  -3    4.85    0.38
   3  -3  -3    4.33    0.33
  -3   3   3    4.68    0.38
   3   3   3    4.75    0.31
   3  -3   3    5.04    0.32
   3   3   3    4.96    0.33
  -3  -3   3    4.80    0.33
  -3  -3   3    5.03    0.38
   3  -3   3    4.66    0.32
   3   3   3    4.58    0.34
   4   3  -3    3.59    0.25
   4   3  -3    3.41    0.24
   3  -4  -3    2.82    0.26
   4   3  -3    3.53    0.25
  -3   4  -3    3.14    0.32
   3  -4  -3    3.65    0.25
  -3   4  -3    3.67    0.41
  -4  -3  -3    3.70    0.26
   4   3   3    3.49    0.25
  -4  -3   3    3.45    0.29
  -4  -3   3    3.52    0.25
   4   3   3    3.28    0.26
   4   3   3    3.27    0.24
  -3   4   3    3.20    0.30
   3  -4   3    3.29    0.24
  -2   4  -3    5.85    0.62
   4   2  -3    7.20    0.45
   4   2  -3    7.24    0.44
   4   2  -3    6.73    0.45
   4   2  -3    6.78    0.43
  -4  -2  -3    6.98    0.47
  -2   4  -3    6.18    0.53
   2  -4  -3    7.09    0.45
  -4  -2  -3    7.32    0.52
   2  -4  -3    6.19    0.48
  -2   4   3    6.26    0.54
   4   2   3    7.34    0.45
   4   2   3    6.71    0.45
  -4  -2   3    6.98    0.51
   2  -4   3    6.84    0.44
  -4  -2   3    7.27    0.46
   4   2   3    6.86    0.46
   4   2   3    6.60    0.43
  -4  -1  -3    6.08    0.42
   1  -4  -3    5.92    0.38
  -1   4  -3    6.24    0.40
  -1   4  -3    5.26    0.58
   1  -4  -3    5.97    0.41
   4   1  -3    6.29    0.40
  -4  -1  -3    6.53    0.48
   1  -4  -3    5.88    0.42
   4   1  -3    6.28    0.40
   4   1  -3    6.02    0.38
   4   1  -3    6.27    0.41
  -4  -1   3    6.59    0.41
   4   1   3    6.00    0.38
   4   1   3    6.23    0.42
  -4  -1   3    6.12    0.46
   4   1   3    6.48    0.41
   1  -4   3    5.89    0.43
  -1   4   3    5.92    0.40
   0   4  -3    8.42    0.53
   4   0  -3    9.27    0.57
   0  -4  -3    8.56    0.54
  -4   0  -3    7.53    0.65
   4   0  -3    8.78    0.56
   4   0  -3    8.74    0.54
   0  -4  -3    8.95    0.59
   4   0  -3    9.34    0.58
  -4   0  -3    8.94    0.60
   0   4   3    7.79    0.59
  -4   0   3    9.46    0.58
   0   4   3    9.08    0.57
   0  -4   3    8.97    0.68
   4   0   3    9.55    0.58
   4   0   3    8.46    0.54
   0  -4   3   10.37    0.61
   4   0   3    8.61    0.58
  -4   0   3    8.76    0.64
  -1  -4  -3    5.62    0.46
  -1  -4  -3    6.06    0.41
  -4   1  -3    5.69    0.42
   4  -1  -3    5.88    0.38
   1   4  -3    5.98    0.37
   4  -1  -3    6.08    0.40
  -1  -4  -3    5.99    0.38
   1   4  -3    6.13    0.40
  -4   1  -3    5.90    0.49
   4  -1  -3    5.94    0.40
   4  -1   3    5.96    0.40
  -1  -4   3    6.41    0.42
   1   4   3    6.02    0.40
  -4   1   3    5.99    0.45
   4  -1   3    6.29    0.40
   1   4   3    5.75    0.41
  -1  -4   3    6.11    0.48
  -2  -4  -3    6.65    0.51
   2   4  -3    7.13    0.44
  -4   2  -3    6.07    0.48
   2   4  -3    7.05    0.45
   4  -2  -3    6.89    0.45
  -4   2  -3    7.16    0.56
  -2  -4  -3    6.92    0.47
   2   4  -3    6.68    0.42
   4  -2  -3    6.72    0.45
  -4   2   3    6.42    0.50
   2   4   3    7.00    0.45
   2   4   3    6.39    0.46
  -2  -4   3    6.90    0.47
   4  -2   3    7.02    0.45
  -2  -4   3    6.95    0.53
   4  -2   3    6.69    0.45
  -3  -4  -3    3.42    0.29
   3   4  -3    3.63    0.25
   3   4  -3    3.24    0.23
   3   4  -3    3.37    0.24
  -4   3  -3    2.78    0.28
   4  -3  -3    3.30    0.25
   4  -3  -3    3.62    0.24
  -4   3  -3    3.38    0.37
  -3  -4  -3    3.59    0.26
  -3  -4   3    3.36    0.25
   4  -3   3    3.41    0.24
   3   4   3    3.21    0.23
   3   4   3    3.48    0.25
  -4   3   3    3.24    0.29
  -3  -4   3    3.56    0.30
   3   4   3    3.18    0.25
   4   4  -3    3.60    0.26
  -4  -4  -3    3.37    0.27
   4   4  -3    3.54    0.25
  -4   4  -3    3.81    0.39
   4  -4  -3    3.58    0.26
  -4  -4  -3    3.37    0.31
   4   4   3    3.56    0.26
   4  -4   3    3.41    0.25
   4   4   3    3.46    0.25
  -4  -4   3    3.84    0.27
   5   4  -3    1.30    0.13
   4  -5  -3    1.28    0.14
  -5  -4  -3    1.39    0.14
   5   4   3    1.41    0.14
   4  -5   3    1.11    0.12
  -5  -4   3    1.23    0.13
  -5  -3  -3    2.25    0.19
   3  -5  -3    2.26    0.18
   5   3  -3    2.19    0.17
   5   3  -3    1.97    0.17
   5   3   3    2.12    0.17
   5   3   3    2.01    0.17
   5   2  -3    2.80    0.20
   5   2  -3    2.40    0.21
  -2   5  -3    3.52    0.34
  -2   5  -3    2.32    0.35
  -5  -2  -3    3.11    0.27
  -5  -2  -3    3.05    0.22
   5   2   3    2.65    0.20
  -5  -2   3    2.63    0.25
   5   2   3    2.89    0.20
  -5  -2   3    2.88    0.21
   5   2   3    2.49    0.20
   5   2   3    2.53    0.21
  -1   5  -3    3.27    0.42
   1  -5  -3    3.36    0.25
  -5  -1  -3    3.54    0.25
   5   1  -3    3.69    0.24
   5   1  -3    3.05    0.24
  -5  -1  -3    3.30    0.31
  -1   5  -3    3.34    0.24
   5   1  -3    3.27    0.23
   5   1   3    3.28    0.24
   5   1   3    3.21    0.25
   1  -5   3    2.95    0.26
  -1   5   3    2.78    0.34
   5   1   3    3.06    0.22
  -5  -1   3    3.97    0.29
  -5  -1   3    3.82    0.24
   0   5  -3    3.64    0.25
   0  -5  -3    3.37    0.26
   5   0  -3    3.17    0.25
  -5   0  -3    3.63    0.26
   0  -5  -3    3.14    0.23
   5   0  -3    3.32    0.24
  -5   0  -3    3.97    0.33
   0  -5  -3    3.80    0.31
   5   0  -3    3.51    0.25
   5   0   3    3.39    0.25
   5   0   3    3.46    0.25
   0  -5   3    3.71    0.33
   0  -5   3    3.34    0.26
  -5   0   3    3.40    0.29
   0   5   3    3.27    0.25
  -5   1  -3    3.08    0.24
   1   5  -3    3.33    0.24
  -1  -5  -3    3.85    0.31
   1   5  -3    3.33    0.22
   5  -1  -3    3.31    0.23
  -5   1  -3    3.09    0.31
   5  -1  -3    2.99    0.24
  -1  -5  -3    2.96    0.24
   5  -1   3    3.16    0.24
  -1  -5   3    3.32    0.31
  -1  -5   3    3.09    0.25
  -5   1   3    3.30    0.28
   5  -1   3    3.11    0.24
   5  -2  -3    2.43    0.20
  -5   2  -3    2.66    0.29
  -2  -5  -3    2.51    0.25
   5  -2  -3    2.52    0.20
  -2  -5  -3    2.57    0.21
   2   5  -3    2.69    0.21
   2   5  -3    2.63    0.19
  -5   2   3    2.52    0.24
  -2  -5   3    2.70    0.27
   5  -2   3    2.44    0.20
   2   5   3    2.54    0.21
  -2  -5   3    2.79    0.21
   5  -2   3    2.53    0.20
   2   5   3    2.55    0.19
  -3  -5  -3    2.30    0.19
   5  -3  -3    1.86    0.18
   3   5  -3    2.26    0.17
   5  -3  -3    2.24    0.18
  -3  -5  -3    1.92    0.23
   5  -3   3    2.22    0.18
   3   5   3    2.19    0.18
  -3  -5   3    2.48    0.19
  -4  -5  -3    1.22    0.14
   4   5  -3    1.41    0.14
   5  -4  -3    1.25    0.13
   5  -4   3    1.32    0.13
  -4  -5   3    1.27    0.14
   4   5   3    1.32    0.14
  -5  -5  -3    1.07    0.14
   5   5  -3    1.14    0.13
   5  -5  -3    1.08    0.13
   5   5   3    1.13    0.14
   5  -5   3    1.14    0.13
  -5  -5   3    1.28    0.13
  -6  -5  -3    0.54    0.10
   6   5  -3    0.54    0.09
  -6  -5   3    0.48    0.09
   6   5   3    0.64    0.10
  -6  -4  -3    1.71    0.16
   6   4  -3    1.54    0.15
  -6  -4   3    1.66    0.15
   6   4   3    1.45    0.16
   6   3  -3    1.15    0.13
  -6  -3  -3    1.17    0.13
  -6  -3   3    1.16    0.12
   6   3   3    1.09    0.13
  -6  -2  -3    2.54    0.20
   6   2  -3    2.44    0.19
   6   2   3    2.41    0.19
   6   2   3    2.39    0.19
   6   1  -3    1.68    0.14
  -6  -1  -3    1.84    0.15
   6   1  -3    1.57    0.15
   6   1   3    1.68    0.14
   6   1   3    1.74    0.15
   1  -6   3    1.44    0.16
  -6   0  -3    3.00    0.23
   0  -6  -3    2.94    0.23
   6   0  -3    3.20    0.22
   6   0  -3    2.99    0.22
   6   0   3    2.82    0.22
   0  -6   3    2.74    0.24
  -1  -6  -3    1.63    0.15
   6  -1  -3    1.67    0.15
   6  -1   3    1.63    0.15
  -1  -6   3    1.67    0.16
   1   6   3    1.51    0.14
   6  -2  -3    2.59    0.21
  -2  -6  -3    2.41    0.21
   2   6  -3    2.54    0.19
   6  -2   3    2.52    0.21
   2   6   3    2.67    0.20
  -2  -6   3    2.73    0.22
  -3  -6  -3    1.03    0.13
   3   6  -3    1.11    0.12
   6  -3  -3    1.10    0.13
  -3  -6   3    0.99    0.13
   3   6   3    1.10    0.12
   6  -3   3    1.02    0.13
  -4  -6  -3    1.41    0.16
   4   6  -3    1.40    0.14
   6  -4  -3    1.52    0.15
  -4  -6   3    1.69    0.16
   4   6   3    1.62    0.15
   6  -4   3    1.47    0.15
  -5  -6  -3    0.51    0.10
   5   6  -3    0.52    0.10
   6  -5  -3    0.51    0.09
   6  -5   3    0.40    0.08
  -5  -6   3    0.49    0.09
   5   6   3    0.52    0.09
  -7  -4  -3    0.50    0.10
   7   4  -3    0.48    0.09
   7   4   3    0.50    0.09
   7   3  -3    0.72    0.12
  -7  -3  -3    0.84    0.11
   7   3   3    0.77    0.11
   7   2  -3    0.87    0.12
  -7  -2  -3    0.95    0.12
   7   1  -3    1.23    0.12
   7   1   3    1.08    0.12
   7   0  -3    0.88    0.11
   0  -7   3    0.83    0.13
   7   0   3    0.93    0.11
  -1  -7  -3    1.12    0.13
   7  -1  -3    1.36    0.13
   7  -1   3    1.05    0.13
  -1  -7   3    1.09    0.14
   7  -2  -3    0.68    0.11
  -2  -7  -3    0.68    0.11
   7  -2   3    0.70    0.11
   2   7   3    0.77    0.10
  -2  -7   3    0.79    0.12
   7  -3  -3    1.05    0.12
   3   7  -3    0.75    0.11
  -3  -7  -3    0.89    0.13
  -3  -7   3    1.02    0.13
   3   7   3    1.15    0.12
   7  -3   3    0.81    0.12
   7  -4  -3    0.35    0.08
   4   7  -3    0.52    0.08
  -4  -7  -3    0.56    0.10
  -4  -7   3    0.32    0.08
   4   7   3    0.38    0.08
   7  -4   3    0.39    0.08
   8   0  -3    0.90    0.11
   8   0   3    0.85    0.11
   8  -1  -3    0.46    0.08
  -1  -8   3    0.46    0.10
   8  -1   3    0.32    0.07
  -2  -8  -3    0.74    0.11
   8  -2  -3    0.70    0.10
  -2  -8   3    0.90    0.12
   8  -2   3    0.54    0.10
   0   0  -4  347.81   21.85
   0   0  -4  360.84   21.90
   0   0   4  360.39   21.85
   0   1  -4  104.65    5.73
  -1   0  -4   83.18    5.75
   1   0  -4   97.84    5.73
   1   0  -4  106.02    5.74
  -1   0  -4   85.89    6.23
  -1   0  -4   95.14    5.73
   1   0  -4   87.25    6.22
   0  -1   4   84.91    5.73
  -1   0   4   95.25    5.74
  -1   0   4   83.53    5.72
   0  -1   4   98.56    5.73
   1   0   4  103.50    5.75
   0   1   4   83.08    5.78
   0   1   4   92.14    5.73
  -1   0   4  104.83    6.22
   1   0   4   85.64    5.73
   1  -1  -4  399.64   23.39
  -1   1  -4  370.96   25.37
  -1   1  -4  384.54   23.38
   1   1  -4  359.41   25.34
  -1   1  -4  333.35   25.38
  -1  -1  -4  404.08   25.34
  -1  -1  -4  425.24   24.37
   1  -1   4  326.39   23.33
  -1   1   4  337.25   23.39
   1   1   4  347.91   25.33
   1   1   4  426.66   23.41
  -1  -1   4  436.36   23.38
  -1  -1   4  398.69   23.33
  -2  -1  -4   63.40    3.91
  -2  -1  -4   63.86    3.57
  -1   2  -4   54.19    4.14
   1  -2  -4   63.69    3.57
  -2  -1  -4   61.73    4.08
   1  -2  -4   62.30    3.73
  -2  -1  -4   57.36    3.74
  -1   2  -4   59.92    3.74
   2   1  -4   61.57    3.56
   1  -2  -4   52.29    3.77
   1  -2  -4   67.54    3.76
   2   1  -4   63.24    3.75
   2   1  -4   65.70    3.74
   2   1   4   62.23    3.77
  -1   2   4   51.74    4.07
   1  -2   4   63.60    3.75
  -2  -1   4   64.60    3.90
  -1   2   4   53.59    3.73
   2   1   4   60.95    3.76
  -2   0  -4  297.84   18.17
   0   2  -4  298.38   18.18
  -2   0  -4  282.60   19.76
   2   0  -4  317.00   18.22
   0  -2  -4  324.62   18.98
   2   0  -4  310.26   18.27
   2   0  -4  300.38   18.17
  -2   0  -4  257.68   18.99
   2   0  -4  300.61   17.32
   0  -2  -4  308.34   19.75
   0  -2  -4  311.94   17.32
   0   2   4  289.13   19.73
  -2   0   4  298.99   19.74
   2   0   4  259.30   18.17
   0  -2   4  309.21   18.99
  -2   0   4  278.62   18.17
   2   0   4  296.14   18.22
   2  -1  -4   64.92    3.77
   2  -1  -4   55.32    3.58
  -1  -2  -4   63.70    3.92
  -1  -2  -4   62.83    3.75
  -1  -2  -4   57.27    4.08
  -1  -2  -4   64.21    3.58
   2  -1  -4   66.36    3.77
   1   2  -4   65.12    3.75
  -2   1  -4   60.82    3.75
   1   2  -4   59.94    3.57
   1   2  -4   60.66    3.75
  -2   1  -4   57.52    4.12
  -1  -2   4   66.20    3.92
  -1  -2   4   60.35    4.09
   1   2   4   57.74    3.79
   2  -1   4   62.79    3.77
  -2   1   4   59.76    4.07
  -1  -2   4   53.86    3.75
   1   2   4   57.34    4.07
   2  -1   4   61.54    3.76
  -2  -2  -4  196.66   12.20
   2  -2  -4  198.72   12.24
  -2  -2  -4  202.73   12.75
  -2  -2  -4  208.50   11.64
  -2   2  -4  189.69   13.33
  -2   2  -4  188.10   12.22
   2  -2  -4  178.99   11.63
   2   2  -4  198.28   11.63
  -2  -2  -4  196.22   13.26
   2   2  -4  207.97   12.20
   2  -2  -4  218.68   12.27
  -2  -2   4  207.92   13.26
   2   2   4  190.44   12.24
   2   2   4  194.85   12.27
   2  -2   4  212.82   12.27
   2  -2   4  196.60   12.22
  -2  -2   4  212.18   12.74
  -2   2   4  181.76   13.25
  -3  -2  -4   31.83    2.08
   2  -3  -4   33.54    1.91
  -2   3  -4   26.48    2.15
   3   2  -4   31.86    1.89
   3   2  -4   31.42    1.90
   2  -3  -4   27.42    1.92
   3   2  -4   30.52    1.81
   3   2  -4   31.07    1.89
   2  -3  -4   30.15    1.80
  -3  -2  -4   30.79    1.89
  -3  -2  -4   31.41    1.98
  -2   3   4   27.00    2.07
   3   2   4   31.46    1.91
   3   2   4   30.30    1.92
  -3  -2   4   30.52    2.07
   2  -3   4   31.91    1.90
  -3  -2   4   31.02    1.97
   3   1  -4  205.67   12.13
  -3  -1  -4  203.55   13.14
   3   1  -4  197.72   12.10
  -3  -1  -4  186.06   12.61
   1  -3  -4  182.14   12.60
  -1   3  -4  198.29   12.08
   3   1  -4  191.74   11.50
   1  -3  -4  202.22   11.50
  -1   3  -4  168.78   13.20
   1  -3  -4  191.72   12.14
   1  -3  -4  210.19   12.06
   1  -3  -4  201.55   12.14
   3   1  -4  207.83   12.07
  -3  -1  -4  215.02   12.07
  -3  -1   4  204.75   12.60
   3   1   4  208.34   12.14
   1  -3   4  181.56   12.62
   1  -3   4  200.77   12.13
  -3  -1   4  186.93   13.12
   3   1   4  191.20   12.11
   0   3  -4   41.98    2.54
   0  -3  -4   43.92    2.68
  -3   0  -4   43.05    2.67
   0   3  -4   44.49    2.68
   3   0  -4   44.48    2.69
   0  -3  -4   42.77    2.79
   3   0  -4   45.72    2.67
   3   0  -4   44.84    2.56
   3   0  -4   44.12    2.69
   0  -3  -4   43.18    2.55
  -3   0  -4   42.78    2.81
  -3   0  -4   43.75    2.95
   3   0  -4   42.49    2.67
   3   0   4   45.32    2.70
   3   0   4   41.24    2.55
   0  -3   4   45.10    2.80
  -3   0   4   42.83    2.92
   0   3   4   40.80    2.74
   0  -3   4   41.50    2.96
   3   0   4   43.36    2.69
  -3   1  -4  204.04   11.94
   3  -1  -4  203.73   11.98
   3  -1  -4  199.78   12.01
  -3   1  -4  167.57   12.50
  -1  -3  -4  199.33   12.48
   1   3  -4  199.07   11.38
  -1  -3  -4  166.77   12.98
   3  -1  -4  189.14   11.39
  -1  -3  -4  201.22   11.39
   1   3  -4  194.93   11.95
  -3   1  -4  190.58   13.02
  -1  -3  -4  193.42   11.95
   1   3  -4  214.07   11.96
  -1  -3   4  208.13   12.49
   1   3   4  189.94   12.00
   3  -1   4  199.85   12.02
   3  -1   4  200.60   11.98
  -3   1   4  189.78   12.98
  -1  -3   4  188.79   13.01
  -2  -3  -4   31.53    2.00
  -2  -3  -4   31.80    1.83
   3  -2  -4   31.17    1.92
   2   3  -4   32.95    1.91
  -2  -3  -4   29.64    2.09
   2   3  -4   30.42    1.82
   3  -2  -4   31.90    1.92
  -2  -3  -4   30.47    1.91
  -3   2  -4   29.75    2.15
  -3   2   4   28.61    2.08
  -2  -3   4   32.09    2.00
  -2  -3   4   31.46    2.10
   3  -2   4   31.15    1.91
   2   3   4   27.86    1.92
   2   3   4   30.27    1.93
   3  -2   4   31.67    1.92
  -3   3  -4  108.54    7.37
   3  -3  -4  102.40    6.72
   3   3  -4  106.10    6.38
   3  -3  -4  117.44    6.73
   3   3  -4  115.09    6.71
   3   3  -4  110.46    6.70
  -3  -3  -4  109.87    7.29
  -3  -3  -4  108.33    6.99
  -3  -3   4  107.62    6.99
   3   3   4  109.68    6.72
   3  -3   4  111.68    6.73
  -3  -3   4  108.59    7.29
  -3   3   4   99.71    7.28
  -4  -3  -4   14.21    0.98
  -3   4  -4   13.57    1.07
   4   3  -4   13.72    0.83
  -3   4  -4   12.46    0.97
   4   3  -4   13.90    0.87
  -4  -3  -4   14.14    0.91
   3  -4  -4   14.63    0.87
   4   3  -4   14.20    0.87
   3  -4  -4   11.69    0.89
   4   3   4   13.65    0.87
  -4  -3   4   13.97    0.90
   3  -4   4   13.68    0.86
   4   3   4   13.48    0.88
   4   3   4   13.67    0.83
  -4  -3   4   13.69    0.97
  -4  -2  -4   86.13    5.63
   4   2  -4   86.38    5.17
  -2   4  -4   70.68    5.71
   2  -4  -4   85.40    5.21
   2  -4  -4   92.21    5.19
  -4  -2  -4   86.96    5.39
   4   2  -4   83.26    4.92
  -2   4  -4   71.01    5.43
   4   2  -4   88.71    5.16
   4   2   4   86.15    5.18
  -4  -2   4   85.49    5.38
   2  -4   4   84.74    5.18
   4   2   4   89.92    5.18
  -2   4   4   72.60    5.62
   4   2   4   84.02    4.92
  -4  -2   4   86.37    5.62
   4   1  -4   23.61    1.43
   4   1  -4   23.04    1.37
  -4  -1  -4   22.27    1.50
   1  -4  -4   23.03    1.36
   4   1  -4   22.92    1.45
   1  -4  -4   22.30    1.50
   1  -4  -4   22.37    1.45
   4   1  -4   24.17    1.44
  -4  -1  -4   24.09    1.43
  -1   4  -4   23.23    1.44
  -1   4  -4   20.60    1.68
  -4  -1  -4   23.31    1.60
   4   1   4   24.21    1.46
   4   1   4   24.01    1.45
  -4  -1   4   21.93    1.57
  -1   4   4   22.61    1.43
   1  -4   4   22.22    1.51
   4   1   4   22.94    1.37
  -4  -1   4   24.73    1.49
   4   0  -4  115.95    6.82
   0  -4  -4  109.14    6.46
  -4   0  -4  115.93    7.41
   4   0  -4  103.97    6.77
   0  -4  -4  126.22    7.41
  -4   0  -4  113.05    6.77
   4   0  -4  106.10    6.46
   0   4  -4  117.69    6.79
   0   4  -4  108.29    6.45
   0  -4  -4  108.88    7.08
  -4   0  -4  102.08    7.09
   4   0   4  112.10    6.82
   0  -4   4  114.93    7.43
   0   4   4  109.62    6.78
   4   0   4   99.80    6.45
   4   0   4  108.43    6.80
   0   4   4  101.99    6.83
  -4   0   4  112.65    7.38
   0  -4   4  110.46    7.09
  -1  -4  -4   25.80    1.62
  -1  -4  -4   22.76    1.39
  -4   1  -4   21.77    1.53
   4  -1  -4   23.43    1.46
  -4   1  -4   23.65    1.64
   1   4  -4   22.79    1.38
   1   4  -4   25.33    1.46
   4  -1  -4   23.66    1.47
  -1  -4  -4   22.64    1.52
   4  -1  -4   23.43    1.40
  -4   1   4   22.04    1.59
   4  -1   4   23.47    1.47
  -1  -4   4   23.94    1.64
   4  -1   4   23.23    1.46
  -1  -4   4   24.30    1.53
   1   4   4   21.49    1.48
  -2  -4  -4   81.31    5.39
  -4   2  -4   76.03    5.41
   2   4  -4   84.40    5.17
   4  -2  -4   86.67    5.19
  -4   2  -4   87.49    5.68
   4  -2  -4   84.34    5.18
  -2  -4  -4   80.43    5.63
  -2  -4  -4   84.97    4.93
   2   4  -4   82.72    4.92
  -2  -4   4   85.81    5.65
   4  -2   4   83.01    5.19
   4  -2   4   83.29    5.17
   2   4   4   88.92    5.19
   2   4   4   84.11    5.17
  -2  -4   4   87.10    5.40
  -4   2   4   81.56    5.62
  -4   3  -4   14.32    1.04
   3   4  -4   13.89    0.86
  -3  -4  -4   13.55    0.96
   3   4  -4   13.66    0.82
   4  -3  -4   13.57    0.87
   4  -3  -4   14.03    0.86
  -3  -4   4   13.57    0.89
   3   4   4   13.01    0.87
   3   4   4   12.75    0.82
  -4   3   4   12.31    0.94
   4  -3   4   13.51    0.86
   3   4   4   13.50    0.86
  -4  -4  -4   40.26    2.65
   4  -4  -4   42.77    2.55
  -4  -4  -4   41.71    2.79
   4   4  -4   40.60    2.42
   4   4   4   40.44    2.42
  -4  -4   4   41.18    2.64
   4  -4   4   41.18    2.54
   4   4   4   38.80    2.55
   5   4  -4    5.76    0.37
   4  -5  -4    5.79    0.39
  -5  -4  -4    5.36    0.40
   5   4   4    5.89    0.38
  -5  -4   4    5.39    0.39
   4  -5   4    5.52    0.38
  -3   5  -4   36.70    2.74
   5   3  -4   45.66    2.45
  -5  -3  -4   41.19    2.68
   3  -5  -4   43.30    2.58
   5   3  -4   39.92    2.56
  -5  -3   4   42.19    2.67
   5   3   4   43.89    2.45
   5   3   4   38.08    2.56
  -5  -2  -4   10.96    0.78
  -2   5  -4    9.97    0.79
   5   2  -4   10.60    0.65
   5   2  -4   10.23    0.68
  -5  -2  -4   10.54    0.71
  -2   5  -4    8.71    0.85
   5   2   4   10.27    0.69
   5   2   4   10.67    0.67
  -5  -2   4   11.31    0.70
   5   2   4   11.13    0.68
   5   2   4   11.03    0.65
  -5  -2   4   10.42    0.76
  -5  -1  -4   66.34    4.42
  -1   5  -4   64.45    4.03
   1  -5  -4   64.85    4.21
   5   1  -4   64.95    3.84
  -5  -1  -4   66.09    4.21
   5   1  -4   70.23    4.04
   5   1  -4   63.68    4.04
   5   1   4   64.13    3.83
   5   1   4   69.07    4.05
  -5  -1   4   62.10    4.39
   1  -5   4   61.79    4.22
   5   1   4   65.63    4.05
   0   5  -4   13.97    0.87
   0  -5  -4   13.31    0.90
   0  -5  -4   13.36    0.82
   5   0  -4   14.10    0.87
  -5   0  -4   13.74    0.91
   5   0  -4   13.74    0.83
   5   0  -4   13.08    0.87
  -5   0  -4   13.09    0.99
  -5   0   4   13.25    0.95
   0  -5   4   14.64    1.00
   5   0   4   13.87    0.88
   5   0   4   13.80    0.87
   0   5   4   12.71    0.86
   0  -5   4   14.05    0.91
   1   5  -4   67.83    3.85
   5  -1  -4   65.90    4.07
   5  -1  -4   64.56    3.86
  -5   1  -4   63.94    4.23
   5  -1  -4   65.21    4.06
  -1  -5  -4   62.79    3.86
   1   5  -4   67.98    4.05
  -1  -5  -4   64.19    4.22
   1   5   4   65.47    4.05
  -1  -5   4   65.54    4.23
   5  -1   4   67.85    4.07
  -5   1   4   61.41    4.40
   5  -1   4   65.08    4.06
  -1  -5   4   70.51    4.46
  -5   2  -4   10.37    0.71
   5  -2  -4   10.25    0.68
  -2  -5  -4   10.14    0.70
   2   5  -4   11.60    0.64
  -5   2  -4   10.36    0.80
   5  -2  -4   10.27    0.67
   2   5  -4   10.55    0.68
  -2  -5  -4   11.84    0.78
   2   5   4    9.06    0.64
  -5   2   4    9.95    0.74
   2   5   4    9.96    0.67
   5  -2   4   10.08    0.67
   5  -2   4   10.52    0.68
  -2  -5   4   10.30    0.70
  -2  -5   4   10.86    0.79
   5  -3  -4   36.71    2.51
   5  -3  -4   41.82    2.51
  -3  -5  -4   40.76    2.75
  -3  -5  -4   40.91    2.61
   3   5  -4   41.48    2.38
   3   5   4   38.46    2.38
  -3  -5   4   40.15    2.61
   5  -3   4   41.93    2.51
   4   5  -4    5.61    0.37
  -4  -5  -4    5.81    0.40
   5  -4  -4    5.60    0.38
   5  -4   4    5.22    0.37
  -4  -5   4    5.42    0.39
   4   5   4    5.32    0.37
   5  -5  -4   18.96    1.19
  -5  -5  -4   18.37    1.24
   5   5  -4   18.54    1.13
   5  -5   4   18.20    1.19
  -5  -5   4   18.80    1.24
   5   5   4   19.72    1.14
   6   5  -4    2.39    0.19
  -6  -5  -4    2.14    0.20
   6   5   4    2.51    0.20
  -6  -5   4    2.06    0.19
   6   4  -4   15.85    0.95
  -6  -4  -4   15.05    1.03
  -6  -4   4   14.66    1.02
   6   4   4   16.62    0.95
   6   3  -4    4.74    0.32
  -6  -3  -4    4.61    0.35
   6   3   4    4.98    0.32
  -6  -3   4    4.55    0.33
  -6  -2  -4   27.64    1.80
   6   2  -4   27.54    1.65
   6   2   4   26.59    1.73
   6   2   4   28.76    1.65
   6   1  -4    6.98    0.46
   6   1  -4    7.18    0.45
  -6  -1  -4    6.87    0.48
   1  -6   4    6.37    0.49
   6   1   4    7.34    0.46
  -6   0  -4   32.75    2.19
   0  -6  -4   32.57    2.19
   6   0  -4   33.75    2.10
   6   0  -4   35.93    2.00
   0  -6   4   33.82    2.20
   6   0   4   33.26    2.11
  -1  -6  -4    6.33    0.46
   6  -1  -4    6.94    0.44
  -1  -6   4    6.86    0.47
   1   6   4    6.22    0.42
   6  -1   4    6.54    0.44
   6  -2  -4   26.19    1.66
  -2  -6  -4   26.32    1.73
   2   6  -4   27.31    1.57
  -2  -6   4   26.90    1.73
   6  -2   4   27.06    1.66
   2   6   4   24.84    1.58
   6  -3  -4    4.64    0.32
  -3  -6  -4    4.73    0.34
   3   6  -4    4.47    0.31
   3   6   4    4.51    0.31
   6  -3   4    4.46    0.32
  -3  -6   4    4.42    0.34
  -4  -6  -4   15.23    1.02
   4   6  -4   16.87    0.93
   6  -4  -4   15.16    0.98
   4   6   4   14.97    0.93
  -4  -6   4   14.51    1.02
   6  -4   4   15.02    0.98
   6  -5  -4    2.04    0.19
  -5  -6  -4    2.17    0.20
   5   6  -4    2.28    0.18
   6  -5   4    2.16    0.18
  -5  -6   4    2.13    0.19
   5   6   4    2.32    0.19
  -7  -4  -4    1.78    0.18
   7   4  -4    2.03    0.17
   7   4   4    2.11    0.18
  -7  -3  -4   13.10    0.92
   7   3  -4   13.72    0.85
   7   3   4   14.58    0.85
  -7  -2  -4    3.33    0.26
   7   2  -4    3.43    0.25
  -1   7  -4   17.47    1.33
   7   1  -4   20.71    1.15
   7   1   4   18.61    1.20
   7   0  -4    3.82    0.28
   7   0   4    3.83    0.28
   0  -7   4    3.78    0.30
  -1  -7  -4   18.26    1.22
   7  -1  -4   18.58    1.17
  -1  -7   4   18.75    1.22
   7  -1   4   17.96    1.17
  -2  -7  -4    3.09    0.25
   7  -2  -4    3.11    0.24
   7  -2   4    3.04    0.24
  -2  -7   4    3.26    0.25
   2   7   4    3.03    0.22
  -3  -7  -4   12.94    0.87
   3   7  -4   13.06    0.79
   7  -3  -4   12.53    0.83
  -3  -7   4   13.28    0.87
   7  -3   4   13.06    0.83
   3   7   4   12.47    0.79
  -4  -7  -4    1.94    0.18
   4   7  -4    1.59    0.15
   7  -4  -4    1.78    0.16
  -4  -7   4    1.72    0.17
   4   7   4    1.91    0.16
   7  -4   4    1.71    0.16
   8   0  -4    7.82    0.53
   8   0   4    8.34    0.54
   8  -1  -4    1.68    0.16
   8  -1   4    1.69    0.16
  -1  -8   4    1.96    0.18
   8  -2  -4    6.92    0.48
   8  -2   4    6.91    0.48
  -2  -8   4    7.64    0.51
   0   0  -5  147.49    8.85
   0   0  -5  117.49    8.18
  -1   0  -5   70.96    5.09
  -1   0  -5   68.33    4.89
   0   1  -5   73.06    5.10
   0   1  -5   89.25    4.68
  -1   0  -5   80.42    4.68
   1   0  -5   86.95    4.46
   0   1  -5   77.42    4.69
   1   0  -5   73.62    4.68
   1   0  -5   74.74    5.07
   1   0   5   86.12    4.70
   1   0   5   65.82    5.08
   0  -1   5   80.78    4.67
   0   1   5   72.85    4.67
   0  -1   5   65.25    5.09
   0  -1   5   67.63    4.67
   0   1   5   87.51    4.74
  -1   0   5   82.46    4.68
   1   0   5   70.11    4.68
   1   0   5   78.13    4.71
  -1   0   5   66.04    4.67
   1  -1  -5   60.16    3.74
  -1  -1  -5   62.29    4.04
   1   1  -5   51.20    4.05
  -1   1  -5   53.93    4.09
   1   1  -5   65.66    3.55
   1   1  -5   67.82    3.73
   1  -1  -5   60.10    3.56
  -1  -1  -5   61.60    3.72
  -1  -1  -5   59.53    3.89
   1  -1  -5   61.23    3.72
   1   1   5   50.79    4.04
  -1  -1   5   61.11    3.73
  -1  -1   5   65.87    4.05
   1  -1   5   64.05    3.75
   1  -1   5   61.88    3.72
   1   1   5   58.55    3.76
  -1   2  -5   59.89    3.82
  -2  -1  -5   56.88    3.62
  -1   2  -5   53.37    3.63
   1  -2  -5   59.69    3.46
  -2  -1  -5   63.93    3.46
   2   1  -5   62.50    3.64
  -2  -1  -5   60.30    3.95
   2   1  -5   61.62    3.62
   1  -2  -5   59.53    3.61
  -2  -1  -5   56.39    3.79
   2   1  -5   59.49    3.45
   2   1  -5   60.70    3.63
  -1   2  -5   59.70    4.02
   1  -2  -5   64.14    3.65
   2   1   5   57.09    3.65
  -2  -1   5   62.51    3.78
   2   1   5   57.60    3.65
   1  -2   5   61.00    3.64
  -1   2   5   49.56    3.93
  -1   2   5   48.98    3.93
  -2  -1   5   59.63    3.94
   2   0  -5   77.91    4.68
   0   2  -5   77.54    4.66
   0  -2  -5   76.31    4.65
  -2   0  -5   72.15    5.09
  -2   0  -5   68.72    4.88
   2   0  -5   78.78    4.67
   2   0  -5   80.02    4.44
   0  -2  -5   72.97    4.86
   2   0  -5   74.96    4.66
   0  -2  -5   80.85    4.45
  -2   0  -5   78.24    4.66
  -2   0  -5   84.06    4.44
   2   0   5   75.33    4.68
   0   2   5   78.92    5.05
  -2   0   5   63.01    4.65
   2   0   5   76.59    4.69
   0  -2   5   66.17    5.09
   0  -2   5   79.27    4.87
  -2   0   5   76.65    5.06
   2  -1  -5   51.27    3.49
   1   2  -5   57.18    3.33
   2  -1  -5   48.51    3.34
  -2   1  -5   51.13    3.51
  -1  -2  -5   61.21    3.34
  -1  -2  -5   51.96    3.80
  -2   1  -5   56.39    3.85
   2  -1  -5   60.78    3.52
  -1  -2  -5   58.25    3.50
   2  -1  -5   60.30    3.52
  -1  -2  -5   58.21    3.65
   1   2  -5   61.81    3.50
  -2   1   5   60.18    3.80
  -1  -2   5   58.08    3.82
   1   2   5   55.70    3.80
  -1  -2   5   52.27    3.50
   2  -1   5   61.25    3.52
   2  -1   5   57.64    3.51
  -2   2  -5   48.56    3.45
  -2  -2  -5   51.05    3.38
   2  -2  -5   54.23    3.12
  -2   2  -5   42.62    3.28
   2  -2  -5   52.15    3.13
  -2  -2  -5   50.74    3.24
   2  -2  -5   45.80    2.96
   2   2  -5   53.89    3.11
  -2  -2  -5   53.73    2.97
  -2   2  -5   46.72    3.10
  -2   2  -5   42.59    3.11
   2   2  -5   51.30    2.96
   2   2  -5   53.67    3.11
  -2  -2   5   55.43    3.24
   2   2   5   51.45    3.14
  -2  -2   5   51.57    3.38
   2   2   5   48.72    3.13
   2  -2   5   50.52    3.10
   2  -2   5   53.63    3.12
  -2   2   5   47.25    3.37
  -3  -2  -5   31.46    1.99
   3   2  -5   32.68    1.91
  -3  -2  -5   31.74    2.09
   2  -3  -5   25.42    1.93
   2  -3  -5   32.93    1.92
  -3  -2  -5   30.74    1.90
   3   2  -5   28.84    1.81
   2  -3  -5   31.03    1.81
  -2   3  -5   28.82    2.17
  -3  -2  -5   31.54    1.83
   3   2  -5   32.42    1.90
   3   2   5   30.52    1.93
   2  -3   5   32.18    1.91
  -3  -2   5   30.72    2.08
  -3  -2   5   31.86    1.98
   3   2   5   31.57    1.92
  -2   3   5   26.84    2.07
   3   1  -5   35.22    2.07
   3   1  -5   34.46    2.06
   1  -3  -5   36.16    2.12
   3   1  -5   33.22    2.07
   3   1  -5   32.82    1.97
  -1   3  -5   32.35    2.35
   1  -3  -5   34.73    1.97
  -3  -1  -5   33.48    2.27
   1  -3  -5   29.66    2.15
  -3  -1  -5   32.80    1.97
  -1   3  -5   32.84    2.07
   1  -3  -5   35.27    2.06
  -3  -1  -5   32.99    2.16
  -3  -1  -5   34.01    2.06
   1  -3  -5   33.57    2.08
   3   1   5   33.38    2.08
   1  -3   5   29.74    2.17
   1  -3   5   32.79    2.07
  -3  -1   5   34.16    2.15
  -3  -1   5   33.26    2.25
   3   1   5   33.23    2.09
   0   3  -5   44.13    2.62
  -3   0  -5   43.16    2.61
   3   0  -5   45.22    2.63
  -3   0  -5   40.73    2.74
   0   3  -5   42.34    2.48
   3   0  -5   43.22    2.63
   3   0  -5   42.62    2.61
   0  -3  -5   42.56    2.49
   0  -3  -5   43.22    2.61
   0  -3  -5   41.54    2.73
  -3   0  -5   42.56    2.88
   3   0  -5   42.88    2.50
   0  -3   5   43.57    2.74
   0  -3   5   38.55    2.88
  -3   0   5   42.80    2.85
   3   0   5   42.63    2.64
   3   0   5   42.88    2.63
   0   3   5   36.78    2.68
  -1  -3  -5   32.70    2.14
   1   3  -5   33.05    1.95
   3  -1  -5   34.59    2.06
  -3   1  -5   28.52    2.16
   3  -1  -5   33.78    2.06
   1   3  -5   33.97    2.05
  -1  -3  -5   29.81    2.24
   1   3  -5   34.68    2.04
  -3   1  -5   35.13    2.04
   3  -1  -5   31.65    1.96
  -3   1  -5   32.63    2.28
  -1  -3  -5   33.76    1.96
  -1  -3  -5   33.38    2.05
  -1  -3   5   36.03    2.15
   3  -1   5   33.63    2.06
  -3   1   5   31.36    2.23
   1   3   5   32.77    2.09
   3  -1   5   33.84    2.07
   3  -2  -5   31.84    1.90
  -2  -3  -5   31.43    1.81
  -2  -3  -5   30.72    1.88
   3  -2  -5   30.92    1.90
   2   3  -5   31.51    1.88
  -2  -3  -5   31.18    1.97
   2   3  -5   29.97    1.79
  -2  -3  -5   29.42    2.06
   3  -2  -5   26.77    1.80
   2   3  -5   31.63    1.89
  -3   2  -5   30.80    2.13
   2   3   5   29.50    1.91
   3  -2   5   31.59    1.90
  -2  -3   5   32.24    1.97
   2   3   5   27.74    1.90
  -3   2   5   29.09    2.05
   3  -2   5   30.36    1.88
  -2  -3   5   29.40    2.07
   3   3  -5   19.26    1.16
  -3   3  -5   17.76    1.26
   3  -3  -5   17.91    1.18
  -3  -3  -5   18.17    1.12
  -3  -3  -5   18.69    1.21
  -3  -3  -5   17.71    1.16
  -3  -3  -5   19.74    1.28
   3   3  -5   18.28    1.10
   3   3  -5   18.83    1.16
   3  -3  -5   19.63    1.17
  -3   3  -5   18.25    1.37
  -3  -3   5   19.21    1.21
  -3   3   5   16.43    1.26
   3   3   5   18.22    1.18
  -3  -3   5   18.45    1.28
   3  -3   5   18.95    1.16
   3   3   5   18.03    1.16
   4   3  -5   14.18    0.90
  -3   4  -5   14.33    1.01
  -4  -3  -5   14.49    0.94
  -3   4  -5   14.58    1.11
   3  -4  -5   15.12    0.91
   4   3  -5   11.90    0.85
   3  -4  -5   12.30    0.92
  -4  -3  -5   14.65    1.01
   4   3  -5   14.49    0.90
   4   3   5   14.06    0.86
   4   3   5   14.25    0.92
  -4  -3   5   14.12    0.99
  -4  -3   5   14.46    0.93
   3  -4   5   14.63    0.89
   4   2  -5   19.71    1.30
  -4  -2  -5   20.20    1.29
   2  -4  -5   21.67    1.34
  -2   4  -5   17.51    1.40
  -4  -2  -5   21.94    1.44
   4   2  -5   20.84    1.24
   2  -4  -5   22.73    1.31
  -2   4  -5   18.25    1.52
  -4  -2  -5   20.69    1.36
   4   2  -5   21.23    1.29
   4   2   5   20.48    1.32
  -4  -2   5   20.91    1.42
   4   2   5   22.10    1.30
   4   2   5   20.34    1.24
   2  -4   5   20.56    1.29
  -4  -2   5   21.40    1.35
   1  -4  -5   21.96    1.45
   4   1  -5   23.25    1.38
  -4  -1  -5   22.88    1.51
  -1   4  -5   23.58    1.45
   1  -4  -5   22.77    1.37
  -1   4  -5   23.24    1.70
   1  -4  -5   21.39    1.50
   4   1  -5   22.92    1.45
   4   1  -5   23.63    1.44
   4   1  -5   23.90    1.44
  -4  -1  -5   24.06    1.61
  -4  -1  -5   23.68    1.44
  -4  -1   5   23.31    1.49
  -4  -1   5   23.34    1.58
   4   1   5   22.59    1.37
   4   1   5   24.20    1.45
   4   1   5   24.38    1.46
  -1   4   5   22.45    1.44
   1  -4   5   21.25    1.51
   0  -4  -5   31.07    1.91
   0  -4  -5   27.38    1.65
   4   0  -5   28.37    1.74
   4   0  -5   28.51    1.66
  -4   0  -5   28.10    1.93
   0   4  -5   31.38    1.74
   4   0  -5   28.13    1.74
  -4   0  -5   27.77    1.72
   0   4  -5   26.99    1.64
  -4   0  -5   26.58    1.82
   0  -4  -5   26.11    1.81
  -4   0   5   27.98    1.89
   4   0   5   27.81    1.75
   4   0   5   27.24    1.75
   4   0   5   25.93    1.64
   0   4   5   25.46    1.79
   0  -4   5   28.95    1.82
   0  -4   5   28.19    1.94
   4  -1  -5   22.32    1.39
   1   4  -5   24.67    1.45
  -1  -4  -5   22.96    1.44
   4  -1  -5   23.59    1.45
  -1  -4  -5   22.81    1.38
  -1  -4  -5   22.94    1.51
  -4   1  -5   21.85    1.53
   4  -1  -5   23.63    1.45
   1   4  -5   22.53    1.37
  -4   1  -5   23.20    1.63
  -1  -4   5   23.92    1.51
  -1  -4   5   24.86    1.63
   4  -1   5   23.77    1.46
   1   4   5   22.35    1.48
  -4   1   5   22.13    1.58
   4  -1   5   22.89    1.45
   4  -2  -5   20.85    1.24
   4  -2  -5   21.22    1.29
   4  -2  -5   21.12    1.28
  -2  -4  -5   20.45    1.33
  -2  -4  -5   20.30    1.23
   2   4  -5   20.42    1.22
   2   4  -5   21.78    1.28
  -2  -4  -5   19.48    1.41
  -4   2  -5   20.84    1.47
  -4   2  -5   18.03    1.36
   4  -2   5   21.20    1.29
  -4   2   5   19.57    1.40
   2   4   5   19.21    1.30
  -2  -4   5   20.80    1.43
  -2  -4   5   21.20    1.34
   4  -2   5   19.75    1.28
  -4   3  -5   14.04    1.08
   3   4  -5   14.78    0.90
  -3  -4  -5   13.89    0.94
   4  -3  -5   13.72    0.92
   4  -3  -5   14.22    0.90
   3   4  -5   14.33    0.86
  -3  -4  -5   14.19    1.00
  -3  -4   5   14.18    0.94
   3   4   5   14.25    0.91
   4  -3   5   14.49    0.90
   3   4   5   13.87    0.92
  -3  -4   5   13.97    1.01
   4  -4  -5   10.64    0.64
  -4  -4  -5   10.03    0.72
   4   4  -5    9.51    0.60
  -4  -4  -5    9.60    0.66
  -4   4  -5    8.13    0.70
  -4  -4   5    9.75    0.65
   4  -4   5    9.89    0.63
   4   4   5    9.85    0.61
  -5  -4  -5    6.10    0.45
   4  -5  -5    6.47    0.43
   5   4  -5    6.27    0.41
   5   4   5    6.57    0.42
  -5  -4   5    6.21    0.44
  -5  -3  -5    7.73    0.51
   5   3  -5    7.16    0.46
  -3   5  -5    7.40    0.58
   5   3  -5    6.29    0.47
   3  -5  -5    7.45    0.49
  -5  -3   5    7.14    0.49
   5   3   5    7.33    0.46
   5   2  -5   11.02    0.69
  -5  -2  -5   11.56    0.76
   5   2  -5   11.59    0.73
  -2   5  -5    9.94    0.82
   2  -5  -5   11.35    0.73
  -2   5  -5    9.89    0.90
  -5  -2  -5   11.79    0.83
   5   2   5   11.93    0.73
  -5  -2   5   12.12    0.75
   5   2   5   11.54    0.69
  -5  -2   5   11.30    0.80
   5   2   5   11.15    0.72
   5   2   5   10.63    0.74
   1  -5  -5   11.02    0.67
  -1   5  -5   11.11    0.92
  -1   5  -5   10.96    0.72
   5   1  -5   10.96    0.68
   5   1  -5   10.58    0.71
  -5  -1  -5   11.71    0.75
  -5  -1  -5   11.80    0.82
   5   1  -5   11.56    0.71
  -5  -1   5   10.75    0.79
   5   1   5   10.97    0.73
   5   1   5   11.42    0.72
   5   1   5   10.99    0.67
   1  -5   5   10.17    0.75
   0   5  -5   15.00    0.91
   0  -5  -5   13.81    0.86
   5   0  -5   14.80    0.90
  -5   0  -5   14.75    0.95
   5   0  -5   13.89    0.86
   5   0  -5   13.80    0.91
   0  -5  -5   13.46    0.94
  -5   0  -5   14.73    1.04
   0  -5   5   15.09    1.04
   5   0   5   14.16    0.91
   0   5   5   13.36    0.90
  -5   0   5   14.10    0.99
   0  -5   5   13.93    0.95
   5   0   5   14.21    0.91
   5  -1  -5   10.84    0.71
  -5   1  -5   11.27    0.83
  -1  -5  -5   11.18    0.67
   1   5  -5   11.30    0.71
  -1  -5  -5   10.87    0.73
   5  -1  -5   10.66    0.70
   5  -1  -5   11.59    0.68
   1   5  -5   11.38    0.66
  -5   1  -5   10.60    0.74
  -1  -5   5   11.33    0.74
   5  -1   5   11.15    0.71
  -5   1   5   10.35    0.77
   1   5   5   10.23    0.71
   5  -1   5   10.85    0.71
   1   5   5    9.85    0.72
  -1  -5   5   11.80    0.83
   5  -2  -5   10.73    0.71
   2   5  -5   11.63    0.71
   5  -2  -5   10.51    0.72
  -5   2  -5   11.17    0.85
  -5   2  -5   10.91    0.76
  -2  -5  -5   11.09    0.74
   2   5  -5   11.95    0.67
  -5   2   5   10.55    0.78
   5  -2   5   10.61    0.71
  -2  -5   5   11.39    0.83
  -2  -5   5   11.14    0.74
   2   5   5   10.61    0.71
   5  -2   5   11.44    0.71
   2   5   5   10.38    0.72
   5  -3  -5    7.10    0.45
  -3  -5  -5    7.07    0.47
   3   5   5    6.11    0.46
   5  -3   5    6.81    0.45
   3   5   5    6.50    0.43
  -3  -5   5    6.68    0.47
  -4  -5  -5    6.42    0.45
   5  -4  -5    6.41    0.43
   4   5  -5    6.18    0.41
  -4  -5   5    6.20    0.44
   4   5   5    6.04    0.41
   5  -4   5    6.17    0.42
  -5  -5  -5    3.49    0.27
   5   5  -5    3.52    0.25
   5  -5  -5    3.17    0.25
  -5  -5   5    3.18    0.25
   5  -5   5    2.90    0.24
   5   5   5    3.46    0.25
  -6  -5  -5    2.66    0.22
   6   5  -5    2.55    0.21
   6   5   5    2.85    0.22
  -6  -5   5    2.53    0.21
  -6  -4  -5    4.14    0.30
   6   4  -5    3.99    0.28
  -6  -4   5    3.51    0.28
   6   4   5    3.95    0.28
  -6  -3  -5    5.48    0.40
   6   3  -5    5.61    0.37
   6   3   5    5.45    0.37
  -6  -2  -5    7.02    0.49
   6   2  -5    7.13    0.45
  -2   6  -5    7.02    0.58
   6   2   5    6.43    0.46
   6   2   5    6.92    0.44
   6   1  -5    7.48    0.50
  -6  -1  -5    7.76    0.53
   6   1  -5    7.73    0.49
   6   1   5    7.68    0.51
   0  -6  -5    7.83    0.55
   6   0  -5    7.96    0.53
  -6   0  -5    8.41    0.56
   6   0  -5    8.21    0.52
   6   0   5    7.85    0.54
   0  -6   5    8.41    0.57
   6  -1  -5    7.57    0.49
  -6   1  -5    7.37    0.51
  -1  -6  -5    7.09    0.51
   6  -1   5    7.28    0.49
  -1  -6   5    7.44    0.52
  -2  -6  -5    6.40    0.45
   2   6  -5    6.68    0.41
   6  -2  -5    6.10    0.43
   6  -2   5    6.32    0.43
  -2  -6   5    6.49    0.45
   2   6   5    6.04    0.41
   3   6  -5    5.41    0.34
  -3  -6  -5    5.19    0.37
   6  -3  -5    5.25    0.36
   3   6   5    4.84    0.34
  -3  -6   5    4.80    0.37
   6  -3   5    5.19    0.36
   4   6  -5    3.73    0.26
   6  -4  -5    3.67    0.28
  -4  -6  -5    3.86    0.29
   4   6   5    3.71    0.27
   6  -4   5    3.61    0.27
  -4  -6   5    3.68    0.29
   6  -5  -5    2.44    0.21
  -5  -6  -5    2.65    0.22
   5   6  -5    2.51    0.20
   5   6   5    2.64    0.21
   6  -5   5    2.39    0.20
  -5  -6   5    2.63    0.21
   7   4  -5    2.19    0.19
  -7  -4  -5    2.14    0.20
   7   4   5    2.58    0.20
   7   3  -5    2.35    0.20
  -7  -3  -5    2.74    0.22
   7   3   5    2.50    0.20
   7   2  -5    4.09    0.29
  -7  -2  -5    3.98    0.31
  -7  -1  -5    3.71    0.27
   7   1  -5    3.49    0.26
   7   1   5    3.12    0.25
   7   0  -5    4.21    0.30
   0  -7   5    4.20    0.32
   7   0   5    4.10    0.30
   7  -1  -5    3.10    0.24
  -1  -7  -5    3.04    0.25
  -1  -7   5    3.21    0.26
   7  -1   5    3.03    0.24
   7  -2  -5    3.45    0.27
  -2  -7  -5    3.77    0.28
  -2  -7   5    3.69    0.29
   2   7   5    3.47    0.26
   7  -2   5    3.83    0.27
  -3  -7  -5    2.25    0.20
   7  -3  -5    2.24    0.19
   3   7   5    2.09    0.18
   7  -3   5    2.22    0.19
  -3  -7   5    2.43    0.20
  -4  -7  -5    2.38    0.20
   4   7  -5    2.09    0.17
   7  -4  -5    2.03    0.18
   7  -4   5    2.06    0.18
  -4  -7   5    2.06    0.19
   4   7   5    2.27    0.18
   8   1   5    1.75    0.16
   8   0  -5    1.88    0.16
   8   0   5    1.85    0.16
   8  -1  -5    2.06    0.18
   8  -1   5    2.00    0.18
  -1  -8   5    2.35    0.20
  -2  -8  -5    1.60    0.17
   8  -2  -5    1.62    0.16
   8  -2   5    1.75    0.16
  -2  -8   5    1.94    0.17
   0   0  -6   31.91    2.06
   0   0  -6   34.43    2.07
   0   0  -6   32.76    2.23
   0   1  -6  122.97    7.45
   0   1  -6  136.57    7.47
  -1   0  -6  119.68    7.45
   1   0  -6  105.48    7.09
   1   0  -6  116.36    8.07
   0  -1  -6  138.24    7.11
  -1   0  -6  108.95    8.09
   0   1  -6  137.33    8.12
   0  -1  -6  108.22    7.50
   1   0  -6  104.82    7.45
   1   0   6  123.18    7.50
   1   0   6  104.92    8.09
   0  -1   6  105.55    8.10
  -1   0   6  140.08    8.08
   0  -1   6  127.50    7.45
   1   0   6  139.62    7.48
   1  -1  -6   44.93    2.92
  -1  -1  -6   51.90    2.79
  -1  -1  -6   45.87    3.17
  -1   1  -6   47.49    3.22
   1   1  -6   50.55    2.79
  -1  -1  -6   43.93    3.05
   1  -1  -6   52.68    2.95
   1   1  -6   52.13    2.93
   1   1  -6   50.02    2.92
   1  -1  -6   47.62    2.94
  -1  -1  -6   48.74    2.93
   1  -1  -6   48.34    2.80
   1   1   6   47.19    2.97
   1  -1   6   47.05    2.94
   1  -1   6   44.97    2.92
  -1  -1   6   44.02    2.92
  -1  -1   6   46.22    3.18
  -1   1   6   39.16    2.93
   2   1  -6  102.62    5.83
   1  -2  -6   95.93    5.84
  -2  -1  -6   89.44    6.06
   1  -2  -6   92.45    5.54
   1  -2  -6   81.61    5.84
   1  -2  -6   96.04    5.79
  -2  -1  -6   95.06    5.53
  -1   2  -6   84.25    5.81
  -1   2  -6  102.16    6.39
   2   1  -6  100.88    5.81
   2   1  -6   97.06    5.53
  -2  -1  -6   91.52    6.32
   2   1  -6  100.65    5.80
  -1   2  -6   88.21    6.09
  -2  -1  -6   92.63    5.80
  -2  -1   6  101.51    6.05
  -2  -1   6   96.25    6.30
   1  -2   6   97.31    5.83
   2   1   6   87.73    5.85
   2   1   6   94.29    5.83
   2   0  -6   25.13    1.46
  -2   0  -6   23.10    1.38
  -2   0  -6   23.91    1.45
   0   2  -6   24.16    1.38
  -2   0  -6   20.74    1.60
   2   0  -6   24.90    1.39
   2   0  -6   25.08    1.46
   2   0  -6   22.63    1.45
  -2   0  -6   19.75    1.53
   0  -2  -6   23.24    1.45
   0  -2  -6   22.52    1.50
   0  -2  -6   25.08    1.39
   0   2  -6   24.48    1.46
   2   0   6   22.83    1.47
   2   0   6   23.55    1.46
   0  -2   6   24.29    1.52
  -2   0   6   24.26    1.57
   0  -2   6   19.65    1.60
   2  -1  -6   99.61    5.54
  -1  -2  -6   97.14    5.26
  -1  -2  -6   83.11    5.99
   2  -1  -6   77.96    5.26
   1   2  -6  101.25    5.52
  -2   1  -6   95.32    5.53
  -2   1  -6   80.25    5.79
   1   2  -6   97.64    5.25
  -1  -2  -6   90.96    5.76
  -1  -2  -6   94.92    5.51
  -2   1  -6   88.06    6.04
   1   2  -6   88.08    5.52
   2  -1  -6   78.31    5.51
  -2   1   6   92.48    5.98
  -1  -2   6   88.04    6.01
   2  -1   6   93.50    5.55
   2  -1   6   87.34    5.52
   1   2   6   93.31    5.58
   1   2   6   82.02    5.98
  -1  -2   6   84.68    5.52
  -2   2  -6   15.64    1.19
   2   2  -6   17.27    1.02
  -2   2  -6   14.60    1.03
  -2  -2  -6   15.97    1.02
   2   2  -6   17.80    1.02
   2  -2  -6   18.27    1.03
   2   2  -6   16.55    0.97
   2  -2  -6   16.60    1.04
  -2   2  -6   15.41    1.11
  -2  -2  -6   17.00    0.98
  -2  -2  -6   16.41    1.07
   2  -2  -6   16.70    1.01
  -2  -2  -6   16.45    1.12
   2  -2  -6   13.95    0.98
   2  -2   6   15.87    1.01
  -2  -2   6   16.73    1.13
   2   2   6   16.04    1.05
  -2  -2   6   17.52    1.06
  -2   2   6   15.22    1.10
   2   2   6   14.99    1.04
   2  -2   6   16.91    1.03
  -2   3  -6   49.77    3.40
  -3  -2  -6   48.63    3.18
   3   2  -6   49.65    3.04
  -3  -2  -6   50.13    2.91
   2  -3  -6   51.41    2.90
   3   2  -6   51.27    3.04
   2  -3  -6   42.14    3.07
   2  -3  -6   52.17    3.06
  -3  -2  -6   47.93    3.04
   3   2  -6   48.23    2.89
   2  -3  -6   49.45    3.02
  -3  -2  -6   50.93    3.32
  -3  -2   6   50.04    3.31
  -2   3   6   43.27    3.29
   3   2   6   48.51    3.06
   3   2   6   49.39    3.07
   2  -3   6   50.77    3.05
  -3  -2   6   51.30    3.17
   3   1  -6   21.47    1.33
  -3  -1  -6   21.62    1.32
   3   1  -6   21.01    1.33
  -3  -1  -6   20.56    1.27
  -3  -1  -6   21.70    1.39
   3   1  -6   22.06    1.27
   1  -3  -6   20.91    1.34
  -1   3  -6   20.98    1.54
   3   1  -6   22.07    1.32
  -3  -1  -6   21.01    1.47
  -1   3  -6   21.00    1.33
   1  -3  -6   21.80    1.27
   1  -3  -6   18.60    1.37
   1  -3  -6   21.93    1.32
   3   1   6   22.34    1.35
  -3  -1   6   20.94    1.45
   3   1   6   20.76    1.34
  -3  -1   6   21.30    1.37
   1  -3   6   21.14    1.32
  -3   0  -6   63.83    4.33
   3   0  -6   69.08    3.94
   0  -3  -6   75.54    4.50
   0   3  -6   70.65    4.13
   0  -3  -6   70.66    3.94
   3   0  -6   66.21    4.13
   0  -3  -6   66.08    4.12
   0   3  -6   69.71    3.92
  -3   0  -6   61.23    3.93
  -3   0  -6   66.92    4.52
  -3   0  -6   67.66    4.12
   3   0  -6   67.60    4.14
   0  -3  -6   66.35    4.30
   3   0  -6   66.32    4.15
   3   0   6   68.32    4.16
  -3   0   6   67.06    4.48
   3   0   6   68.49    4.15
   0   3   6   65.93    4.47
   0   3   6   59.25    4.21
   0  -3   6   68.17    4.32
   0  -3   6   62.03    4.52
   3  -1  -6   21.27    1.34
  -1  -3  -6   21.40    1.46
  -1  -3  -6   20.94    1.34
   3  -1  -6   23.41    1.35
   3  -1  -6   19.81    1.28
  -3   1  -6   20.81    1.51
  -1  -3  -6   20.89    1.39
   1   3  -6   21.32    1.27
   1   3  -6   20.51    1.34
  -1  -3  -6   21.96    1.28
  -3   1  -6   22.63    1.34
   1   3   6   22.16    1.40
  -1  -3   6   22.69    1.40
   3  -1   6   21.75    1.35
  -3   1   6   20.02    1.45
   3  -1   6   21.62    1.34
  -1  -3   6   21.30    1.49
  -3   2  -6   47.15    3.33
  -2  -3  -6   51.23    2.87
   2   3  -6   51.47    3.00
  -2  -3  -6   46.27    2.99
  -3   2  -6   44.24    2.99
   3  -2  -6   48.22    2.86
  -2  -3  -6   47.64    3.26
  -2  -3  -6   48.64    3.13
   2   3  -6   48.56    2.85
   3  -2  -6   50.90    3.01
   2   3  -6   50.67    2.99
  -3   2  -6   42.36    3.16
   3  -2  -6   51.09    3.02
   2   3   6   50.67    3.04
  -2  -3   6   50.65    3.13
   3  -2   6   48.19    3.00
   3  -2   6   48.58    3.01
  -2  -3   6   50.32    3.28
  -3   2   6   47.90    3.25
   2   3   6   45.01    3.02
  -3  -3  -6   11.49    0.77
   3  -3  -6   10.75    0.70
   3   3  -6   12.29    0.74
   3   3  -6   11.47    0.70
  -3   3  -6   12.49    0.83
   3  -3  -6   11.37    0.76
  -3  -3  -6   11.67    0.82
  -3  -3  -6   11.48    0.72
   3   3  -6   11.40    0.73
  -3   3  -6   11.90    0.92
  -3  -3  -6   11.38    0.74
   3  -3  -6   12.49    0.75
   3   3   6   11.34    0.77
  -3  -3   6   11.31    0.82
  -3   3   6   10.49    0.80
  -3  -3   6   12.10    0.77
   3   3   6   11.08    0.74
   3  -3   6   11.82    0.74
  -4  -3  -6   24.06    1.53
   4   3  -6   23.81    1.40
  -3   4  -6   24.07    1.60
  -3   4  -6   23.45    1.72
   4   3  -6   23.38    1.46
   3  -4  -6   25.79    1.48
  -4  -3  -6   23.58    1.62
   4   3  -6   23.47    1.46
   3  -4  -6   21.10    1.49
  -4  -3   6   23.57    1.52
  -4  -3   6   21.97    1.61
   4   3   6   23.48    1.49
   3  -4   6   22.67    1.46
   4   3   6   22.87    1.40
  -4  -2  -6    7.13    0.50
  -4  -2  -6    7.22    0.55
   2  -4  -6    7.08    0.45
   2  -4  -6    7.87    0.52
   2  -4  -6    7.42    0.49
   4   2  -6    7.26    0.47
   4   2  -6    7.29    0.46
  -4  -2  -6    7.02    0.47
  -2   4  -6    7.56    0.66
   4   2  -6    7.06    0.48
  -4  -2   6    6.80    0.53
   4   2   6    7.68    0.48
  -4  -2   6    7.29    0.49
   4   2   6    7.27    0.50
   4   2   6    7.11    0.46
   4   1  -6   38.22    2.23
   4   1  -6   38.60    2.33
   4   1  -6   38.62    2.34
  -1   4  -6   37.61    2.34
  -1   4  -6   38.83    2.66
  -4  -1  -6   37.02    2.45
  -4  -1  -6   38.12    2.58
   1  -4  -6   35.62    2.36
   1  -4  -6   37.90    2.22
  -4  -1  -6   37.79    2.33
   4   1  -6   38.58    2.34
   1  -4   6   33.52    2.45
   4   1   6   39.64    2.36
   4   1   6   38.58    2.35
   4   1   6   36.99    2.22
  -4  -1   6   37.46    2.55
  -4  -1   6   37.71    2.43
   0  -4  -6    9.35    0.60
  -4   0  -6    9.25    0.71
   0  -4  -6    8.89    0.62
   0   4  -6    9.87    0.61
   0  -4  -6   10.02    0.67
  -4   0  -6    9.35    0.60
   4   0  -6    9.65    0.60
   4   0  -6    9.77    0.58
   4   0  -6    8.94    0.61
  -4   0  -6    8.99    0.65
   0  -4  -6    9.37    0.58
   4   0   6    9.79    0.62
   0  -4   6   10.00    0.72
   0   4   6    9.57    0.68
   0  -4   6    9.72    0.64
  -4   0   6    9.01    0.66
   4   0   6    8.65    0.57
   4   0   6    9.22    0.61
   1   4  -6   37.63    2.23
   4  -1  -6   36.91    2.25
  -4   1  -6   39.36    2.62
  -1  -4  -6   36.89    2.45
  -4   1  -6   34.97    2.48
   4  -1  -6   38.64    2.36
   4  -1  -6   38.97    2.36
  -1  -4  -6   37.18    2.35
   1   4  -6   38.67    2.36
  -1  -4  -6   37.39    2.25
   4  -1   6   37.63    2.37
   1   4   6   37.91    2.40
  -4   1   6   36.50    2.56
  -1  -4   6   42.43    2.61
  -1  -4   6   37.80    2.46
   4  -1   6   38.25    2.36
   4  -2  -6    7.47    0.46
   2   4  -6    7.17    0.45
   2   4  -6    7.34    0.48
  -4   2  -6    6.73    0.59
  -4   2  -6    6.19    0.52
  -2  -4  -6    6.87    0.47
  -2  -4  -6    7.87    0.54
   4  -2  -6    7.52    0.48
  -2  -4  -6    7.07    0.49
  -2  -4  -6    7.03    0.46
  -2  -4   6    7.53    0.56
   2   4   6    7.13    0.50
   4  -2   6    7.41    0.48
   4  -2   6    7.13    0.47
  -2  -4   6    7.17    0.49
  -4   2   6    6.71    0.51
  -4   3  -6   23.21    1.65
   4  -3  -6   22.27    1.44
   3   4  -6   24.11    1.43
   3   4  -6   23.12    1.36
   4  -3  -6   23.56    1.43
  -3  -4  -6   23.09    1.57
  -3  -4  -6   23.08    1.49
  -4   3  -6   19.26    1.52
   3   4   6   22.69    1.45
   4  -3   6   23.43    1.43
  -3  -4   6   21.48    1.57
  -3  -4   6   22.99    1.48
   4   4  -6    3.69    0.25
  -4   4  -6    2.95    0.32
   4  -4  -6    3.12    0.28
  -4  -4  -6    3.63    0.28
   4  -4  -6    3.93    0.27
  -4  -4  -6    3.54    0.31
  -4  -4   6    3.64    0.27
   4   4   6    3.54    0.26
   4  -4   6    3.62    0.25
   5   4  -6   10.23    0.65
  -5  -4  -6    9.91    0.71
   4  -5  -6   10.99    0.68
   5   4   6   10.82    0.65
  -5  -4   6    9.94    0.70
  -3   5  -6    5.02    0.43
   5   3  -6    4.87    0.32
   3  -5  -6    4.75    0.34
  -5  -3  -6    4.48    0.35
   5   3   6    5.01    0.33
  -5  -3   6    4.62    0.34
  -2   5  -6   17.26    1.36
  -5  -2  -6   18.23    1.28
   5   2  -6   17.41    1.15
   2  -5  -6   19.00    1.16
  -5  -2  -6   18.26    1.20
   5   2  -6   18.53    1.10
   5   2   6   17.23    1.14
   5   2   6   19.37    1.15
  -5  -2   6   17.28    1.26
   5   2   6   18.68    1.09
   5   1  -6    6.86    0.47
  -1   5  -6    6.58    0.48
  -1   5  -6    7.40    0.66
   5   1  -6    7.45    0.45
   1  -5  -6    7.11    0.44
   5   1  -6    7.56    0.47
  -5  -1  -6    7.47    0.50
  -5  -1  -6    7.26    0.56
  -5  -1   6    6.46    0.52
   5   1   6    7.33    0.44
   5   1   6    6.98    0.48
   5   1   6    7.32    0.48
   1  -5   6    6.44    0.50
   0  -5  -6   22.96    1.35
   5   0  -6   23.30    1.36
  -5   0  -6   22.51    1.60
  -5   0  -6   23.45    1.50
   0   5  -6   23.30    1.43
   0  -5  -6   21.63    1.48
   5   0  -6   23.89    1.43
   5   0  -6   21.68    1.43
   5   0   6   23.01    1.44
  -5   0   6   21.53    1.55
   0  -5   6   23.55    1.50
   0   5   6   20.91    1.47
   0  -5   6   24.65    1.60
   5   0   6   23.12    1.43
   0   5   6   21.03    1.42
  -1  -5  -6    7.06    0.45
   5  -1  -6    6.93    0.47
   5  -1  -6    7.44    0.46
  -5   1  -6    7.33    0.58
   1   5  -6    7.08    0.43
  -5   1  -6    6.93    0.50
  -1  -5  -6    6.91    0.48
   1   5  -6    7.04    0.47
   5  -1  -6    7.20    0.47
   1   5   6    6.85    0.49
  -1  -5   6    7.65    0.57
  -1  -5   6    7.14    0.49
   1   5   6    6.41    0.47
   5  -1   6    7.20    0.47
  -5   1   6    6.69    0.51
   5  -1   6    6.42    0.47
   2   5  -6   19.11    1.06
  -2  -5  -6   17.94    1.07
  -5   2  -6   17.47    1.19
   5  -2  -6   17.16    1.12
   5  -2  -6   17.34    1.13
  -2  -5  -6   17.84    1.17
   5  -2   6   18.83    1.13
   2   5   6   16.67    1.14
  -2  -5   6   17.86    1.17
   2   5   6   16.75    1.13
   5  -3  -6    4.55    0.31
  -3  -5  -6    4.56    0.33
   3   5  -6    4.67    0.30
  -5   3  -6    3.73    0.35
   5  -3   6    4.49    0.31
  -3  -5   6    4.27    0.32
   3   5   6    4.20    0.30
  -4  -5  -6   10.16    0.69
   5  -4  -6   10.28    0.66
   4   5  -6   10.15    0.63
   5  -4   6   10.02    0.65
  -4  -5   6    9.99    0.68
   4   5   6    9.59    0.63
  -5  -5  -6    2.10    0.20
   5  -5  -6    2.30    0.20
   5   5  -6    2.28    0.19
  -5  -5   6    2.18    0.19
   5   5   6    2.31    0.20
   5  -5   6    1.97    0.18
  -6  -5  -6    4.21    0.32
   6   5  -6    4.06    0.29
   6   5   6    4.72    0.31
  -6  -5   6    3.88    0.31
  -6  -4  -6    1.50    0.16
   6   4  -6    1.32    0.15
   6   4   6    1.63    0.16
   6   3  -6    8.77    0.57
  -3   6  -6    9.26    0.70
  -6  -3  -6    8.93    0.62
   6   3   6    9.16    0.57
  -6  -2  -6    2.55    0.22
  -2   6  -6    2.47    0.32
   6   2  -6    2.60    0.20
   6   2   6    2.42    0.20
   6   2   6    2.50    0.19
  -6  -1  -6   12.24    0.82
   6   1  -6   12.08    0.77
   6   1  -6   12.35    0.75
   6   1   6   11.67    0.78
   6   0  -6    3.16    0.23
   0  -6  -6    2.93    0.21
  -6   0  -6    2.89    0.24
   6   0  -6    2.96    0.22
   6   0   6    2.77    0.23
   0  -6   6    2.90    0.25
  -1  -6  -6   11.61    0.79
  -6   1  -6   12.01    0.80
   6  -1  -6   11.36    0.76
  -1  -6   6   12.41    0.80
   6  -1   6   11.74    0.77
   6  -2  -6    2.35    0.20
   2   6  -6    2.37    0.18
  -2  -6  -6    2.50    0.20
   2   6   6    2.18    0.19
   6  -2   6    2.52    0.20
  -2  -6   6    2.51    0.21
  -3  -6  -6    8.43    0.58
   3   6  -6    8.42    0.53
   6  -3  -6    8.94    0.56
   6  -3   6    8.53    0.56
  -3  -6   6    7.94    0.58
   3   6   6    7.98    0.53
   4   6  -6    1.46    0.14
   6  -4  -6    1.38    0.15
  -4  -6  -6    1.47    0.16
   6  -4   6    1.36    0.14
  -4  -6   6    1.32    0.15
   4   6   6    1.37    0.15
   5   6  -6    4.02    0.29
   6  -5  -6    4.15    0.30
  -5  -6  -6    4.14    0.31
   5   6   6    4.34    0.30
   6  -5   6    3.86    0.29
  -5  -6   6    4.08    0.31
  -7  -4  -6    3.77    0.30
   7   4  -6    3.72    0.28
   7   4   6    4.06    0.28
  -7  -3  -6    1.61    0.17
   7   3  -6    1.82    0.17
   7   3   6    1.80    0.16
   7   2  -6    6.22    0.39
  -7  -2  -6    6.16    0.42
  -2   7  -6    4.68    0.48
  -7  -1  -6    2.38    0.20
   7   1  -6    2.28    0.20
  -1   7  -6    2.86    0.35
   7   1   6    2.11    0.19
   7   0  -6    6.83    0.45
   7   0   6    6.51    0.45
   0  -7   6    6.42    0.47
  -1  -7  -6    2.06    0.19
   7  -1  -6    2.44    0.19
   7  -1   6    2.02    0.19
  -1  -7   6    2.30    0.21
  -2  -7  -6    5.62    0.40
   7  -2  -6    5.61    0.39
   2   7   6    5.07    0.36
  -2  -7   6    5.93    0.41
   7  -3  -6    1.47    0.15
  -3  -7  -6    1.53    0.16
  -3  -7   6    1.48    0.16
   3   7   6    1.38    0.14
   7  -3   6    1.55    0.15
  -4  -7  -6    3.57    0.27
   7  -4  -6    3.32    0.26
   4   7  -6    3.36    0.24
   7  -4   6    3.46    0.25
  -4  -7   6    3.26    0.26
   4   7   6    3.36    0.25
  -1   8  -6    2.76    0.31
   8   1   6    2.77    0.22
   8   0  -6    0.66    0.09
   0   8  -6    1.01    0.23
   8   0   6    0.62    0.10
   8  -1  -6    3.02    0.24
  -1  -8   6    3.55    0.26
   8  -1   6    3.11    0.24
   0   0  -7  161.53   10.30
   0   0  -7  173.66   10.34
   0   0  -7  171.01    9.82
   0   0  -7  164.65   11.18
   0   1  -7   23.12    1.33
  -1   0  -7   19.15    1.46
   0  -1  -7   23.25    1.34
  -1   0  -7   20.26    1.52
   1   0  -7   23.15    1.33
   0  -1  -7   25.62    1.40
  -1   0  -7   23.88    1.33
   0  -1  -7   21.37    1.42
  -1   0  -7   21.13    1.40
   0   1  -7   22.20    1.40
   0   1  -7   25.35    1.48
   1   0  -7   20.08    1.50
   1   0  -7   24.60    1.40
   0  -1   7   21.88    1.39
   0  -1   7   19.87    1.52
  -1   0   7   23.34    1.50
   1   0   7   21.64    1.42
   1   0   7   24.52    1.42
   0  -1   7   18.91    1.40
  -1  -1  -7  158.53   11.01
  -1   1  -7  180.75   11.49
  -1  -1  -7  184.86   10.05
   1  -1  -7  150.83   10.54
  -1  -1  -7  182.32   10.55
   1   1  -7  189.06   10.05
   1   1  -7  180.72   10.55
   1   1  -7  184.05   10.56
   1  -1  -7  175.44   10.05
  -1  -1  -7  164.52   11.44
   1  -1  -7  144.66   10.60
   1  -1   7  181.28   10.57
   1  -1   7  163.87   10.56
  -1  -1   7  165.95   11.45
  -1  -1   7  190.41   11.01
  -1  -1   7  154.00   10.56
   1  -1   7  168.60   10.60
  -2  -1  -7   15.31    1.08
   1  -2  -7   14.78    0.99
  -1   2  -7   17.46    1.20
  -2  -1  -7   16.57    0.99
   1  -2  -7   16.23    1.05
   1  -2  -7   14.80    1.06
  -2  -1  -7   16.27    1.14
  -2  -1  -7   16.20    1.03
   2   1  -7   16.79    1.04
   2   1  -7   17.75    1.04
  -1   2  -7   15.20    1.11
   1  -2  -7   16.85    1.03
   2   1  -7   17.07    0.99
   2   1  -7   16.99    1.03
   2   1   7   16.70    1.06
   2   1   7   15.43    1.06
  -2  -1   7   17.03    1.13
   1  -2   7   16.46    1.04
  -2  -1   7   18.35    1.07
   0   2  -7  123.48    7.02
   2   0  -7  100.28    7.02
  -2   0  -7  114.74    6.68
   2   0  -7  115.70    6.69
   0  -2  -7  119.28    7.01
  -2   0  -7  115.45    7.02
  -2   0  -7  102.22    7.64
   0  -2  -7  116.36    6.69
   2   0  -7  119.03    7.03
   0   2  -7  119.37    6.68
   0  -2  -7  111.48    7.32
   2   0  -7  126.84    7.05
   2   0   7  116.11    7.04
  -2   0   7  120.05    7.61
   2   0   7  109.53    7.06
   0  -2   7   94.98    7.64
   0  -2   7  115.79    7.33
  -1  -2  -7   16.30    1.06
  -1  -2  -7   16.42    1.02
   2  -1  -7   17.47    1.02
   2  -1  -7   13.53    0.98
   1   2  -7   17.25    1.01
  -2   1  -7   14.85    1.15
   1   2  -7   17.58    1.02
   2  -1  -7   16.78    1.03
  -1  -2  -7   16.98    0.98
  -1  -2  -7   14.94    1.10
   1   2  -7   17.38    0.97
  -2   1  -7   15.14    1.09
   2  -1   7   16.56    1.02
  -1  -2   7   14.27    1.01
   1   2   7   16.04    1.08
  -2   1   7   16.54    1.09
   2  -1   7   15.88    1.03
  -1  -2   7   15.04    1.13
  -1  -2   7   18.15    1.06
   2   2  -7   83.13    4.90
  -2  -2  -7   83.75    5.37
   2  -2  -7   84.10    5.17
  -2  -2  -7   85.34    4.91
   2  -2  -7   85.83    5.13
   2   2  -7   85.61    5.15
  -2  -2  -7   80.74    5.14
  -2   2  -7   78.24    5.15
   2  -2  -7   90.09    5.18
   2  -2  -7   74.97    4.90
   2   2  -7   89.88    5.15
  -2   2  -7   77.45    5.41
  -2   2  -7   91.49    5.67
  -2  -2  -7   82.27    5.59
   2  -2   7   81.43    5.14
   2  -2   7   85.32    5.17
   2   2   7   84.45    5.19
   2   2   7   74.94    5.19
  -2  -2   7   88.83    5.37
  -2   2   7   83.36    5.57
  -2  -2   7   83.51    5.60
   2  -3  -7    6.84    0.55
  -3  -2  -7    7.90    0.51
  -3  -2  -7    8.17    0.59
  -2   3  -7    8.99    0.69
   3   2  -7    8.10    0.50
   2  -3  -7    7.84    0.51
  -3  -2  -7    7.82    0.52
  -3  -2  -7    8.50    0.56
   2  -3  -7    8.86    0.54
   3   2  -7    9.04    0.53
   3   2  -7    7.74    0.52
   2  -3  -7    8.07    0.51
   3   2   7    7.44    0.54
   2  -3   7    8.36    0.52
  -3  -2   7    8.31    0.54
   3   2   7    7.94    0.56
  -3  -2   7    8.06    0.59
  -1   3  -7   93.74    5.68
  -1   3  -7   98.60    5.97
   1  -3  -7   83.70    5.43
   1  -3  -7   87.50    5.38
   3   1  -7   89.29    5.14
   1  -3  -7   88.24    5.15
  -3  -1  -7   81.37    5.64
  -1   3  -7   83.33    5.40
  -3  -1  -7   87.59    5.89
  -3  -1  -7   83.82    5.15
   3   1  -7   90.07    5.42
  -3  -1  -7   83.66    5.39
   3   1  -7   87.58    5.41
   3   1  -7   92.42    5.40
   3   1   7   83.91    5.43
  -3  -1   7   87.00    5.62
   3   1   7   88.74    5.43
  -3  -1   7   89.80    5.86
   1  -3   7   85.80    5.41
   0  -3  -7   11.62    0.68
   0  -3  -7   10.83    0.72
  -3   0  -7   11.37    0.70
   3   0  -7   11.57    0.68
   0  -3  -7   11.35    0.70
   0   3  -7   11.73    0.66
   0   3  -7   12.43    0.71
  -3   0  -7    9.97    0.75
  -3   0  -7   10.67    0.80
   3   0  -7   10.31    0.70
  -3   0  -7    9.85    0.66
   3   0  -7   10.97    0.70
   3   0  -7   11.42    0.71
  -3   0   7   11.01    0.76
   0  -3   7   10.33    0.80
   3   0   7   11.36    0.72
   0  -3   7   11.32    0.74
   3   0   7   11.06    0.72
   0   3   7    9.56    0.78
  -1  -3  -7   90.43    5.04
  -1  -3  -7   93.15    5.74
   1   3  -7   89.10    5.03
  -3   1  -7   71.89    5.54
  -3   1  -7   85.12    5.79
  -1  -3  -7   81.44    5.51
  -3   1  -7   86.99    5.28
   3  -1  -7   86.67    5.30
   1   3  -7   88.02    5.29
   3  -1  -7   77.81    5.04
  -1  -3  -7   83.61    5.28
   3  -1  -7   85.54    5.31
   1   3   7   90.18    5.36
  -1  -3   7   87.51    5.78
   3  -1   7   86.61    5.32
  -1  -3   7   90.42    5.52
  -3   1   7   84.95    5.73
   3  -1   7   85.94    5.30
  -3   2  -7    8.41    0.60
   3  -2  -7    8.40    0.54
  -2  -3  -7    7.90    0.51
   2   3  -7    8.03    0.50
   2   3  -7    8.56    0.53
   2   3  -7    7.99    0.52
  -3   2  -7    8.43    0.66
  -2  -3  -7    8.15    0.53
  -2  -3  -7    8.15    0.55
  -2  -3  -7    7.67    0.58
   3  -2  -7    8.53    0.53
   3  -2  -7    8.22    0.51
   3  -2   7    7.87    0.52
   2   3   7    8.17    0.57
  -2  -3   7    8.68    0.55
   2   3   7    7.12    0.55
  -2  -3   7    7.93    0.60
   3  -2   7    8.09    0.53
  -3   2   7    7.79    0.57
  -3   3  -7   52.50    3.26
  -3  -3  -7   49.31    3.07
  -3  -3  -7   50.40    3.21
  -3   3  -7   53.28    3.44
   3   3  -7   51.11    3.07
  -3  -3  -7   50.47    3.35
   3  -3  -7   45.80    3.09
   3  -3  -7   44.52    2.92
   3   3  -7   49.55    3.07
   3   3  -7   48.97    2.92
  -3  -3  -7   48.94    2.94
   3  -3  -7   52.22    3.09
   3   3   7   48.02    3.09
  -3  -3   7   50.16    3.20
   3  -3   7   49.57    3.08
  -3  -3   7   47.48    3.35
   3   3   7   51.01    3.11
  -3   4  -7    3.68    0.34
   3  -4  -7    3.57    0.26
   4   3  -7    3.16    0.24
  -3   4  -7    3.46    0.41
  -4  -3  -7    3.31    0.24
  -4  -3  -7    3.64    0.30
  -4  -3  -7    3.28    0.26
   3  -4  -7    3.15    0.27
   4   3  -7    3.18    0.24
   4   3  -7    3.33    0.25
  -4  -3   7    3.25    0.24
  -4  -3   7    2.94    0.28
   4   3   7    3.52    0.24
   3  -4   7    3.21    0.23
   4   3   7    3.27    0.27
   4   3   7    3.38    0.24
  -2   4  -7   42.08    2.69
   4   2  -7   37.69    2.35
   4   2  -7   37.02    2.36
  -4  -2  -7   37.47    2.59
  -4  -2  -7   36.91    2.35
   2  -4  -7   38.31    2.38
   4   2  -7   36.99    2.25
   2  -4  -7   42.11    2.41
   2  -4  -7   37.71    2.24
  -4  -2  -7   37.60    2.47
   4   2   7   37.48    2.37
   4   2   7   36.71    2.38
  -4  -2   7   36.52    2.57
  -4  -2   7   37.50    2.45
   4   1  -7    5.99    0.39
  -4  -1  -7    5.95    0.39
   4   1  -7    6.03    0.38
   4   1  -7    5.87    0.39
   1  -4  -7    5.63    0.38
  -1   4  -7    6.12    0.40
   1  -4  -7    5.47    0.40
   4   1  -7    6.00    0.39
  -4  -1  -7    5.77    0.42
   1  -4  -7    6.00    0.37
  -4  -1  -7    5.72    0.46
  -1   4  -7    6.10    0.56
   4   1   7    6.05    0.41
   4   1   7    5.71    0.37
  -4  -1   7    5.64    0.43
   4   1   7    5.83    0.40
   0  -4  -7   47.37    2.96
   4   0  -7   48.39    2.98
  -4   0  -7   48.41    3.27
   0   4  -7   50.83    2.98
   0  -4  -7   49.53    2.83
   0  -4  -7   45.53    3.09
   4   0  -7   48.51    2.83
  -4   0  -7   48.54    2.96
   4   0  -7   47.63    2.98
  -4   0  -7   46.24    3.12
  -4   0   7   46.73    3.22
   0  -4   7   48.59    3.11
   4   0   7   48.71    2.99
   4   0   7   50.06    2.99
   4   0   7   43.91    2.82
   0  -4   7   51.30    3.28
   0   4   7   45.71    3.05
   1   4  -7    6.09    0.40
  -4   1  -7    5.74    0.44
   4  -1  -7    6.12    0.40
   4  -1  -7    5.71    0.39
  -1  -4  -7    5.72    0.39
   1   4  -7    5.76    0.36
  -4   1  -7    5.65    0.49
  -1  -4  -7    5.83    0.38
  -1  -4  -7    5.61    0.40
   4  -1  -7    5.70    0.39
   1   4   7    6.10    0.45
  -4   1   7    5.73    0.43
   4  -1   7    6.09    0.40
  -1  -4   7    5.20    0.47
   4  -1   7    5.92    0.40
  -1  -4   7    6.37    0.42
  -2  -4  -7   36.38    2.40
  -2  -4  -7   41.74    2.52
  -2  -4  -7   37.58    2.21
   4  -2  -7   36.50    2.31
   4  -2  -7   36.67    2.32
   2   4  -7   37.47    2.19
  -2  -4  -7   36.59    2.30
   2   4  -7   37.70    2.31
  -4   2  -7   31.86    2.43
   4  -2  -7   38.94    2.21
  -4   2  -7   38.74    2.59
   4  -2   7   38.23    2.32
   2   4   7   37.79    2.35
  -2  -4   7   37.04    2.40
   4  -2   7   36.79    2.30
  -4   2   7   35.09    2.50
  -2  -4   7   35.35    2.54
   4  -3  -7    3.22    0.24
   3   4  -7    3.40    0.23
  -4   3  -7    2.59    0.29
  -3  -4  -7    2.94    0.23
   4  -3  -7    3.35    0.25
   3   4  -7    3.33    0.24
  -4   3  -7    3.45    0.38
  -3  -4  -7    3.05    0.25
  -3  -4  -7    2.89    0.24
  -3  -4  -7    3.30    0.27
  -3  -4   7    3.28    0.24
   3   4   7    3.16    0.26
   4  -3   7    3.29    0.24
  -3  -4   7    3.06    0.29
  -4  -4  -7   19.13    1.25
   4   4  -7   18.50    1.14
  -4   4  -7   18.87    1.30
  -4  -4  -7   18.78    1.32
   4  -4  -7   19.60    1.20
  -4  -4   7   18.61    1.24
   4   4   7   19.35    1.15
   4  -4   7   18.30    1.19
   4  -5  -7    1.16    0.14
  -5  -4  -7    1.16    0.15
   5   4  -7    1.32    0.14
  -4   5  -7    1.52    0.23
   5   4   7    1.33    0.15
  -5  -4   7    1.06    0.13
   3  -5  -7   20.60    1.29
  -5  -3  -7   19.46    1.34
   5   3  -7   20.39    1.22
  -3   5  -7   20.75    1.41
   5   3   7   21.10    1.23
  -5  -3   7   19.54    1.32
  -5  -2  -7    2.41    0.21
   5   2  -7    2.18    0.19
  -5  -2  -7    2.52    0.25
   2  -5  -7    2.57    0.21
  -2   5  -7    2.10    0.30
   5   2  -7    2.58    0.19
   5   2   7    2.55    0.20
   5   2   7    2.69    0.19
  -5  -2   7    2.37    0.24
   5   1  -7   30.89    1.79
   5   1  -7   28.34    1.87
  -5  -1  -7   29.26    1.96
  -5  -1  -7   29.88    2.07
   5   1  -7   31.27    1.87
   1  -5  -7   30.45    1.78
  -1   5  -7   28.31    1.88
  -1   5  -7   32.62    2.17
   5   1   7   30.66    1.89
   5   1   7   30.01    1.88
  -5  -1   7   27.97    2.04
   5   1   7   30.52    1.78
   0   5  -7    3.31    0.24
  -5   0  -7    3.03    0.26
   0  -5  -7    3.27    0.22
   5   0  -7    3.27    0.23
   5   0  -7    2.88    0.23
   5   0  -7    3.24    0.23
  -5   0  -7    3.04    0.31
   0  -5  -7    3.04    0.23
   5   0   7    3.22    0.24
   5   0   7    3.29    0.24
   0  -5   7    3.23    0.26
   0  -5   7    3.62    0.31
  -5   0   7    3.13    0.26
   0   5   7    3.03    0.28
   0   5   7    2.70    0.23
  -5   1  -7   29.36    1.96
  -1  -5  -7   31.04    1.78
   5  -1  -7   28.45    1.86
   1   5  -7   31.06    1.76
  -1  -5  -7   29.42    1.94
   5  -1  -7   29.25    1.86
   1   5  -7   31.07    1.86
   5  -1  -7   28.93    1.78
  -5   1  -7   30.65    2.09
   1   5   7   25.98    1.86
   5  -1   7   30.31    1.87
   5  -1   7   29.85    1.87
  -1  -5   7   31.99    2.08
   1   5   7   28.38    1.90
  -1  -5   7   31.72    1.95
  -5   1   7   29.14    2.02
  -2  -5  -7    2.38    0.19
   2   5  -7    2.58    0.18
   5  -2  -7    2.19    0.19
  -5   2  -7    2.02    0.23
  -2  -5  -7    2.45    0.19
   2   5   7    2.25    0.21
  -2  -5   7    2.41    0.20
   5  -2   7    2.30    0.19
   3   5  -7   20.15    1.14
  -3  -5  -7   19.79    1.26
   5  -3  -7   19.84    1.21
  -5   3  -7   16.04    1.28
   5  -3   7   19.17    1.20
  -3  -5   7   18.80    1.25
   4   5  -7    1.20    0.13
  -4  -5  -7    1.26    0.15
   5  -4  -7    1.10    0.14
   5  -4   7    1.12    0.13
  -4  -5   7    1.21    0.14
   4   5   7    1.19    0.14
   5  -5  -7    9.07    0.62
  -5  -5  -7    9.52    0.65
   5   5  -7    9.43    0.59
   5   5   7   10.19    0.61
  -5  -5   7    8.89    0.64
   6   5  -7    0.49    0.09
  -6  -5  -7    0.53    0.11
   6   5   7    0.64    0.11
  -6  -5   7    0.38    0.08
   6   4  -7    7.67    0.51
  -6  -4  -7    7.61    0.55
   6   4   7    8.39    0.52
   6   3  -7    1.04    0.13
  -6  -3  -7    1.02    0.14
   6   3   7    1.00    0.13
   6   2  -7   12.49    0.79
  -6  -2  -7   12.97    0.87
   6   2   7   13.57    0.79
   6   2   7   12.34    0.83
  -6  -1  -7    1.35    0.16
   6   1  -7    1.42    0.13
   6   1  -7    1.54    0.15
   6   1   7    1.37    0.14
   6   0  -7   15.13    0.95
   0  -6  -7   14.94    0.90
   6   0  -7   15.05    0.91
  -6   0  -7   14.59    1.00
   6   0   7   14.62    0.95
   0  -6   7   14.70    1.00
  -1  -6  -7    1.37    0.14
  -6   1  -7    1.30    0.16
   6  -1  -7    1.30    0.14
  -1  -6  -7    1.44    0.13
   6  -1   7    1.30    0.14
  -1  -6   7    1.46    0.16
   2   6  -7   12.60    0.73
  -2  -6  -7   11.93    0.81
   6  -2  -7   11.84    0.78
  -2  -6   7   11.88    0.81
   6  -2   7   12.37    0.78
   2   6   7   11.32    0.74
  -3  -6  -7    0.95    0.13
   3   6  -7    0.99    0.12
   6  -3  -7    0.92    0.12
   6  -3   7    0.81    0.12
  -3  -6   7    0.93    0.13
   3   6   7    0.86    0.13
   4   6  -7    7.23    0.46
   6  -4  -7    7.15    0.48
  -4  -6  -7    7.16    0.50
  -4  -6   7    6.65    0.50
   6  -4   7    6.99    0.48
   4   6   7    7.51    0.47
   6  -5  -7    0.42    0.09
  -5  -6  -7    0.46    0.10
   5   6  -7    0.32    0.08
  -5  -6   7    0.45    0.09
   6  -5   7    0.33    0.08
   5   6   7    0.43    0.10
   7   4  -7    0.48    0.09
  -7  -4  -7    0.31    0.09
   7   4   7    0.51    0.09
   7   3  -7    6.70    0.45
  -7  -3  -7    6.69    0.49
   7   3   7    7.29    0.45
   7   2  -7    0.65    0.12
  -2   7  -7    1.11    0.23
  -7  -2  -7    0.73    0.13
   7   1  -7    9.60    0.59
  -1   7  -7    8.62    0.72
  -7  -1  -7    9.56    0.64
   7   1   7    8.72    0.60
  -7   0  -7    0.82    0.12
   7   0  -7    0.71    0.10
   7   0   7    0.56    0.11
   7  -1  -7    8.88    0.57
  -1  -7   7    9.15    0.61
   1   7   7    7.86    0.54
   7  -1   7    8.63    0.57
   7  -2  -7    0.61    0.11
  -2  -7  -7    0.47    0.10
   7  -2   7    0.54    0.11
   2   7   7    0.56    0.10
  -2  -7   7    0.60    0.12
   7  -3  -7    6.14    0.43
  -3  -7  -7    6.52    0.45
  -3  -7   7    6.07    0.45
   3   7   7    6.18    0.42
   7  -3   7    6.54    0.43
   7  -4  -7    0.37    0.08
  -4  -7  -7    0.41    0.09
   4   7  -7    0.29    0.07
   7  -4   7    0.32    0.07
  -4  -7   7    0.34    0.08
   4   7   7    0.36    0.09
  -1   8  -7    0.34    0.15
   0   8  -7    3.85    0.39
   8   0   7    3.91    0.29
   8  -1  -7    0.27    0.07
   8  -1   7    0.28    0.07
   0   0  -8   76.95    4.75
   0   0  -8   74.24    4.96
   0   0  -8   74.99    5.15
   0   0  -8   81.76    4.53
   0  -1  -8   24.21    1.42
   0  -1  -8   25.10    1.49
  -1   0  -8   25.62    1.42
   0   1  -8   23.65    1.42
  -1   0  -8   23.05    1.56
   1   0  -8   26.45    1.50
   0  -1  -8   23.29    1.54
  -1   0  -8   20.73    1.62
   1   0  -8   23.75    1.42
   0   1  -8   22.34    1.56
   1   0  -8   25.94    1.50
   1   0  -8   20.80    1.60
   0   1  -8   20.89    1.49
  -1   0   8   25.10    1.60
   0   1   8   25.29    1.55
   0  -1   8   24.59    1.63
   1   0   8   26.79    1.52
   0  -1   8   23.19    1.48
   0  -1   8   20.72    1.50
   1  -1  -8   47.51    2.79
  -1   1  -8   49.09    3.05
   1  -1  -8   39.31    2.77
  -1  -1  -8   40.86    2.89
  -1   1  -8   44.61    2.92
   1  -1  -8   38.41    2.79
  -1  -1  -8   48.88    2.65
  -1  -1  -8   45.70    2.77
   1   1  -8   42.01    2.77
   1  -1  -8   47.46    2.65
  -1  -1  -8   41.60    3.00
   1   1  -8   46.69    2.78
   1   1  -8   47.64    2.64
  -1   1  -8   39.70    2.78
   1   1   8   46.46    2.83
  -1  -1   8   42.84    3.01
   1  -1   8   43.91    2.77
  -1  -1   8   48.46    2.89
   1  -1   8   50.83    2.79
   1  -1   8   42.97    2.79
  -2  -1  -8   17.14    1.25
   1  -2  -8   18.32    1.16
   1  -2  -8   18.47    1.18
   1  -2  -8   16.47    1.09
   2   1  -8   19.63    1.09
   2   1  -8   18.34    1.15
  -2  -1  -8   18.39    1.09
  -2  -1  -8   16.36    1.20
   2   1  -8   19.19    1.14
   1  -2  -8   18.66    1.14
  -1   2  -8   18.87    1.31
  -2  -1  -8   18.40    1.14
   2   1  -8   19.68    1.15
  -2  -1   8   17.57    1.24
   2   1   8   16.49    1.17
   2   1   8   18.33    1.17
   1  -2   8   18.64    1.15
   0  -2  -8   54.20    3.01
   2   0  -8   58.30    3.17
   2   0  -8   55.68    3.16
  -2   0  -8   51.04    3.00
   0  -2  -8   43.54    3.18
   0  -2  -8   49.16    3.27
   0  -2  -8   54.83    3.15
   0   2  -8   53.09    3.16
   0   2  -8   52.10    2.99
  -2   0  -8   51.25    3.16
   2   0  -8   53.83    3.01
  -2   0  -8   45.42    3.44
  -2   0   8   52.89    3.41
   2   0   8   53.12    3.17
   2   0   8   49.18    3.18
   0   2   8   46.01    3.22
   0  -2   8   43.82    3.44
   0  -2   8   51.11    3.29
   0  -2   8   48.86    3.16
  -1  -2  -8   18.27    1.12
   2  -1  -8   16.30    1.12
   2  -1  -8   19.86    1.14
  -1  -2  -8   15.83    1.21
  -2   1  -8   17.43    1.20
  -2   1  -8   16.88    1.14
  -1  -2  -8   17.28    1.17
   1   2  -8   19.51    1.12
   1   2  -8   19.08    1.07
   1   2  -8   20.26    1.13
   2  -1  -8   16.57    1.08
  -2   1  -8   16.66    1.26
  -1  -2  -8   20.16    1.09
  -1  -2   8   17.74    1.25
   1   2   8   17.91    1.19
  -1  -2   8   19.07    1.18
  -2   1   8   17.82    1.21
   2  -1   8   18.16    1.13
  -1  -2   8   15.19    1.11
   2  -1   8   18.08    1.14
   2  -2  -8   35.53    2.34
   2  -2  -8   35.65    2.21
   2   2  -8   38.97    2.31
  -2  -2  -8   38.86    2.22
  -2  -2  -8   35.20    2.52
  -2  -2  -8   36.02    2.42
  -2   2  -8   36.33    2.33
  -2   2  -8   41.81    2.59
  -2   2  -8   35.19    2.46
   2   2  -8   38.06    2.21
   2  -2  -8   36.90    2.30
   2  -2  -8   40.10    2.34
   2   2  -8   39.70    2.32
  -2  -2  -8   35.83    2.32
  -2  -2   8   35.54    2.53
  -2  -2   8   39.73    2.42
   2  -2   8   35.81    2.31
   2   2   8   38.02    2.37
   2  -2   8   36.84    2.33
   2  -3  -8    9.27    0.61
   2  -3  -8    9.45    0.60
   2  -3  -8    9.35    0.66
  -3  -2  -8    9.73    0.70
  -3  -2  -8    9.35    0.63
   3   2  -8   10.30    0.63
  -3  -2  -8    9.81    0.61
   3   2  -8    9.56    0.62
   2  -3  -8   10.20    0.64
  -3  -2  -8    9.38    0.66
  -2   3  -8   11.14    0.79
   3   2  -8    9.92    0.60
   3   2   8    9.25    0.64
  -3  -2   8    9.82    0.64
   3   2   8   10.11    0.66
   2  -3   8    9.55    0.62
  -3  -2   8    9.45    0.69
  -3  -1  -8   23.25    1.59
   1  -3  -8   25.08    1.45
  -1   3  -8   23.41    1.62
   3   1  -8   25.24    1.52
   3   1  -8   24.61    1.51
  -3  -1  -8   22.94    1.45
   3   1  -8   25.18    1.51
  -1   3  -8   26.16    1.74
  -1   3  -8   22.44    1.52
  -3  -1  -8   24.62    1.51
  -3  -1  -8   23.20    1.67
   1  -3  -8   24.77    1.50
   1  -3  -8   23.03    1.53
   3   1  -8   24.63    1.44
  -3  -1   8   25.35    1.65
   3   1   8   23.00    1.53
   1  -3   8   24.07    1.51
  -3  -1   8   24.92    1.57
   3   1   8   23.84    1.54
  -3   0  -8   11.60    0.91
   3   0  -8   12.96    0.78
  -3   0  -8   11.37    0.77
   3   0  -8   11.02    0.81
   0  -3  -8   14.70    0.81
  -3   0  -8   11.36    0.86
   0  -3  -8   12.43    0.83
   0  -3  -8   14.01    0.78
   0   3  -8   13.58    0.82
   0   3  -8   13.57    0.76
  -3   0  -8   13.48    0.81
   3   0  -8   13.60    0.82
   0   3   8   11.42    0.89
   0  -3   8   12.89    0.92
   3   0   8   13.50    0.82
  -3   0   8   12.15    0.87
   0  -3   8   12.91    0.85
   3   0   8   12.06    0.82
   3  -1  -8   25.58    1.52
  -3   1  -8   23.10    1.68
  -1  -3  -8   24.07    1.50
   3  -1  -8   20.88    1.44
  -1  -3  -8   25.96    1.44
   3  -1  -8   24.54    1.51
   1   3  -8   24.81    1.43
   3  -1  -8   21.44    1.49
  -1  -3  -8   23.47    1.56
   1   3  -8   25.00    1.51
  -3   1  -8   23.70    1.51
   1   3   8   24.36    1.58
   3  -1   8   24.11    1.52
   3  -1   8   24.18    1.51
  -1  -3   8   25.62    1.57
  -1  -3   8   24.96    1.67
  -3   1   8   23.31    1.62
  -3   2  -8   10.88    0.70
  -3   2  -8    8.15    0.63
  -2  -3  -8    9.57    0.69
  -2  -3  -8    9.77    0.61
   2   3  -8    9.58    0.60
   3  -2  -8   10.50    0.61
   2   3  -8    9.98    0.62
  -2  -3  -8    9.95    0.63
   2   3  -8   10.07    0.63
   3  -2  -8    9.92    0.63
  -2  -3  -8    9.90    0.66
   3  -2  -8    9.92    0.65
  -3   2  -8    9.47    0.76
   3  -2   8    9.82    0.63
  -2  -3   8   10.17    0.65
   2   3   8    8.56    0.65
  -3   2   8    8.67    0.67
   2   3   8   10.76    0.68
  -2  -3   8    9.95    0.71
   3  -2   8    9.26    0.62
  -3  -3  -8   13.82    0.90
   3  -3  -8   13.32    0.86
   3   3  -8   14.72    0.90
  -3  -3  -8   14.09    0.94
   3   3  -8   14.01    0.89
   3   3  -8   13.72    0.86
  -3  -3  -8   14.18    0.88
  -3   3  -8   14.12    1.08
   3  -3  -8   15.44    0.91
  -3  -3  -8   14.44    0.99
  -3   3  -8   15.74    1.00
   3  -3  -8   13.32    0.93
   3   3   8   13.79    0.92
   3  -3   8   14.09    0.90
   3   3   8   14.81    0.94
  -3  -3   8   14.33    0.93
  -3  -3   8   12.90    0.99
  -4  -3  -8    4.50    0.35
   3  -4  -8    4.79    0.36
  -4  -3  -8    4.72    0.38
   4   3  -8    4.54    0.32
  -4  -3  -8    4.64    0.33
   3  -4  -8    5.18    0.35
  -3   4  -8    5.42    0.42
   4   3  -8    4.72    0.32
  -3   4  -8    5.57    0.51
   4   3  -8    4.83    0.34
   4   3   8    5.16    0.34
  -4  -3   8    4.83    0.34
   3  -4   8    4.65    0.32
  -4  -3   8    4.22    0.38
   4   3   8    4.72    0.36
   4   2  -8   15.80    1.02
   4   2  -8   15.78    0.98
  -4  -2  -8   15.33    1.02
  -2   4  -8   18.55    1.24
  -4  -2  -8   15.71    1.08
   2  -4  -8   17.27    0.98
   4   2  -8   15.46    1.02
   2  -4  -8   16.71    1.04
  -4  -2  -8   15.92    1.14
  -4  -2   8   16.27    1.13
   4   2   8   16.55    1.06
  -4  -2   8   16.01    1.06
   4   2   8   15.90    1.04
   4   1  -8    7.37    0.49
  -1   4  -8    8.04    0.66
  -1   4  -8    8.27    0.59
   4   1  -8    7.52    0.49
   1  -4  -8    7.65    0.47
  -4  -1  -8    7.24    0.57
   1  -4  -8    6.63    0.50
  -4  -1  -8    7.33    0.49
  -1   4  -8    7.22    0.50
   4   1  -8    7.79    0.48
   1  -4  -8    7.12    0.48
  -4  -1  -8    7.32    0.53
   4   1  -8    8.17    0.49
  -4  -1   8    7.01    0.54
   4   1   8    7.59    0.51
   4   1   8    7.78    0.51
   4   0  -8   20.44    1.22
   0   4  -8   21.55    1.28
   0  -4  -8   20.49    1.27
  -4   0  -8   19.65    1.35
   0  -4  -8   20.98    1.22
   4   0  -8   19.94    1.28
   0  -4  -8   18.86    1.32
   4   0  -8   20.42    1.28
  -4   0  -8   20.39    1.27
  -4   0  -8   19.50    1.43
   0  -4   8   21.20    1.34
  -4   0   8   20.14    1.38
   4   0   8   18.79    1.20
   0   4   8   19.29    1.36
   0  -4   8   21.48    1.43
   4   0   8   19.97    1.29
   4   0   8   21.57    1.29
  -4   1  -8    6.58    0.54
   1   4  -8    7.60    0.46
   4  -1  -8    7.53    0.50
  -1  -4  -8    7.81    0.48
  -4   1  -8    7.26    0.59
   4  -1  -8    7.37    0.49
  -1  -4  -8    7.43    0.50
  -1  -4  -8    7.42    0.48
   4  -1  -8    7.12    0.48
   1   4  -8    7.46    0.50
  -1  -4   8    7.90    0.58
   4  -1   8    7.35    0.50
   1   4   8    7.98    0.56
  -4   1   8    6.70    0.52
  -1  -4   8    7.99    0.52
   4  -1   8    7.29    0.49
   4  -2  -8   15.90    1.03
  -2  -4  -8   15.54    1.01
  -4   2  -8   17.00    1.19
  -4   2  -8   13.37    1.08
  -2  -4  -8   15.96    0.98
   2   4  -8   15.46    1.01
   4  -2  -8   17.73    0.98
  -2  -4  -8   15.29    1.05
   4  -2  -8   16.11    1.02
   2   4  -8   17.07    0.96
  -2  -4   8   15.43    1.14
   2   4   8   16.91    1.06
  -2  -4   8   15.67    1.06
   4  -2   8   16.22    1.02
   4  -3  -8    4.70    0.33
  -3  -4  -8    4.22    0.32
   3   4  -8    4.46    0.31
  -4   3  -8    4.73    0.46
   4  -3  -8    4.72    0.34
  -3  -4  -8    4.33    0.32
  -4   3  -8    4.44    0.38
  -3  -4  -8    4.80    0.34
   3   4  -8    4.88    0.33
  -3  -4   8    4.51    0.33
   3   4   8    4.65    0.36
   4  -3   8    4.76    0.32
  -3  -4   8    4.72    0.39
  -4  -4  -8    8.39    0.58
   4   4  -8    8.03    0.53
   4  -4  -8    9.15    0.57
  -4   4  -8    9.07    0.64
   4   4   8    8.33    0.54
   4  -4   8    7.94    0.55
  -4  -4   8    7.96    0.57
  -5  -4  -8    2.07    0.20
   5   4  -8    2.11    0.18
   4  -5  -8    2.19    0.20
   5   4   8    2.34    0.20
  -5  -4   8    2.11    0.18
   5   3  -8    6.08    0.40
  -3   5  -8    6.22    0.51
  -5  -3  -8    5.94    0.44
   3  -5  -8    6.01    0.42
   5   3   8    6.20    0.40
  -5  -3   8    5.85    0.42
  -5  -2  -8    3.89    0.30
  -2   5  -8    3.01    0.37
  -5  -2  -8    3.38    0.26
   2  -5  -8    3.76    0.28
   5   2  -8    3.95    0.27
   5   2   8    4.02    0.26
   5   2   8    3.73    0.28
  -1   5  -8    9.78    0.76
   5   1  -8    8.39    0.58
  -5  -1  -8    9.16    0.67
  -1   5  -8    7.96    0.58
   5   1  -8    8.77    0.55
   1  -5  -8    9.03    0.55
   5   1  -8    8.98    0.57
  -5  -1  -8    8.45    0.61
  -1   5  -8   10.12    0.70
   5   1   8    9.00    0.54
  -5  -1   8    8.00    0.63
   5   1   8    8.39    0.58
   5   1   8    8.80    0.59
   5   0  -8    4.25    0.31
   5   0  -8    4.70    0.31
   0   5  -8    4.93    0.33
   5   0  -8    4.48    0.31
  -5   0  -8    4.36    0.35
  -5   0  -8    4.17    0.39
   0  -5  -8    4.54    0.30
   0  -5   8    4.76    0.34
  -5   0   8    4.30    0.34
   5   0   8    4.56    0.33
   0   5   8    4.46    0.38
   5   0   8    4.31    0.32
  -5   1  -8    9.00    0.70
   5  -1  -8    8.53    0.58
  -1  -5  -8    9.15    0.56
   5  -1  -8    8.27    0.56
   1   5  -8   10.10    0.59
  -5   1  -8    8.58    0.63
   5  -1  -8    8.07    0.58
  -1  -5  -8    8.34    0.59
  -1  -5   8    9.69    0.69
   1   5   8    8.89    0.62
   5  -1   8    8.52    0.58
  -1  -5   8    8.68    0.61
   5  -1   8    8.64    0.58
  -5   2  -8    3.30    0.31
  -2  -5  -8    3.60    0.28
   5  -2  -8    3.71    0.27
   2   5  -8    3.69    0.25
  -2  -5  -8    4.01    0.27
   5  -2   8    3.75    0.28
  -2  -5   8    3.62    0.28
   2   5   8    3.79    0.30
   5  -3  -8    5.90    0.40
  -3  -5  -8    5.79    0.42
   3   5  -8    5.83    0.38
  -3  -5   8    5.65    0.41
   5  -3   8    6.01    0.40
   5  -4  -8    2.35    0.19
   4   5  -8    2.10    0.18
  -4  -5  -8    2.14    0.20
  -4  -5   8    2.01    0.19
   5  -4   8    2.13    0.18
   4   5   8    1.90    0.19
   5   5  -8    2.78    0.22
   5  -5  -8    2.72    0.23
  -5  -5  -8    2.84    0.24
  -5  -5   8    2.72    0.22
   5   5   8    2.95    0.24
  -6  -5  -8    0.80    0.13
   6   5  -8    0.85    0.12
   6   5   8    1.07    0.14
   6   4  -8    3.56    0.27
  -6  -4  -8    3.45    0.29
   6   4   8    3.92    0.28
  -6  -3  -8    1.78    0.19
  -3   6  -8    1.99    0.27
   6   3  -8    1.93    0.18
   6   3   8    1.87    0.17
  -6  -2  -8    5.81    0.42
   6   2  -8    5.63    0.38
   6   2   8    5.40    0.39
   6   2   8    5.82    0.37
  -1   6  -8    2.58    0.36
   6   1  -8    2.39    0.19
   6   1  -8    2.38    0.20
  -6  -1  -8    2.63    0.23
   6   1   8    2.34    0.20
  -6   0  -8    6.78    0.48
   6   0  -8    6.51    0.44
   6   0  -8    6.76    0.43
   0  -6  -8    6.69    0.42
   0  -6   8    6.12    0.47
   6   0   8    6.05    0.44
  -6   1  -8    2.38    0.23
  -1  -6  -8    2.30    0.20
   6  -1  -8    2.50    0.20
  -1  -6  -8    2.61    0.19
  -1  -6   8    2.52    0.22
   6  -1   8    2.21    0.20
  -6   2  -8    4.85    0.40
   6  -2  -8    5.10    0.36
  -2  -6  -8    5.16    0.38
   6  -2   8    5.73    0.37
  -2  -6   8    5.17    0.38
   3   6  -8    1.90    0.16
  -3  -6  -8    1.82    0.17
   6  -3  -8    1.84    0.17
   3   6   8    1.66    0.18
  -3  -6   8    1.85    0.17
   6  -3   8    1.66    0.17
   6  -4  -8    3.28    0.25
   4   6  -8    3.18    0.24
  -4  -6  -8    3.16    0.26
   4   6   8    3.33    0.25
  -4  -6   8    2.99    0.25
   6  -4   8    3.24    0.25
  -5  -6  -8    0.90    0.13
   5   6  -8    0.87    0.12
   6  -5  -8    0.86    0.13
   5   6   8    0.86    0.13
  -5  -6   8    0.78    0.11
  -7  -4  -8    0.69    0.13
   7   4  -8    0.74    0.12
   7   4   8    0.86    0.13
  -7  -3  -8    2.08    0.20
   7   3  -8    2.06    0.19
  -7  -2  -8    1.20    0.16
   7   2  -8    1.33    0.15
  -2   7  -8    1.16    0.25
   7   1  -8    2.81    0.23
  -1   7  -8    3.53    0.37
  -7  -1  -8    2.76    0.25
   7   1   8    2.71    0.22
   7   0  -8    1.32    0.14
  -7   0  -8    1.41    0.16
   7   0   8    1.25    0.14
   7  -1  -8    2.63    0.20
   7  -1   8    2.57    0.21
  -1  -7   8    2.42    0.22
   1   7   8    2.22    0.19
   7  -2  -8    1.16    0.13
  -2  -7  -8    1.24    0.14
   7  -2   8    1.16    0.14
   2   7   8    1.17    0.14
  -2  -7   8    1.23    0.15
  -3  -7  -8    1.78    0.17
   7  -3  -8    1.87    0.17
  -3  -7   8    1.82    0.18
   7  -3   8    1.74    0.16
   3   7   8    1.81    0.17
  -4  -7  -8    0.74    0.11
   7  -4  -8    0.57    0.11
   4   7   8    0.71    0.12
   7  -4   8    0.51    0.10
  -4  -7   8    0.78    0.11
   0   8  -8    1.95    0.28
   8   0   8    1.43    0.15
   8  -1  -8    0.58    0.09
   8  -1   8    0.46    0.10
   0   0  -9   85.83    4.68
   0   0  -9   81.72    4.92
   0   0  -9   78.55    5.13
   0   0  -9   83.05    5.33
   0   0   9   69.00    4.95
  -1   0  -9   50.20    2.93
   0   1  -9   40.38    2.66
   0  -1  -9   46.53    2.79
  -1   0  -9   48.35    3.04
  -1   0  -9   46.35    2.66
   1   0  -9   41.05    2.66
  -1   0  -9   45.36    2.80
   1   0  -9   37.80    3.01
   1   0  -9   45.15    2.81
   0   1  -9   41.99    2.93
   1   0  -9   40.12    2.79
   0  -1  -9   45.47    2.90
   1   0  -9   47.57    2.81
   0  -1  -9   45.91    2.66
   1   0   9   50.05    2.83
   1   0   9   43.48    2.83
   0  -1   9   47.93    3.04
   0  -1   9   41.01    2.81
   0   1   9   46.94    2.85
   0  -1   9   47.74    2.80
  -1   0   9   46.91    3.02
   1  -1  -9   73.23    5.22
  -1   1  -9   82.02    5.20
   1  -1  -9   74.70    5.19
  -1  -1  -9   85.64    5.20
   1   1  -9   87.53    5.21
  -1  -1  -9   81.02    5.63
   1   1  -9   85.12    5.20
   1  -1  -9   90.19    4.96
  -1   1  -9   83.15    4.95
  -1  -1  -9   78.99    5.42
  -1  -1  -9   88.61    4.96
  -1   1  -9   97.22    5.68
   1  -1  -9   85.44    5.23
   1   1  -9   89.10    4.95
  -1   1  -9   82.62    5.45
   1  -1   9   84.12    5.21
   1  -1   9   81.69    5.23
   1   1   9   87.63    5.26
  -1  -1   9   84.80    5.42
  -2  -1  -9   35.80    2.44
   1  -2  -9   36.75    2.28
  -2  -1  -9   33.54    2.35
   1  -2  -9   38.23    2.24
   1  -2  -9   31.85    2.14
   2   1  -9   36.37    2.25
  -2  -1  -9   37.04    2.15
  -1   2  -9   35.57    2.13
   2   1  -9   36.93    2.26
   2   1  -9   38.48    2.14
   1  -2  -9   33.81    2.26
   2   1  -9   38.15    2.24
  -2  -1  -9   37.19    2.25
   2   1   9   36.90    2.28
   1  -2   9   36.34    2.25
  -2  -1   9   36.82    2.43
  -2  -1   9   38.43    2.33
   2   1   9   31.55    2.27
  -2   0  -9   50.75    3.70
   2   0  -9   61.46    3.42
   0   2  -9   56.53    3.40
  -2   0  -9   47.27    3.55
  -2   0  -9   55.76    3.24
   0  -2  -9   53.97    3.53
   0  -2  -9   59.63    3.39
   0  -2  -9   58.38    3.25
   2   0  -9   60.90    3.41
   2   0  -9   56.53    3.24
  -2   0  -9   55.38    3.40
   0   2  -9   56.37    3.23
  -2   0   9   58.87    3.67
   0  -2   9   48.76    3.38
   0  -2   9   53.20    3.41
   2   0   9   58.60    3.42
   0   2   9   54.38    3.47
   2   0   9   53.33    3.43
   0  -2   9   51.75    3.70
   0  -2   9   46.33    3.39
  -2   1  -9   39.30    2.44
   1   2  -9   38.32    2.31
  -1  -2  -9   38.47    2.31
  -2   1  -9   38.95    2.55
   2  -1  -9   35.37    2.33
  -2   1  -9   36.33    2.32
  -1  -2  -9   34.68    2.49
  -1  -2  -9   40.26    2.22
  -1  -2  -9   35.17    2.40
   1   2  -9   38.00    2.20
   2  -1  -9   36.36    2.31
   1   2  -9   40.08    2.32
   2  -1  -9   39.26    2.33
   2  -1  -9   34.53    2.21
  -1  -2   9   35.57    2.53
   2  -1   9   35.09    2.31
   2  -1   9   34.80    2.33
  -1  -2   9   39.62    2.41
   2   2  -9   44.12    2.69
  -2  -2  -9   40.26    2.93
   2  -2  -9   42.15    2.57
   2  -2  -9   44.00    2.72
  -2  -2  -9   41.07    2.81
   2   2  -9   43.39    2.57
  -2   2  -9   41.89    2.85
   2  -2  -9   43.40    2.68
   2  -2  -9   39.92    2.72
   2   2  -9   46.21    2.70
  -2   2  -9   43.29    2.71
  -2  -2  -9   43.53    2.70
  -2   2  -9   48.71    3.00
  -2  -2  -9   45.13    2.58
   2   2   9   44.90    2.75
  -2  -2   9   43.30    2.94
   2  -2   9   43.90    2.71
   2  -2   9   41.58    2.68
  -2  -2   9   46.24    2.81
  -3  -2  -9   20.44    1.36
  -3  -2  -9   20.27    1.25
   3   2  -9   21.52    1.30
   3   2  -9   20.80    1.23
   2  -3  -9   19.28    1.27
   2  -3  -9   19.08    1.32
   3   2  -9   20.87    1.29
   2  -3  -9   20.71    1.31
   2  -3  -9   19.28    1.24
  -3  -2  -9   20.74    1.42
  -3  -2  -9   20.22    1.29
   3   2   9   21.99    1.34
   2  -3   9   21.41    1.30
   3   2   9   19.53    1.32
  -3  -2   9   21.73    1.34
  -3  -2   9   21.70    1.42
  -3  -1  -9   43.61    3.05
   3   1  -9   46.84    2.80
  -1   3  -9   39.69    2.80
   1  -3  -9   45.85    2.78
   3   1  -9   48.90    2.81
  -3  -1  -9   43.84    2.67
  -3  -1  -9   46.84    2.79
  -3  -1  -9   40.67    2.92
   3   1  -9   47.27    2.67
   1  -3  -9   45.76    2.67
   3   1  -9   45.12    2.79
   1  -3  -9   40.71    2.82
  -1   3  -9   49.90    3.12
  -1   3  -9   43.27    2.96
   3   1   9   47.45    2.83
   1  -3   9   45.19    2.80
   3   1   9   42.66    2.82
  -3  -1   9   46.35    2.90
  -3  -1   9   46.87    3.03
   3   0  -9   27.94    1.65
   0  -3  -9   24.35    1.69
  -3   0  -9   28.18    1.64
   0  -3  -9   27.31    1.63
  -3   0  -9   23.71    1.73
   3   0  -9   26.64    1.57
  -3   0  -9   23.27    1.56
   0   3  -9   28.34    1.65
   0  -3  -9   29.00    1.58
   3   0  -9   27.66    1.65
   0   3  -9   27.39    1.55
  -3   0  -9   25.30    1.81
  -3   0   9   27.63    1.77
   0  -3   9   25.22    1.72
   3   0   9   25.40    1.66
   0  -3   9   25.10    1.81
   3   0   9   26.92    1.66
   0   3   9   22.59    1.71
  -1  -3  -9   48.76    2.69
   3  -1  -9   47.61    2.83
  -3   1  -9   44.21    3.10
   1   3  -9   46.97    2.67
   1   3  -9   48.69    2.82
   3  -1  -9   37.83    2.68
   3  -1  -9   45.72    2.82
  -3   1  -9   43.65    2.82
  -1  -3  -9   44.59    2.92
  -1  -3  -9   45.12    2.81
   3  -1  -9   45.97    2.80
  -3   1  -9   39.67    2.95
   1   3   9   47.59    2.90
   3  -1   9   45.23    2.83
  -1  -3   9   45.92    3.09
   3  -1   9   46.48    2.82
  -1  -3   9   48.05    2.94
  -3   1   9   44.33    3.04
   2   3  -9   21.31    1.27
   3  -2  -9   20.42    1.36
  -3   2  -9   23.96    1.44
   3  -2  -9   22.12    1.35
  -2  -3  -9   21.97    1.29
  -3   2  -9   23.33    1.53
  -2  -3  -9   20.76    1.40
  -2  -3  -9   22.17    1.46
   2   3  -9   21.82    1.34
   3  -2  -9   21.89    1.28
  -2  -3   9   21.61    1.40
   2   3   9   17.88    1.37
   3  -2   9   20.92    1.35
   3  -2   9   19.84    1.33
  -2  -3   9   20.44    1.48
   2   3   9   21.41    1.40
   3  -3  -9   28.93    1.68
  -3  -3  -9   26.43    1.74
   3  -3  -9   23.72    1.68
   3  -3  -9   22.99    1.58
  -3  -3  -9   28.64    1.82
  -3  -3  -9   26.05    1.66
  -3   3  -9   29.97    1.79
   3   3  -9   26.40    1.58
   3   3  -9   26.87    1.66
  -3  -3  -9   26.48    1.60
   3   3  -9   26.14    1.65
  -3  -3   9   26.38    1.73
  -3  -3   9   25.46    1.82
   3   3   9   25.68    1.68
   3   3   9   27.53    1.71
   3  -3   9   27.06    1.66
  -4  -3  -9   10.51    0.71
   3  -4  -9   10.44    0.71
   3  -4  -9   10.64    0.69
  -4  -3  -9    9.73    0.67
   4   3  -9   10.35    0.65
  -3   4  -9   11.31    0.77
  -4  -3  -9   10.38    0.75
   4   3  -9   10.44    0.68
  -4  -3   9   10.62    0.70
   3  -4   9   10.63    0.67
  -4  -3   9    9.32    0.75
   4   3   9   10.75    0.69
  -4  -2  -9   18.71    1.20
   2  -4  -9   19.80    1.23
   4   2  -9   18.83    1.20
  -4  -2  -9   19.20    1.33
   4   2  -9   18.18    1.20
   2  -4  -9   19.64    1.15
  -4  -2  -9   19.09    1.27
   4   2  -9   19.61    1.15
  -4  -2  -9   18.39    1.16
  -4  -2   9   18.57    1.32
   4   2   9   19.41    1.22
   4   2   9   19.52    1.24
  -4  -2   9   19.44    1.25
  -1   4  -9   16.38    1.09
   1  -4  -9   13.57    1.00
   4   1  -9   15.98    0.94
  -4  -1  -9   15.51    1.04
   1  -4  -9   15.75    0.97
   1  -4  -9   17.02    0.94
  -4  -1  -9   15.74    1.10
  -4  -1  -9   15.53    0.98
  -1   4  -9   14.98    0.99
   4   1  -9   16.37    0.98
  -4  -1  -9   13.63    0.94
   4   1  -9   15.85    0.98
   4   1  -9   15.33    0.98
  -1   4   9   13.44    1.06
   4   1   9   15.55    1.00
  -4  -1   9   15.74    1.07
   4   1   9   16.60    1.01
   0   4  -9   25.83    1.53
  -4   0  -9   23.67    1.69
   0  -4  -9   24.64    1.51
   0  -4  -9   22.36    1.57
   4   0  -9   24.76    1.52
   0  -4  -9   26.08    1.46
  -4   0  -9   22.39    1.60
   4   0  -9   24.63    1.52
  -4   0  -9   24.23    1.51
   4   0  -9   25.29    1.46
  -4   0   9   23.39    1.64
   0  -4   9   25.75    1.69
   0   4   9   22.79    1.60
   4   0   9   23.41    1.53
   4   0   9   24.53    1.53
   0  -4   9   23.72    1.59
  -1  -4  -9   16.29    1.01
  -4   1  -9   16.96    1.16
   4  -1  -9   15.96    1.02
  -4   1  -9   13.83    1.08
  -1  -4  -9   15.52    1.05
   1   4  -9   17.00    1.02
   1   4  -9   16.39    0.96
  -1  -4  -9   17.48    0.98
   4  -1  -9   13.93    0.98
   4  -1  -9   16.49    1.02
   4  -1   9   16.16    1.03
  -1  -4   9   16.17    1.06
  -1  -4   9   15.50    1.14
   1   4   9   16.45    1.09
   4  -1   9   15.70    1.02
  -4   2  -9   17.38    1.32
  -4   2  -9   20.05    1.41
   4  -2  -9   19.16    1.25
  -2  -4  -9   19.10    1.23
   2   4  -9   19.97    1.17
  -2  -4  -9   20.23    1.29
   4  -2  -9   20.82    1.19
   4  -2  -9   19.21    1.24
  -2  -4  -9   20.21    1.19
  -2  -4   9   19.14    1.29
   4  -2   9   18.59    1.24
   2   4   9   21.16    1.30
  -2  -4   9   19.19    1.38
  -4   3  -9   11.11    0.74
   4  -3  -9   10.44    0.67
  -3  -4  -9   10.65    0.66
  -3  -4  -9   10.47    0.70
   4  -3  -9    9.06    0.68
   3   4  -9   10.30    0.67
   3   4  -9   10.45    0.63
   4  -3   9   10.56    0.67
   3   4   9   10.43    0.71
  -3  -4   9    9.91    0.69
  -3  -4   9    9.19    0.75
  -4  -4  -9   10.09    0.70
   4   4  -9    9.51    0.63
   4  -4  -9   10.37    0.67
  -4   4  -9   11.87    0.75
  -4  -4   9    9.66    0.68
   4  -4   9    9.54    0.66
   4   4   9   10.44    0.65
  -5  -4  -9    4.78    0.37
   4  -5  -9    4.65    0.36
   5   4  -9    5.08    0.34
  -5  -4   9    4.66    0.35
   5   4   9    5.21    0.35
   3  -5  -9   11.14    0.74
  -3   5  -9   11.58    0.83
  -5  -3  -9   10.52    0.76
   5   3  -9   10.90    0.70
   5   3   9   11.88    0.70
   5   2  -9    8.39    0.53
  -5  -2  -9    7.55    0.55
  -5  -2  -9    8.42    0.59
   2  -5  -9    8.13    0.57
   5   2   9    9.03    0.53
   5   2   9    8.67    0.56
  -5  -1  -9   15.81    1.08
   1  -5  -9   17.10    0.97
   5   1  -9   16.51    0.98
  -1   5  -9   17.20    1.14
  -1   5  -9   14.25    1.03
  -5  -1  -9   15.77    1.14
   5   1  -9   16.70    1.02
  -5  -1   9   14.53    1.11
   5   1   9   15.81    1.03
   5   1   9   16.90    0.97
  -5   0  -9    9.57    0.75
   0   5  -9   10.07    0.66
   0  -5  -9   10.65    0.62
   5   0  -9    9.80    0.64
  -5   0  -9    9.59    0.69
   5   0  -9    9.56    0.62
   5   0   9   10.21    0.66
   5   0   9   10.35    0.66
   0  -5   9   10.09    0.68
  -5   0   9    9.77    0.70
   0   5   9    8.86    0.71
  -5   1  -9   14.91    1.07
  -1  -5  -9   15.60    1.00
   5  -1  -9   15.12    0.97
  -1  -5  -9   16.85    0.97
   5  -1  -9   15.99    1.01
  -1  -5  -9   15.79    1.04
   1   5   9   15.97    1.06
   5  -1   9   15.62    1.01
   5  -1   9   15.94    1.02
  -1  -5   9   16.02    1.06
  -5   2  -9    7.43    0.59
  -2  -5  -9    8.14    0.56
   5  -2  -9    7.95    0.54
   2   5  -9    8.58    0.51
  -2  -5  -9    8.57    0.53
   5  -2   9    8.30    0.55
  -2  -5   9    8.14    0.57
  -3  -5  -9   10.88    0.72
   5  -3  -9   10.73    0.70
  -3  -5  -9   10.80    0.68
   3   5  -9   10.96    0.66
  -5   3  -9    9.02    0.75
   5  -3   9   10.91    0.69
  -3  -5   9   10.75    0.72
  -5   4  -9    3.93    0.39
   4   5  -9    4.98    0.33
  -4  -5  -9    5.05    0.36
   5  -4  -9    5.01    0.35
   4   5   9    4.95    0.35
  -4  -5   9    4.87    0.35
   5  -4   9    4.77    0.34
   5   5  -9    5.18    0.36
   5  -5  -9    5.33    0.38
  -5  -5  -9    5.30    0.40
  -5  -5   9    4.87    0.38
   5   5   9    6.01    0.38
  -6  -5  -9    2.24    0.20
   5  -6  -9    1.88    0.20
   6   5  -9    2.01    0.18
   6   5   9    2.38    0.20
   6   4  -9    4.12    0.30
  -6  -4  -9    3.97    0.32
   6   4   9    4.23    0.30
  -6  -3  -9    4.24    0.34
   6   3  -9    4.19    0.31
  -3   6  -9    4.38    0.41
   6   3   9    4.59    0.31
   6   2  -9    6.47    0.44
  -6  -2  -9    6.55    0.49
   6   2   9    6.51    0.46
   6   2   9    7.22    0.44
   6   1  -9    5.68    0.38
  -1   6  -9    6.17    0.52
  -6  -1  -9    4.88    0.41
   6   1   9    5.59    0.39
   6   0  -9    8.08    0.51
   6   0  -9    7.72    0.52
   0  -6  -9    8.46    0.50
  -6   0  -9    7.88    0.56
   6   0   9    7.23    0.53
   0  -6   9    7.45    0.55
   6  -1  -9    5.39    0.38
  -6   1  -9    5.50    0.42
  -1  -6  -9    5.26    0.39
  -1  -6  -9    6.03    0.37
   6  -1   9    5.27    0.39
  -1  -6   9    5.62    0.41
  -2  -6  -9    6.34    0.43
  -6   2  -9    5.45    0.46
   6  -2  -9    6.25    0.42
   6  -2   9    6.34    0.43
  -2  -6   9    6.10    0.44
   3   6  -9    3.99    0.28
   6  -3  -9    4.04    0.30
  -3  -6  -9    4.15    0.31
   6  -3   9    3.88    0.29
   3   6   9    3.83    0.30
  -3  -6   9    3.87    0.30
   6  -4  -9    3.79    0.29
  -4  -6  -9    3.83    0.30
   4   6  -9    3.74    0.27
   6  -4   9    3.89    0.28
   4   6   9    4.07    0.30
  -4  -6   9    3.81    0.29
   6  -5  -9    1.92    0.19
   5   6  -9    1.91    0.18
  -5  -6  -9    2.10    0.19
  -5  -6   9    1.91    0.18
   5   6   9    2.51    0.20
  -7  -3  -9    3.46    0.29
   7   3  -9    3.75    0.27
  -2   7  -9    2.69    0.33
  -7  -2  -9    3.06    0.25
   7   2  -9    2.81    0.23
   7   1  -9    5.43    0.36
  -7  -1  -9    5.25    0.39
  -1   7  -9    4.68    0.47
   7   1   9    4.75    0.36
  -7   0  -9    3.20    0.28
   0   7  -9    3.55    0.41
   7   0  -9    3.17    0.25
   7   0   9    3.42    0.26
   7  -1  -9    4.74    0.34
  -1  -7   9    4.83    0.36
   7  -1   9    4.86    0.35
  -2  -7  -9    2.69    0.22
   7  -2  -9    2.74    0.22
   2   7   9    2.68    0.21
   7  -2   9    2.77    0.22
  -2  -7   9    2.29    0.22
  -3  -7  -9    3.56    0.27
   7  -3  -9    3.29    0.26
   7  -3   9    3.39    0.26
  -3  -7   9    3.44    0.27
   3   7   9    3.48    0.26
   0   0 -10  119.33    8.17
   0   0 -10  131.21    7.54
   0   0 -10  122.23    7.87
   0   0 -10  131.54    7.18
   0   0  10  111.54    7.59
   0   0  10  118.69    7.58
  -1   0 -10   29.62    1.81
  -1   0 -10   26.52    1.65
   1   0 -10   26.21    1.65
   0  -1 -10   28.41    1.65
   1   0 -10   27.52    1.73
  -1   0 -10   29.02    1.74
   1   0 -10   26.79    1.75
  -1   0 -10   30.54    1.88
   1   0 -10   26.43    1.74
   0   1 -10   26.79    1.65
   1   0 -10   26.07    1.80
   0  -1 -10   24.66    1.79
   1   0  10   29.56    1.77
   1   0  10   26.53    1.76
   0  -1  10   28.29    1.75
  -1   0  10   27.78    1.87
   0  -1  10   28.13    1.75
   0   1  10   29.11    1.79
   1   1 -10   85.60    4.74
   1   1 -10   89.95    5.20
  -1   1 -10   88.95    5.42
  -1  -1 -10   74.51    5.38
   1   1 -10   76.02    4.97
  -1  -1 -10   79.71    4.97
  -1   1 -10   80.26    4.98
   1  -1 -10   85.01    4.74
  -1   1 -10   80.57    5.21
  -1  -1 -10   80.71    4.74
  -1   1 -10   84.34    4.73
  -1  -1 -10   72.04    5.18
   1   1 -10   81.04    4.98
   1  -1 -10   77.96    5.01
   1  -1 -10   79.59    4.97
   1  -1 -10   74.18    4.99
  -1  -1  10   83.03    5.40
   1  -1  10   78.49    5.01
   1   1  10   76.39    5.03
   1  -1  10   82.60    4.98
   1   1  10   81.09    5.03
   1  -2 -10   19.59    1.35
   2   1 -10   22.69    1.33
   2   1 -10   21.08    1.34
   2   1 -10   22.01    1.27
  -1   2 -10   21.64    1.26
   1  -2 -10   22.57    1.37
  -2  -1 -10   23.21    1.28
   2   1 -10   19.82    1.34
  -2  -1 -10   19.11    1.39
   1  -2 -10   21.89    1.33
  -2  -1 -10   21.69    1.34
  -2  -1 -10   20.05    1.45
   1  -2 -10   20.19    1.27
   2   1  10   19.31    1.36
  -2  -1  10   21.32    1.44
   1  -2  10   21.31    1.34
   1  -2  10   20.27    1.31
  -2  -1  10   21.67    1.38
   2   1  10   22.76    1.37
   2   0 -10   83.62    4.91
  -2   0 -10   78.69    5.60
   0  -2 -10   78.56    5.36
  -2   0 -10   78.97    4.91
   0  -2 -10   84.13    4.92
   0  -2 -10   85.95    5.15
   0   2 -10   92.01    5.41
   2   0 -10   90.32    5.17
  -2   0 -10   80.35    5.16
  -2   0 -10   78.57    5.39
   0   2 -10   81.71    4.90
   0   2 -10   81.23    5.16
   2   0 -10   91.46    5.18
   0  -2  10   80.65    5.18
   0  -2  10   79.73    5.15
  -2   0  10   82.53    5.58
   0  -2  10   82.07    5.61
   2   0  10   83.72    5.20
   0   2  10   89.91    5.24
   2   0  10   86.68    5.18
  -1  -2 -10   20.61    1.41
   1   2 -10   22.41    1.30
   1   2 -10   23.42    1.37
   2  -1 -10   22.88    1.36
   2  -1 -10   21.42    1.31
  -1  -2 -10   21.99    1.36
  -1  -2 -10   23.12    1.32
   1   2 -10   21.43    1.36
  -2   1 -10   23.49    1.52
   2  -1 -10   22.01    1.38
  -2   1 -10   22.62    1.37
   2  -1 -10   22.63    1.38
  -2   1 -10   20.45    1.44
   1   2  10   20.92    1.43
   2  -1  10   20.90    1.38
  -1  -2  10   21.85    1.50
  -1  -2  10   22.34    1.42
   1   2  10   19.89    1.40
   2  -1  10   20.79    1.36
  -1  -2  10   18.54    1.37
   2  -2 -10   66.24    4.01
  -2   2 -10   73.22    4.38
  -2  -2 -10   60.90    4.32
  -2   2 -10   63.39    4.19
  -2  -2 -10   58.36    4.16
  -2   2 -10   65.72    3.99
   2   2 -10   67.31    3.98
  -2  -2 -10   64.42    3.98
   2  -2 -10   63.63    3.97
  -2  -2 -10   65.99    3.81
   2  -2 -10   56.68    4.01
   2   2 -10   65.83    3.79
   2  -2 -10   65.48    3.80
   2   2 -10   68.13    3.99
   2   2  10   69.13    4.05
  -2  -2  10   67.01    4.15
  -2  -2  10   56.56    4.33
   2  -2  10   64.17    4.00
   2  -2  10   62.80    3.97
  -3  -2 -10   12.44    0.78
   2  -3 -10   12.42    0.80
   3   2 -10   12.25    0.77
   2  -3 -10   11.06    0.74
   2  -3 -10   12.60    0.82
   3   2 -10   12.27    0.75
   3   2 -10   12.85    0.79
  -2   3 -10   10.19    0.85
  -3  -2 -10   11.93    0.82
  -3  -2 -10   12.34    0.86
  -3  -2 -10   12.84    0.76
  -3  -2  10   12.15    0.86
  -3  -2  10   12.67    0.80
   3   2  10   12.79    0.82
   2  -3  10   12.42    0.78
   3   2  10   11.10    0.81
  -1   3 -10   37.91    2.70
   1  -3 -10   45.42    2.57
   1  -3 -10   39.19    2.72
  -3  -1 -10   40.52    2.82
  -3  -1 -10   40.92    2.94
  -3  -1 -10   46.79    2.70
  -1   3 -10   39.76    2.85
   3   1 -10   38.07    2.69
   3   1 -10   46.58    2.71
  -1   3 -10   48.97    3.01
   1  -3 -10   44.70    2.68
   3   1 -10   45.46    2.70
  -3  -1 -10   42.60    2.57
   3   1 -10   47.35    2.57
  -3  -1  10   44.45    2.92
   1  -3  10   45.08    2.70
   3   1  10   48.37    2.73
  -1   3  10   40.03    2.76
   3   1  10   42.43    2.73
  -3   0 -10   13.30    0.95
   0  -3 -10   14.43    1.03
   3   0 -10   16.86    1.01
  -3   0 -10   14.73    1.11
   0  -3 -10   16.56    1.00
   3   0 -10   15.82    0.97
   0   3 -10   15.68    0.95
   3   0 -10   17.13    1.01
  -3   0 -10   16.59    1.01
   0  -3 -10   17.43    0.97
  -3   0 -10   14.08    1.06
   0   3 -10   16.54    1.02
   0  -3  10   15.46    1.12
  -3   0  10   15.87    1.08
   3   0  10   16.47    1.03
   3   0  10   16.06    1.02
   0   3  10   15.70    1.09
   3  -1 -10   48.46    2.83
  -3   1 -10   44.02    2.98
   3  -1 -10   48.02    2.85
   3  -1 -10   47.16    2.85
   1   3 -10   47.42    2.70
  -3   1 -10   41.67    2.84
  -1  -3 -10   48.16    2.72
   1   3 -10   47.87    2.84
  -3   1 -10   46.98    3.12
  -1  -3 -10   45.72    2.83
  -1  -3 -10   44.01    2.95
   3  -1 -10   42.14    2.71
   1   3  10   47.07    2.92
   1   3  10   41.18    2.88
  -1  -3  10   44.67    3.11
  -1  -3  10   47.58    2.96
  -3   1  10   44.71    3.06
   3  -1  10   45.15    2.86
   3  -1  10   46.71    2.84
   3  -2 -10   12.88    0.77
   3  -2 -10   12.56    0.82
  -3   2 -10   14.14    0.94
   2   3 -10   12.74    0.80
  -3   2 -10   13.50    0.87
   2   3 -10   12.18    0.76
  -2  -3 -10   13.18    0.78
  -2  -3 -10   12.08    0.83
  -3   2 -10   10.37    0.80
  -2  -3 -10   12.56    0.80
   2   3  10   13.08    0.87
   3  -2  10   12.67    0.81
  -2  -3  10   12.03    0.89
   2   3  10   10.43    0.83
  -2  -3  10   12.63    0.83
  -3  -3 -10   26.85    1.80
   3  -3 -10   27.48    1.65
  -3  -3 -10   27.11    1.58
  -3   3 -10   29.33    1.75
   3   3 -10   26.99    1.64
  -3  -3 -10   26.10    1.71
   3   3 -10   25.93    1.56
   3  -3 -10   23.21    1.55
  -3  -3 -10   25.65    1.63
   3  -3 -10   23.64    1.66
  -3  -3  10   24.48    1.79
   3  -3  10   25.45    1.64
  -3  -3  10   26.00    1.70
   3   3  10   25.51    1.66
   3   3  10   27.57    1.69
   4   3 -10    6.47    0.43
   4   3 -10    6.06    0.41
   3  -4 -10    6.17    0.45
  -3   4 -10    6.48    0.51
  -4  -3 -10    6.09    0.43
  -4  -3 -10    6.19    0.45
   3  -4 -10    6.52    0.44
   4   3  10    6.32    0.44
  -4  -3  10    6.07    0.43
   3  -4  10    6.25    0.42
   4   2 -10   27.41    1.68
  -4  -2 -10   26.15    1.62
   4   2 -10   25.83    1.67
   2  -4 -10   27.60    1.70
   4   2 -10   26.32    1.60
  -4  -2 -10   27.00    1.68
   2  -4 -10   27.98    1.60
  -4  -2 -10   25.06    1.76
  -4  -2 -10   26.91    1.84
   4   2  10   26.56    1.70
  -4  -2  10   25.69    1.83
   4   2  10   28.89    1.72
   4   1 -10    9.55    0.59
   1  -4 -10    9.02    0.59
   1  -4 -10   10.30    0.59
   1  -4 -10    8.11    0.62
   4   1 -10    9.15    0.61
  -1   4 -10    8.28    0.62
  -4  -1 -10    9.17    0.65
  -4  -1 -10    9.84    0.61
  -4  -1 -10    9.25    0.69
   4   1 -10    9.11    0.61
  -1   4 -10    9.66    0.70
  -1   4 -10   10.75    0.78
  -4  -1 -10    8.15    0.58
   4   1 -10    9.78    0.61
   4   1  10   10.17    0.64
  -1   4  10    9.42    0.70
  -4  -1  10    9.11    0.66
   4   1  10    9.03    0.63
  -4   0 -10   32.20    2.38
   0   4 -10   36.17    2.17
   0  -4 -10   36.87    2.07
  -4   0 -10   35.88    2.16
   4   0 -10   34.26    2.17
   4   0 -10   36.41    2.17
   0  -4 -10   34.74    2.15
  -4   0 -10   32.09    2.27
   4   0 -10   36.14    2.07
   4   0  10   37.44    2.18
  -4   0  10   32.99    2.34
   0  -4  10   35.98    2.39
   0   4  10   32.29    2.25
   4   0  10   34.11    2.19
   0  -4  10   33.06    2.26
   1   4 -10    9.99    0.58
  -4   1 -10    9.81    0.73
   1   4 -10    9.86    0.63
  -1  -4 -10    9.14    0.63
   4  -1 -10    9.11    0.62
   4  -1 -10    8.39    0.60
   4  -1 -10    9.24    0.62
  -4   1 -10    8.40    0.67
  -1  -4 -10   10.39    0.61
  -1  -4 -10    9.29    0.61
   1   4  10   10.73    0.71
   4  -1  10    9.80    0.62
   1   4  10    8.49    0.66
  -1  -4  10    9.88    0.72
  -1  -4  10    9.39    0.65
   4  -1  10    9.72    0.63
   2   4 -10   27.90    1.75
  -2  -4 -10   27.19    1.82
  -4   2 -10   30.47    1.96
   4  -2 -10   27.59    1.76
  -4   2 -10   27.68    1.85
  -2  -4 -10   27.35    1.74
  -2  -4 -10   27.18    1.68
   4  -2 -10   31.17    1.67
   4  -2 -10   26.37    1.75
   2   4 -10   28.42    1.66
   4  -2  10   27.08    1.75
  -2  -4  10   27.64    1.82
  -2  -4  10   28.17    1.93
   2   4  10   28.67    1.81
   2   4  10   24.93    1.78
  -3  -4 -10    6.24    0.44
   3   4 -10    6.00    0.41
  -4   3 -10    7.04    0.50
   4  -3 -10    6.57    0.44
  -3  -4 -10    6.44    0.45
  -3  -4  10    6.03    0.45
   4  -3  10    6.44    0.43
   4  -4 -10   14.36    0.92
  -4  -4 -10   13.97    0.95
  -4   4 -10   16.05    1.00
   4   4 -10   13.88    0.87
  -4  -4  10   13.25    0.94
   4  -4  10   13.59    0.90
  -4   5 -10    3.46    0.32
  -5  -4 -10    3.03    0.26
   5   4 -10    2.84    0.23
   4  -5 -10    2.86    0.25
   5   4  10    3.16    0.25
  -5  -4  10    2.74    0.23
  -3   5 -10   11.36    0.81
   5   3 -10   10.59    0.68
   3  -5 -10   10.81    0.73
  -5  -3 -10   10.14    0.75
   5   3  10   11.84    0.69
   5   2 -10    5.03    0.34
   2  -5 -10    4.72    0.36
  -5  -2 -10    4.77    0.38
   5   2  10    5.46    0.34
   5   2  10    4.97    0.36
  -1   5 -10   15.50    1.08
   5   1 -10   16.23    0.93
   1  -5 -10   16.02    0.92
   5   1 -10   16.58    0.97
  -5  -1 -10   14.80    1.02
  -1   5 -10   13.19    0.97
   5   1  10   15.07    0.98
  -5  -1  10   13.65    1.05
   5   0 -10    5.81    0.39
   0  -5 -10    6.63    0.39
   5   0 -10    5.88    0.40
  -5   0 -10    5.71    0.44
   0  -5 -10    5.80    0.39
   0   5 -10    5.73    0.41
   0  -5  10    5.53    0.42
   5   0  10    5.72    0.41
   5   0  10    6.21    0.41
   0   5  10    4.73    0.45
   5  -1 -10   15.07    0.99
   5  -1 -10   15.66    0.95
  -1  -5 -10   14.80    1.02
  -1  -5 -10   16.72    0.95
  -5   1 -10   14.87    1.05
   5  -1  10   14.97    0.99
   5  -1  10   15.48    1.00
   1   5  10   15.99    1.05
  -1  -5  10   15.19    1.03
  -2  -5 -10    5.50    0.35
   2   5 -10    5.00    0.32
   5  -2 -10    4.77    0.35
  -2  -5 -10    4.95    0.35
  -5   2 -10    4.31    0.39
   5  -2  10    4.87    0.35
  -2  -5  10    4.66    0.36
  -3  -5 -10   10.15    0.70
   5  -3 -10   10.66    0.68
  -3  -5 -10   10.95    0.66
   3   5 -10   10.32    0.64
  -5   3 -10    8.86    0.73
  -3  -5  10   10.12    0.69
   5  -3  10   10.32    0.67
  -5   4 -10    2.89    0.28
   5  -4 -10    3.04    0.24
  -4  -5 -10    2.69    0.24
   4   5 -10    3.02    0.23
  -4  -5  10    2.80    0.23
   4   5  10    3.00    0.25
   5  -4  10    2.96    0.23
  -5  -5 -10    5.11    0.37
   5   5 -10    4.88    0.34
   5  -5 -10    4.79    0.36
  -5  -5  10    4.57    0.35
   5   5  10    5.42    0.36
  -6  -5 -10    1.26    0.15
   6   5 -10    1.16    0.14
   5  -6 -10    0.96    0.14
   6   5  10    1.55    0.16
   6   4 -10    5.56    0.38
  -6  -4 -10    5.06    0.41
   6   4  10    6.37    0.40
  -6  -3 -10    2.34    0.24
   6   3 -10    2.52    0.22
  -3   6 -10    3.11    0.31
   6   3  10    2.82    0.22
  -6  -2 -10    9.13    0.62
  -2   6 -10    7.49    0.67
   6   2 -10    9.23    0.57
   6   2  10    9.13    0.59
  -6  -1 -10    3.38    0.29
   6   1 -10    3.15    0.25
  -1   6 -10    3.34    0.38
   6   1  10    3.42    0.26
   0  -6 -10   11.88    0.69
  -6   0 -10   10.79    0.76
   6   0 -10   10.76    0.71
   6   0 -10   10.93    0.69
   6   0  10   10.41    0.72
   6  -1 -10    3.82    0.26
  -1  -6 -10    3.76    0.26
  -6   1 -10    3.15    0.29
   6  -1 -10    3.13    0.25
   6  -1  10    3.07    0.26
  -1  -6  10    3.26    0.28
  -2  -6 -10    9.31    0.57
   6  -2 -10    8.80    0.59
  -6   2 -10    7.78    0.63
  -2  -6 -10    8.82    0.60
   6  -2  10    8.78    0.59
  -2  -6  10    9.19    0.61
   3   6 -10    2.23    0.18
  -3  -6 -10    2.25    0.20
   6  -3 -10    2.06    0.20
   6  -3  10    2.35    0.20
   3   6  10    2.27    0.21
  -3  -6  10    2.40    0.21
   4   6 -10    5.25    0.35
  -4  -6 -10    5.01    0.38
   6  -4 -10    5.08    0.37
   6  -4  10    5.00    0.36
   4   6  10    5.85    0.37
  -4  -6  10    4.89    0.37
   5   6 -10    1.14    0.14
   6  -5 -10    1.23    0.15
  -5  -6 -10    1.17    0.14
  -5  -6  10    1.15    0.13
   5   6  10    1.33    0.16
   7   3 -10    3.39    0.25
  -7  -3 -10    3.24    0.27
  -2   7 -10    1.43    0.25
  -7  -2 -10    1.79    0.19
   7   2 -10    1.42    0.16
  -7  -1 -10    4.50    0.36
  -1   7 -10    4.08    0.43
   7   1 -10    5.16    0.33
   7   1  10    4.37    0.33
   7   0 -10    1.71    0.17
  -7   0 -10    2.15    0.20
   0   7 -10    2.14    0.33
   7   0  10    1.72    0.18
  -7   1 -10    4.11    0.34
   7  -1 -10    4.47    0.32
   7  -1  10    4.44    0.32
   7  -2 -10    1.56    0.16
  -2  -7  10    1.64    0.17
   2   7  10    1.37    0.16
   7  -2  10    1.61    0.16
  -3  -7 -10    3.12    0.25
   7  -3 -10    2.95    0.24
   3   7  10    3.27    0.25
   7  -3  10    3.11    0.24
  -3  -7  10    3.15    0.25
   0   0 -11  185.91   10.63
   0   0 -11  180.27   10.12
   0   0 -11  181.16   11.10
   0   0 -11  170.98   11.53
   0   0  11  162.63   10.68
   0   0  11  156.68   10.70
   1   0 -11   18.78    1.21
   1   0 -11   15.63    1.24
   1   0 -11   19.48    1.17
   0   1 -11   19.53    1.29
   0   1 -11   19.38    1.11
   0  -1 -11   19.59    1.11
  -1   0 -11   20.72    1.22
  -1   0 -11   17.85    1.11
   0   1 -11   15.39    1.22
   0  -1 -11   16.04    1.20
  -1   0 -11   19.50    1.17
   1   0 -11   16.59    1.18
   1   0 -11   16.85    1.17
   0  -1 -11   18.15    1.16
  -1   0 -11   18.85    1.26
   0  -1  11   18.92    1.19
  -1   0  11   17.60    1.25
   0   1  11   20.03    1.22
   1   0  11   19.38    1.20
   1   0  11   17.79    1.19
   0  -1  11   20.12    1.19
  -1   1 -11  128.08    7.93
  -1  -1 -11  122.26    8.21
   1   1 -11  104.65    7.58
  -1  -1 -11  126.26    7.23
  -1   1 -11  130.36    7.59
  -1   1 -11  133.62    7.22
   1   1 -11  123.30    7.60
   1  -1 -11  128.19    7.58
   1   1 -11  121.21    7.22
   1  -1 -11  133.38    7.22
  -1  -1 -11  108.71    7.91
   1   1 -11  122.08    7.92
   1  -1 -11  114.03    7.63
  -1   1 -11  140.79    8.25
   1  -1 -11  116.58    7.61
   1   1  11  127.37    7.66
   1  -1  11  125.86    7.60
  -1  -1  11  119.03    8.23
   1  -1  11  111.07    7.63
   1   1  11  126.85    7.65
   1  -2 -11   15.78    0.97
   1  -2 -11   15.62    0.93
   2   1 -11   15.32    0.89
  -2  -1 -11   13.42    0.97
   2   1 -11   13.39    0.93
   2   1 -11   15.56    0.93
   1  -2 -11   13.16    0.95
  -1   2 -11   15.53    0.88
  -2  -1 -11   14.42    0.93
   1  -2 -11   15.00    0.89
   2   1 -11   13.31    0.94
  -2  -1 -11   15.09    1.01
  -2  -1 -11   14.79    0.90
   2   1  11   15.50    0.97
   2   1  11   12.77    0.96
   1  -2  11   14.32    0.94
  -2  -1  11   14.81    1.01
  -2   0 -11  122.21    8.07
   2   0 -11  117.88    7.08
  -2   0 -11  114.14    7.43
   0   2 -11  111.23    7.43
   0  -2 -11  121.60    7.08
   2   0 -11  128.23    7.47
   0  -2 -11  113.03    7.73
   2   0 -11  126.97    7.45
   0   2 -11  110.13    7.07
  -2   0 -11  122.21    7.76
   0   2 -11  121.41    7.78
  -2   0 -11  114.02    7.08
   0  -2 -11  128.20    7.42
   2   0 -11  107.91    7.42
   0   2  11  133.92    7.52
   2   0  11  121.94    7.49
   0  -2  11  123.21    7.43
   0  -2  11  117.94    7.46
   2   0  11  128.23    7.46
  -2   0  11  128.77    8.05
   1   2 -11   15.42    0.92
  -2   1 -11   16.32    0.98
   2  -1 -11   15.04    0.98
  -1  -2 -11   15.36    0.97
   1   2 -11   15.47    0.98
   2  -1 -11   15.05    0.93
  -2   1 -11   16.59    1.09
  -1  -2 -11   14.19    1.00
  -1  -2 -11   15.49    0.94
   1   2 -11   13.77    0.96
   2  -1 -11   17.01    0.97
   2  -1 -11   14.84    0.99
  -2   1 -11   16.53    1.03
  -1  -2  11   17.08    1.08
   2  -1  11   13.99    0.97
  -1  -2  11   14.66    1.01
   1   2  11   14.68    1.03
   2  -1  11   14.06    0.98
  -1  -2  11   13.59    0.97
   1   2  11   14.94    1.01
   2   2 -11  102.78    5.98
  -2  -2 -11   99.07    6.48
  -2  -2 -11   98.67    5.71
  -2   2 -11  106.74    5.99
   2   2 -11   97.51    5.69
   2   2 -11   99.12    5.98
  -2  -2 -11   88.08    6.24
   2  -2 -11   84.69    6.01
   2  -2 -11   95.50    6.02
  -2  -2 -11   96.65    5.98
   2  -2 -11   96.68    5.70
   2  -2 -11   93.82    5.96
  -2   2 -11  100.20    6.27
   2  -2  11   93.79    6.01
  -2  -2  11  100.17    6.24
  -2  -2  11   95.85    6.50
   2   2  11  100.14    6.05
  -3  -2 -11    9.77    0.64
   2  -3 -11    9.30    0.60
   3   2 -11    8.90    0.56
  -2   3 -11    8.09    0.59
   2  -3 -11    7.94    0.55
   3   2 -11    8.93    0.59
  -3  -2 -11    9.13    0.59
  -2   3 -11    8.52    0.65
  -3  -2 -11    9.21    0.58
   3   2 -11    8.88    0.57
  -3  -2 -11    8.51    0.61
   2  -3 -11    9.32    0.62
   3   2  11    7.85    0.61
   3   2  11    9.10    0.63
  -3  -2  11    8.70    0.64
   2  -3  11    9.43    0.58
  -3  -2  11    9.08    0.60
  -1   3 -11   80.56    4.84
  -3  -1 -11   67.09    4.19
  -3  -1 -11   72.72    4.78
  -3  -1 -11   64.33    4.59
  -3  -1 -11   74.16    4.39
   3   1 -11   67.30    4.39
   3   1 -11   74.94    4.39
   3   1 -11   74.26    4.41
   1  -3 -11   71.05    4.19
   1  -3 -11   60.07    4.42
   3   1 -11   74.71    4.19
   1  -3 -11   71.57    4.37
   1  -3  11   75.09    4.40
   3   1  11   68.08    4.43
  -3  -1  11   72.05    4.76
   3   1  11   75.51    4.43
  -1   3  11   64.33    4.46
  -3   0 -11   11.46    0.82
   0  -3 -11   10.21    0.74
  -3   0 -11   10.16    0.77
   0   3 -11   11.43    0.74
   3   0 -11   11.63    0.74
   0  -3 -11   11.58    0.71
   3   0 -11   11.61    0.74
   0  -3 -11   12.36    0.73
   3   0 -11   11.11    0.71
  -3   0 -11   11.48    0.74
   0   3 -11   10.90    0.69
   0  -3  11   10.58    0.82
  -3   0  11   11.22    0.78
   0   3  11   12.19    0.82
   3   0  11   11.49    0.75
   3   0  11   11.65    0.75
   3  -1 -11   81.46    4.55
   3  -1 -11   74.79    4.58
   1   3 -11   75.11    4.56
   1   3 -11   76.18    4.33
  -1  -3 -11   70.97    4.74
  -1  -3 -11   78.98    4.36
  -1  -3 -11   72.77    4.55
   3  -1 -11   68.12    4.35
  -3   1 -11   75.82    4.78
  -3   1 -11   65.17    4.56
   3  -1 -11   75.64    4.57
  -3   1 -11   82.46    4.99
   1   3  11   72.22    4.64
   1   3  11   68.56    4.61
   3  -1  11   72.66    4.56
   3  -1  11   71.15    4.59
  -1  -3  11   71.44    4.97
  -1  -3  11   74.19    4.76
   3  -2 -11    9.53    0.59
  -3   2 -11   10.60    0.69
  -3   2 -11    9.23    0.62
   2   3 -11    9.30    0.59
  -3   2 -11   10.72    0.74
  -2  -3 -11    9.35    0.62
   3  -2 -11    9.64    0.63
   2   3 -11    9.61    0.63
  -2  -3 -11    9.36    0.61
   3  -2 -11    9.22    0.64
  -2  -3 -11    9.00    0.64
   2   3  11    9.45    0.69
  -2  -3  11    9.47    0.70
   3  -2  11    9.00    0.63
  -2  -3  11    9.17    0.64
  -3  -3 -11   42.79    2.84
   3   3 -11   43.89    2.59
   3  -3 -11   45.32    2.74
  -3   3 -11   50.12    2.88
  -3  -3 -11   43.27    2.72
   3  -3 -11   38.42    2.74
   3   3 -11   44.67    2.72
  -3  -3 -11   44.52    2.61
   3  -3 -11   41.63    2.59
   3   3  11   41.52    2.76
  -3  -3  11   44.69    2.83
  -3  -3  11   42.80    2.97
   3  -3  11   44.15    2.73
   3   3  11   45.01    2.78
  -4  -3 -11    5.08    0.38
  -3   4 -11    5.55    0.43
   3  -4 -11    4.79    0.33
  -4  -3 -11    5.05    0.37
   4   3 -11    4.90    0.34
   3  -4 -11    5.50    0.38
   3  -4  11    4.95    0.34
   4   3  11    4.60    0.37
  -4  -3  11    5.00    0.36
   4   2 -11   42.97    2.69
  -4  -2 -11   46.65    2.94
   4   2 -11   41.17    2.69
  -4  -2 -11   43.88    2.82
   2  -4 -11   44.19    2.57
  -4  -2 -11   42.86    2.69
   2  -4 -11   42.86    2.72
  -4  -2 -11   42.11    2.58
   4   2 -11   43.48    2.57
  -4  -2  11   40.33    2.92
   4   2  11   45.86    2.73
   4   2  11   43.18    2.72
  -4  -1 -11    7.04    0.47
  -1   4 -11    7.04    0.56
   4   1 -11    6.72    0.46
   1  -4 -11    7.04    0.45
  -1   4 -11    8.12    0.62
  -1   4 -11    5.89    0.48
   1  -4 -11    7.64    0.46
   4   1 -11    7.33    0.46
   1  -4 -11    6.07    0.48
   4   1 -11    7.16    0.47
  -4  -1 -11    7.63    0.53
  -4  -1 -11    7.05    0.50
   4   1 -11    6.12    0.47
   4   1  11    7.34    0.50
   4   1  11    6.66    0.49
  -1   4  11    7.29    0.55
  -4  -1  11    6.76    0.50
  -4   0 -11   56.28    3.78
   4   0 -11   55.66    3.46
   0  -4 -11   58.64    3.30
   4   0 -11   55.56    3.30
  -4   0 -11   55.37    3.45
  -4   0 -11   50.10    3.61
   4   0 -11   58.34    3.47
   0   4 -11   56.34    3.46
   0  -4 -11   55.94    3.44
   4   0  11   56.85    3.47
   4   0  11   53.95    3.48
   0   4  11   55.03    3.54
  -1  -4 -11    7.05    0.50
   4  -1 -11    7.27    0.50
  -1  -4 -11    7.13    0.48
  -4   1 -11    6.88    0.53
   4  -1 -11    6.85    0.48
  -4   1 -11    7.88    0.58
   1   4 -11    7.63    0.46
   4  -1 -11    7.32    0.49
  -1  -4 -11    8.17    0.49
   1   4 -11    7.27    0.50
   1   4  11    6.97    0.53
   4  -1  11    7.25    0.49
   1   4  11    7.29    0.57
  -1  -4  11    7.48    0.57
   4  -1  11    6.95    0.50
  -1  -4  11    7.21    0.51
  -2  -4 -11   48.49    2.66
  -2  -4 -11   43.15    2.89
  -4   2 -11   50.15    3.08
   4  -2 -11   42.66    2.79
   4  -2 -11   48.86    2.65
  -2  -4 -11   44.27    2.77
   2   4 -11   45.54    2.64
  -4   2 -11   43.49    2.92
   4  -2 -11   43.46    2.79
   2   4 -11   44.35    2.78
   2   4  11   47.22    2.85
   4  -2  11   44.94    2.79
   2   4  11   39.54    2.81
  -2  -4  11   41.75    2.89
  -2  -4  11   41.71    3.04
   3   4 -11    4.82    0.33
   4  -3 -11    4.89    0.35
  -3  -4 -11    4.86    0.36
   4  -3 -11    5.00    0.33
  -3  -4 -11    4.87    0.36
   4  -3  11    5.05    0.35
  -3  -4  11    4.65    0.35
  -4  -4 -11   23.67    1.55
   4  -4 -11   23.95    1.49
   4   4 -11   23.39    1.41
   4  -4  11   23.58    1.48
  -4  -4  11   22.48    1.53
  -5  -4 -11    2.49    0.24
   4  -5 -11    2.54    0.24
  -4   5 -11    3.06    0.29
   5   4 -11    2.65    0.22
   5   4  11    2.71    0.23
  -5  -3 -11   18.27    1.28
  -3   5 -11   20.89    1.33
   3  -5 -11   18.08    1.23
   5   3 -11   17.94    1.16
   5   3  11   20.89    1.17
   5   3  11   19.03    1.23
   2  -5 -11    4.11    0.28
  -5  -2 -11    4.14    0.32
   2  -5 -11    3.74    0.31
   5   2 -11    3.99    0.29
  -2   5 -11    3.41    0.38
   5   2  11    4.42    0.29
   5   2  11    3.96    0.31
  -5  -1 -11   25.66    1.76
  -1   5 -11   25.80    1.81
   1  -5 -11   29.30    1.60
   5   1 -11   26.90    1.60
   5   1 -11   25.75    1.68
   5   1  11   26.71    1.70
   5   0 -11    4.98    0.34
   0  -5 -11    5.11    0.33
  -5   0 -11    4.37    0.37
   0  -5 -11    4.64    0.33
   5   0 -11    4.80    0.34
   5   0  11    4.83    0.36
   5  -1 -11   27.43    1.69
  -1  -5 -11   24.61    1.75
  -1  -5 -11   29.81    1.62
  -5   1 -11   25.97    1.78
   5  -1 -11   27.18    1.62
  -1  -5  11   26.09    1.76
   5  -1  11   27.08    1.70
   5  -2 -11    4.82    0.29
   2   5 -11    4.18    0.28
  -2  -5 -11    3.96    0.31
  -2  -5 -11    4.47    0.31
   5  -2 -11    3.91    0.30
  -5   2 -11    3.76    0.34
   5  -2  11    3.85    0.31
  -2  -5  11    3.99    0.31
  -3  -5 -11   18.61    1.23
  -5   3 -11   18.94    1.26
   5  -3 -11   18.44    1.19
  -3  -5 -11   20.18    1.15
   3   5 -11   18.25    1.12
   5  -3  11   18.04    1.18
  -3  -5  11   17.51    1.23
  -5   4 -11    2.93    0.27
   5  -4 -11    2.53    0.22
  -4  -5 -11    2.47    0.22
   4   5 -11    2.47    0.21
   5  -4  11    2.58    0.21
  -4  -5  11    2.63    0.21
   4   5  11    2.41    0.23
  -5  -5 -11    9.07    0.63
   5  -5 -11    9.08    0.62
   5   5 -11    8.71    0.58
   5   5  11   10.35    0.60
  -5  -5  11    8.39    0.62
   6   4 -11    8.79    0.65
  -4   6 -11   11.92    0.76
  -6  -4 -11    9.45    0.71
   6   4  11   11.38    0.67
   6   3 -11    2.13    0.20
  -3   6 -11    2.52    0.29
  -6  -3 -11    2.11    0.21
   6   3  11    2.24    0.20
  -6  -2 -11   16.43    1.08
   6   2 -11   15.74    0.98
   6   2  11   15.44    1.03
  -6  -1 -11    2.72    0.25
   6   1 -11    2.92    0.23
  -1   6 -11    2.96    0.35
   6   1  11    2.78    0.24
   6   0 -11   18.29    1.17
   0  -6 -11   19.78    1.16
  -6   0 -11   17.80    1.28
   0   6 -11   21.69    1.35
   6   0 -11   18.96    1.22
   6   0  11   18.30    1.23
  -6   1 -11    2.52    0.26
   6  -1 -11    3.03    0.23
  -1  -6 -11    3.13    0.23
   6  -1  11    2.80    0.24
  -1  -6  11    2.72    0.24
   6  -2 -11   15.09    0.98
  -2  -6 -11   16.90    0.95
  -2  -6 -11   14.75    1.01
  -6   2 -11   13.72    1.03
  -2  -6  11   14.81    1.02
   6  -2  11   15.62    0.98
   3   6 -11    2.20    0.17
  -6   3 -11    1.61    0.22
  -3  -6 -11    1.90    0.18
   6  -3 -11    1.94    0.19
  -3  -6  11    1.95    0.19
   3   6  11    2.05    0.20
   6  -3  11    1.93    0.18
  -4  -6 -11    8.99    0.63
   6  -4 -11    9.10    0.62
   4   6 -11    9.09    0.58
   4   6  11    9.92    0.61
   6  -4  11    9.34    0.61
  -4  -6  11    8.81    0.63
   7   3 -11    6.49    0.45
  -3   7 -11    7.70    0.54
  -7  -3 -11    6.46    0.49
  -7  -2 -11    1.77    0.19
  -2   7 -11    1.64    0.26
   7   2 -11    1.62    0.17
  -1   7 -11    6.81    0.64
  -7  -1 -11    8.57    0.59
   7   1 -11    8.91    0.54
   7   1  11    8.27    0.56
  -7   0 -11    1.74    0.19
   0   7 -11    2.06    0.31
   7   0 -11    1.56    0.16
   7   0  11    1.60    0.17
   7  -1 -11    8.30    0.56
  -7   1 -11    8.17    0.59
   7  -1  11    8.39    0.56
   7  -2 -11    1.39    0.15
  -2  -7  11    1.37    0.15
   7  -2  11    1.45    0.15
   2   7  11    1.37    0.15
  -3  -7 -11    5.97    0.41
  -3  -7  11    5.59    0.41
   3   7  11    5.23    0.39
   7  -3  11    6.08    0.40
   0   0 -12   18.77    1.38
   0   0 -12   20.97    1.29
   0   0 -12   20.94    1.22
   0   0 -12   20.71    1.34
   0   0  12   20.16    1.32
   0   0  12   20.39    1.32
   0  -1 -12    1.98    0.15
  -1   0 -12    1.93    0.16
   0   1 -12    1.96    0.17
   1   0 -12    1.36    0.16
  -1   0 -12    2.05    0.17
  -1   0 -12    1.77    0.14
   0   1 -12    1.63    0.14
   1   0 -12    1.87    0.15
   1   0 -12    1.65    0.16
   0  -1 -12    1.49    0.14
   0  -1 -12    1.66    0.15
   0   1 -12    1.62    0.18
   1   0 -12    1.46    0.14
   0   1  12    1.36    0.20
   0  -1  12    1.86    0.17
   1   0  12    1.35    0.17
   1   0  12    1.52    0.17
  -1   1 -12   24.05    1.60
  -1   1 -12   25.90    1.38
   1   1 -12   22.21    1.39
   1  -1 -12   23.54    1.48
   1  -1 -12   19.53    1.48
  -1  -1 -12   21.42    1.46
  -1  -1 -12   24.46    1.57
   1   1 -12   22.49    1.47
  -1  -1 -12   21.36    1.52
  -1  -1 -12   22.17    1.40
  -1   1 -12   24.74    1.47
   1  -1 -12   25.07    1.39
   1  -1 -12   24.90    1.46
  -1   1 -12   23.66    1.54
  -1  -1  12   21.40    1.58
   1   1  12   25.30    1.51
   1  -1  12   23.52    1.47
   1  -1  12   21.32    1.48
  -2  -1 -12    1.53    0.14
   2   1 -12    0.91    0.12
   1  -2 -12    1.31    0.15
   1  -2 -12    1.45    0.12
  -2  -1 -12    1.17    0.13
   2   1 -12    1.34    0.15
   2   1 -12    1.21    0.13
   2   1 -12    0.94    0.13
   1  -2 -12    0.88    0.14
   2   1 -12    1.15    0.12
   1  -2 -12    1.38    0.12
  -2  -1 -12    1.52    0.14
  -1   2 -12    1.44    0.10
  -2  -1 -12    1.07    0.13
  -1   2 -12    0.92    0.17
  -1   2 -12    0.88    0.13
  -2  -1  12    1.34    0.14
   2   1  12    1.02    0.16
   1  -2  12    1.03    0.12
   2   0 -12   14.97    0.91
   0  -2 -12   14.81    0.89
   2   0 -12   14.26    0.91
  -2   0 -12   12.98    0.89
   0  -2 -12   13.33    0.91
   0  -2 -12   13.72    0.86
   2   0 -12   13.92    0.90
  -2   0 -12   14.52    0.98
  -2   0 -12   14.56    0.94
   0   2 -12   12.36    0.84
   0   2 -12   12.26    0.90
   0   2 -12   13.22    0.96
  -2   0 -12   12.64    0.85
   2   0  12   14.41    0.92
   0  -2  12   15.47    0.89
  -2   0  12   14.33    0.96
   2   0  12   15.31    0.92
   0  -2  12   13.34    0.90
   2  -1 -12    1.32    0.12
   1   2 -12    1.23    0.12
   1   2 -12    1.32    0.12
  -1  -2 -12    1.15    0.13
   2  -1 -12    1.17    0.14
  -1  -2 -12    1.18    0.12
   1   2 -12    1.18    0.15
   2  -1 -12    1.20    0.14
  -1  -2 -12    1.14    0.12
  -1  -2  12    1.06    0.12
   2  -1  12    1.11    0.12
   1   2  12    1.11    0.16
   2  -1  12    1.04    0.14
  -1  -2  12    0.96    0.15
   1   2  12    1.15    0.19
   2   2 -12   11.43    0.72
   2   2 -12   11.32    0.74
   2  -2 -12   11.60    0.69
  -2   2 -12   12.22    0.74
  -2   2 -12   12.39    0.84
   2   2 -12   11.52    0.70
   2  -2 -12   10.40    0.71
   2  -2 -12   10.51    0.75
  -2  -2 -12   10.40    0.76
   2  -2 -12   11.23    0.74
  -2   2 -12   11.86    0.79
  -2  -2 -12   11.10    0.73
  -2  -2 -12   11.30    0.71
   2  -2  12   11.26    0.74
   2   2  12    9.39    0.76
  -2  -2  12   11.00    0.80
   2   2  12   11.91    0.79
  -2  -2  12   11.10    0.75
   3   2 -12    0.75    0.11
  -3  -2 -12    0.77    0.10
   2  -3 -12    0.67    0.12
   3   2 -12    0.55    0.11
   2  -3 -12    0.93    0.13
  -2   3 -12    0.63    0.10
  -2   3 -12    0.66    0.16
  -3  -2 -12    0.75    0.13
   3   2 -12    0.56    0.09
  -3  -2 -12    0.64    0.11
   2  -3 -12    0.59    0.09
  -3  -2 -12    0.83    0.11
  -2   3 -12    1.02    0.22
  -3  -2  12    0.72    0.09
  -3  -2  12    0.83    0.13
   3   2  12    0.54    0.12
   3   2  12    0.63    0.14
   2  -3  12    0.61    0.09
   1  -3 -12   13.01    0.81
  -3  -1 -12   11.85    0.87
  -3  -1 -12   13.32    0.83
  -3  -1 -12   13.85    0.91
  -3  -1 -12   12.17    0.80
   3   1 -12   12.52    0.83
   3   1 -12   11.28    0.83
   3   1 -12   13.01    0.83
   1  -3 -12   10.92    0.84
   1  -3 -12   13.06    0.79
  -1   3 -12   14.39    0.97
   3   1 -12   13.35    0.80
   3   1  12   14.24    0.87
  -3  -1  12   12.77    0.89
   3   1  12   12.02    0.86
  -1   3  12   12.60    0.90
   1  -3  12   13.97    0.82
  -3   0 -12    0.83    0.11
   0  -3 -12    0.92    0.12
   3   0 -12    0.78    0.12
   0  -3 -12    0.85    0.09
  -3   0 -12    1.09    0.14
   3   0 -12    0.86    0.11
  -3   0 -12    0.69    0.10
   0   3 -12    0.77    0.13
   3   0 -12    0.86    0.11
   0   3 -12    0.81    0.09
   0   3  12    1.02    0.19
   3   0  12    0.87    0.13
   0   3  12    0.52    0.12
   3   0  12    0.71    0.11
  -3   1 -12   14.22    0.92
   3  -1 -12   13.45    0.88
  -1  -3 -12   12.75    0.88
   1   3 -12   13.34    0.82
   3  -1 -12   13.73    0.87
  -3   1 -12   14.71    0.97
   1   3 -12   13.80    0.87
  -3   1 -12   11.54    0.86
   3  -1 -12   12.77    0.83
   3  -1 -12   15.35    0.86
  -1  -3 -12   13.75    0.86
  -1  -3 -12   13.88    0.84
   1   3  12   12.62    0.93
  -1  -3  12   12.89    0.90
   1   3  12   13.77    0.91
   3  -1  12   13.13    0.86
  -1  -3  12   12.83    0.96
   3  -1  12   12.56    0.88
   2   3 -12    0.73    0.12
  -2  -3 -12    0.64    0.10
   3  -2 -12    0.74    0.10
  -2  -3 -12    0.71    0.10
   3  -2 -12    0.70    0.12
   2   3 -12    0.73    0.10
  -2  -3 -12    0.81    0.13
  -3   2 -12    1.11    0.16
  -3   2 -12    1.06    0.19
   3  -2 -12    0.73    0.12
   2   3  12    0.76    0.14
   3  -2  12    0.68    0.11
  -2  -3  12    0.64    0.14
   2   3  12    0.74    0.16
  -2  -3  12    0.68    0.11
  -3  -3 -12    8.64    0.55
   3   3 -12    7.81    0.55
  -3  -3 -12    8.11    0.57
   3  -3 -12    8.32    0.52
  -3   3 -12    9.41    0.62
  -3  -3 -12    8.40    0.55
   3  -3 -12    8.26    0.56
   3   3 -12    8.15    0.52
   3  -3 -12    7.47    0.57
   3   3  12    8.67    0.61
   3   3  12    7.93    0.58
   3  -3  12    8.50    0.55
  -3  -3  12    7.74    0.61
  -3  -3  12    8.02    0.56
   3  -4 -12    0.32    0.09
  -4  -3 -12    0.44    0.10
  -3   4 -12    0.44    0.15
   3  -4 -12    0.32    0.07
  -4  -3 -12    0.31    0.10
   4   3 -12    0.31    0.08
   4   3  12    0.25    0.09
   2  -4 -12    5.29    0.34
  -2   4 -12    5.05    0.44
  -4  -2 -12    5.08    0.37
   4   2 -12    4.88    0.35
   4   2 -12    5.38    0.37
  -4  -2 -12    5.25    0.36
   2  -4 -12    5.24    0.38
  -4  -2 -12    5.08    0.38
   4   2 -12    5.31    0.35
  -4  -2  12    4.97    0.39
  -2   4  12    4.32    0.42
   4   2  12    5.17    0.39
  -4  -1 -12    0.44    0.11
  -1   4 -12    0.34    0.10
  -4  -1 -12    0.43    0.09
   4   1 -12    0.41    0.08
   4   1 -12    0.55    0.10
  -1   4 -12    0.50    0.17
   1  -4 -12    0.48    0.09
   4   1 -12    0.47    0.09
   1  -4 -12    0.45    0.07
  -4  -1 -12    0.44    0.09
   4   1  12    0.40    0.10
  -1   4  12    0.57    0.16
   4   1  12    0.65    0.11
  -4  -1  12    0.56    0.10
   0  -4 -12    7.25    0.45
  -4   0 -12    7.13    0.53
  -4   0 -12    5.97    0.49
   0   4 -12    6.53    0.47
   0  -4 -12    6.70    0.45
   0   4 -12    7.98    0.56
  -4   0 -12    6.77    0.46
   4   0 -12    6.51    0.46
   4   0 -12    6.50    0.45
   4   0 -12    6.91    0.46
   4   0  12    6.63    0.48
   4   0  12    7.07    0.47
   0   4  12    7.02    0.54
   0   4  12    5.80    0.49
  -1  -4 -12    0.49    0.08
   1   4 -12    0.40    0.08
  -4   1 -12    0.74    0.15
   4  -1 -12    0.64    0.11
   4  -1 -12    0.41    0.09
  -1  -4 -12    0.68    0.11
  -4   1 -12    0.66    0.13
   4  -1 -12    0.50    0.10
  -1  -4 -12    0.49    0.08
   1   4 -12    0.57    0.11
  -1  -4  12    0.76    0.17
   1   4  12    0.41    0.11
   4  -1  12    0.68    0.12
  -1  -4  12    0.56    0.11
   1   4  12    0.55    0.16
   4  -1  12    0.50    0.09
  -4   2 -12    6.24    0.45
   2   4 -12    5.85    0.37
  -2  -4 -12    5.17    0.40
   4  -2 -12    5.56    0.40
   4  -2 -12    6.22    0.38
  -2  -4 -12    6.11    0.40
  -4   2 -12    6.54    0.49
  -2  -4  12    5.43    0.46
   2   4  12    5.17    0.43
   4  -2  12    5.39    0.40
  -2  -4  12    5.20    0.41
   2   4  12    5.67    0.46
   4  -3 -12    0.31    0.07
  -3  -4 -12    0.51    0.10
  -4   3 -12    0.50    0.13
   3   4 -12    0.56    0.10
   4  -3 -12    0.24    0.08
  -3  -4 -12    0.39    0.10
   4  -3  12    0.33    0.08
  -3  -4  12    0.36    0.08
  -4  -4 -12    3.20    0.27
  -4  -4 -12    2.84    0.25
   4  -4 -12    3.02    0.25
   4   4 -12    2.90    0.23
  -4  -4  12    2.88    0.23
   4  -4  12    3.02    0.23
   5   4 -12    0.16    0.08
  -4   5 -12    0.46    0.15
   4  -5 -12    0.10    0.08
  -5  -4 -12    0.12    0.08
   5   4  12    0.19    0.09
  -5  -3 -12    3.58    0.31
   3  -5 -12    3.52    0.30
   5   3 -12    3.35    0.27
  -3   5 -12    4.33    0.37
   5   3  12    4.10    0.29
   5   3  12    3.78    0.29
   2  -5 -12    0.13    0.07
   2  -5 -12    0.28    0.07
  -5  -2 -12    0.26    0.10
  -2   5 -12    0.17    0.15
   5   2 -12    0.28    0.08
   5   2  12    0.31    0.08
   5   2  12    0.18    0.08
  -5  -1 -12    4.70    0.38
   5   1 -12    5.06    0.35
   1  -5 -12    5.59    0.34
  -1   5 -12    4.32    0.44
   5   1 -12    5.50    0.35
  -1   5  12    3.93    0.38
   5   1  12    4.91    0.37
   5   0 -12    0.44    0.10
  -5   0 -12    0.36    0.11
   5   0 -12    0.28    0.07
   0  -5 -12    0.31    0.08
   0   5 -12    0.56    0.20
   5   0  12    0.20    0.08
   5  -1 -12    5.21    0.37
  -5   1 -12    4.59    0.40
   5  -1 -12    5.43    0.36
  -1  -5 -12    5.78    0.37
  -1  -5  12    4.90    0.38
   5  -1  12    5.15    0.38
  -2  -5 -12    0.23    0.07
   5  -2 -12    0.28    0.08
   2   5 -12    0.20    0.07
  -5   2 -12    0.49    0.13
  -2  -5 -12    0.31    0.09
   5  -2 -12    0.26    0.07
   5  -2  12    0.26    0.08
  -2  -5  12    0.27    0.09
  -5   3 -12    4.01    0.33
   5  -3 -12    3.41    0.28
   3   5 -12    3.47    0.26
  -3  -5 -12    3.83    0.29
  -3  -5 -12    3.42    0.28
  -3  -5  12    3.53    0.28
   5  -3  12    3.58    0.27
   4   5 -12    0.11    0.07
  -5   4 -12    0.40    0.12
  -4  -5 -12    0.10    0.08
   5  -4 -12    0.16    0.08
  -4  -5  12    0.11    0.07
   5  -4  12    0.13    0.06
   4   5  12    0.19    0.10
   5  -5 -12    1.77    0.19
  -5  -5 -12    1.72    0.18
   5   5 -12    1.77    0.17
   5   5  12    2.24    0.20
   4  -6 -12    1.36    0.16
  -4   6 -12    1.75    0.21
  -6  -4 -12    1.12    0.15
   6   4 -12    1.23    0.15
   6   4  12    1.50    0.16
  -3   6 -12    0.24    0.14
   6   3 -12    0.10    0.08
  -6  -3 -12    0.12    0.09
   6   3  12    0.12    0.07
  -2   6 -12    2.05    0.29
   6   2 -12    1.99    0.19
  -6  -2 -12    1.92    0.21
   6   2  12    2.04    0.19
  -1   6 -12    0.15    0.17
  -6  -1 -12    0.14    0.09
   1  -6 -12    0.18    0.06
   6   1 -12    0.12    0.08
   6   1  12    0.01    0.07
   0   6 -12    2.77    0.35
  -6   0 -12    2.37    0.24
   6   0 -12    2.30    0.21
   0  -6 -12    2.70    0.20
   6   0 -12    2.35    0.21
   6   0  12    2.25    0.22
   6  -1 -12    0.23    0.07
  -6   1 -12    0.12    0.09
   6  -1 -12    0.19    0.07
  -1  -6 -12    0.19    0.08
   6  -1  12    0.12    0.08
  -2  -6 -12    1.89    0.17
  -6   2 -12    1.79    0.21
   6  -2 -12    1.81    0.18
  -2  -6 -12    2.31    0.20
   6  -2  12    1.89    0.18
  -2  -6  12    1.87    0.19
   6  -3 -12    0.12    0.07
  -6   3 -12    0.13    0.10
  -3  -6 -12    0.14    0.07
   6  -3  12    0.10    0.06
  -3  -6  12    0.13    0.07
  -4  -6 -12    1.08    0.13
   6  -4 -12    1.22    0.15
   4   6 -12    1.13    0.13
  -4  -6  12    1.19    0.13
   6  -4  12    1.03    0.13
   4   6  12    1.30    0.17
  -7  -3 -12    1.17    0.15
   7   3 -12    1.21    0.15
  -7  -2 -12    0.08    0.08
  -2   7 -12    0.21    0.15
   7   2 -12    0.11    0.08
   7   2  12   -0.03    0.06
  -1   7 -12    1.38    0.26
   7   1 -12    1.80    0.17
  -7  -1 -12    1.83    0.19
   7   1  12    1.43    0.16
   7   0 -12   -0.02    0.06
   0   7 -12    0.13    0.17
  -7   0 -12    0.12    0.09
   7   0  12    0.11    0.07
  -7   1 -12    1.60    0.19
   1   7 -12    2.30    0.31
   7  -1 -12    1.61    0.17
   7  -1  12    1.60    0.17
   7  -2 -12    0.04    0.06
   7  -2  12    0.00    0.05
   2   7  12    0.08    0.07
   7  -3 -12    1.09    0.14
   3   7  12    1.14    0.15
  -3  -7  12    1.31    0.13
   7  -3  12    1.06    0.13
   0   0 -13   64.02    3.73
   0   0 -13   61.31    3.55
   0   0 -13   61.10    3.89
   0   0 -13   54.84    4.03
   0   0  13   60.07    3.77
   0   0  13   59.87    3.77
   0   1 -13   47.34    3.28
   0   1 -13   47.16    3.42
   1   0 -13   52.00    3.41
   0   1 -13   52.33    3.11
   0  -1 -13   53.80    3.27
   0  -1 -13   54.45    3.12
  -1   0 -13   53.87    3.12
   1   0 -13   51.69    3.29
   1   0 -13   54.51    3.28
   0  -1 -13   50.13    3.40
   0   1 -13   53.04    3.57
  -1   0 -13   55.79    3.28
  -1   0 -13   53.72    3.42
  -1   0 -13   51.95    3.55
   1   0 -13   52.29    3.12
   1   0  13   53.40    3.32
   1   0  13   56.19    3.32
   0   1  13   54.20    3.33
   0  -1  13   53.97    3.31
   0  -1  13   54.42    3.30
  -1  -1 -13   37.89    2.42
   1  -1 -13   45.47    2.53
  -1   1 -13   42.46    2.76
  -1  -1 -13   38.80    2.64
  -1   1 -13   44.78    2.41
  -1  -1 -13   38.12    2.53
  -1   1 -13   41.88    2.66
   1  -1 -13   42.84    2.56
  -1   1 -13   44.07    2.54
   1   1 -13   35.82    2.41
   1   1 -13   43.04    2.55
   1  -1 -13   43.03    2.41
   1  -1 -13   35.75    2.56
   1   1  13   43.56    2.59
   1  -1  13   37.45    2.56
   1  -1  13   40.49    2.55
  -1  -1  13   37.49    2.75
  -1  -1  13   33.96    2.55
   1   1  13   46.58    2.60
   1  -2 -13   35.69    2.27
  -2  -1 -13   41.94    2.47
  -2  -1 -13   37.03    2.38
   1  -2 -13   32.17    2.30
  -1   2 -13   36.53    2.40
   2   1 -13   37.61    2.18
  -2  -1 -13   35.88    2.28
   1  -2 -13   40.28    2.17
   2   1 -13   34.53    2.38
   2   1 -13   39.27    2.29
  -1   2 -13   34.17    2.28
   2   1 -13   32.96    2.29
  -2  -1 -13   36.93    2.18
   2   1  13   37.44    2.32
   1  -2  13   36.96    2.29
   2   1  13   33.21    2.32
  -2  -1  13   38.02    2.48
   2   0 -13   39.71    2.45
   2   0 -13   43.17    2.59
  -2   0 -13   42.97    2.79
   2   0 -13   39.07    2.59
  -2   0 -13   43.21    2.57
   0  -2 -13   42.08    2.56
   0  -2 -13   38.83    2.66
   0   2 -13   34.81    2.69
   0   2 -13   40.95    2.44
  -2   0 -13   45.42    2.69
   2   0 -13   43.93    2.57
   0  -2 -13   41.71    2.45
   0   2 -13   43.33    2.82
  -2   0 -13   35.72    2.44
   2   0  13   43.91    2.59
   0  -2  13   40.39    2.58
   2   0  13   41.76    2.61
   1   2 -13   43.83    2.43
  -1  -2 -13   37.58    2.42
  -2   1 -13   41.85    2.64
  -1  -2 -13   34.86    2.51
   2  -1 -13   35.25    2.44
  -1  -2 -13   36.55    2.31
  -2   1 -13   43.50    2.42
   1   2 -13   39.55    2.55
   2  -1 -13   35.41    2.44
   1   2 -13   38.63    2.31
  -2   1 -13   43.55    2.54
   1   2 -13   34.96    2.42
   2  -1 -13   44.37    2.42
   1   2  13   42.22    2.49
   2  -1  13   35.86    2.44
  -1  -2  13   35.59    2.63
   1   2  13   39.58    2.47
   2  -1  13   36.20    2.42
  -1  -2  13   38.19    2.43
   2  -2 -13   32.33    2.09
   2  -2 -13   30.70    2.05
  -2  -2 -13   30.44    2.15
  -2  -2 -13   32.91    1.98
   2  -2 -13   31.64    2.08
  -2  -2 -13   31.86    2.06
   2   2 -13   34.35    2.07
   2   2 -13   34.14    1.97
  -2   2 -13   36.71    2.18
   2  -2 -13   35.61    1.97
  -2   2 -13   36.85    2.07
   2   2 -13   30.41    2.07
  -2  -2  13   33.62    2.25
   2  -2  13   32.93    2.08
   2   2  13   29.64    2.10
   2   2  13   33.81    2.12
  -3  -2 -13   23.26    1.37
  -3  -2 -13   21.15    1.48
  -3  -2 -13   22.32    1.42
  -2   3 -13   22.22    1.42
   3   2 -13   22.66    1.41
  -2   3 -13   22.40    1.51
   2  -3 -13   24.34    1.45
   3   2 -13   22.71    1.35
   3   2 -13   22.05    1.42
   2  -3 -13   20.66    1.43
   2  -3 -13   23.07    1.35
   3   2  13   23.48    1.47
  -3  -2  13   21.80    1.47
  -3  -2  13   22.43    1.54
   2  -3  13   23.44    1.42
   3   2  13   20.38    1.45
  -3  -1 -13   21.46    1.40
  -3  -1 -13   21.52    1.53
   1  -3 -13   20.29    1.48
  -3  -1 -13   23.47    1.46
   3   1 -13   22.54    1.47
   1  -3 -13   23.38    1.45
  -3  -1 -13   26.55    1.59
   3   1 -13   24.11    1.46
  -1   3 -13   19.81    1.55
   3   1 -13   24.71    1.40
   1  -3 -13   22.74    1.39
  -1   3  13   23.21    1.53
   3   1  13   21.71    1.49
   1  -3  13   25.55    1.46
  -3  -1  13   23.63    1.58
   3   1  13   25.36    1.50
   0  -3 -13   28.27    1.68
   0   3 -13   29.79    1.87
   3   0 -13   28.42    1.75
   0   3 -13   25.55    1.66
  -3   0 -13   31.44    1.92
   3   0 -13   29.15    1.76
   3   0 -13   26.93    1.68
   3   0 -13   28.71    1.76
  -3   0 -13   26.79    1.75
   0   3 -13   26.01    1.76
   0  -3 -13   28.52    1.74
  -3   0 -13   30.41    1.84
   3   0  13   29.39    1.77
   3   0  13   25.20    1.77
   0   3  13   23.56    1.78
   3  -1 -13   24.55    1.48
  -3   1 -13   26.97    1.63
   1   3 -13   23.30    1.55
   1   3 -13   25.28    1.47
   3  -1 -13   24.23    1.56
  -3   1 -13   23.02    1.54
  -1  -3 -13   23.09    1.60
  -3   1 -13   26.49    1.70
   3  -1 -13   23.60    1.56
  -1  -3 -13   24.45    1.54
   3  -1  13   23.57    1.56
  -1  -3  13   23.07    1.70
   3  -1  13   24.18    1.54
   1   3  13   26.10    1.62
   1   3  13   26.10    1.60
   3  -2 -13   22.93    1.50
  -3   2 -13   26.93    1.65
  -2  -3 -13   23.78    1.43
  -2  -3 -13   22.36    1.54
   3  -2 -13   21.09    1.50
   2   3 -13   22.65    1.41
   3  -2 -13   25.41    1.41
  -3   2 -13   26.70    1.57
  -2  -3 -13   24.03    1.48
   2   3 -13   22.42    1.49
  -3   2 -13   25.11    1.48
   2   3  13   24.20    1.55
  -2  -3  13   23.54    1.63
   2   3  13   19.71    1.52
  -2  -3  13   22.01    1.54
   3  -2  13   22.71    1.49
   3  -3 -13   15.80    0.94
   3  -3 -13   15.10    1.00
  -3   3 -13   17.03    1.07
  -3  -3 -13   15.15    1.03
  -3   3 -13   17.45    1.14
   3   3 -13   14.79    0.94
  -3  -3 -13   15.74    0.97
   3   3 -13   14.34    0.99
   3  -3  13   15.99    0.99
  -3  -3  13   15.30    1.02
  -3  -3  13   14.40    1.09
   3   3  13   13.78    1.02
   4   3 -13   11.31    0.72
  -4  -3 -13   11.35    0.76
   3  -4 -13   11.60    0.78
  -3   4 -13   13.58    0.84
  -4  -3 -13   11.82    0.80
   3  -4 -13   10.66    0.71
   4   3  13   11.13    0.78
   2  -4 -13   15.55    0.92
  -4  -2 -13   15.07    0.95
  -2   4 -13   14.94    1.06
   4   2 -13   14.90    0.96
  -4  -2 -13   15.00    1.02
   4   2 -13   15.79    0.93
   4   2 -13   14.21    0.97
   2  -4 -13   15.25    0.99
  -4  -2  13   14.73    1.05
   4   2  13   15.24    1.00
   4   1 -13   16.62    1.11
   4   1 -13   18.27    1.07
  -4  -1 -13   16.74    1.12
   4   1 -13   17.19    1.12
   1  -4 -13   17.91    1.07
  -4  -1 -13   19.10    1.23
  -4  -1 -13   16.84    1.17
  -1   4  13   18.31    1.20
   4   1  13   18.47    1.15
   4   1  13   15.77    1.14
   4   0 -13   20.03    1.29
   0   4 -13   17.97    1.29
  -4   0 -13   18.96    1.34
   4   0 -13   19.36    1.23
   0   4 -13   19.87    1.46
   4   0 -13   19.60    1.28
   0  -4 -13   21.62    1.23
  -4   0 -13   19.30    1.28
  -4   0 -13   22.11    1.41
   0   4 -13   22.11    1.39
   0  -4 -13   20.39    1.27
   4   0  13   21.37    1.29
   0   4  13   19.19    1.32
   4   0  13   18.42    1.30
   0   4  13   22.33    1.37
  -1  -4 -13   17.06    1.18
  -4   1 -13   20.55    1.28
   1   4 -13   16.83    1.16
   4  -1 -13   18.23    1.10
   4  -1 -13   17.37    1.16
  -1  -4 -13   17.57    1.14
  -1  -4 -13   19.46    1.11
   4  -1 -13   17.02    1.15
  -4   1 -13   19.01    1.22
   1   4 -13   18.23    1.09
   1   4  13   19.59    1.20
   4  -1  13   17.45    1.16
   1   4  13   16.70    1.21
  -1  -4  13   17.28    1.27
  -2  -4 -13   18.04    1.05
  -4   2 -13   18.28    1.15
   2   4 -13   16.56    1.02
  -2  -4 -13   16.48    1.11
   4  -2 -13   15.75    1.08
   4  -2 -13   18.45    1.03
   4  -2  13   16.66    1.08
   2   4  13   14.32    1.11
  -3  -4 -13   11.91    0.81
   4  -3 -13   11.60    0.79
  -4   3 -13   13.67    0.85
   3   4 -13   11.52    0.74
   4  -3 -13   12.69    0.74
  -3  -4 -13   11.91    0.78
   4  -3  13   11.79    0.78
  -3  -4  13   11.14    0.81
  -4  -4 -13    9.29    0.62
   4  -4 -13    9.40    0.63
  -4  -4 -13    9.42    0.64
   4   4 -13    8.88    0.58
   4  -4  13    9.51    0.61
  -4  -4  13    8.80    0.63
  -5  -4 -13    5.56    0.42
   5   4 -13    5.40    0.39
   4  -5 -13    5.30    0.42
   5   4  13    6.69    0.41
   5   3 -13    7.00    0.48
   3  -5 -13    6.68    0.51
  -5  -3 -13    6.73    0.52
  -3   5 -13    8.14    0.58
   5   3  13    8.06    0.49
   5   3  13    7.29    0.51
   2  -5 -13    8.37    0.62
  -2   5 -13    8.50    0.69
  -5  -2 -13    8.58    0.64
   2  -5 -13    9.65    0.58
   5   2 -13    9.34    0.59
   5   2  13    9.06    0.63
   5   2  13   10.51    0.59
   1  -5 -13   10.47    0.59
  -5  -1 -13    9.37    0.65
   5   1 -13    9.80    0.60
  -1   5 -13    8.04    0.70
  -1   5  13    7.96    0.65
   5   1  13    9.55    0.64
   0  -5 -13   12.58    0.73
   0   5 -13   13.06    0.87
  -5   0 -13   10.17    0.80
   5   0 -13   11.18    0.76
   5   0 -13   10.78    0.73
   0   5  13   12.28    0.80
   5   0  13   11.00    0.77
   5  -1 -13   10.67    0.66
  -5   1 -13   10.39    0.73
  -1  -5 -13   11.17    0.67
   5  -1 -13    9.33    0.68
   5  -1  13   10.16    0.69
   2   5 -13    9.39    0.60
  -2  -5 -13    9.19    0.65
  -5   2 -13   10.71    0.69
   5  -2 -13    9.06    0.64
  -2  -5 -13   10.18    0.63
   5  -2  13    9.77    0.64
  -2  -5  13    8.64    0.66
  -3  -5 -13    8.09    0.50
   3   5 -13    6.98    0.46
  -3  -5 -13    6.93    0.50
   5  -3 -13    6.81    0.49
  -3  -5  13    6.71    0.50
   5  -3  13    6.95    0.48
   5  -4 -13    5.49    0.39
   4   5 -13    5.20    0.36
  -4  -5 -13    5.42    0.39
  -4  -5  13    5.00    0.38
   5  -4  13    5.42    0.37
   5  -5 -13    3.34    0.29
   5   5 -13    3.54    0.27
  -5  -5 -13    3.58    0.28
   5   5  13    4.01    0.29
   6   4 -13    3.93    0.31
   4  -6 -13    3.98    0.32
  -4   6 -13    5.05    0.37
  -6  -4 -13    4.10    0.33
   6   4  13    4.64    0.32
   6   3 -13    4.97    0.36
  -6  -3 -13    4.56    0.38
  -3   6 -13    5.76    0.45
   6   3  13    5.31    0.36
  -2   6 -13    6.54    0.54
   6   2 -13    6.77    0.44
  -6  -2 -13    6.37    0.48
   6   2  13    6.16    0.46
   6   1 -13    6.22    0.42
  -6  -1 -13    6.23    0.46
  -1   6 -13    5.30    0.52
   1  -6 -13    6.87    0.41
   6   1  13    6.06    0.44
   0   6 -13    7.26    0.61
  -6   0 -13    7.11    0.54
   0  -6 -13    8.52    0.49
   6   0 -13    7.45    0.51
   6   0 -13    7.20    0.50
   6   0  13    7.19    0.52
   1   6 -13    7.57    0.58
   6  -1 -13    7.28    0.45
  -1  -6 -13    7.13    0.46
   6  -1 -13    6.37    0.46
  -6   1 -13    5.98    0.49
   6  -1  13    6.10    0.47
  -2  -6 -13    7.30    0.44
   6  -2 -13    6.27    0.44
  -6   2 -13    6.11    0.48
  -2  -6  13    5.64    0.45
   6  -2  13    6.26    0.44
  -3  -6 -13    4.38    0.34
   6  -3 -13    4.36    0.34
  -6   3 -13    5.04    0.38
   6  -3  13    4.51    0.33
   4   6 -13    3.73    0.27
   6  -4 -13    3.78    0.29
  -4  -6 -13    3.68    0.29
   6  -4  13    3.56    0.27
  -4  -6  13    3.84    0.29
   7   2 -13    3.07    0.24
  -2   7 -13    3.39    0.32
  -7  -2 -13    3.20    0.26
   7   2  13    2.43    0.24
   7   1 -13    3.54    0.26
  -7  -1 -13    3.24    0.28
  -1   7 -13    2.82    0.34
   7   1  13    3.16    0.26
  -7   0 -13    3.40    0.28
   0   7 -13    3.10    0.35
   7   0  13    3.35    0.26
   7  -1 -13    3.20    0.27
  -1  -7 -13    3.68    0.25
  -7   1 -13    3.30    0.29
   1   7 -13    3.62    0.37
   7  -1  13    3.22    0.26
   7  -2 -13    2.93    0.24
   7  -2  13    3.05    0.23
   2   7  13    2.64    0.23
   0   0 -14   27.29    1.67
   0   0 -14   28.42    1.76
   0   0 -14   26.23    1.83
   0   0  14   28.58    1.80
   0   0  14   29.82    1.80
   0  -1 -14    1.09    0.11
   1   0 -14    0.95    0.11
   0  -1 -14    1.05    0.11
   0  -1 -14    1.12    0.11
  -1   0 -14    1.00    0.12
   0   1 -14    1.20    0.11
   0   1 -14    1.00    0.15
   0   1 -14    0.92    0.13
  -1   0 -14    1.05    0.11
  -1   0 -14    0.91    0.12
   0   1 -14    0.92    0.14
   1   0 -14    1.06    0.12
   1   0 -14    1.12    0.13
  -1   0 -14    1.17    0.12
   1   0 -14    1.07    0.13
   0   1  14    1.17    0.18
   0  -1  14    1.03    0.14
   0   1  14    0.95    0.16
   1   0  14    1.26    0.15
  -1   0  14    0.72    0.15
   1   0  14    1.16    0.15
   0  -1  14    1.06    0.14
   1   1 -14   31.49    1.86
  -1   1 -14   27.24    2.01
  -1  -1 -14   28.21    1.92
   1  -1 -14   30.66    1.87
  -1   1 -14   29.03    1.94
   1  -1 -14   29.81    1.76
   1  -1 -14   32.10    1.85
   1   1 -14   25.09    1.85
  -1   1 -14   30.53    1.85
  -1  -1 -14   28.73    1.85
  -1  -1 -14   28.11    1.76
   1   1 -14   27.67    1.76
  -1   1 -14   30.79    1.75
   1  -1  14   29.42    1.87
  -1  -1  14   26.56    1.87
  -1  -1  14   29.34    2.00
   1   1  14   34.04    1.90
   1  -1  14   31.83    1.86
   2   1 -14    0.83    0.11
   1  -2 -14    0.77    0.09
   2   1 -14    0.66    0.13
   2   1 -14    0.79    0.12
  -2  -1 -14    0.67    0.12
  -2  -1 -14    0.86    0.11
  -1   2 -14    0.79    0.12
  -1   2 -14    0.75    0.16
  -2  -1 -14    0.74    0.10
   2   1  14    0.79    0.14
   2   1  14    0.52    0.12
  -2  -1  14    0.73    0.12
   1  -2  14    0.70    0.11
   0  -2 -14   16.61    1.22
   2   0 -14   16.93    1.20
   0   2 -14   19.87    1.13
   2   0 -14   18.44    1.20
   0  -2 -14   17.53    1.18
   0  -2 -14   19.32    1.13
  -2   0 -14   19.75    1.24
   2   0 -14   19.92    1.19
   2   0 -14   19.72    1.14
  -2   0 -14   21.32    1.19
  -2   0 -14   18.08    1.28
   0   2 -14   19.07    1.32
  -2   0 -14   15.68    1.13
   0   2  14   16.46    1.22
   2   0  14   20.01    1.21
   2   0  14   18.37    1.22
   0  -2  14   20.08    1.20
  -2   1 -14    0.81    0.14
   2  -1 -14    0.88    0.11
   1   2 -14    0.67    0.13
   2  -1 -14    0.71    0.12
   1   2 -14    0.81    0.12
  -1  -2 -14    0.79    0.10
  -1  -2 -14    0.77    0.12
  -1  -2 -14    0.69    0.09
   1   2 -14    0.85    0.16
   2  -1 -14    0.67    0.12
  -1  -2  14    0.76    0.13
   1   2  14    1.19    0.17
   2  -1  14    0.72    0.10
  -1  -2  14    0.98    0.12
   2  -1  14    0.76    0.13
   2   2 -14   15.82    0.99
   2  -2 -14   14.69    0.88
  -2   2 -14   14.60    1.04
   2   2 -14   13.22    0.94
  -2  -2 -14   14.01    0.93
  -2   2 -14   14.94    0.99
  -2  -2 -14   13.92    0.90
  -2  -2 -14   12.39    0.96
   2  -2 -14   15.64    0.96
   2  -2 -14   12.61    0.91
   2   2 -14   14.90    0.89
  -2   2 -14   15.33    0.93
   2   2  14   15.08    0.98
  -2  -2  14   14.57    1.02
   2  -2  14   14.85    0.94
   2   2  14   14.83    0.98
  -3  -2 -14    0.46    0.09
   3   2 -14    0.70    0.12
   2  -3 -14    0.55    0.09
   2  -3 -14    0.40    0.10
  -2   3 -14    0.63    0.10
   3   2 -14    0.44    0.11
  -3  -2 -14    0.61    0.12
  -2   3 -14    0.89    0.21
  -3  -2 -14    0.48    0.10
  -2   3 -14    0.64    0.15
   2  -3  14    0.53    0.10
   3   2  14    0.40    0.11
   3   2  14    0.55    0.13
  -3  -2  14    0.58    0.13
  -3  -1 -14   14.43    1.04
   1  -3 -14   15.96    0.95
  -1   3 -14   16.83    1.13
   3   1 -14   16.12    0.96
   1  -3 -14   15.53    0.98
  -1   3 -14   13.51    1.07
  -3  -1 -14   13.66    0.96
   3   1 -14   15.62    1.00
  -3  -1 -14   15.22    1.00
   3   1 -14   14.38    1.00
   3   1  14   17.25    1.03
  -1   3  14   16.40    1.07
   3   1  14   15.05    1.03
   1  -3  14   16.99    1.00
  -3   0 -14    0.50    0.10
   3   0 -14    0.58    0.10
   0   3 -14    0.63    0.13
   0   3 -14    0.83    0.20
  -3   0 -14    0.81    0.13
   0  -3 -14    0.51    0.08
  -3   0 -14    0.86    0.13
   0   3 -14    0.72    0.18
   3   0 -14    0.67    0.11
   3   0 -14    0.58    0.10
   3   0 -14    0.63    0.11
   0  -3 -14    0.48    0.10
  -3   0 -14    0.56    0.09
   0   3  14    0.39    0.12
   3   0  14    0.76    0.11
   3   0  14    0.57    0.11
  -3   1 -14   16.34    1.05
   3  -1 -14   15.63    1.06
   1   3 -14   16.19    1.00
  -1  -3 -14   15.54    1.01
   1   3 -14   17.34    1.13
   3  -1 -14   15.85    1.06
  -3   1 -14   17.88    1.11
   1   3 -14   14.36    1.05
  -3   1 -14   16.08    1.15
  -1  -3 -14   15.03    1.07
  -1  -3 -14   15.95    1.04
   3  -1 -14   16.96    1.00
   1   3  14   18.48    1.12
  -1  -3  14   16.30    1.16
   3  -1  14   15.94    1.07
   3  -1  14   15.85    1.06
   1   3  14   18.67    1.10
  -3   2 -14    0.77    0.18
  -2  -3 -14    0.41    0.09
   2   3 -14    0.61    0.12
  -2  -3 -14    0.55    0.11
  -2  -3 -14    0.55    0.09
   2   3 -14    0.63    0.11
   3  -2 -14    0.68    0.10
   3  -2 -14    0.42    0.09
  -3   2 -14    0.56    0.12
   3  -2 -14    0.49    0.11
   2   3  14    0.85    0.15
   2   3  14    0.55    0.12
   3  -2  14    0.46    0.09
  -2  -3  14    0.65    0.14
   3  -3 -14   10.45    0.60
   3  -3 -14    9.98    0.65
  -3   3 -14   10.28    0.69
  -3  -3 -14    9.44    0.63
   3   3 -14    9.35    0.60
  -3  -3 -14    8.97    0.65
   3   3  14    8.53    0.66
   3  -3  14   10.12    0.63
  -3  -3  14    8.97    0.64
  -3  -3  14    8.87    0.70
   3  -4 -14    0.26    0.09
  -3   4 -14    0.44    0.14
   3  -4 -14    0.25    0.07
  -4  -3 -14    0.32    0.11
   4   3 -14    0.39    0.09
  -4  -3 -14    0.32    0.09
   4   3  14    0.30    0.09
   4   2 -14    6.59    0.41
   2  -4 -14    5.96    0.40
  -2   4 -14    5.87    0.49
  -4  -2 -14    5.79    0.43
   2  -4 -14    5.98    0.44
  -4  -2 -14    5.76    0.44
   4   2  14    6.51    0.46
  -4  -1 -14    0.39    0.10
  -1   4 -14    0.35    0.10
   4   1 -14    0.39    0.08
  -4  -1 -14    0.29    0.09
   1  -4 -14    0.44    0.08
   4   1 -14    0.47    0.10
  -1   4 -14    0.30    0.16
  -4  -1 -14    0.44    0.09
   4   1 -14    0.47    0.09
  -1   4  14    0.24    0.12
   4   1  14    0.42    0.11
   0   4 -14    8.78    0.67
   0  -4 -14    8.19    0.53
   4   0 -14    7.94    0.56
  -4   0 -14    7.93    0.58
  -4   0 -14    8.31    0.61
   0   4 -14    8.56    0.64
  -4   0 -14    7.87    0.55
   4   0 -14    7.79    0.54
   0   4 -14    7.16    0.56
   0  -4 -14    8.02    0.54
   4   0 -14    8.05    0.55
   4   0  14    9.06    0.56
   0   4  14    8.15    0.59
   4   0  14    8.33    0.57
   4  -1 -14    0.54    0.10
  -4   1 -14    0.46    0.11
  -1  -4 -14    0.37    0.07
   4  -1 -14    0.40    0.09
  -1  -4 -14    0.51    0.10
  -4   1 -14    0.53    0.14
   1   4 -14    0.45    0.09
   1   4 -14    0.55    0.18
   4  -1  14    0.41    0.10
   1   4  14    0.50    0.12
  -2  -4 -14    6.51    0.48
   2   4 -14    6.52    0.44
   4  -2 -14    6.31    0.47
   4  -2 -14    7.70    0.45
  -2  -4 -14    7.02    0.47
  -4   2 -14    7.68    0.51
  -2  -4  14    6.23    0.48
   4  -2  14    6.71    0.47
   2   4  14    6.62    0.50
   4  -3 -14    0.47    0.09
  -3  -4 -14    0.47    0.11
  -4   3 -14    0.34    0.12
  -3  -4 -14    0.36    0.09
   4  -3 -14    0.32    0.09
   3   4 -14    0.28    0.08
  -3  -4  14    0.32    0.08
   4  -3  14    0.27    0.08
   3   4  14    0.39    0.10
   4  -4 -14    3.33    0.29
  -4  -4 -14    3.27    0.28
  -4   4 -14    3.90    0.33
   4   4 -14    3.29    0.26
  -4  -4 -14    3.42    0.30
   4  -4  14    3.66    0.26
  -4   5 -14    0.36    0.13
   4  -5 -14    0.23    0.09
   5   4 -14    0.22    0.09
  -5  -4 -14    0.28    0.09
   5   4  14    0.20    0.09
  -3   5 -14    4.67    0.39
   3  -5 -14    3.73    0.33
   5   3 -14    4.03    0.31
  -5  -3 -14    3.87    0.33
   5   3  14    4.97    0.32
   5   3  14    4.11    0.33
   5   2 -14    0.30    0.09
  -2   5 -14    0.36    0.16
  -5  -2 -14    0.25    0.10
   2  -5 -14    0.34    0.08
   5   2  14    0.30    0.10
   5   2  14    0.32    0.08
  -5  -1 -14    5.09    0.41
   5   1 -14    6.10    0.39
   1  -5 -14    6.03    0.37
  -1   5 -14    4.62    0.47
  -1   5  14    5.21    0.43
   5   1  14    5.51    0.41
  -5   0 -14    0.35    0.10
   5   0 -14    0.15    0.09
   0   5 -14    0.49    0.20
   0  -5 -14    0.36    0.09
   5   0 -14    0.27    0.08
   5   0  14    0.23    0.09
   0   5  14    0.36    0.11
  -5   1 -14    6.38    0.48
   1   5 -14    7.23    0.54
  -1  -5 -14    6.21    0.43
   5  -1 -14    5.74    0.44
   5  -1 -14    6.57    0.43
   5  -1  14    6.02    0.45
   5  -2 -14    0.23    0.08
   5  -2 -14    0.24    0.07
  -2  -5 -14    0.30    0.08
  -2  -5 -14    0.29    0.10
  -5   2 -14    0.37    0.11
   5  -2  14    0.30    0.09
  -2  -5  14    0.35    0.09
  -3  -5 -14    3.75    0.30
   3   5 -14    3.94    0.28
  -3  -5 -14    3.72    0.31
   5  -3 -14    3.93    0.30
   5  -3  14    4.03    0.29
  -3  -5  14    3.72    0.30
  -5   4 -14    0.45    0.12
   4   5 -14    0.17    0.08
  -4  -5 -14    0.10    0.07
   5  -4 -14    0.20    0.08
  -4  -5  14    0.20    0.07
   5  -4  14    0.10    0.06
  -5  -5 -14    1.69    0.18
   5   5 -14    1.90    0.18
  -5   5 -14    2.15    0.22
   5  -5 -14    1.97    0.19
   5   5  14    2.48    0.21
  -4   6 -14    1.73    0.20
   6   4 -14    1.25    0.16
  -6  -4 -14    1.17    0.15
   6   4  14    1.45    0.16
  -3   6 -14    0.25    0.14
  -6  -3 -14    0.16    0.08
   6   3 -14    0.11    0.08
  -6  -2 -14    2.09    0.21
  -2   6 -14    2.08    0.29
   6   2 -14    2.31    0.21
   6   2  14    2.17    0.21
  -6  -1 -14    0.21    0.10
  -1   6 -14    0.33    0.17
   1  -6 -14    0.18    0.07
   6   1 -14    0.28    0.09
   6   1  14    0.23    0.09
   0   6 -14    2.63    0.33
   6   0 -14    2.87    0.23
   0  -6 -14    2.87    0.22
   6   0 -14    2.72    0.23
  -6   0 -14    2.34    0.24
   6   0  14    2.59    0.24
   1   6 -14    0.46    0.20
   6  -1 -14    0.20    0.08
  -1  -6 -14    0.25    0.09
   6  -1 -14    0.18    0.08
  -6   1 -14    0.20    0.10
   6  -1  14    0.21    0.08
   6  -2 -14    2.20    0.21
  -6   2 -14    2.44    0.24
  -2  -6 -14    2.50    0.22
   6  -2  14    2.21    0.21
  -3  -6 -14    0.14    0.07
   6  -3 -14    0.20    0.08
  -6   3 -14    0.35    0.11
   6  -3  14    0.19    0.07
  -3  -6  14    0.19    0.07
  -4  -6 -14    1.10    0.13
   6  -4 -14    1.27    0.15
   4   6 -14    1.06    0.13
   4   6  14    1.48    0.17
  -4  -6  14    1.42    0.13
   6  -4  14    0.94    0.13
   7   2 -14    0.11    0.07
  -7  -2 -14    0.15    0.08
  -2   7 -14    0.17    0.14
   7   1 -14    2.03    0.18
  -7  -1 -14    1.80    0.19
  -1   7 -14    1.54    0.26
   7   1  14    1.61    0.17
   0   7 -14    0.10    0.15
  -7   0 -14    0.09    0.08
   7   0 -14    0.17    0.07
   7   0  14    0.12    0.07
   1   7 -14    1.70    0.27
  -7   1 -14    1.73    0.19
   7  -1 -14    1.56    0.17
  -1  -7 -14    1.95    0.17
   7  -1  14    1.72    0.17
   7  -2 -14    0.11    0.07
  -7   2 -14    0.07    0.07
   2   7 -14    0.21    0.16
   7  -2  14    0.11    0.06
   0   0 -15   15.58    1.06
   0   0 -15   16.83    1.03
   0   0 -15   16.26    0.97
   0   0  15   15.64    1.06
   0   0  15   15.81    1.06
   1   0 -15   66.00    4.07
  -1   0 -15   65.14    3.85
  -1   0 -15   67.32    4.04
   0   1 -15   60.08    4.39
   0   1 -15   64.47    3.84
  -1   0 -15   63.34    4.22
   0   1 -15   59.80    4.22
   1   0 -15   64.76    3.85
   0  -1 -15   64.64    4.21
   0  -1 -15   66.33    4.04
   1   0 -15   67.13    4.04
   1   0 -15   63.79    4.22
   0  -1 -15   63.78    3.85
   1   0  15   71.57    4.09
   0   1  15   60.60    4.09
   0   1  15   66.85    4.10
   1   0  15   70.73    4.10
   0  -1  15   67.86    4.08
   0  -1  15   67.33    4.07
  -1  -1 -15   19.23    1.22
   1   1 -15   16.62    1.18
  -1   1 -15   19.20    1.24
  -1  -1 -15   18.02    1.17
  -1  -1 -15   17.89    1.12
   1   1 -15   17.76    1.12
   1  -1 -15   20.29    1.17
   1   1 -15   20.06    1.19
   1  -1 -15   17.90    1.11
  -1   1 -15   18.15    1.28
  -1   1 -15   18.96    1.11
   1   1 -15   15.76    1.22
  -1   1 -15   18.49    1.18
  -1  -1  15   16.72    1.19
   1  -1  15   19.16    1.19
   1   1  15   20.49    1.23
   1   1  15   19.47    1.22
   1  -2 -15   44.89    2.83
  -2  -1 -15   48.33    2.97
  -2  -1 -15   42.59    2.84
   2   1 -15   42.16    2.72
  -1   2 -15   46.68    2.99
   1  -2 -15   49.38    2.71
  -1   2 -15   47.84    3.11
  -1   2 -15   46.29    2.85
   2   1 -15   44.10    2.86
  -2  -1 -15   40.80    2.71
   2   1  15   50.41    2.89
   1  -2  15   45.43    2.86
  -1   2  15   42.84    2.90
   2   1  15   48.19    2.90
   2   0 -15    9.66    0.74
   0  -2 -15   12.01    0.70
  -2   0 -15   12.47    0.77
  -2   0 -15   12.17    0.73
   0   2 -15   12.02    0.69
   0  -2 -15   10.46    0.72
   2   0 -15   10.41    0.75
   0   2 -15    9.58    0.78
   0   2 -15    9.57    0.74
   2   0 -15   12.17    0.73
  -2   0 -15    9.69    0.69
   2   0 -15   11.13    0.70
  -2   0 -15   11.73    0.79
   0   2 -15   11.47    0.82
   0   2  15   13.08    0.80
   2   0  15   11.71    0.75
   0  -2  15   11.97    0.74
   0   2  15   10.17    0.77
   2   0  15   11.16    0.76
   2  -1 -15   45.22    2.93
  -2   1 -15   49.06    3.16
  -2   1 -15   54.06    2.91
   2  -1 -15   51.46    2.77
  -1  -2 -15   43.55    3.01
   2  -1 -15   39.94    2.92
  -1  -2 -15   40.75    2.89
  -1  -2 -15   44.21    2.77
  -2   1 -15   50.93    3.04
   1   2 -15   41.82    2.76
   2  -1  15   44.60    2.93
   2  -1  15   44.13    2.90
   1   2  15   51.93    2.96
  -1  -2  15   47.10    3.16
  -1  -2  15   51.30    2.92
  -2  -2 -15    8.24    0.60
   2   2 -15    9.18    0.65
   2  -2 -15    9.49    0.58
   2  -2 -15    8.65    0.59
   2  -2 -15    7.57    0.62
  -2   2 -15    9.80    0.69
  -2   2 -15    9.88    0.61
  -2  -2 -15    8.85    0.63
  -2  -2 -15    8.02    0.59
   2  -2 -15    9.17    0.63
  -2   2 -15    9.74    0.66
   2   2 -15   10.44    0.59
  -2  -2  15    8.61    0.67
   2   2  15    9.68    0.66
   2   2  15    9.97    0.66
  -3  -2 -15   26.62    1.81
  -3  -2 -15   28.06    1.74
  -2   3 -15   30.59    1.80
   2  -3 -15   25.50    1.82
  -2   3 -15   32.15    1.92
   3   2 -15   27.40    1.72
   2  -3 -15   30.75    1.71
  -2   3 -15   32.46    2.00
  -3  -2 -15   27.41    1.88
   3   2  15   24.64    1.83
   2  -3  15   30.29    1.81
   3   2  15   27.99    1.86
  -3  -1 -15    8.62    0.61
   1  -3 -15   10.11    0.60
   3   1 -15    8.84    0.63
  -1   3 -15    9.06    0.64
   3   1 -15    9.36    0.61
   3   1 -15    9.91    0.64
  -1   3 -15    8.99    0.69
   1  -3 -15    9.64    0.61
  -3  -1 -15    9.15    0.63
   3   1  15   10.30    0.66
   3   1  15    8.75    0.66
  -1   3  15   11.03    0.71
   0  -3 -15   34.52    2.22
   3   0 -15   32.83    2.25
   0   3 -15   37.56    2.47
  -3   0 -15   33.55    2.23
  -3   0 -15   37.63    2.43
   3   0 -15   35.70    2.14
   3   0 -15   39.02    2.23
   0  -3 -15   35.63    2.13
   0   3 -15   30.97    2.35
  -3   0 -15   39.48    2.34
   3   0 -15   36.81    2.25
   3   0  15   35.05    2.26
   0   3  15   34.27    2.27
   3   0  15   36.37    2.25
  -1  -3 -15   10.23    0.69
   3  -1 -15   10.62    0.66
  -3   1 -15   11.50    0.70
  -1  -3 -15    9.38    0.67
   1   3 -15   10.86    0.76
  -3   1 -15   11.98    0.77
  -1  -3 -15    9.83    0.70
   3  -1 -15    9.57    0.71
   3  -1 -15    9.44    0.70
  -3   1 -15   12.02    0.74
   1   3 -15   10.11    0.66
   1   3  15   11.35    0.76
   1   3  15   11.88    0.74
  -1  -3  15   10.34    0.77
   3  -1  15    9.51    0.71
  -2  -3 -15   26.50    1.94
   2   3 -15   28.79    1.78
  -3   2 -15   31.60    2.06
  -3   2 -15   32.19    1.97
  -2  -3 -15   28.10    1.80
   3  -2 -15   26.12    1.89
   2   3 -15   33.79    1.98
  -3   2 -15   31.03    1.87
   3  -2 -15   32.28    1.78
   2   3  15   30.05    1.92
  -2  -3  15   27.42    2.05
   3  -2  15   29.93    1.89
  -3  -3 -15    6.16    0.48
   3   3 -15    6.85    0.45
   3  -3 -15    6.71    0.49
   3  -3 -15    7.65    0.44
  -3   3 -15    7.44    0.52
  -3  -3 -15    6.89    0.48
   3  -3  15    7.18    0.47
   3   3  15    5.65    0.50
  -3   4 -15   17.73    1.08
  -4  -3 -15   14.94    0.98
   3  -4 -15   16.15    0.94
   3  -4 -15   14.14    1.01
   4   3 -15   15.20    0.95
  -4  -3 -15   15.08    1.04
   4   3  15   14.82    1.02
  -4  -2 -15    4.30    0.33
   4   2 -15    4.29    0.31
   2  -4 -15    4.58    0.30
   2  -4 -15    3.92    0.33
  -2   4 -15    4.25    0.38
  -4  -2 -15    3.90    0.33
   4   2  15    4.30    0.35
  -1   4 -15   19.79    1.46
   1  -4 -15   22.41    1.30
  -4  -1 -15   23.78    1.43
   4   1 -15   19.39    1.37
   4   1 -15   22.72    1.31
   4   1  15   20.85    1.40
  -4   0 -15    4.76    0.37
  -4   0 -15    6.07    0.41
   4   0 -15    5.11    0.39
   0  -4 -15    5.56    0.37
   0   4 -15    5.23    0.46
  -4   0 -15    6.11    0.43
   0  -4 -15    5.18    0.38
   4   0 -15    5.12    0.38
   4   0  15    5.16    0.40
   0   4  15    5.57    0.43
   4   0  15    5.18    0.39
   4  -1 -15   25.39    1.49
  -4   1 -15   26.04    1.63
  -1  -4 -15   24.34    1.49
   4  -1 -15   21.97    1.56
   1   4 -15   25.54    1.67
   4  -1  15   22.76    1.57
   1   4  15   26.26    1.60
  -2  -4 -15    4.51    0.34
   2   4 -15    4.40    0.32
  -2  -4 -15    4.45    0.35
   4  -2 -15    5.30    0.33
  -4   2 -15    5.56    0.39
   4  -2 -15    4.24    0.35
   2   4  15    4.82    0.38
   4  -2  15    4.51    0.35
   3   4 -15   15.27    0.95
   4  -3 -15   17.97    0.95
   4  -3 -15   15.44    1.01
  -3  -4 -15   16.10    0.98
  -3  -4 -15   15.26    1.03
   4  -3  15   16.04    1.00
  -3  -4  15   13.61    1.02
   3   4  15   13.93    1.02
   4  -4 -15    2.39    0.24
  -4  -4 -15    2.52    0.23
   4   4 -15    2.73    0.22
  -4   4 -15    3.15    0.28
  -4  -4 -15    2.46    0.26
   4  -5 -15    7.62    0.55
   5   4 -15    7.95    0.52
  -5  -4 -15    7.25    0.56
   5   4  15    9.10    0.54
  -3   5 -15    3.79    0.34
  -5  -3 -15    2.98    0.27
   3  -5 -15    2.96    0.27
   5   3 -15    3.10    0.26
   5   3  15    3.65    0.27
   5   3  15    3.37    0.28
   5   2 -15   13.12    0.82
  -2   5 -15   13.12    0.93
   2  -5 -15   13.07    0.80
  -5  -2 -15   12.16    0.89
   5   2  15   12.29    0.87
   5   2  15   14.42    0.81
  -5  -1 -15    4.19    0.33
   5   1 -15    4.22    0.31
   1  -5 -15    4.66    0.30
  -1   5 -15    3.66    0.40
   5   1  15    4.12    0.33
  -1   5  15    3.86    0.36
   5   0 -15   15.29    0.97
   0   5 -15   14.81    1.11
  -5   0 -15   16.23    1.07
   5   0 -15   14.86    1.02
   0  -5 -15   16.10    0.97
   0   5  15   17.81    1.06
   5   0  15   14.95    1.03
   1   5 -15    4.82    0.44
   5  -1 -15    4.41    0.35
  -1  -5 -15    4.61    0.34
   5  -1 -15    4.92    0.33
  -5   1 -15    5.01    0.38
   5  -1  15    4.40    0.35
  -5   2 -15   15.57    0.95
   5  -2 -15   15.48    0.85
   5  -2 -15   12.31    0.90
  -2  -5 -15   13.81    0.87
  -2  -5 -15   12.76    0.92
   5  -2  15   12.73    0.90
  -5   3 -15    3.27    0.29
   5  -3 -15    2.87    0.26
  -3  -5 -15    3.08    0.27
   3   5 -15    2.86    0.23
  -3  -5 -15    3.06    0.25
   5  -3  15    3.03    0.24
  -4  -5 -15    7.35    0.52
   4   5 -15    7.79    0.49
   5  -4 -15    7.21    0.52
  -4  -5  15    6.91    0.52
   5  -4  15    7.93    0.50
   5   5 -15    1.58    0.17
  -5   5 -15    2.09    0.21
   5  -5 -15    1.45    0.17
  -5  -5 -15    1.52    0.16
   5   5  15    2.06    0.19
   6   3 -15    6.76    0.48
  -3   6 -15    7.74    0.56
   6   2 -15    1.67    0.18
  -2   6 -15    1.66    0.26
  -6  -2 -15    1.66    0.18
   6   2  15    1.67    0.18
  -1   6 -15    7.67    0.66
   6   1 -15    8.69    0.57
  -6  -1 -15    8.60    0.61
   1  -6 -15    9.27    0.55
   6   1  15    8.68    0.60
   6   0 -15    2.08    0.20
  -6   0 -15    2.43    0.22
   0  -6 -15    2.16    0.19
   0   6 -15    2.11    0.30
   6   0 -15    2.03    0.20
   6   0  15    2.03    0.20
   6  -1 -15   10.64    0.62
   1   6 -15    9.71    0.73
  -6   1 -15    9.68    0.68
   6  -1 -15    8.90    0.65
  -1  -6 -15    9.99    0.63
   6  -1  15    9.23    0.65
   6  -2 -15    1.73    0.19
  -2  -6 -15    1.95    0.20
   2   6 -15    1.94    0.28
  -6   2 -15    2.19    0.21
   6  -2  15    1.75    0.18
   6  -3 -15    6.17    0.48
  -6   3 -15    8.07    0.52
   6  -3  15    6.74    0.47
  -7  -1 -15    1.35    0.16
  -1   7 -15    1.23    0.23
   7   1 -15    1.70    0.16
   7   1  15    1.16    0.15
  -7   0 -15    5.34    0.38
   0   7 -15    4.37    0.42
   7   0  15    5.07    0.36
  -1  -7 -15    1.55    0.15
   1   7 -15    1.48    0.24
   7  -1 -15    1.18    0.15
  -7   1 -15    1.60    0.17
   7  -1  15    1.34    0.15
   0   0 -16   27.85    1.67
   0   0 -16   25.47    1.58
   0   0 -16   26.13    1.73
   0   0  16   27.12    1.71
   0   0  16   26.07    1.70
   0  -1 -16    3.03    0.21
   0   1 -16    2.63    0.23
  -1   0 -16    2.83    0.20
   0   1 -16    2.54    0.22
  -1   0 -16    2.85    0.22
   1   0 -16    2.85    0.22
   1   0 -16    2.48    0.20
   0  -1 -16    2.92    0.21
   0   1 -16    2.51    0.19
  -1   0 -16    3.05    0.21
   0  -1 -16    2.90    0.20
   0   1  16    2.07    0.25
   1   0  16    2.31    0.24
   1   0  16    2.41    0.23
   0  -1  16    2.35    0.23
   0   1  16    2.03    0.26
   0  -1  16    2.20    0.23
  -1   1 -16   17.61    1.26
   1  -1 -16   19.65    1.15
  -1  -1 -16   18.31    1.10
  -1   1 -16   19.13    1.09
   1   1 -16   17.69    1.10
  -1   1 -16   18.62    1.16
  -1   1 -16   18.64    1.21
   1   1 -16   16.36    1.16
   1  -1 -16   17.94    1.10
  -1  -1 -16   18.34    1.15
   1   1 -16   16.63    1.20
  -1  -1 -16   18.66    1.20
   1   1  16   19.83    1.20
  -1  -1  16   17.25    1.18
   1  -1  16   18.72    1.17
   1   1  16   16.19    1.19
   1  -1  16   19.02    1.18
  -1   2 -16    2.12    0.18
  -2  -1 -16    1.91    0.17
   2   1 -16    1.48    0.18
   1  -2 -16    1.99    0.16
  -2  -1 -16    2.23    0.18
   2   1 -16    1.56    0.17
  -1   2 -16    2.30    0.23
  -2  -1 -16    1.83    0.16
   1  -2 -16    2.26    0.17
  -1   2 -16    1.90    0.22
   1  -2  16    1.61    0.18
   2   1  16    1.84    0.21
  -1   2  16    1.39    0.22
   2   1  16    1.72    0.20
   0   2 -16   19.85    1.36
   0  -2 -16   20.06    1.18
   0   2 -16   17.62    1.30
   0   2 -16   16.91    1.24
   0  -2 -16   18.32    1.23
  -2   0 -16   20.29    1.29
  -2   0 -16   20.24    1.23
  -2   0 -16   17.75    1.17
   2   0 -16   20.56    1.23
   2   0 -16   18.04    1.25
   2   0 -16   19.70    1.18
   0   2 -16   20.35    1.17
   0   2  16   20.84    1.30
   0   2  16   17.92    1.27
   2   0  16   20.15    1.27
   2   0  16   19.99    1.26
   0  -2  16   21.23    1.25
   2  -1 -16    1.86    0.16
  -1  -2 -16    1.94    0.16
   2  -1 -16    2.12    0.19
  -1  -2 -16    1.97    0.17
  -1  -2 -16    1.71    0.16
   1   2 -16    1.41    0.20
   1   2 -16    1.68    0.17
  -1  -2  16    1.64    0.17
   1   2  16    2.10    0.23
   1   2  16    1.84    0.22
   2  -1  16    1.45    0.18
  -2  -2 -16   12.80    0.93
   2  -2 -16   16.08    0.92
  -2   2 -16   15.58    1.07
  -2   2 -16   16.84    0.97
   2   2 -16   12.63    1.01
  -2  -2 -16   15.15    1.00
  -2  -2 -16   12.85    0.96
   2  -2 -16   16.00    1.00
  -2   2 -16   16.59    1.03
   2  -2 -16   14.92    0.95
   2   2 -16   14.05    0.93
   2   2  16   15.53    1.01
   2  -2  16   14.87    0.98
   2   2  16   16.24    1.02
  -3  -2 -16    0.88    0.16
  -2   3 -16    1.26    0.21
   2  -3 -16    1.36    0.13
  -3  -2 -16    1.42    0.15
   3   2 -16    1.14    0.15
  -2   3 -16    1.42    0.14
   2  -3  16    0.98    0.13
   3   2  16    0.79    0.17
   3   1 -16    8.47    0.64
  -3  -1 -16    8.59    0.62
  -1   3 -16   10.10    0.71
  -3  -1 -16    9.15    0.64
  -3  -1 -16   11.03    0.67
   1  -3 -16    9.57    0.63
  -1   3 -16    9.42    0.65
  -1   3 -16   11.26    0.74
   3   1 -16    9.75    0.65
   3   1 -16    8.98    0.62
   3   1  16   10.52    0.67
   3   1  16    9.24    0.67
   0   3 -16    1.03    0.20
   3   0 -16    1.17    0.15
   3   0 -16    1.60    0.14
   0   3 -16    1.80    0.23
   0  -3 -16    1.60    0.15
   0  -3 -16    1.28    0.13
  -3   0 -16    1.61    0.14
   3   0 -16    1.32    0.16
   3   0 -16    1.37    0.16
   0   3 -16    1.12    0.15
   0   3  16    1.31    0.21
   0   3  16    1.70    0.21
   3   0  16    1.00    0.17
   3   0  16    1.19    0.14
  -1  -3 -16    9.67    0.68
  -3   1 -16   11.66    0.69
  -3   1 -16   10.83    0.76
  -1  -3 -16    9.81    0.66
  -1  -3 -16   10.44    0.70
   1   3 -16    9.72    0.65
   3  -1 -16   11.53    0.66
   3  -1 -16    9.11    0.70
   1   3 -16    9.24    0.75
   3  -1  16   10.28    0.70
   1   3  16   12.18    0.74
  -2  -3 -16    1.09    0.12
   2   3 -16    1.24    0.20
  -3   2 -16    1.44    0.18
   3  -2 -16    0.94    0.15
  -2  -3 -16    1.15    0.16
   2   3 -16    1.08    0.14
   3  -2 -16    1.35    0.13
   2   3  16    1.19    0.18
  -2  -3  16    0.83    0.15
   3  -2  16    1.06    0.15
   3   3 -16    6.21    0.45
   3  -3 -16    5.97    0.48
   3  -3 -16    7.42    0.44
  -3  -3 -16    6.71    0.48
  -3   3 -16    7.77    0.52
  -3  -3 -16    6.72    0.47
   3  -3  16    7.16    0.47
   3   3  16    6.43    0.50
   4   3 -16    0.59    0.11
   3  -4 -16    0.70    0.10
  -4  -3 -16    0.69    0.14
  -4  -3 -16    0.64    0.12
   3  -4 -16    0.51    0.12
  -3   4 -16    1.06    0.20
   4   3  16    0.58    0.12
   2  -4 -16    7.70    0.47
   4   2 -16    7.23    0.49
  -4  -2 -16    6.35    0.50
  -4  -2 -16    7.90    0.52
  -2   4 -16    7.70    0.56
   4   2  16    6.56    0.52
  -1   4 -16    0.95    0.21
   4   1 -16    0.63    0.11
   4   1 -16    0.62    0.12
   4   1  16    0.63    0.13
  -1   4  16    0.54    0.15
   0  -4 -16    8.81    0.57
   0   4 -16    8.46    0.67
   4   0 -16    9.22    0.58
   4   0 -16    7.92    0.59
   4   0  16    8.85    0.62
   0   4  16    9.54    0.64
   4  -1 -16    1.12    0.13
  -1  -4 -16    1.00    0.14
   1   4 -16    0.97    0.20
   4  -1 -16    0.68    0.13
   1   4  16    1.05    0.18
   4  -1  16    0.70    0.13
  -4   2 -16    9.00    0.58
  -2  -4 -16    7.92    0.54
   2   4 -16    8.21    0.60
   2   4 -16    7.28    0.51
   4  -2 -16    6.53    0.54
  -2  -4 -16    7.44    0.53
   4  -2 -16    8.73    0.51
   2   4  16    8.29    0.57
   4  -2  16    7.49    0.54
   4  -3 -16    0.85    0.11
  -4   3 -16    1.01    0.17
   3   4 -16    0.62    0.11
  -3  -4 -16    0.53    0.13
   4  -3 -16    0.53    0.12
  -3  -4 -16    0.72    0.11
   4  -3  16    0.65    0.12
   3   4  16    0.51    0.12
   4   4 -16    4.30    0.32
  -4  -4 -16    4.38    0.34
  -4  -4 -16    4.48    0.36
   4  -4 -16    4.11    0.34
  -4   4 -16    5.00    0.37
  -5  -4 -16    0.45    0.09
   4  -5 -16    0.35    0.09
  -4   5 -16    0.51    0.14
   5   4 -16    0.24    0.09
   5   4  16    0.40    0.10
   5   3 -16    3.35    0.27
  -5  -3 -16    3.19    0.27
  -3   5 -16    3.74    0.33
   5   3  16    3.53    0.27
   5   3  16    3.00    0.28
   2  -5 -16    0.50    0.09
  -2   5 -16    0.66    0.18
  -5  -2 -16    0.62    0.13
   5   2 -16    0.45    0.11
   5   2  16    0.35    0.10
  -2   5  16    0.28    0.13
   5   1 -16    4.17    0.32
  -1   5 -16    4.03    0.41
  -5  -1 -16    4.51    0.34
   1  -5 -16    4.58    0.31
  -1   5  16    4.24    0.38
   5   1  16    4.13    0.34
   5   0 -16    0.54    0.10
   5   0 -16    0.55    0.11
  -5   0 -16    0.85    0.14
   0   5 -16    0.60    0.20
   0  -5 -16    0.63    0.12
   5   0  16    0.49    0.11
   0   5  16    0.67    0.14
  -5   1 -16    5.31    0.39
   5  -1 -16    4.28    0.36
  -1  -5 -16    5.03    0.35
   1   5 -16    4.64    0.44
   5  -1 -16    5.29    0.34
   5  -1  16    4.68    0.37
  -2  -5 -16    0.53    0.12
   2   5 -16    0.73    0.19
   5  -2 -16    0.49    0.10
   5  -2 -16    0.69    0.11
   5  -2  16    0.48    0.10
  -3  -5 -16    3.13    0.27
   3   5 -16    3.56    0.32
   3   5 -16    3.05    0.24
  -3  -5 -16    3.33    0.25
   5  -3 -16    2.81    0.26
   5  -3  16    3.18    0.25
  -4  -5 -16    0.42    0.09
   4   5 -16    0.33    0.09
   5  -4 -16    0.30    0.09
   6   3 -16    0.33    0.10
  -6  -3 -16    0.42    0.09
  -3   6 -16    0.43    0.14
  -2   6 -16    3.31    0.33
   6   2 -16    3.03    0.25
  -6  -2 -16    2.90    0.25
   6   2  16    2.94    0.26
   6   1 -16    0.29    0.10
  -6  -1 -16    0.53    0.11
   1  -6 -16    0.46    0.08
  -1   6 -16    0.35    0.17
   6   1  16    0.33    0.09
  -6   0 -16    3.98    0.30
   0   6 -16    2.84    0.35
   0  -6 -16    3.83    0.27
   6   0 -16    3.06    0.27
   6   0 -16    3.74    0.27
   6   0  16    3.30    0.28
   6  -1 -16    0.34    0.09
   1   6 -16    0.37    0.18
  -1  -6 -16    0.39    0.09
   6  -1 -16    0.45    0.09
   6  -1  16    0.30    0.09
  -2  -6 -16    3.49    0.26
   6  -2 -16    2.87    0.25
   2   6 -16    3.14    0.33
   6  -2  16    2.79    0.24
   3   6 -16    0.32    0.16
  -3  -6 -16    0.13    0.09
   6  -3 -16    0.24    0.08
  -6   3 -16    0.33    0.10
   6  -3  16    0.25    0.07
   0   0 -17   59.28    4.00
   0   0 -17   63.43    3.84
   0   0 -17   60.34    3.65
   0   0  17   63.52    3.89
   0   0  17   63.27    3.88
   1   0 -17   37.24    2.27
   0  -1 -17   36.71    2.27
   0   1 -17   37.65    2.26
   0  -1 -17   38.91    2.38
   1   0 -17   38.98    2.39
  -1   0 -17   37.55    2.38
  -1   0 -17   36.59    2.26
   0   1 -17   37.06    2.49
   0   1 -17   38.91    2.39
  -1   0 -17   38.38    2.48
   1   0  17   40.42    2.42
   1   0  17   40.46    2.43
   0   1  17   37.15    2.43
   0   1  17   38.13    2.43
   0  -1  17   37.92    2.41
   0  -1  17   39.88    2.42
   1   1 -17   60.97    3.61
  -1  -1 -17   59.52    3.61
   1   1 -17   57.80    3.79
  -1   1 -17   59.88    3.96
   1  -1 -17   64.62    3.78
  -1   1 -17   62.90    3.79
  -1   1 -17   61.95    3.60
  -1  -1 -17   61.15    3.78
   1   1 -17   56.53    3.95
  -1  -1 -17   61.48    3.94
   1  -1 -17   59.22    3.60
  -1   1  17   52.08    3.83
   1   1  17   66.98    3.84
   1  -1  17   66.13    3.83
   1   1  17   67.56    3.85
  -1  -1  17   59.52    3.82
   1  -2 -17   28.00    1.71
  -2  -1 -17   25.23    1.71
   2   1 -17   25.00    1.72
  -1   2 -17   27.52    1.81
  -2  -1 -17   26.33    1.64
   2   1 -17   25.35    1.65
  -2  -1 -17   28.79    1.79
  -1   2 -17   28.37    1.73
   2   1 -17   27.28    1.74
  -1   2 -17   26.91    1.88
   1  -2 -17   28.32    1.64
   2   1  17   29.48    1.77
   2   1  17   29.45    1.76
  -1   2  17   26.33    1.78
   1  -2  17   28.17    1.74
   0  -2 -17   42.73    2.73
   0   2 -17   42.44    2.88
   2   0 -17   44.57    2.89
   2   0 -17   44.37    2.74
   0  -2 -17   44.21    2.86
  -2   0 -17   44.53    2.73
   0   2 -17   47.35    2.73
   0   2 -17   43.87    3.13
   2   0 -17   48.63    2.87
  -2   0 -17   47.65    3.00
  -2   0 -17   47.67    2.87
   0   2 -17   44.59    3.01
   2   0  17   49.18    2.90
   0   2  17   44.09    2.92
   2   0  17   47.32    2.92
   0  -2  17   51.61    2.90
   0   2  17   50.05    2.94
   2  -1 -17   31.49    1.79
  -1  -2 -17   26.81    1.71
   1   2 -17   27.71    1.71
  -2   1 -17   27.92    1.87
  -1  -2 -17   27.87    1.86
  -2   1 -17   29.14    1.79
   2  -1 -17   29.06    1.71
   2  -1 -17   28.45    1.82
  -1  -2 -17   24.83    1.78
   2  -1  17   27.23    1.82
   1   2  17   30.53    1.85
  -1  -2  17   30.22    1.81
   1   2  17   29.94    1.84
  -2   2 -17   34.10    2.36
   2   2 -17   31.40    2.07
   2  -2 -17   37.63    2.06
   2  -2 -17   29.35    2.19
  -2  -2 -17   31.28    2.07
  -2   2 -17   38.67    2.28
  -2   2 -17   36.98    2.16
  -2  -2 -17   35.56    2.25
   2   2  17   38.55    2.22
   2  -2  17   32.45    2.18
  -3  -2 -17   17.30    1.10
  -3  -2 -17   14.98    1.02
  -2   3 -17   18.10    1.14
   2  -3 -17   17.82    1.01
   3   2 -17   14.69    1.01
   3   2  17   15.94    1.09
   2  -3  17   16.47    1.06
  -3  -1 -17   37.47    2.18
  -1   3 -17   34.49    2.29
   1  -3 -17   29.75    2.07
  -1   3 -17   35.91    2.21
   3   1 -17   31.58    2.10
   3   1 -17   30.83    2.08
   3   1 -17   33.01    2.00
   1  -3 -17   37.07    1.99
  -3  -1 -17   27.55    1.99
   3   1  17   35.38    2.13
   0   3 -17   21.62    1.41
   0  -3 -17   17.43    1.25
   0   3 -17   18.61    1.34
   3   0 -17   22.25    1.26
  -3   0 -17   20.61    1.27
   3   0 -17   17.35    1.27
   3   0 -17   17.12    1.27
   0  -3 -17   21.18    1.20
   3   0  17   20.55    1.29
   0   3  17   20.91    1.31
   3   0  17   19.96    1.27
   3  -1 -17   39.16    2.18
  -1  -3 -17   33.26    2.19
   1   3 -17   33.43    2.18
  -3   1 -17   36.13    2.29
  -3   1 -17   40.41    2.40
   3  -1  17   34.66    2.32
   1   3  17   39.56    2.34
   2   3 -17   15.17    1.03
  -3   2 -17   18.49    1.14
   2   3 -17   15.28    1.14
  -2  -3 -17   15.15    1.04
   3  -2 -17   18.13    1.02
  -2  -3 -17   16.80    1.11
   2   3  17   18.72    1.12
   3  -2  17   16.54    1.09
  -3  -3 -17   22.23    1.43
   3  -3 -17   19.82    1.50
   3  -3 -17   25.58    1.41
   3   3 -17   21.80    1.42
  -3  -3 -17   23.81    1.54
  -3   3 -17   26.41    1.57
   3  -3  17   24.71    1.49
   3   3  17   22.96    1.52
   4   3 -17    7.88    0.55
  -4  -3 -17    7.81    0.57
  -3   4 -17    9.92    0.63
   3  -4 -17    9.24    0.54
   3  -4 -17    7.81    0.59
  -4  -3 -17    9.18    0.59
   4   3  17    7.34    0.59
   2  -4 -17   18.56    1.06
   4   2 -17   16.85    1.07
  -4  -2 -17   19.36    1.16
  -4  -2 -17   14.77    1.08
  -2   4 -17   18.98    1.20
   4   2  17   15.50    1.14
   4   1 -17   11.97    0.78
   1  -4 -17   13.49    0.77
  -1   4 -17   13.14    0.89
   4   1  17   10.76    0.83
   0   4 -17   19.71    1.48
  -4   0 -17   24.88    1.46
   4   0 -17   18.81    1.40
   0  -4 -17   22.08    1.33
   4   0 -17   23.41    1.34
   0   4  17   24.74    1.44
   4   0  17   19.59    1.41
  -1  -4 -17   12.56    0.85
   1   4 -17   12.03    0.95
   4  -1 -17   14.68    0.84
  -4   1 -17   14.31    0.93
   1   4  17   15.45    0.93
   4  -1  17   12.39    0.90
   2   4 -17   17.14    1.15
  -2  -4 -17   18.07    1.17
  -4   2 -17   20.68    1.27
  -2  -4 -17   19.75    1.25
   2   4 -17   18.30    1.29
   4  -2 -17   16.14    1.22
   4  -2 -17   21.08    1.15
   4  -2  17   18.57    1.22
   2   4  17   20.66    1.25
  -3  -4 -17    8.32    0.57
   3   4 -17    7.80    0.55
   4  -3 -17    9.68    0.54
  -3  -4 -17    9.05    0.59
   4  -3 -17    7.74    0.59
   3   4 -17    8.81    0.63
   3   4  17    7.95    0.60
   4  -3  17    8.59    0.57
  -4  -4 -17   10.18    0.71
   4   4 -17   10.59    0.69
  -4  -4 -17   10.87    0.74
   4  -4 -17   10.14    0.73
  -4   4 -17   12.57    0.77
  -5  -4 -17    4.15    0.32
   4  -5 -17    3.67    0.32
  -4   5 -17    4.84    0.36
   5   4 -17    3.89    0.31
   5   4  17    4.83    0.32
  -3   5 -17   13.31    0.84
  -5  -3 -17   11.65    0.80
   5   3 -17   10.84    0.74
   5   3  17   12.51    0.74
   5   3  17   10.43    0.78
   5   2 -17    6.57    0.47
   2  -5 -17    6.74    0.45
  -2   5 -17    7.73    0.56
  -5  -2 -17    7.70    0.50
   5   2  17    6.16    0.50
   1  -5 -17   15.15    0.96
  -5  -1 -17   17.59    1.06
  -1   5 -17   15.75    1.10
   5   1 -17   14.70    0.97
  -1   5  17   16.87    1.06
   5   1  17   14.23    1.03
   5   0 -17    7.09    0.54
   0   5 -17    7.05    0.61
   5   0 -17    8.92    0.53
   0  -5 -17    8.29    0.52
   5   0  17    7.98    0.56
  -1  -5 -17   15.32    0.98
   1   5 -17   15.05    1.11
   5  -1 -17   13.80    1.03
   5  -1 -17   17.40    0.98
  -5   1 -17   17.90    1.08
   5  -1  17   15.63    1.04
  -2  -5 -17    7.23    0.50
   5  -2 -17    8.50    0.48
   2   5 -17    7.29    0.58
   5  -2  17    6.67    0.51
  -3  -5 -17   11.83    0.75
   3   5 -17   10.48    0.69
  -3  -5 -17   11.32    0.72
   5  -3 -17    9.98    0.73
   3   5 -17   11.54    0.79
   5  -3  17   10.91    0.72
   5  -4 -17    3.63    0.30
   4   5 -17    3.84    0.29
  -4  -5 -17    4.31    0.30
   6   3 -17    3.33    0.28
  -6  -3 -17    3.62    0.28
  -3   6 -17    4.20    0.34
  -6  -2 -17    7.52    0.52
  -2   6 -17    8.51    0.58
   6   2 -17    6.74    0.49
   6   2  17    6.94    0.52
   1  -6 -17    4.57    0.32
  -1   6 -17    4.39    0.42
   6   1 -17    4.71    0.34
  -6  -1 -17    5.50    0.37
   6   1  17    4.36    0.36
   0  -6 -17    8.93    0.57
   0   6 -17    7.46    0.66
  -6   0 -17    9.84    0.63
   6   0 -17    9.67    0.57
   6   0  17    8.19    0.60
   6  -1 -17    4.41    0.35
  -6   1 -17    5.62    0.37
  -1  -6 -17    4.67    0.33
   1   6 -17    4.18    0.41
   6  -1  17    4.57    0.35
   2   6 -17    6.91    0.56
  -6   2 -17    7.98    0.52
   6  -2 -17    6.42    0.50
  -2  -6 -17    7.58    0.49
   6  -2  17    7.26    0.50
   6  -3 -17    2.89    0.25
   3   6 -17    3.32    0.30
  -3  -6 -17    2.95    0.26
   6  -3  17    3.27    0.24
   0   0 -18    0.58    0.09
   0   0 -18    0.59    0.10
   0   0  18    0.81    0.14
   0   0  18    0.36    0.11
  -1   0 -18    1.36    0.13
   0  -1 -18    1.45    0.13
   1   0 -18    1.49    0.14
   0   1 -18    1.21    0.15
  -1   0 -18    1.32    0.13
  -1   0 -18    1.39    0.15
   0   1 -18    1.37    0.13
   0  -1 -18    1.31    0.13
   0   1 -18    1.31    0.16
   1   0 -18    1.24    0.14
   0   1  18    1.31    0.19
   1   0  18    1.30    0.19
   1   0  18    1.41    0.16
   0  -1  18    1.34    0.17
   0   1  18    1.09    0.20
  -1   0  18    0.87    0.18
   1   1 -18    1.37    0.14
  -1  -1 -18    1.27    0.12
  -1   1 -18    1.19    0.11
   1  -1 -18    1.16    0.12
  -1   1 -18    1.13    0.13
   1   1 -18    0.92    0.14
   1  -1 -18    1.29    0.12
  -1   1 -18    1.30    0.16
   1   1 -18    1.08    0.14
  -1  -1 -18    1.30    0.13
  -1  -1 -18    1.21    0.13
   1  -1  18    1.29    0.17
  -1   1  18    0.83    0.17
  -1  -1  18    0.81    0.16
   1   1  18    1.05    0.16
   1   1  18    0.86    0.18
  -2  -1 -18    1.26    0.13
  -1   2 -18    1.09    0.18
  -2  -1 -18    0.98    0.13
   2   1 -18    0.94    0.13
   1  -2 -18    1.12    0.11
   1  -2 -18    1.05    0.12
   2   1 -18    0.93    0.14
   2   1  18    1.26    0.18
   2   1  18    1.04    0.15
   1  -2  18    1.14    0.14
  -2  -1  18    0.92    0.16
  -2   0 -18    0.55    0.11
   0   2 -18    0.49    0.09
   0   2 -18    0.42    0.12
   0  -2 -18    0.51    0.08
   2   0 -18    0.39    0.09
  -2   0 -18    0.61    0.10
   2   0 -18    0.28    0.09
   0   2  18    0.34    0.13
   0   2  18    0.19    0.12
  -2   0  18    0.27    0.11
   0  -2  18    0.43    0.09
   2   0  18    0.36    0.09
  -1  -2 -18    1.12    0.13
   2  -1 -18    1.27    0.12
  -2   1 -18    1.32    0.13
   2  -1 -18    1.19    0.15
   1   2 -18    0.91    0.13
  -2   1 -18    1.20    0.16
  -1  -2 -18    1.15    0.12
   2  -1 -18    1.09    0.13
   1   2 -18    1.06    0.17
   2  -1  18    0.99    0.16
   1   2  18    1.08    0.20
  -1  -2  18    1.04    0.15
  -2   2 -18    0.58    0.13
   2  -2 -18    0.35    0.07
   2   2 -18    0.24    0.09
  -2  -2 -18    0.36    0.09
   2   2  18    0.30    0.11
   2  -2  18    0.32    0.08
  -3  -2 -18    0.67    0.13
  -2   3 -18    0.92    0.19
  -3  -2 -18    1.02    0.13
   2  -3 -18    0.98    0.12
   3   2 -18    0.59    0.12
   2  -3  18    0.77    0.12
   3   2  18    1.05    0.17
   1  -3 -18    0.92    0.11
  -1   3 -18    1.01    0.20
  -3  -1 -18    0.86    0.13
  -3  -1 -18    0.77    0.13
   3   1 -18    0.52    0.12
   3   1  18    0.58    0.13
   0   3 -18    0.98    0.18
  -3   0 -18    1.07    0.15
   0  -3 -18    1.00    0.12
   3   0 -18    0.67    0.13
   3   0  18    0.86    0.16
   0   3  18    0.76    0.16
   1   3 -18    0.41    0.15
   3  -1 -18    0.74    0.12
  -1  -3 -18    0.93    0.12
   1   3 -18    0.73    0.11
   3  -1 -18    0.45    0.11
   1   3  18    0.99    0.19
   3  -1  18    0.57    0.12
   2   3 -18    0.56    0.15
   3  -2 -18    0.79    0.11
  -3   2 -18    0.76    0.16
  -2  -3 -18    1.01    0.11
  -2  -3 -18    0.85    0.14
   2   3 -18    0.65    0.12
   2   3  18    1.10    0.18
   3  -2  18    0.73    0.14
  -3  -3 -18    0.77    0.11
   3  -3 -18    0.57    0.10
   3   3 -18    0.51    0.11
  -3  -3 -18    0.69    0.13
  -3   3 -18    0.62    0.14
   3  -3  18    0.54    0.10
   3   3  18    0.55    0.12
  -4  -3 -18    0.40    0.12
   3  -4 -18    0.60    0.10
   4   3 -18    0.40    0.10
  -3   4 -18    0.68    0.15
   4   3  18    0.47    0.11
  -4  -2 -18    0.12    0.08
  -2   4 -18    0.33    0.15
   4   2 -18    0.11    0.09
   2  -4 -18    0.22    0.07
  -2   4  18    0.02    0.13
   4   2  18    0.27    0.10
  -1   4 -18    0.75    0.18
   4   1 -18    0.51    0.12
   1  -4 -18    0.82    0.11
  -1   4  18    0.47    0.15
   4   1  18    0.56    0.12
   4   0 -18    0.12    0.07
  -4   0 -18    0.32    0.09
   4   0 -18    0.18    0.09
   0   4 -18    0.20    0.15
   0  -4 -18    0.36    0.09
   0   4  18    0.33    0.13
   4   0  18    0.15    0.09
   1   4 -18    0.55    0.17
  -4   1 -18    0.94    0.15
   4  -1 -18    0.46    0.10
   4  -1 -18    0.72    0.12
  -1  -4 -18    0.63    0.11
   1   4  18    0.81    0.15
   4  -1  18    0.61    0.12
  -4   2 -18    0.36    0.11
  -2  -4 -18    0.26    0.09
   4  -2 -18    0.30    0.09
   4  -2 -18    0.28    0.08
   2   4 -18    0.22    0.14
   2   4 -18    0.12    0.07
   4  -2  18    0.10    0.07
   2   4  18    0.25    0.10
   4  -3 -18    0.67    0.10
   4  -3 -18    0.38    0.10
  -3  -4 -18    0.45    0.11
   3   4 -18    0.40    0.10
   4  -3  18    0.46    0.09
   4  -4 -18    0.07    0.07
  -4  -4 -18    0.24    0.08
  -4   4 -18    0.27    0.12
   4   4 -18    0.13    0.08
  -4  -4 -18   -0.07    0.08
  -4   5 -18    0.38    0.12
   5   4 -18    0.23    0.09
  -5  -4 -18    0.42    0.09
   5   4  18    0.30    0.08
   5   3 -18    0.21    0.09
  -3   5 -18    0.47    0.14
  -5  -3 -18    0.40    0.09
   5   3  18    0.27    0.08
   5   3  18    0.43    0.09
  -3   5  18    0.10    0.12
  -5  -2 -18    0.69    0.12
   5   2 -18    0.27    0.10
   2  -5 -18    0.45    0.08
  -2   5 -18    0.45    0.16
   5   2  18    0.43    0.10
  -2   5  18    0.34    0.14
   5   1 -18    0.26    0.10
   1  -5 -18    0.32    0.08
  -1   5 -18    0.41    0.17
   5   1  18    0.42    0.10
  -1   5  18    0.28    0.13
  -5   0 -18    0.67    0.13
   0  -5 -18    0.57    0.10
   5   0 -18    0.43    0.09
   5   0 -18    0.50    0.10
   0   5 -18    0.37    0.17
   0   5  18    0.53    0.13
   5   0  18    0.38    0.11
  -1  -5 -18    0.39    0.10
   5  -1 -18    0.41    0.09
   5  -1 -18    0.17    0.08
   1   5 -18    0.28    0.16
   5  -1  18    0.26    0.09
  -5   2 -18    0.66    0.13
  -2  -5 -18    0.54    0.11
   5  -2 -18    0.53    0.09
   5  -2 -18    0.31    0.09
   2   5 -18    0.38    0.16
   5  -2  18    0.39    0.09
   3   5 -18    0.25    0.14
  -3  -5 -18    0.23    0.09
  -5   3 -18    0.42    0.11
   5  -3 -18    0.29    0.09
   5  -3  18    0.27    0.07
  -5   4 -18    0.54    0.12
  -4  -5 -18    0.50    0.09
   5  -4 -18    0.37    0.09
   6   2 -18    0.08    0.08
  -6  -2 -18    0.24    0.07
  -2   6 -18    0.10    0.13
   6   2  18    0.05    0.06
   1  -6 -18    0.28    0.07
   6   1 -18    0.30    0.09
  -1   6 -18    0.43    0.17
   6   1  18    0.21    0.07
   0  -6 -18    0.23    0.07
  -6   0 -18    0.30    0.09
   0   6 -18    0.10    0.15
   6   0 -18    0.27    0.08
   6   0  18    0.17    0.07
   1   6 -18    0.26    0.15
   6  -1 -18    0.29    0.08
   6  -1 -18    0.38    0.08
  -1  -6 -18    0.35    0.09
   6  -1  18    0.22    0.08
  -2  -6 -18    0.09    0.07
   6  -2 -18    0.09    0.07
  -6   2 -18    0.23    0.09
   2   6 -18    0.09    0.13
   6  -2  18    0.13    0.06
   0   0 -19    0.38    0.07
   0   0 -19    0.25    0.07
   0   0  19    0.25    0.10
   0   0  19    0.16    0.10
   0  -1 -19   22.31    1.41
   0   1 -19   21.86    1.34
   0   1 -19   21.43    1.47
   1   0 -19   22.42    1.41
  -1   0 -19   22.25    1.47
   0  -1 -19   20.99    1.34
  -1   0 -19   22.71    1.34
   1   0 -19   21.49    1.34
  -1   0  19   21.64    1.45
   1   0  19   23.65    1.44
   0   1  19   23.27    1.46
  -1   0  19   19.03    1.44
   0  -1  19   24.39    1.45
   1   0  19   25.33    1.46
   0   1  19   23.00    1.46
  -1  -1 -19    0.79    0.10
  -1   1 -19    0.64    0.12
  -1  -1 -19    0.86    0.11
  -1   1 -19    0.60    0.09
   1  -1 -19    0.54    0.10
   1  -1 -19    0.66    0.09
   1   1  19    0.81    0.13
  -1   1  19    0.88    0.18
   1  -1  19    0.71    0.13
  -1   1  19    0.40    0.14
   1   1  19    0.67    0.14
  -1  -1  19    0.65    0.13
   2   1 -19   17.13    1.10
  -1   2 -19   18.36    1.22
  -2  -1 -19   18.03    1.19
  -2  -1 -19   17.24    1.10
   2   1  19   19.40    1.19
   1  -2  19   19.83    1.17
  -2  -1  19   16.33    1.17
  -2   0 -19    0.21    0.06
   0   2 -19    0.12    0.06
   2   0 -19    0.14    0.07
   2   0 -19    0.13    0.07
  -2   0 -19    0.34    0.09
   0   2 -19    0.12    0.10
   2   0  19    0.29    0.10
   0  -2  19    0.20    0.08
  -2   0  19    0.10    0.09
   0   2  19    0.40    0.13
   2  -1 -19   18.10    1.14
   1   2 -19   16.63    1.20
   2  -1 -19   16.86    1.09
   1   2 -19   18.16    1.09
  -2   1 -19   19.09    1.20
  -1  -2 -19   16.53    1.09
   2  -1  19   19.54    1.18
   1   2  19   19.11    1.19
  -2  -2 -19    0.27    0.08
   2   2 -19    0.41    0.10
  -2  -2 -19    0.36    0.08
   2  -2 -19    0.30    0.08
  -2   2 -19    0.15    0.11
   2   2  19    0.21    0.10
   2  -2  19    0.59    0.12
  -2   3 -19   12.81    0.83
  -3  -2 -19   10.70    0.75
   3   2 -19   10.16    0.74
  -3  -2 -19   12.43    0.80
   2  -3 -19   12.04    0.73
   3   2  19   12.70    0.81
  -3  -1 -19    0.46    0.09
   1  -3 -19    0.39    0.08
  -1   3 -19    0.16    0.13
  -3  -1 -19    0.44    0.10
   3   1 -19    0.25    0.10
  -1   3  19    0.21    0.13
   3   1  19    0.44    0.11
   3   0 -19   13.88    0.89
   0  -3 -19   14.34    0.89
  -3   0 -19   15.22    0.98
   0   3 -19   13.43    1.00
   3   0  19   15.17    0.97
   0   3  19   14.97    0.99
   1   3 -19    0.46    0.09
   3  -1 -19    0.50    0.09
  -3   1 -19    0.49    0.12
   1   3 -19    0.34    0.14
  -1  -3 -19    0.33    0.08
   1   3  19    0.46    0.12
   3  -1  19    0.53    0.11
  -2  -3 -19   11.41    0.76
  -2  -3 -19   12.22    0.81
   2   3 -19   10.91    0.75
   3  -2 -19   12.35    0.75
  -3   2 -19   12.64    0.84
   3  -2  19   11.97    0.80
   2   3  19   13.18    0.83
  -3  -3 -19    0.34    0.08
   3  -3 -19    0.23    0.07
  -3   3 -19    0.28    0.12
   3   3 -19    0.21    0.09
  -3  -3 -19    0.41    0.10
   3  -3  19    0.28    0.07
   3   3  19    0.39    0.11
   3  -4 -19    7.08    0.42
  -3   4 -19    7.36    0.50
   4   3 -19    5.39    0.43
  -4  -3 -19    5.49    0.45
  -4  -3 -19    7.19    0.46
   4   3  19    6.38    0.48
  -4  -2 -19    0.10    0.08
  -2   4 -19    0.03    0.13
   2  -4 -19    0.21    0.07
  -4  -2 -19    0.17    0.08
   4   2 -19   -0.02    0.08
   4   2  19    0.18    0.09
  -2   4  19   -0.11    0.11
   1  -4 -19    9.82    0.61
   4   1 -19    8.80    0.62
  -4  -1 -19   10.46    0.67
  -1   4 -19    9.51    0.71
  -1   4  19   10.02    0.71
   4   1  19    9.56    0.68
   0  -4 -19    0.23    0.07
   0   4 -19   -0.02    0.14
   4   0 -19   -0.03    0.07
  -4   0 -19    0.21    0.09
   4   0  19    0.08    0.08
   0   4  19    0.10    0.11
  -1  -4 -19    9.59    0.65
  -4   1 -19   10.90    0.72
   4  -1 -19   10.17    0.65
   4  -1  19    9.64    0.70
   1   4  19   11.06    0.72
   4  -2 -19    0.07    0.06
  -4   2 -19    0.11    0.10
  -2  -4 -19    0.14    0.08
   4  -2 -19    0.07    0.07
   2   4 -19    0.12    0.07
   2   4 -19    0.07    0.12
   4  -2  19    0.11    0.07
   2   4  19    0.13    0.09
  -4   3 -19    7.55    0.51
  -3  -4 -19    7.22    0.48
   4  -3 -19    7.47    0.44
   3   4 -19    5.86    0.45
  -3  -4 -19    6.02    0.46
   3   4  19    7.03    0.50
   4  -3  19    6.65    0.47
  -4   4 -19    0.06    0.10
  -4  -4 -19    0.11    0.06
   4  -4 -19    0.09    0.07
  -4  -4 -19   -0.08    0.08
   4   4 -19    0.00    0.07
  -5  -3 -19    0.21    0.07
   5   3 -19    0.09    0.08
  -3   5 -19    0.13    0.12
  -3   5  19    0.06    0.11
   5   3  19    0.24    0.07
   5   3  19    0.18    0.07
  -2   5 -19    5.80    0.45
   2  -5 -19    5.61    0.36
  -5  -2 -19    6.06    0.40
   5   2 -19    5.07    0.38
  -2   5  19    5.33    0.45
   5   2  19    4.95    0.40
  -1   5 -19    0.15    0.15
   1  -5 -19    0.19    0.07
   5   1 -19    0.05    0.08
  -5  -1 -19    0.35    0.09
  -1   5  19    0.10    0.12
   5   1  19    0.12    0.08
   5   0 -19    6.98    0.45
   0   5 -19    5.96    0.53
   0  -5 -19    6.42    0.44
   5   0  19    6.33    0.48
   0   5  19    7.59    0.51
  -5   1 -19    0.25    0.10
   5  -1 -19    0.24    0.08
  -1  -5 -19    0.19    0.07
   1   5 -19    0.13    0.14
   5  -1 -19    0.19    0.08
   5  -1  19    0.25    0.09
   1   5  19    0.14    0.10
   5  -2 -19    4.45    0.37
   2   5 -19    4.53    0.41
  -2  -5 -19    5.18    0.36
   5  -2 -19    5.95    0.34
   5  -2  19    5.12    0.37
  -5   3 -19    0.26    0.10
  -3  -5 -19    0.15    0.08
   5  -3 -19    0.19    0.07
   5  -3  19    0.15    0.06
   1  -6 -19    3.72    0.27
  -1   6 -19    4.36    0.36
  -6  -1 -19    4.12    0.30
   6   1 -19    4.09    0.29
   6   1  19    3.20    0.29
   0  -6 -19    0.11    0.06
   0   6 -19   -0.01    0.13
   6   0 -19    0.03    0.06
  -6   0 -19    0.22    0.08
   6   0  19    0.07    0.06
  -6   1 -19    4.38    0.30
  -1  -6 -19    3.64    0.27
   6  -1 -19    3.34    0.28
   6  -1 -19    4.26    0.27
   1   6 -19    3.23    0.34
   6  -1  19    3.61    0.29
   0   0 -20    7.95    0.51
   0   0  20    7.80    0.57
   0   0  20    8.79    0.59
  -1   0 -20    1.03    0.11
  -1   0 -20    1.09    0.13
   0   1 -20    0.97    0.11
   1   0 -20    1.02    0.12
   0   1 -20    0.85    0.14
   0  -1 -20    0.93    0.12
  -1   0  20    0.66    0.15
   0   1  20    1.04    0.20
   1   0  20    0.83    0.17
   0  -1  20    1.00    0.16
   1  -1 -20    8.62    0.57
   1   1 -20    9.10    0.58
  -1  -1 -20    8.91    0.57
  -1   1 -20    9.30    0.63
  -1   1 -20    8.52    0.56
  -1  -1 -20    9.22    0.62
   1   1  20   10.04    0.65
  -1  -1  20    9.30    0.63
  -1   1  20    7.92    0.65
   1  -1  20   10.21    0.64
   2   1 -20    0.74    0.13
  -2  -1 -20    1.02    0.12
   1  -2 -20    0.81    0.11
  -2  -1 -20    0.95    0.12
  -1   2 -20    0.78    0.16
   2   1  20    0.52    0.13
  -2  -1  20    0.57    0.13
   1  -2  20    0.83    0.13
   2   0 -20    6.33    0.43
   0   2 -20    6.38    0.42
   0   2 -20    6.19    0.49
  -2   0 -20    6.31    0.43
   0  -2 -20    6.59    0.43
  -2   0 -20    6.80    0.47
   0  -2  20    7.07    0.47
   0   2  20    6.34    0.51
   2   0  20    7.24    0.49
   2  -1 -20    0.85    0.12
   1   2 -20    0.59    0.13
   1   2 -20    0.59    0.11
  -2   1 -20    0.98    0.15
   1   2  20    0.67    0.14
   2  -1  20    0.94    0.16
  -2  -2 -20    5.58    0.40
  -2  -2 -20    5.55    0.38
  -2   2 -20    5.86    0.43
   2  -2 -20    5.59    0.37
   2   2 -20    4.88    0.38
   2   2  20    5.72    0.44
   2  -2  20    5.69    0.40
  -3  -2 -20    0.74    0.13
   3   2 -20    0.34    0.10
   2  -3 -20    0.50    0.09
  -2   3 -20    0.52    0.14
  -2   3  20    0.13    0.14
   3   2  20    0.89    0.17
  -3  -1 -20    5.71    0.40
  -1   3 -20    6.44    0.47
   1  -3 -20    5.90    0.39
  -3  -1 -20    6.63    0.43
   3   1 -20    5.53    0.41
  -1   3  20    5.59    0.48
   3   1  20    5.99    0.46
   0  -3 -20    0.78    0.11
  -3   0 -20    0.85    0.14
   3   0 -20    0.54    0.10
   0   3 -20    0.76    0.16
   3   0  20    0.54    0.12
   0   3  20    0.47    0.15
   3  -1 -20    6.47    0.41
  -3   1 -20    6.53    0.46
   1   3 -20    6.20    0.41
   1   3 -20    5.47    0.47
  -1  -3 -20    5.80    0.41
   3  -1  20    6.42    0.46
   1   3  20    6.55    0.48
  -2  -3 -20    0.53    0.10
   3  -2 -20    0.71    0.11
   2   3 -20    0.46    0.10
  -3   2 -20    0.75    0.14
   3  -2  20    0.50    0.11
  -3  -3 -20    4.28    0.33
  -3   3 -20    4.55    0.37
  -3  -3 -20    4.85    0.34
   3  -3 -20    4.54    0.31
   3   3  20    4.89    0.37
   3  -3  20    4.42    0.33
   4   3 -20    0.26    0.09
  -4  -3 -20    0.26    0.09
   3  -4 -20    0.49    0.09
  -3   4 -20    0.45    0.13
  -3   4  20    0.06    0.12
   4   3  20    0.38    0.10
  -2   4 -20    3.26    0.31
  -4  -2 -20    3.72    0.26
   2  -4 -20    3.44    0.23
  -4  -2 -20    2.63    0.24
   4   2 -20    2.59    0.25
  -2   4  20    2.47    0.32
   4   2  20    3.29    0.28
  -4  -1 -20    0.78    0.14
   1  -4 -20    0.70    0.12
   4   1  20    0.85    0.17
   0  -4 -20    3.66    0.27
   4   0 -20    3.62    0.28
  -4   0 -20    4.21    0.31
   0   4 -20    3.08    0.35
   4   0  20    3.87    0.32
   0   4  20    4.16    0.35
   1   4 -20    0.47    0.15
  -4   1 -20    0.66    0.12
  -1  -4 -20    0.44    0.09
   4  -1 -20    0.51    0.10
   4  -1  20    0.39    0.10
   1   4  20    0.41    0.12
  -4   2 -20    3.71    0.29
  -2  -4 -20    2.99    0.26
   4  -2 -20    3.31    0.25
   2   4  20    3.72    0.31
   4  -2  20    3.05    0.27
   4  -3 -20    0.39    0.08
   3   4 -20    0.24    0.08
  -4   3 -20    0.56    0.12
  -3  -4 -20    0.29    0.09
  -3  -4 -20    0.47    0.10
   4  -3  20    0.28    0.07
   3   4  20    0.40    0.10
  -4  -4 -20    1.48    0.19
   4   4 -20    1.51    0.17
  -4   4 -20    2.28    0.22
  -4  -4 -20    2.13    0.17
  -5  -3 -20    2.42    0.19
  -3   5 -20    2.46    0.24
   5   3 -20    1.76    0.19
  -3   5  20    1.66    0.24
   5   3  20    2.16    0.20
  -2   5 -20    0.29    0.14
   5   2 -20    0.14    0.09
  -5  -2 -20    0.51    0.10
   2  -5 -20    0.32    0.07
  -2   5  20    0.21    0.13
   5   2  20    0.33    0.09
  -1   5 -20    3.17    0.32
  -5  -1 -20    3.63    0.27
   5   1 -20    2.87    0.25
   1  -5 -20    3.16    0.24
   5   1  20    3.24    0.28
  -1   5  20    3.37    0.32
   0   5 -20    0.37    0.16
   5   0 -20    0.24    0.08
   5   0  20    0.30    0.09
   0   5  20    0.30    0.12
  -1  -5 -20    2.87    0.24
   1   5 -20    2.53    0.30
  -5   1 -20    3.54    0.27
   5  -1 -20    3.25    0.24
   1   5  20    3.74    0.31
   5  -1  20    3.15    0.26
  -5   2 -20    0.45    0.11
   5  -2 -20    0.24    0.08
  -2  -5 -20    0.35    0.09
   5  -2 -20    0.33    0.08
   2   5 -20    0.19    0.12
   5  -2  20    0.28    0.08
  -3  -5 -20    1.92    0.19
   5  -3 -20    1.73    0.18
   5  -3  20    2.21    0.18
   0   6 -20    1.54    0.23
  -6   0 -20    1.98    0.17
   0  -6 -20    1.56    0.15
   6   0 -20    1.61    0.15
   6   0  20    1.47    0.16
   0   0 -21   49.28    3.18
   0   0  21   58.93    3.40
   0  -1 -21    3.25    0.25
   0   1 -21    3.57    0.28
  -1   0 -21    3.50    0.27
   1   0 -21    3.32    0.25
   0   1 -21    3.42    0.24
  -1   0 -21    3.46    0.25
   0  -1  21    3.89    0.30
  -1   0  21    3.26    0.31
   1   0  21    3.75    0.31
   0   1  21    3.53    0.33
  -1   1 -21   42.40    2.79
  -1   1 -21   40.47    2.54
   1  -1 -21   39.77    2.54
  -1  -1 -21   39.07    2.54
   1   1 -21   42.42    2.55
   1   1  21   47.76    2.73
  -1  -1  21   44.86    2.71
   1  -1  21   48.29    2.71
  -1   1  21   42.02    2.72
   1  -2 -21    2.58    0.21
  -2  -1 -21    2.65    0.21
   2   1 -21    2.61    0.22
  -2  -1 -21    2.92    0.23
  -1   2 -21    2.82    0.26
   1  -2  21    2.82    0.24
  -2  -1  21    2.55    0.25
  -1   2  21    2.30    0.30
   2   1  21    3.11    0.27
   2   0 -21   40.14    2.46
  -2   0 -21   42.31    2.70
   0   2 -21   41.27    2.71
   0  -2 -21   38.12    2.46
  -2   0 -21   38.72    2.46
   0   2 -21   40.56    2.45
  -2   0  21   36.29    2.62
   0  -2  21   47.25    2.61
   0   2  21   42.85    2.64
   2   0  21   48.12    2.64
  -2   1 -21    2.69    0.25
   2  -1 -21    2.63    0.21
  -1  -2 -21    2.69    0.22
   1   2 -21    2.68    0.21
   1   2  21    2.95    0.28
   2  -1  21    3.08    0.26
   2   2 -21   33.20    2.05
  -2  -2 -21   33.45    2.23
   2  -2 -21   33.42    2.04
  -2   2 -21   34.74    2.25
  -2  -2 -21   31.53    2.05
   2  -2  21   37.04    2.17
   2   2  21   37.50    2.20
  -3  -2 -21    2.06    0.17
  -2   3 -21    1.72    0.22
   3   2 -21    1.37    0.17
   2  -3 -21    1.76    0.16
  -3  -2 -21    1.78    0.18
   3   2  21    1.95    0.22
  -3  -1 -21   24.73    1.63
   1  -3 -21   25.65    1.62
  -1   3 -21   28.33    1.80
  -3  -1 -21   27.98    1.78
   3   1 -21   26.47    1.63
   3   1  21   30.80    1.75
  -1   3  21   26.23    1.76
   0   3 -21    2.08    0.25
   0  -3 -21    2.33    0.19
   3   0 -21    2.09    0.20
  -3   0 -21    2.48    0.22
   3   0  21    2.59    0.24
   0   3  21    2.12    0.27
   1   3 -21   24.63    1.83
  -3   1 -21   29.00    1.82
   3  -1 -21   27.68    1.66
  -1  -3 -21   24.48    1.66
   3  -1  21   30.38    1.77
   1   3  21   30.35    1.79
   3  -2 -21    1.94    0.17
  -2  -3 -21    1.89    0.18
   2   3 -21    1.61    0.17
  -3   2 -21    2.17    0.22
   3  -2  21    2.05    0.20
   2   3  21    1.85    0.23
  -3  -3 -21   16.78    1.14
   3   3 -21   16.49    1.14
  -3  -3 -21   19.44    1.23
  -3   3 -21   20.09    1.26
   3  -3 -21   19.34    1.13
   3   3  21   20.12    1.23
  -4  -3 -21    1.20    0.13
  -4  -3 -21    0.76    0.14
  -3   4 -21    0.91    0.18
   3  -4 -21    1.08    0.12
   4   3  21    1.29    0.16
  -4  -2 -21   19.48    1.23
  -2   4 -21   20.17    1.26
   4   2 -21   17.20    1.14
   2  -4 -21   18.76    1.13
   4   2  21   19.66    1.22
  -2   4  21   16.60    1.24
   1  -4 -21    1.61    0.15
  -1   4 -21    1.24    0.22
  -4  -1 -21    1.85    0.18
   4   1 -21    1.18    0.16
  -1   4  21    1.28    0.25
   4   1  21    1.87    0.20
   0   4 -21   21.46    1.56
  -4   0 -21   23.40    1.54
   0  -4 -21   21.99    1.41
   4   0 -21   22.94    1.41
   0   4  21   25.55    1.53
   4   0  21   25.19    1.51
  -1  -4 -21    1.40    0.16
   4  -1 -21    1.38    0.16
   1   4 -21    1.12    0.21
  -4   1 -21    1.75    0.19
   4  -1  21    1.76    0.19
   1   4  21    1.73    0.22
  -4   2 -21   20.82    1.33
   4  -2 -21   19.70    1.20
  -2  -4 -21   17.41    1.21
   2   4  21   21.88    1.30
   4  -2  21   20.17    1.28
  -4   3 -21    1.07    0.17
  -3  -4 -21    0.79    0.13
   3   4 -21    0.82    0.12
   4  -3 -21    1.07    0.12
   3   4  21    1.25    0.16
   4  -3  21    1.08    0.13
   4   4 -21    9.44    0.65
  -4  -4 -21    9.76    0.66
  -4   4 -21   11.87    0.73
  -4  -4 -21   10.76    0.70
  -2   5 -21    0.93    0.19
   2  -5 -21    0.81    0.10
  -5  -2 -21    0.93    0.12
   5   2 -21    0.69    0.13
  -2   5  21    0.72    0.16
   5   2  21    1.09    0.14
   5   1 -21   12.40    0.80
   1  -5 -21   11.70    0.79
  -5  -1 -21   13.00    0.87
  -1   5 -21   13.20    0.91
  -1   5  21   14.82    0.89
   5   1  21   12.75    0.86
  -5   0 -21    1.16    0.15
   0   5 -21    0.92    0.19
   5   0 -21    0.91    0.13
   0  -5 -21    0.95    0.12
   5   0  21    1.32    0.16
   0   5  21    1.00    0.19
   5  -1 -21   13.40    0.82
  -5   1 -21   14.23    0.91
  -1  -5 -21   12.01    0.83
   5  -1  21   12.94    0.88
   1   5  21   14.85    0.91
   2   5 -21    0.68    0.15
  -2  -5 -21    0.76    0.12
   5  -2 -21    0.77    0.11
  -5   2 -21    0.93    0.15
   5  -2  21    1.09    0.13
   0   0 -22    2.01    0.17
   0   0  22    1.89    0.23
   0   1 -22   18.76    1.22
   0   1 -22   17.36    1.10
   1   0 -22   17.92    1.11
  -1   0 -22   19.36    1.21
  -1   0 -22   17.47    1.10
   0  -1 -22   17.71    1.10
   1   0  22   19.03    1.20
   0   1  22   18.55    1.21
   0  -1  22   19.06    1.19
  -1   0  22   17.87    1.20
   1   1 -22    1.34    0.14
  -1   1 -22    1.53    0.16
   1  -1 -22    1.09    0.13
  -1  -1 -22    1.25    0.13
   1   1  22    1.07    0.20
   1  -1  22    1.14    0.17
  -1   1  22    0.87    0.18
  -1  -1  22    0.91    0.17
  -1   2 -22   15.98    1.01
   2   1 -22   14.49    0.91
  -2  -1 -22   14.28    0.91
  -2  -1 -22   15.32    0.99
   1  -2 -22   14.37    0.91
  -1   2  22   14.00    1.01
  -2  -1  22   13.08    0.98
   2   1  22   17.06    1.00
   1  -2  22   15.82    0.98
   0  -2 -22    1.59    0.15
  -2   0 -22    1.97    0.18
   0   2 -22    1.62    0.19
   2   0 -22    1.60    0.16
   2   0  22    1.87    0.22
  -2   0  22    1.27    0.21
   0   2  22    1.57    0.23
   2  -1 -22   14.63    0.93
  -1  -2 -22   13.98    0.93
   1   2 -22   15.06    0.93
  -2   1 -22   16.40    1.03
   1   2  22   15.59    1.03
   2  -1  22   16.34    1.01
  -2  -2 -22    1.44    0.15
   2  -2 -22    1.40    0.15
   2   2 -22    1.22    0.15
  -2   2 -22    1.58    0.20
   2   2  22    1.38    0.21
   2  -2  22    1.58    0.17
  -2   3 -22   10.95    0.73
  -3  -2 -22   10.93    0.71
   3   2 -22    9.48    0.66
  -3  -2 -22    9.93    0.66
   2  -3 -22   10.44    0.65
   3   2  22   10.89    0.72
   1  -3 -22    0.91    0.12
  -3  -1 -22    1.13    0.14
  -1   3 -22    0.95    0.17
   3   1 -22    0.68    0.13
   3   1  22    1.08    0.18
   0   3 -22   12.24    0.87
   0  -3 -22   11.93    0.78
  -3   0 -22   13.49    0.86
   3   0 -22   12.67    0.79
   3   0  22   13.27    0.85
   0   3  22   12.46    0.87
   3  -1 -22    0.77    0.12
  -1  -3 -22    0.77    0.12
   1   3 -22    0.70    0.14
  -3   1 -22    0.87    0.16
   1   3  22    0.50    0.14
   3  -1  22    1.09    0.16
  -3   2 -22   11.80    0.75
  -2  -3 -22   10.06    0.67
   3  -2 -22   10.61    0.67
   2   3 -22    9.69    0.67
   3  -2  22   11.05    0.72
   2   3  22   11.28    0.74
   3  -3 -22    0.66    0.11
  -3   3 -22    0.72    0.15
   3   3 -22    0.50    0.10
  -3  -3 -22    0.64    0.12
  -3  -3 -22    0.84    0.11
   3   3  22    1.02    0.16
   4   3 -22    5.22    0.39
  -4  -3 -22    6.24    0.41
   3  -4 -22    6.22    0.38
  -4  -3 -22    5.29    0.39
   4   3  22    6.23    0.43
   4   2 -22    0.75    0.12
  -2   4 -22    0.86    0.19
  -4  -2 -22    1.15    0.13
   2  -4 -22    0.99    0.12
  -2   4  22    0.63    0.16
   4   2  22    1.27    0.16
  -1   4 -22    9.15    0.64
   4   1 -22    7.95    0.56
   1  -4 -22    8.36    0.55
  -4  -1 -22    9.45    0.61
  -1   4  22    8.78    0.64
   4   1  22    8.85    0.61
   0   4 -22    1.00    0.18
   0  -4 -22    1.32    0.14
   4   0 -22    0.92    0.14
  -4   0 -22    1.35    0.16
   0   4  22    1.05    0.22
   4   0  22    1.38    0.18
  -1  -4 -22    8.58    0.57
   4  -1 -22    8.76    0.56
   1   4 -22    7.67    0.64
  -4   1 -22   10.07    0.63
   4  -1  22    9.35    0.62
   1   4  22    9.24    0.64
  -4   2 -22    1.06    0.17
   4  -2 -22    0.85    0.12
  -2  -4 -22    1.00    0.13
   2   4  22    0.95    0.17
   4  -2  22    1.06    0.14
  -3  -4 -22    5.73    0.41
   4  -3 -22    6.51    0.40
   3   4 -22    5.28    0.40
  -4   3 -22    7.30    0.46
   3   4  22    6.26    0.45
   5   2 -22    4.63    0.35
  -5  -2 -22    5.27    0.37
  -2   5 -22    5.65    0.42
  -2   5  22    5.19    0.45
  -5  -1 -22    0.59    0.11
   1  -5 -22    0.35    0.07
  -1   5 -22    0.36    0.13
   5   1 -22    0.34    0.09
  -1   5  22    0.35    0.13
   0  -5 -22    6.00    0.41
   0   5 -22    5.92    0.48
   5   0 -22    6.06    0.42
  -5   0 -22    6.76    0.46
   5   0  22    6.55    0.45
   0   5  22    7.11    0.48
  -1  -5 -22    0.48    0.09
  -5   1 -22    0.67    0.13
   1   5 -22    0.44    0.13
   5  -1 -22    0.36    0.08
   5  -1  22    0.62    0.12
  -5   2 -22    5.80    0.39
  -2  -5 -22    4.63    0.35
   5  -2  22    4.85    0.37
   0   0 -23    0.38    0.08
   0   0  23    0.35    0.12
   0  -1 -23    4.81    0.34
   0   1 -23    4.71    0.33
  -1   0 -23    4.82    0.37
   1   0 -23    4.90    0.34
  -1   0 -23    4.53    0.33
   0   1  23    5.82    0.42
  -1   0  23    5.10    0.40
   1   0  23    5.94    0.41
   0  -1  23    5.59    0.39
   1  -1 -23    0.13    0.07
  -1   1 -23    0.13    0.09
  -1  -1 -23    0.26    0.07
   1   1 -23    0.13    0.07
  -1   1  23    0.14    0.12
   1  -1  23    0.18    0.09
   1   1  23    0.37    0.12
  -1  -1  23    0.10    0.09
  -2  -1 -23    3.95    0.29
  -1   2 -23    4.01    0.34
   1  -2 -23    3.94    0.29
  -2  -1 -23    4.10    0.31
   2   1 -23    4.00    0.30
   2   1  23    4.89    0.36
  -1   2  23    4.80    0.39
   1  -2  23    4.78    0.33
  -2  -1  23    4.06    0.33
  -2   0 -23    0.56    0.10
   0  -2 -23    0.43    0.08
   0   2 -23    0.39    0.11
   2   0 -23    0.35    0.09
   2   0  23    0.59    0.13
  -2   0  23    0.35    0.12
   0   2  23    0.33    0.13
  -2   1 -23    4.07    0.32
   2  -1 -23    4.13    0.29
   1   2 -23    4.10    0.28
  -1  -2 -23    3.98    0.29
   1   2  23    4.51    0.36
  -2   1  23    3.61    0.35
  -2   2 -23    0.37    0.12
   2  -2 -23    0.28    0.08
  -2  -2 -23    0.44    0.08
   2   2 -23    0.27    0.08
  -2   2  23    0.14    0.13
   2  -2  23    0.38    0.09
   2   2  23    0.43    0.12
  -3  -2 -23    2.99    0.22
  -2   3 -23    2.71    0.26
   3   2 -23    2.35    0.21
   2  -3 -23    2.75    0.21
  -3  -2 -23    2.82    0.22
  -2   3  23    2.55    0.30
  -3  -1 -23    0.16    0.08
   1  -3 -23    0.15    0.07
  -1   3 -23    0.07    0.11
   3   1 -23    0.09    0.07
   3   1  23    0.25    0.10
  -1   3  23    0.10    0.12
  -3   0 -23    3.63    0.27
   3   0 -23    3.26    0.25
   0   3 -23    3.22    0.29
   0  -3 -23    3.28    0.24
   0   3  23    3.50    0.32
  -3   0  23    2.68    0.29
  -3   1 -23    0.32    0.10
  -1  -3 -23    0.27    0.07
   3  -1 -23    0.13    0.07
  -3   1  23   -0.02    0.09
   1   3  23    0.13    0.11
   3  -1  23    0.19    0.09
  -2  -3 -23    2.75    0.23
   3  -2 -23    2.78    0.23
  -3   2 -23    3.08    0.27
   2   3 -23    2.70    0.22
   3  -2  23    3.49    0.26
   2   3  23    3.66    0.29
   3   3 -23    0.15    0.07
   3  -3 -23    0.15    0.07
  -3  -3 -23    0.16    0.07
  -3   3 -23    0.06    0.10
  -3   3  23   -0.03    0.11
   3   3  23    0.26    0.09
  -3   4 -23    1.56    0.20
   4   3 -23    1.41    0.15
   3  -4 -23    1.58    0.15
   4   3  23    1.93    0.18
  -3   4  23    1.41    0.22
   4   2 -23    0.11    0.07
   2  -4 -23    0.25    0.07
  -2   4 -23    0.17    0.11
  -2   4  23    0.09    0.12
   4   2  23    0.36    0.10
  -1   4 -23    2.23    0.25
   1  -4 -23    2.43    0.19
  -4  -1 -23    2.60    0.21
   4   1 -23    2.13    0.20
  -1   4  23    2.66    0.29
   0   4 -23    0.21    0.12
   0  -4 -23    0.29    0.07
   4   0 -23    0.16    0.08
  -4   0 -23    0.40    0.10
   0   4  23    0.38    0.13
  -4   0  23    0.15    0.09
  -4   1 -23    2.65    0.23
   4  -1 -23    2.31    0.20
  -1  -4 -23    2.07    0.19
   4  -1  23    2.78    0.23
   1   4  23    2.71    0.26
  -2  -4 -23    0.24    0.07
  -4   2 -23    0.41    0.11
   4  -2 -23    0.20    0.07
   2   4  23    0.32    0.10
  -4   2  23    0.03    0.09
  -3  -4 -23    1.49    0.15
  -4   3 -23    1.61    0.18
   0   5 -23    1.51    0.21
  -5   0 -23    1.53    0.17
   0  -5 -23    1.58    0.15
   5   0 -23    1.58    0.15
   5   0  23    1.90    0.17
   0   0 -24    5.64    0.38
   0   0  24    6.02    0.44
   0  -1 -24    1.47    0.15
  -1   0 -24    1.63    0.14
   1   0 -24    1.64    0.16
   0   1 -24    1.66    0.14
   0  -1  24    1.61    0.19
   0   1  24    1.51    0.23
   1   0  24    1.80    0.21
  -1   0  24    1.39    0.21
   1   1 -24    4.39    0.30
   1  -1 -24    4.17    0.30
  -1  -1 -24    4.53    0.30
  -1   1 -24    4.33    0.33
   1  -1  24    4.69    0.35
  -1   1  24    4.12    0.37
  -1  -1  24    4.37    0.34
   1   1  24    4.70    0.37
  -1   2 -24    1.30    0.18
   1  -2 -24    1.31    0.14
  -2  -1 -24    1.36    0.13
   2   1 -24    1.08    0.14
   2   1  24    1.34    0.20
  -1   2  24    1.21    0.19
   1  -2  24    1.57    0.17
  -2   0 -24    5.26    0.37
   2   0 -24    4.90    0.34
   0  -2 -24    4.69    0.33
   2   0  24    5.40    0.39
   0   2  24    5.27    0.41
  -2   0  24    4.39    0.39
   1   2 -24    1.40    0.14
  -2   1 -24    1.41    0.17
   2  -1 -24    1.21    0.14
  -1  -2 -24    1.30    0.14
  -2   1  24    0.99    0.17
   2  -1  24    1.51    0.18
   1   2  24    1.53    0.22
   2   2 -24    4.05    0.30
  -2  -2 -24    4.14    0.30
  -2   2 -24    4.60    0.35
   2  -2 -24    4.38    0.30
   2  -2  24    4.77    0.33
   2   2  24    4.45    0.36
   2  -3 -24    1.00    0.13
  -2   3 -24    0.87    0.18
  -3  -2 -24    1.11    0.12
  -3  -2 -24    1.05    0.13
   3   2  24    1.16    0.17
  -3  -1 -24    3.59    0.26
   1  -3 -24    3.31    0.24
  -1   3 -24    3.37    0.29
   3   1 -24    3.01    0.24
   3   1  24    3.39    0.29
  -1   3  24    2.91    0.32
  -3   0 -24    1.32    0.15
   3   0 -24    0.94    0.13
   0  -3 -24    1.06    0.13
   0   3 -24    1.12    0.17
   0   3  24    1.16    0.22
   3   0  24    1.36    0.18
   3  -1 -24    3.15    0.24
  -3   1 -24    3.46    0.27
  -1  -3 -24    2.96    0.24
   3  -1  24    3.20    0.27
   1   3  24    3.53    0.31
  -3   2 -24    0.97    0.16
   2   3 -24    0.74    0.12
  -2  -3 -24    0.95    0.12
   3  -2 -24    1.03    0.12
   3  -2  24    1.19    0.14
   2   3  24    1.10    0.19
  -3  -3 -24    2.04    0.18
   3   3 -24    2.01    0.18
   3  -3 -24    2.35    0.18
  -3   3 -24    2.41    0.22
   3   3  24    2.29    0.22
   2  -4 -24    2.64    0.20
  -2   4 -24    3.00    0.25
   4   2 -24    2.32    0.20
  -4  -2 -24    2.79    0.21
  -2   4  24    2.40    0.28
   4   2  24    2.82    0.24
  -1   4 -24    0.76    0.14
   4   1 -24    0.60    0.11
   1  -4 -24    0.83    0.11
  -1   4  24    0.74    0.16
   4   1  24    1.04    0.15
   4   0 -24    3.00    0.23
   0   4 -24    2.84    0.28
  -4   0 -24    3.52    0.26
   0  -4 -24    3.08    0.23
   0   4  24    2.98    0.30
   4   0  24    3.44    0.27
   4  -1 -24    0.73    0.12
  -1  -4 -24    0.98    0.12
  -4   1 -24    1.00    0.15
   4  -1  24    1.04    0.14
   1   4  24    0.90    0.18
  -4   2 -24    3.05    0.25
   4  -2 -24    2.82    0.21
  -2  -4 -24    2.52    0.21
   4  -2  24    2.93    0.23
   2   4  24    2.97    0.26
   0   0 -25    8.28    0.57
   0   0  25   10.04    0.64
  -1   0 -25    0.52    0.10
   1   0 -25    0.52    0.09
   0   1 -25    0.57    0.10
   0  -1 -25    0.58    0.11
  -1   0  25    0.75    0.14
   0   1  25    0.60    0.14
   0  -1  25    0.76    0.15
   1   0  25    0.72    0.13
  -1  -1 -25    8.68    0.61
   1  -1 -25    9.07    0.62
   1   1 -25    9.51    0.62
   1  -1  25   11.42    0.68
  -1   1  25    9.83    0.69
  -1  -1  25   10.45    0.67
   1   1  25   10.93    0.70
   1  -2 -25    0.43    0.08
   2   1 -25    0.40    0.09
  -1   2 -25    0.45    0.11
  -2  -1 -25    0.57    0.10
  -1   2  25    0.40    0.14
   2   1  25    0.60    0.13
   0  -2 -25    6.81    0.48
   2   0 -25    7.30    0.49
  -2   0 -25    6.99    0.52
   2   0  25    8.88    0.55
   0   2  25    8.67    0.57
  -2   0  25    7.29    0.54
  -1  -2 -25    0.43    0.08
   2  -1 -25    0.48    0.09
   1   2 -25    0.31    0.08
  -2   1 -25    0.50    0.11
   1   2  25    0.57    0.13
  -2   1  25    0.43    0.13
   2  -1  25    0.80    0.14
   2   2 -25    5.71    0.39
   2  -2 -25    5.87    0.39
  -2   2 -25    6.08    0.43
  -2  -2 -25    5.41    0.39
  -2   2  25    5.62    0.46
   2   2  25    6.92    0.45
   2  -3 -25    0.35    0.07
  -2   3 -25    0.44    0.12
   3   2 -25    0.27    0.08
  -2   3  25    0.36    0.13
   3   1 -25    6.16    0.42
  -3  -1 -25    6.66    0.45
  -1   3 -25    6.09    0.47
   1  -3 -25    6.49    0.42
  -1   3  25    6.92    0.50
  -3   0 -25    0.35    0.09
   0  -3 -25    0.54    0.10
   3   0 -25    0.36    0.08
   0   3  25    0.48    0.14
  -3   0  25    0.31    0.11
  -1  -3 -25    5.96    0.41
   3  -1 -25    6.26    0.41
  -3   1 -25    6.71    0.46
  -3   1  25    5.45    0.46
   1   3  25    7.38    0.48
  -3   2 -25    0.38    0.11
  -2  -3 -25    0.54    0.10
   3  -2 -25    0.28    0.07
   2   3  25    0.47    0.11
  -3   2  25    0.20    0.11
  -1   4 -25    0.27    0.11
   1  -4 -25    0.29    0.07
  -1   4  25    0.25    0.13
  -4   0 -25    4.37    0.30
   0  -4 -25    3.82    0.27
   4   0 -25    3.45    0.27
   0   4 -25    3.71    0.31
  -4   1 -25    0.34    0.10
  -1  -4 -25    0.36    0.08
   4  -1 -25    0.29    0.08
   0   0 -26    1.06    0.12
   1   0 -26   17.21    1.10
   0  -1 -26   16.72    1.10
   0   1  26   19.08    1.20
   1   0  26   19.86    1.19
  -1   0  26   17.67    1.18
   0  -1  26   19.07    1.18
   1  -1 -26    0.60    0.12
   1   1 -26    0.64    0.11
  -1  -1 -26    0.82    0.11
  -1  -1  26    0.74    0.15
  -1   1  26    0.80    0.15
   1   1  26    0.92    0.15
   1  -1  26    1.12    0.16
   1  -2 -26   14.14    0.92
  -1   2 -26   15.56    1.01
   2   1 -26   14.60    0.92
  -1   2  26   15.28    1.01
   2   1  26   16.37    1.00
   0  -2 -26    1.03    0.13
   2   0 -26    0.80    0.13
   0   2  26    1.11    0.20
   2   0  26    1.31    0.18
  -2   0  26    1.04    0.17
  -2   1 -26   16.18    1.00
   2  -1 -26   14.76    0.92
  -1  -2 -26   13.41    0.91
   2  -1  26   15.96    0.98
   1   2  26   15.93    1.00
  -2   1  26   14.20    1.00
  -2  -2 -26    0.85    0.11
   2   2 -26    0.72    0.11
  -2   2 -26    0.67    0.14
   2  -2 -26    0.70    0.11
  -2   2  26    0.79    0.15
   2   2  26    0.95    0.17
  -1   3 -26    0.47    0.11
   1  -3 -26    0.46    0.08
   3   1 -26    0.43    0.08
   3   1  26    0.80    0.15
  -1   3  26    0.71    0.15
   3   0 -26   12.46    0.77
   0  -3 -26   11.28    0.76
  -3   0 -26   13.10    0.84
   0   3  26   13.70    0.85
  -3   0  26   10.72    0.82
   3   0  26   14.12    0.83
  -1  -3 -26    0.57    0.10
   3  -1 -26    0.49    0.09
  -3   1 -26    0.55    0.10
   1   3  26    0.70    0.13
  -3   1  26    0.36    0.11
   0   0 -27    0.18    0.06
   0   0  27    0.09    0.09
   1   0 -27    2.84    0.23
   0  -1 -27    2.85    0.23
  -1   0  27    3.15    0.27
   0   1  27    3.20    0.29
   1   0  27    3.51    0.28
   0  -1  27    3.36    0.26
   1   1 -27    0.09    0.06
   1  -1 -27    0.36    0.08
  -1  -1 -27    0.17    0.06
   1  -1  27    0.22    0.08
  -1   1  27    0.11    0.10
   1   1  27    0.20    0.10
   1  -2 -27    2.24    0.19
   2   1 -27    2.26    0.19
  -1   2  27    2.70    0.26
   2   1  27    3.05    0.25
   2   0 -27    0.11    0.07
   0  -2 -27    0.14    0.06
  -2   0  27    0.03    0.08
   0   2  27    0.04    0.10
   2   0  27    0.19    0.09
   2  -1 -27    2.30    0.19
  -1  -2 -27    2.37    0.19
  -2   1  27    2.27    0.24
   1   2  27    2.55    0.25
   2  -1  27    2.82    0.22
   2  -2 -27    0.13    0.06
  -2   2  27    0.05    0.10
   0   0 -28    6.61    0.44
   0   0  28    7.52    0.50
   1   0 -28    0.34    0.07
   0  -1 -28    0.31    0.07
  -1   0  28    0.30    0.10
   1   0  28    0.49    0.11
   0   1  28    0.32    0.11
   1   1 -28    7.07    0.47
   1  -1 -28    7.43    0.48
  -1  -1 -28    6.71    0.47
  -1   1  28    7.90    0.53
   1   1  28    8.30    0.54
   1  -1  28    8.19    0.52
   0   0   0    0.00    0.00
;
_shelx_hkl_checksum              65352
loop_
_space_group_symop_operation_xyz
'x, y, z'
'-y+1/2, x, z'
'y, -x+1/2, z'
'x+1/2, -y, -z'
'-x, y+1/2, -z'
'-x+1/2, -y+1/2, z'
'y+1/2, x+1/2, -z'
'-y, -x, -z'
'-x, -y, -z'
'y-1/2, -x, -z'
'-y, x-1/2, -z'
'-x-1/2, y, z'
'x, -y-1/2, z'
'x-1/2, y-1/2, -z'
'-y-1/2, -x-1/2, z'
'y, x, z'
loop_
_atom_site_label
_atom_site_type_symbol
_atom_site_fract_x
_atom_site_fract_y
_atom_site_fract_z
_atom_site_U_iso_or_equiv
_atom_site_adp_type
_atom_site_occupancy
_atom_site_site_symmetry_order
_atom_site_calc_flag
_atom_site_refinement_flags_posn
_atom_site_refinement_flags_adp
_atom_site_refinement_flags_occupancy
_atom_site_disorder_assembly
_atom_site_disorder_group
La La 0.2500 0.2500 0.09052(3) 0.01410(9) Uani 1 8 d S TU P . .
Bi Bi 0.2500 0.2500 0.62301(2) 0.01339(8) Uani 0.982(3) 8 d S T P . .
Bi' Bi 0.2500 0.2500 0.5855(18) 0.003(5) Uiso 0.010(2) 8 d S . P . .
La' La 0.2500 0.2500 0.664(2) 0.004(6) Uiso 0.010(3) 8 d S . P . .
Se1 Se 0.2500 0.2500 0.81260(5) 0.01235(11) Uani 1 8 d S T P . .
Se2 Se 0.2500 0.2500 0.38739(6) 0.01499(13) Uani 1 8 d S T P . .
O O 0.7500 0.2500 0.0000 0.0128(8) Uani 0.82(13) 8 d S T P . .
F F 0.7500 0.2500 0.0000 0.0128(8) Uani 0.18(13) 8 d S T P . .
loop_
_atom_site_aniso_label
_atom_site_aniso_U_11
_atom_site_aniso_U_22
_atom_site_aniso_U_33
_atom_site_aniso_U_23
_atom_site_aniso_U_13
_atom_site_aniso_U_12
La 0.01474(10) 0.01474(10) 0.01281(14) 0.000 0.000 0.000
Bi 0.01420(8) 0.01420(8) 0.01177(16) 0.000 0.000 0.000
Se1 0.01343(15) 0.01343(15) 0.0102(2) 0.000 0.000 0.000
Se2 0.01299(16) 0.01299(16) 0.0190(3) 0.000 0.000 0.000
O 0.0131(11) 0.0131(11) 0.0120(14) 0.000 0.000 0.000
F 0.0131(11) 0.0131(11) 0.0120(14) 0.000 0.000 0.000
loop_
_atom_type_symbol
_atom_type_description
_atom_type_scat_dispersion_real
_atom_type_scat_dispersion_imag
_atom_type_scat_source
O O 0.0106 0.0060 'International Tables Vol C Tables 4.2.6.8 and 6.1.1.4'
F F 0.0171 0.0103 'International Tables Vol C Tables 4.2.6.8 and 6.1.1.4'
Se Se -0.0929 2.2259 'International Tables Vol C Tables 4.2.6.8 and 6.1.1.4'
La La -0.2871 2.4523 'International Tables Vol C Tables 4.2.6.8 and 6.1.1.4'
Bi Bi -4.1077 10.2566 'International Tables Vol C Tables 4.2.6.8 and 6.1.1.4'
loop_
_geom_angle_atom_site_label_1
_geom_angle_atom_site_label_2
_geom_angle_atom_site_label_3
_geom_angle
_geom_angle_site_symmetry_1
_geom_angle_site_symmetry_3
F La F 74.000(7) 9_655 1_455
F La O 0.0 9_655 9_655
F La O 74.000(7) 1_455 9_655
F La O 74.000(7) 9_655 1_455
F La O 0.0 1_455 1_455
O La O 74.000(7) 9_655 1_455
F La F 116.663(16) 9_655 9_665
F La F 74.000(7) 1_455 9_665
O La F 116.663(16) 9_655 9_665
O La F 74.000(7) 1_455 9_665
F La O 74.000(7) 9_655 .
F La O 116.663(16) 1_455 .
O La O 74.000(7) 9_655 .
O La O 116.663(16) 1_455 .
F La O 74.000(8) 9_665 .
F La F 74.000(7) 9_655 .
F La F 116.663(16) 1_455 .
O La F 74.000(7) 9_655 .
O La F 116.663(16) 1_455 .
F La F 74.000(8) 9_665 .
O La F 0.0 . .
F La O 116.663(16) 9_655 9_665
F La O 74.000(7) 1_455 9_665
O La O 116.663(16) 9_655 9_665
O La O 74.000(7) 1_455 9_665
F La O 0.0 9_665 9_665
O La O 74.000(8) . 9_665
F La O 74.000(8) . 9_665
F La Se1 140.122(4) 9_655 9_666
F La Se1 140.122(4) 1_455 9_666
O La Se1 140.122(4) 9_655 9_666
O La Se1 140.122(4) 1_455 9_666
F La Se1 71.143(9) 9_665 9_666
O La Se1 71.143(9) . 9_666
F La Se1 71.143(9) . 9_666
O La Se1 71.143(9) 9_665 9_666
F La Se1 71.143(9) 9_655 9_556
F La Se1 71.143(9) 1_455 9_556
O La Se1 71.143(9) 9_655 9_556
O La Se1 71.143(9) 1_455 9_556
F La Se1 140.122(4) 9_665 9_556
O La Se1 140.122(4) . 9_556
F La Se1 140.122(4) . 9_556
O La Se1 140.122(4) 9_665 9_556
Se1 La Se1 129.95(2) 9_666 9_556
F La Se1 140.122(4) 9_655 9_566
F La Se1 71.143(9) 1_455 9_566
O La Se1 140.122(4) 9_655 9_566
O La Se1 71.143(9) 1_455 9_566
F La Se1 71.143(9) 9_665 9_566
O La Se1 140.122(4) . 9_566
F La Se1 140.122(4) . 9_566
O La Se1 71.143(9) 9_665 9_566
Se1 La Se1 79.690(10) 9_666 9_566
Se1 La Se1 79.690(10) 9_556 9_566
F La Se1 71.143(9) 9_655 9_656
F La Se1 140.122(4) 1_455 9_656
O La Se1 71.143(9) 9_655 9_656
O La Se1 140.122(4) 1_455 9_656
F La Se1 140.122(4) 9_665 9_656
O La Se1 71.143(9) . 9_656
F La Se1 71.143(9) . 9_656
O La Se1 140.122(4) 9_665 9_656
Se1 La Se1 79.690(10) 9_666 9_656
Se1 La Se1 79.690(10) 9_556 9_656
Se1 La Se1 129.95(2) 9_566 9_656
Bi' Bi La' 180.00(3) . .
Bi' Bi Se1 180.0 . .
La' Bi Se1 0.000(10) . .
Bi' Bi Se2 87.132(19) . 9_556
La' Bi Se2 92.87(2) . 9_556
Se1 Bi Se2 92.868(18) . 9_556
Bi' Bi Se2 87.13(2) . 9_666
La' Bi Se2 92.87(2) . 9_666
Se1 Bi Se2 92.868(18) . 9_666
Se2 Bi Se2 174.26(4) 9_556 9_666
Bi' Bi Se2 87.132(18) . 9_656
La' Bi Se2 92.868(18) . 9_656
Se1 Bi Se2 92.868(18) . 9_656
Se2 Bi Se2 89.857(2) 9_556 9_656
Se2 Bi Se2 89.857(2) 9_666 9_656
Bi' Bi Se2 87.132(18) . 9_566
La' Bi Se2 92.868(18) . 9_566
Se1 Bi Se2 92.868(18) . 9_566
Se2 Bi Se2 89.857(2) 9_556 9_566
Se2 Bi Se2 89.857(2) 9_666 9_566
Se2 Bi Se2 174.26(4) 9_656 9_566
Bi Bi' La' 0.000(5) . .
Bi Bi' Se2 180.0 . .
La' Bi' Se2 180.0 . .
Bi Bi' Se2 82.6(5) . 9_666
La' Bi' Se2 82.6(5) . 9_666
Se2 Bi' Se2 97.4(5) . 9_666
Bi Bi' Se2 82.6(5) . 9_556
La' Bi' Se2 82.6(5) . 9_556
Se2 Bi' Se2 97.4(5) . 9_556
Se2 Bi' Se2 165.1(10) 9_666 9_556
Bi Bi' Se2 82.6(5) . 9_566
La' Bi' Se2 82.6(5) . 9_566
Se2 Bi' Se2 97.4(5) . 9_566
Se2 Bi' Se2 89.04(12) 9_666 9_566
Se2 Bi' Se2 89.04(12) 9_556 9_566
Bi Bi' Se2 82.6(5) . 9_656
La' Bi' Se2 82.6(5) . 9_656
Se2 Bi' Se2 97.4(5) . 9_656
Se2 Bi' Se2 89.04(12) 9_666 9_656
Se2 Bi' Se2 89.04(12) 9_556 9_656
Se2 Bi' Se2 165.1(10) 9_566 9_656
Bi Bi' Se1 0.0 . .
La' Bi' Se1 0.000(5) . .
Se2 Bi' Se1 180.0 . .
Se2 Bi' Se1 82.6(5) 9_666 .
Se2 Bi' Se1 82.6(5) 9_556 .
Se2 Bi' Se1 82.6(5) 9_566 .
Se2 Bi' Se1 82.6(5) 9_656 .
Bi La' Bi' 0.000(4) . .
Bi La' Se1 180.0 . .
Bi' La' Se1 180.0 . .
Bi La' Se2 76.1(6) . 9_556
Bi' La' Se2 76.1(6) . 9_556
Se1 La' Se2 103.9(6) . 9_556
Bi La' Se2 76.1(6) . 9_666
Bi' La' Se2 76.1(6) . 9_666
Se1 La' Se2 103.9(6) . 9_666
Se2 La' Se2 152.2(11) 9_556 9_666
Bi La' Se2 76.1(6) . 9_566
Bi' La' Se2 76.1(6) . 9_566
Se1 La' Se2 103.9(6) . 9_566
Se2 La' Se2 86.7(3) 9_556 9_566
Se2 La' Se2 86.7(3) 9_666 9_566
Bi La' Se2 76.1(6) . 9_656
Bi' La' Se2 76.1(6) . 9_656
Se1 La' Se2 103.9(6) . 9_656
Se2 La' Se2 86.7(3) 9_556 9_656
Se2 La' Se2 86.7(3) 9_666 9_656
Se2 La' Se2 152.2(11) 9_566 9_656
Bi La' La' 90.000(8) . 1_455
Bi' La' La' 90.000(4) . 1_455
Se1 La' La' 90.000(2) . 1_455
Se2 La' La' 46.65(13) 9_556 1_455
Se2 La' La' 133.35(13) 9_666 1_455
Se2 La' La' 46.65(13) 9_566 1_455
Se2 La' La' 133.35(13) 9_656 1_455
Bi La' La' 90.000(7) . 1_545
Bi' La' La' 90.000(3) . 1_545
Se1 La' La' 90.000(2) . 1_545
Se2 La' La' 46.65(13) 9_556 1_545
Se2 La' La' 133.35(13) 9_666 1_545
Se2 La' La' 133.35(13) 9_566 1_545
Se2 La' La' 46.65(13) 9_656 1_545
La' La' La' 90.000(3) 1_455 1_545
Bi La' La' 90.000(7) . 1_565
Bi' La' La' 90.000(6) . 1_565
Se1 La' La' 90.000(1) . 1_565
Se2 La' La' 133.35(13) 9_556 1_565
Se2 La' La' 46.65(13) 9_666 1_565
Se2 La' La' 46.65(13) 9_566 1_565
Se2 La' La' 133.35(13) 9_656 1_565
La' La' La' 90.000(1) 1_455 1_565
La' La' La' 180.0 1_545 1_565
Bi La' La' 90.000(7) . 1_655
Bi' La' La' 90.000(7) . 1_655
Se1 La' La' 90.000(1) . 1_655
Se2 La' La' 133.35(13) 9_556 1_655
Se2 La' La' 46.65(13) 9_666 1_655
Se2 La' La' 133.35(13) 9_566 1_655
Se2 La' La' 46.65(13) 9_656 1_655
La' La' La' 180.0 1_455 1_655
La' La' La' 90.000(1) 1_545 1_655
La' La' La' 90.000(4) 1_565 1_655
La' Se1 Bi 0.000(3) . .
La' Se1 Bi' 0.000(2) . .
Bi Se1 Bi' 0.0 . .
La' Se1 La 115.026(13) . 9_666
Bi Se1 La 115.026(12) . 9_666
Bi' Se1 La 115.026(13) . 9_666
La' Se1 La 115.026(13) . 9_556
Bi Se1 La 115.026(12) . 9_556
Bi' Se1 La 115.026(12) . 9_556
La Se1 La 129.95(2) 9_666 9_556
La' Se1 La 115.026(12) . 9_656
Bi Se1 La 115.026(12) . 9_656
Bi' Se1 La 115.026(12) . 9_656
La Se1 La 79.691(10) 9_666 9_656
La Se1 La 79.691(10) 9_556 9_656
La' Se1 La 115.026(12) . 9_566
Bi Se1 La 115.026(12) . 9_566
Bi' Se1 La 115.026(12) . 9_566
La Se1 La 79.691(10) 9_666 9_566
La Se1 La 79.691(10) 9_556 9_566
La Se1 La 129.95(2) 9_656 9_566
Bi' Se2 Bi 92.868(18) . 9_556
Bi' Se2 Bi 92.868(18) . 9_666
Bi Se2 Bi 174.26(4) 9_556 9_666
Bi' Se2 Bi 92.868(18) . 9_656
Bi Se2 Bi 89.857(2) 9_556 9_656
Bi Se2 Bi 89.857(2) 9_666 9_656
Bi' Se2 Bi 92.868(18) . 9_566
Bi Se2 Bi 89.857(2) 9_556 9_566
Bi Se2 Bi 89.857(2) 9_666 9_566
Bi Se2 Bi 174.26(4) 9_656 9_566
Bi' Se2 Bi' 82.6(5) . 9_666
Bi Se2 Bi' 175.4(5) 9_556 9_666
Bi Se2 Bi' 10.3(5) 9_666 9_666
Bi Se2 Bi' 90.37(2) 9_656 9_666
Bi Se2 Bi' 90.37(2) 9_566 9_666
Bi' Se2 Bi' 82.6(5) . 9_556
Bi Se2 Bi' 10.3(5) 9_556 9_556
Bi Se2 Bi' 175.4(5) 9_666 9_556
Bi Se2 Bi' 90.37(2) 9_656 9_556
Bi Se2 Bi' 90.37(2) 9_566 9_556
Bi' Se2 Bi' 165.1(10) 9_666 9_556
Bi' Se2 Bi' 82.6(5) . 9_656
Bi Se2 Bi' 90.37(2) 9_556 9_656
Bi Se2 Bi' 90.37(2) 9_666 9_656
Bi Se2 Bi' 10.3(5) 9_656 9_656
Bi Se2 Bi' 175.4(5) 9_566 9_656
Bi' Se2 Bi' 89.04(12) 9_666 9_656
Bi' Se2 Bi' 89.04(12) 9_556 9_656
Bi' Se2 Bi' 82.6(5) . 9_566
Bi Se2 Bi' 90.37(2) 9_556 9_566
Bi Se2 Bi' 90.37(2) 9_666 9_566
Bi Se2 Bi' 175.4(5) 9_656 9_566
Bi Se2 Bi' 10.3(5) 9_566 9_566
Bi' Se2 Bi' 89.04(12) 9_666 9_566
Bi' Se2 Bi' 89.04(12) 9_556 9_566
Bi' Se2 Bi' 165.1(10) 9_656 9_566
Bi' Se2 La' 103.9(6) . 9_556
Bi Se2 La' 11.0(6) 9_556 9_556
Bi Se2 La' 163.2(6) 9_666 9_556
Bi Se2 La' 89.31(3) 9_656 9_556
Bi Se2 La' 89.31(3) 9_566 9_556
Bi' Se2 La' 173.5(5) 9_666 9_556
Bi' Se2 La' 21.3(9) 9_556 9_556
Bi' Se2 La' 91.78(16) 9_656 9_556
Bi' Se2 La' 91.78(16) 9_566 9_556
Bi' Se2 La' 103.9(6) . 9_666
Bi Se2 La' 163.2(6) 9_556 9_666
Bi Se2 La' 11.0(6) 9_666 9_666
Bi Se2 La' 89.31(3) 9_656 9_666
Bi Se2 La' 89.31(3) 9_566 9_666
Bi' Se2 La' 21.3(9) 9_666 9_666
Bi' Se2 La' 173.5(5) 9_556 9_666
Bi' Se2 La' 91.78(16) 9_656 9_666
Bi' Se2 La' 91.78(16) 9_566 9_666
La' Se2 La' 152.2(11) 9_556 9_666
Bi' Se2 La' 103.9(6) . 9_656
Bi Se2 La' 89.31(3) 9_556 9_656
Bi Se2 La' 89.31(3) 9_666 9_656
Bi Se2 La' 11.0(6) 9_656 9_656
Bi Se2 La' 163.2(6) 9_566 9_656
Bi' Se2 La' 91.78(16) 9_666 9_656
Bi' Se2 La' 91.78(16) 9_556 9_656
Bi' Se2 La' 21.3(9) 9_656 9_656
Bi' Se2 La' 173.5(5) 9_566 9_656
La' Se2 La' 86.7(3) 9_556 9_656
La' Se2 La' 86.7(3) 9_666 9_656
La O La 106.000(8) 9_655 1_655
La O La 116.663(16) 9_655 9_665
La O La 106.000(8) 1_655 9_665
La O La 106.000(7) 9_655 .
La O La 116.663(16) 1_655 .
La O La 106.000(8) 9_665 .
La F La 106.000(8) 9_655 1_655
La F La 116.663(16) 9_655 9_665
La F La 106.000(8) 1_655 9_665
La F La 106.000(7) 9_655 .
La F La 116.663(16) 1_655 .
La F La 106.000(8) 9_665 .
loop_
_geom_bond_atom_site_label_1
_geom_bond_atom_site_label_2
_geom_bond_distance
_geom_bond_site_symmetry_2
La F 2.4326(2) 9_655
La F 2.4326(2) 1_455
La O 2.4326(2) 9_655
La O 2.4326(2) 1_455
La F 2.4326(2) 9_665
La O 2.4326(2) .
La F 2.4326(2) .
La O 2.4326(2) 9_665
La Se1 3.2314(3) 9_666
La Se1 3.2314(3) 9_556
La Se1 3.2314(3) 9_566
La Se1 3.2314(3) 9_656
Bi Bi' 0.53(2) .
Bi La' 0.58(3) .
Bi Se1 2.6751(7) .
Bi Se2 2.93166(15) 9_556
Bi Se2 2.93166(16) 9_666
Bi Se2 2.93166(15) 9_656
Bi Se2 2.93166(16) 9_566
Bi' La' 1.11(5) .
Bi' Se2 2.80(2) .
Bi' Se2 2.953(3) 9_666
Bi' Se2 2.953(3) 9_556
Bi' Se2 2.953(3) 9_566
Bi' Se2 2.953(3) 9_656
Bi' Se1 3.20(2) .
La' Se1 2.10(3) .
La' Se2 3.016(7) 9_556
La' Se2 3.016(7) 9_666
La' Se2 3.016(7) 9_566
La' Se2 3.016(7) 9_656
La' La' 4.1408(2) 1_455
La' La' 4.1408(2) 1_545
La' La' 4.1408(2) 1_565
La' La' 4.1408(2) 1_655
Se1 La 3.2314(3) 9_666
Se1 La 3.2314(3) 9_556
Se1 La 3.2314(3) 9_656
Se1 La 3.2314(3) 9_566
Se2 Bi 2.93166(15) 9_556
Se2 Bi 2.93166(16) 9_666
Se2 Bi 2.93166(15) 9_656
Se2 Bi 2.93166(15) 9_566
Se2 Bi' 2.953(3) 9_666
Se2 Bi' 2.953(3) 9_556
Se2 Bi' 2.953(3) 9_656
Se2 Bi' 2.953(3) 9_566
Se2 La' 3.016(7) 9_556
Se2 La' 3.016(7) 9_666
Se2 La' 3.016(7) 9_656
O La 2.4326(2) 9_655
O La 2.4326(2) 1_655
O La 2.4326(2) 9_665
F La 2.4326(2) 9_655
F La 2.4326(2) 1_655
F La 2.4326(2) 9_665
