#------------------------------------------------------------------------------
#$Date: 2023-12-22 17:07:40 +0200 (Fri, 22 Dec 2023) $
#$Revision: 288505 $
#$URL: file:///home/coder/svn-repositories/cod/cif/1/56/20/1562003.cif $
#------------------------------------------------------------------------------
#
# This file is available in the Crystallography Open Database (COD),
# http://www.crystallography.net/
#
# All data on this site have been placed in the public domain by the
# contributors.
#
data_1562003
loop_
_publ_author_name
'Hasegawa, Toru'
'Yamane, Hisanori'
_publ_section_title
;
 Synthesis and crystal structure analysis of Li2NaBP2O8 and LiNa2B5P2O14
;
_journal_name_full               'Journal of Solid State Chemistry'
_journal_page_first              65
_journal_page_last               71
_journal_paper_doi               10.1016/j.jssc.2014.11.024
_journal_volume                  225
_journal_year                    2015
_chemical_formula_moiety         'B5 O14 P2, Na2, (Li)'
_chemical_formula_sum            'B5 Li Na2 O14 P2'
_chemical_formula_weight         392.91
_chemical_name_common
;
lithium sodium boron phosphorous oxide
;
_chemical_name_systematic
; 
 monolithium disodium pentaboron diphosphorous oxide  
;
_space_group_IT_number           11
_space_group_name_Hall           '-P 2yb'
_space_group_name_H-M_alt        'P 1 21/m 1'
_symmetry_cell_setting           monoclinic
_symmetry_Int_Tables_number      11
_symmetry_space_group_name_Hall  '-P 2yb'
_symmetry_space_group_name_H-M   'P 1 21/m 1'
_audit_creation_method           SHELXL-97
_cell_angle_alpha                90.00
_cell_angle_beta                 115.709(7)
_cell_angle_gamma                90.00
_cell_formula_units_Z            2
_cell_length_a                   8.208(3)
_cell_length_b                   9.151(3)
_cell_length_c                   8.349(3)
_cell_measurement_reflns_used    2744
_cell_measurement_temperature    293(2)
_cell_measurement_theta_max      27.48
_cell_measurement_theta_min      3.51
_cell_volume                     565.0(3)
_computing_cell_refinement       'PROCESS-AUTO	"(Rigaku/MSC,"	2005)'
_computing_data_collection       'PROCESS-AUTO	"(Rigaku/MSC,"	2005)'
_computing_data_reduction        'PROCESS-AUTO	"(Rigaku/MSC,"	2005)'
_computing_molecular_graphics    'VESTA	(Momma	&"Izumi,"2008)'
_computing_publication_material  'SHELXL-2014 (Sheldrick, 2014)'
_computing_structure_refinement  'SHELXL-2014 (Sheldrick, 2014)'
_diffrn_ambient_temperature      293(2)
_diffrn_detector_area_resol_mean 10.0
_diffrn_measured_fraction_theta_full 0.985
_diffrn_measured_fraction_theta_max 0.980
_diffrn_measurement_device_type  'Rigaku	RAXIS-RAPID	II'
_diffrn_measurement_method       \w
_diffrn_radiation_monochromator  graphite
_diffrn_radiation_source         'fine-focus sealed tube'
_diffrn_radiation_type           MoK\a
_diffrn_radiation_wavelength     0.71075
_diffrn_reflns_av_R_equivalents  0.0639
_diffrn_reflns_av_unetI/netI     0.0589
_diffrn_reflns_Laue_measured_fraction_full 0.985
_diffrn_reflns_Laue_measured_fraction_max 0.980
_diffrn_reflns_limit_h_max       10
_diffrn_reflns_limit_h_min       -10
_diffrn_reflns_limit_k_max       11
_diffrn_reflns_limit_k_min       -11
_diffrn_reflns_limit_l_max       10
_diffrn_reflns_limit_l_min       -10
_diffrn_reflns_number            5358
_diffrn_reflns_point_group_measured_fraction_full 0.985
_diffrn_reflns_point_group_measured_fraction_max 0.980
_diffrn_reflns_theta_full        25.242
_diffrn_reflns_theta_max         27.476
_diffrn_reflns_theta_min         3.506
_exptl_absorpt_coefficient_mu    0.546
_exptl_absorpt_correction_T_max  0.951068
_exptl_absorpt_correction_T_min  0.904336
_exptl_absorpt_correction_type   numerical
_exptl_absorpt_process_details
;
(NUMABS;Higashi,1999)
;
_exptl_crystal_colour            colorless
_exptl_crystal_density_diffrn    2.309
_exptl_crystal_density_method    'not measured'
_exptl_crystal_description       block
_exptl_crystal_F_000             384
_exptl_crystal_size_max          0.149
_exptl_crystal_size_mid          0.126
_exptl_crystal_size_min          0.123
_refine_diff_density_max         0.422
_refine_diff_density_min         -0.588
_refine_diff_density_rms         0.106
_refine_ls_extinction_method     SHELXL
_refine_ls_goodness_of_fit_ref   1.059
_refine_ls_matrix_type           full
_refine_ls_number_parameters     130
_refine_ls_number_reflns         1350
_refine_ls_number_restraints     0
_refine_ls_restrained_S_all      1.059
_refine_ls_R_factor_all          0.0548
_refine_ls_R_factor_gt           0.0424
_refine_ls_shift/su_max          0.000
_refine_ls_shift/su_mean         0.000
_refine_ls_structure_factor_coef Fsqd
_refine_ls_weighting_details
'w=1/[\s^2^(Fo^2^)+(0.0398P)^2^+0.4367P] where P=(Fo^2^+2Fc^2^)/3'
_refine_ls_weighting_scheme      calc
_refine_ls_wR_factor_gt          0.0896
_refine_ls_wR_factor_ref         0.0985
_reflns_Friedel_coverage         0.000
_reflns_number_gt                1098
_reflns_number_total             1350
_reflns_threshold_expression     'I > 2\s(I)'
_iucr_refine_instructions_details
;
TITL New: P21/m
CELL  0.71075    8.208    9.151   8.349    90.000   115.709    90.000
ZERR        2    0.003    0.003   0.003     0.000     0.007     0.000
LATT   1
SYMM             - X ,    0.50000 + Y ,            - Z
SFAC     B Li Na  O  P
UNIT    10    2   4  28   4
L.S. 8
ACTA 
omit    -7   0   1
omit     3   1   1
omit    -7   2   1
omit    -7   6   1
omit    -8   1   8
omit     7   5   3
omit     7   4   3
omit     4   1   1
omit    -9   0   6
omit    -7   1   7
omit    -7   1   9
omit     6   4   4
omit     1   1   2
WGHT      0.0398      0.4367 
FVAR       0.86198
P1    5    0.153421    0.057562    0.273103    11.00000    0.01360    0.01129 =
         0.01094    0.00069    0.00518    0.00006
B1    1    0.265558    0.250000    0.545328    10.50000    0.00986    0.02080 =
         0.00573    0.00000    0.00251    0.00000
B2    1    0.280550    0.250000    0.098188    10.50000    0.00996    0.01999 =
         0.00858    0.00000    0.00544    0.00000
B3    1    0.949000    0.250000    0.349448    10.50000    0.00776    0.01887 =
         0.00762    0.00000    0.00158    0.00000
B4    1    0.415100    0.250000    0.884456    10.50000    0.00935    0.02574 =
         0.00822    0.00000    0.00322    0.00000
B5    1    0.610468    0.250000    0.199536    10.50000    0.00777    0.02837 =
         0.00898    0.00000    0.00171    0.00000
NA1   3    0.603376    0.250000    0.534991    10.50000    0.01737    0.04371 =
         0.01396    0.00000    0.00410    0.00000
NA2   3    0.834105    0.250000    0.958318    10.50000    0.02070    0.04348 =
         0.01458    0.00000    0.00975    0.00000
LI1   2    0.014360    0.250000    0.715374    10.50000    0.01394    0.02532 =
         0.01828    0.00000    0.00933    0.00000
O1    4    0.298063    0.117921    0.451401    11.00000    0.01177    0.01697 =
         0.01085   -0.00085    0.00388    0.00144
O2    4    0.032220    0.618214    0.750798    11.00000    0.01118    0.02277 =
         0.01788    0.00839   -0.00020   -0.00431
O3    4    0.185950    0.118699    0.116843    11.00000    0.04140    0.02752 =
         0.01343   -0.00412    0.01424   -0.01931
O4    4    0.155542    0.604024    0.267324    11.00000    0.01904    0.01138 =
         0.02243    0.00030    0.00899    0.00002
O5    4    0.410436    0.250000    0.720930    10.50000    0.00810    0.02963 =
         0.00913    0.00000    0.00333    0.00000
O6    4    0.084931    0.250000    0.527324    10.50000    0.00802    0.02299 =
         0.00792    0.00000    0.00435    0.00000
O7    4    0.265568    0.250000    0.916605    10.50000    0.00775    0.02428 =
         0.00631    0.00000    0.00335    0.00000
O8    4    0.462951    0.250000    0.231755    10.50000    0.00722    0.05502 =
         0.00750    0.00000    0.00314    0.00000
O9    4    0.772642    0.250000    0.341761    10.50000    0.00816    0.03680 =
         0.01081    0.00000    0.00465    0.00000
O10   4    0.588081    0.250000    0.024309    10.50000    0.00999    0.04087 =
         0.00781    0.00000    0.00444    0.00000
HKLF 4
END  
;
_cod_data_source_file            LiNa2B5P2O14.cif
_cod_data_source_block           shelxl
_cod_depositor_comments
;
The following automatic conversions were performed:

data item '_exptl_absorpt_correction_type' value 'Numerical' was
changed to 'numerical' in accordance with the built-in table derived
from the CIF Core dictionary named 'cif_core.dic' version 2.4.5 last
updated on 2014-11-21.

Automatic conversion script
Id: cif_fix_values 8369 2020-08-20 11:38:08Z andrius 

The following automatic conversions were performed:

data name '_iucr_refine_instruction_details' was replaced with
'_iucr_refine_instructions_details' as specified in the replacement
file 'data/replacement-values/replacement_tags.lst'.

Automatic conversion script
Id: cif_correct_tags 9268 2022-04-12 08:56:07Z antanas 
;
_cod_original_sg_symbol_H-M      P21/m
_cod_database_code               1562003
_cod_database_fobs_code          1562003
_shelxl_version_number           2014-3
_shelx_res_file
;
TITL New: P21/m
CELL  0.71075    8.208    9.151   8.349    90.000   115.709    90.000
ZERR        2    0.003    0.003   0.003     0.000     0.007     0.000
LATT   1
SYMM             - X ,    0.50000 + Y ,            - Z
SFAC     B Li Na  O  P
UNIT    10    2   4  28   4
L.S. 8
ACTA

omit   -7   0   1
omit     3   1   1
omit    -7   2   1
omit    -7   6   1
omit    -8   1   8
omit     7   5   3
omit     7   4   3
omit     4   1   1
omit    -9   0   6

omit   -7   1   7
omit    -7   1   9
omit     6   4   4
omit     1   1   2

WGHT    0.039800    0.436700
FVAR       0.86207
P1    5    0.153421    0.057563    0.273104    11.00000    0.01361    0.01129 =
         0.01095    0.00070    0.00518    0.00006
B1    1    0.265561    0.250000    0.545325    10.50000    0.00988    0.02077 =
         0.00573    0.00000    0.00253    0.00000
B2    1    0.280552    0.250000    0.098182    10.50000    0.00997    0.01999 =
         0.00859    0.00000    0.00544    0.00000
B3    1    0.948996    0.250000    0.349443    10.50000    0.00777    0.01887 =
         0.00762    0.00000    0.00159    0.00000
B4    1    0.415102    0.250000    0.884457    10.50000    0.00936    0.02572 =
         0.00821    0.00000    0.00320    0.00000
B5    1    0.610472    0.250000    0.199539    10.50000    0.00777    0.02837 =
         0.00899    0.00000    0.00172    0.00000
NA1   3    0.603378    0.250000    0.534993    10.50000    0.01737    0.04371 =
         0.01396    0.00000    0.00410    0.00000
NA2   3    0.834105    0.250000    0.958317    10.50000    0.02070    0.04347 =
         0.01458    0.00000    0.00975    0.00000
LI1   2    0.014357    0.250000    0.715367    10.50000    0.01391    0.02532 =
         0.01831    0.00000    0.00933    0.00000
O1    4    0.298064    0.117923    0.451401    11.00000    0.01178    0.01698 =
         0.01086   -0.00085    0.00388    0.00145
O2    4    0.032224    0.618215    0.750799    11.00000    0.01119    0.02279 =
         0.01789    0.00839   -0.00020   -0.00431
O3    4    0.185946    0.118701    0.116840    11.00000    0.04142    0.02752 =
         0.01345   -0.00412    0.01425   -0.01932
O4    4    0.155539    0.604027    0.267324    11.00000    0.01906    0.01139 =
         0.02244    0.00030    0.00900    0.00002
O5    4    0.410436    0.250000    0.720930    10.50000    0.00812    0.02963 =
         0.00915    0.00000    0.00334    0.00000
O6    4    0.084934    0.250000    0.527327    10.50000    0.00804    0.02299 =
         0.00794    0.00000    0.00437    0.00000
O7    4    0.265568    0.250000    0.916607    10.50000    0.00777    0.02428 =
         0.00632    0.00000    0.00335    0.00000
O8    4    0.462954    0.250000    0.231758    10.50000    0.00724    0.05503 =
         0.00751    0.00000    0.00315    0.00000
O9    4    0.772644    0.250000    0.341761    10.50000    0.00819    0.03679 =
         0.01081    0.00000    0.00466    0.00000
O10   4    0.588079    0.250000    0.024307    10.50000    0.01002    0.04088 =
         0.00783    0.00000    0.00446    0.00000
HKLF 4

REM  New: P21/m
REM R1 =  0.0424 for    1098 Fo > 4sig(Fo)  and  0.0548 for all    1350 data
REM    130 parameters refined using      0 restraints

END

WGHT      0.0398      0.4377

REM Highest difference peak  0.422,  deepest hole -0.588,  1-sigma level  0.106
Q1    1   0.7067  0.2500 -0.0092  10.50000  0.05    0.42
Q2    1   0.5609  0.2500  0.0868  10.50000  0.05    0.41
Q3    1   0.2563  0.1556  0.3753  11.00000  0.05    0.40
Q4    1   0.3172  0.0656  0.3764  11.00000  0.05    0.40
Q5    1  -0.0033  0.0771  0.0626  11.00000  0.05    0.37
Q6    1   0.1660  0.0259  0.0998  11.00000  0.05    0.36
Q7    1   0.3710  0.2500  0.1650  10.50000  0.05    0.34
Q8    1   0.3081  0.1500  0.7515  11.00000  0.05    0.33
Q9    1   0.0814  0.2500  0.9032  10.50000  0.05    0.33
Q10   1   0.1603  0.2500  0.5324  10.50000  0.05    0.32
Q11   1   0.4034  0.1616  0.8651  11.00000  0.05    0.32
Q12   1   0.1613  0.5270  0.2782  11.00000  0.05    0.32
Q13   1   0.2754  0.1611  0.8794  11.00000  0.05    0.31
Q14   1   0.5216  0.2500  0.1723  10.50000  0.05    0.31
Q15   1   0.7203  0.1837  0.2855  11.00000  0.05    0.31
Q16   1  -0.0367  0.6281  0.1236  11.00000  0.05    0.30
Q17   1   0.6758  0.2500  0.7449  10.50000  0.05    0.30
Q18   1   0.3448  0.0399  0.4999  11.00000  0.05    0.30
Q19   1   0.0638  0.0797  0.2569  11.00000  0.05    0.30
Q20   1   0.4270  0.1592  0.1377  11.00000  0.05    0.30
;
_shelx_res_checksum              38620
_shelx_hkl_file
;
   0   0   2 1361.38   30.95
   0   0   2 1350.36   42.85
   0   0  -2 1412.60   30.76
   0   0   3    6.49    0.92
   0   0   3    7.09    2.57
   0   0  -3    5.88    1.14
   0   0   4 4256.38  180.03
   0   0  -4 3507.81  125.55
   0   0   5 2257.32  117.91
   0   0  -5 2727.68   90.55
   0   0   6 1148.31   57.36
   0   0  -6 1367.90   48.10
   0   0   7  379.42   44.38
   0   0  -7  376.83   21.88
   0   0  -7  394.57   16.92
   0   0   8  214.40   38.11
   0   0   9    2.99    7.30
   0  -1   1 1290.57   29.07
   0   1   1 1257.26   31.63
   0   1   1 1248.70   30.46
   0  -1  -1 1257.03   28.70
   0   1  -1 1284.26   28.68
   0  -1  -1 1258.40   31.14
   0  -1   2    1.69    0.74
   0   1   2    1.53    1.16
   0   1  -2    0.28    0.92
   0  -1  -2    1.91    1.22
   0  -1  -2   -0.16    0.95
   0  -1   3  431.36   13.21
   0   1   3  431.71   20.23
   0  -1  -3  425.19   13.10
   0   1  -3  413.36   13.86
   0  -1  -3  412.07   13.04
   0  -1  -3  425.45   19.97
   0  -1   4   35.73    3.43
   0   1   4   35.59    6.19
   0  -1  -4   21.29    3.65
   0  -1  -4   29.39    3.22
   0   1  -4   36.79    3.67
   0  -1   5  327.85   13.92
   0   1   5  333.77   27.25
   0  -1   5  342.15   28.21
   0  -1  -5  340.02   19.77
   0   1  -5  342.40   15.21
   0  -1  -5  345.23   12.86
   0   1   6  114.13   18.73
   0  -1   6  105.21   19.14
   0   1  -6  124.30    9.36
   0  -1  -6  141.12    9.54
   0  -1  -6  114.26   11.11
   0   1   7  232.14   19.05
   0  -1   7  221.41   30.41
   0  -1  -7  141.95   12.74
   0  -1  -7  237.22   12.61
   0   1  -7  230.12   13.16
   0  -1   8   24.38   12.40
   0   1   8   16.51   11.81
   0  -1   9    4.44   15.76
   0   1   9   29.33    9.09
   0   2   0 8744.30  409.29
   0  -2   0 8848.83  422.53
   0   2   1   93.18    5.85
   0  -2   1   91.07    5.90
   0  -2  -1   94.69    5.40
   0   2  -1  111.92    6.11
   0  -2  -1   92.49    3.53
   0  -2   2 2955.93   96.47
   0   2   2 2661.76   93.03
   0   2   2 2854.33  106.39
   0  -2  -2 2889.97   94.61
   0   2  -2 2880.51   95.69
   0  -2  -2 2974.70  103.64
   0   2   3   22.26    4.27
   0  -2   3   23.65    2.90
   0   2  -3   20.10    2.93
   0  -2  -3   25.15    4.31
   0  -2  -3   17.31    2.82
   0   2   4   -0.34    1.60
   0  -2  -4    0.36    0.49
   0  -2  -4   -0.33    0.91
   0   2  -4   -0.35    1.21
   0  -2  -4   -0.91    1.54
   0  -2   5    1.12    1.28
   0   2   5    1.96    2.88
   0   2  -5    2.24    1.46
   0  -2  -5    2.70    1.95
   0  -2  -5   -0.12    1.36
   0  -2  -5    2.10    1.79
   0   2   6  200.58   24.31
   0  -2   6  217.09   13.56
   0  -2   6  174.85   26.72
   0  -2  -6  193.31   12.33
   0   2  -6  192.81   15.06
   0  -2  -6  191.96   14.05
   0  -2   7  510.09   25.14
   0  -2   7  521.85   55.32
   0   2   7  538.83   51.61
   0  -2  -7  490.47   20.94
   0   2  -7  479.58   25.98
   0  -2  -7  522.51   27.05
   0  -2   8   60.96   12.35
   0   2   8   54.73   11.93
   0   2   9  345.93   57.38
   0  -2   9  344.11   39.36
   0  -3   0    2.85    1.21
   0   3   0    0.17    1.64
   0  -3   1 1805.27   52.62
   0   3   1 1824.18   63.33
   0   3  -1 1859.95   56.08
   0  -3  -1 1274.76   53.45
   0  -3   2   25.09    4.00
   0   3   2   25.40    5.04
   0  -3  -2   24.76    3.79
   0   3  -2   24.22    4.35
   0  -3  -2   25.20    4.01
   0  -3   3  408.15   18.50
   0   3   3  378.42   20.69
   0   3   3  340.51   21.00
   0  -3  -3  379.88   20.36
   0   3  -3  369.20   17.57
   0  -3  -3  381.73   17.12
   0   3   4    0.79    2.23
   0  -3   4   -0.08    1.57
   0   3  -4    0.89    2.10
   0  -3  -4    2.67    2.26
   0  -3  -4    1.41    1.54
   0   3   5 2092.59  107.58
   0   3  -5 2077.20   93.06
   0  -3  -5 2305.03  112.70
   0  -3  -5 2276.23   84.65
   0  -3  -5 1918.54   62.70
   0  -3   6 2012.63   88.26
   0   3   6 1964.05  119.54
   0  -3  -6 2071.54   80.78
   0  -3  -6 2003.88   92.33
   0   3  -6 1861.12   80.52
   0  -3  -6 1993.64   76.16
   0  -3   7    2.47    2.45
   0   3   7    0.51    4.35
   0  -3   7    3.30    4.92
   0   3  -7    1.14    2.21
   0  -3  -7    0.58    1.73
   0  -3  -7    1.35    2.80
   0  -3   8   73.66   19.06
   0  -3   8   51.35    8.07
   0   3   8   56.17   17.32
   0   3  -8   27.48    8.26
   0  -3   9  119.80   21.66
   0   3   9  108.55   31.70
   0  -4   0  970.93   43.64
   0   4   0  980.34   30.98
   0  -4   1   53.49    4.66
   0   4   1   58.71    7.59
   0  -4  -1   52.51    8.47
   0   4  -1   53.08    7.12
   0   4   2  829.80   40.89
   0  -4   2  831.59   36.96
   0  -4  -2  752.59   36.31
   0   4  -2  826.41   29.56
   0  -4  -2  756.00   32.12
   0   4   3  268.71   24.35
   0  -4   3  285.28   17.94
   0   4  -3  283.84   19.71
   0  -4  -3  297.15   19.93
   0  -4  -3  286.55   18.56
   0   4   4   49.88    6.07
   0  -4   4   60.32    7.70
   0  -4  -4   62.71    7.96
   0  -4  -4   48.41    9.34
   0   4  -4   44.68    8.43
   0   4   5    3.88    4.28
   0  -4   5    7.74    3.56
   0  -4  -5    6.59    3.54
   0  -4  -5    7.26    4.84
   0   4  -5    6.11    3.70
   0  -4   6  185.61   19.01
   0   4   6  139.56   13.99
   0  -4  -6  164.30   24.67
   0  -4  -6  177.62   14.49
   0  -4  -6  198.40   16.52
   0   4  -6  182.41   17.72
   0  -4   7  187.80   14.32
   0   4   7  138.21   24.52
   0  -4  -7   29.27   25.44
   0  -4  -7  171.42   15.19
   0   4   8   55.12   13.52
   0  -4   8   61.57   17.31
   0  -4   8   28.71    6.91
   0  -4  -8   24.73   11.69
   0   4  -8   23.39    8.81
   0  -4   9    1.72    6.60
   0   4   9   -2.31    5.14
   0   5   0    0.53    2.02
   0  -5   0   -0.98    1.36
   0   5   1  152.82   17.10
   0  -5   1  182.64   16.56
   0  -5  -1  184.58   11.95
   0   5  -1  179.24   15.57
   0  -5   2  163.56   17.22
   0   5   2  207.48   19.56
   0  -5  -2  183.95   16.11
   0  -5  -2  192.52   19.93
   0   5  -2  177.63   16.85
   0  -5   3 1872.93   90.14
   0   5   3 1945.22  113.33
   0  -5  -3 1997.24  103.93
   0  -5  -3 1908.22   93.66
   0   5  -3 1845.98   99.53
   0  -5   4  340.10   25.76
   0   5   4  314.18   32.63
   0  -5  -4  321.31   29.76
   0  -5  -4  335.75   27.87
   0   5  -4  304.83   28.41
   0  -5   5  128.15   14.53
   0  -5  -5  120.03   18.23
   0  -5  -5   65.83   17.48
   0   5  -5  131.98   16.56
   0  -5   6   75.98   12.05
   0  -5  -6   74.97   15.47
   0  -5  -6   32.69   13.81
   0   5  -6   69.23   11.15
   0   5   7  175.70   20.17
   0  -5   7  201.29   19.26
   0  -5  -7  202.16   24.04
   0  -5  -7  180.47   31.41
   0  -5  -7  181.73   25.45
   0   5  -7  144.57   19.82
   0  -5   8  258.69   23.80
   0   5   8  273.48   28.02
   0  -5  -8  257.97   27.75
   0   5  -8  202.42   22.87
   0  -6   0 8243.67  489.72
   0   6   0 8075.05  435.87
   0   6   1   12.74    4.08
   0  -6   1   18.33    6.45
   0  -6  -1   17.89    6.58
   0   6  -1   17.02    6.02
   0   6   2   70.54   15.07
   0  -6   2   79.07   13.29
   0  -6  -2   85.06    7.70
   0  -6  -2   76.94    9.36
   0   6  -2   75.14   12.48
   0  -6   3   64.77    7.32
   0   6   3   53.20   16.39
   0   6  -3   59.82   11.87
   0  -6  -3   61.42   11.32
   0  -6  -3   62.97   13.73
   0   6   4  694.94   58.42
   0  -6   4  704.40   50.41
   0  -6  -4  699.12   51.61
   0  -6  -4  789.38   56.26
   0   6  -4  648.70   48.57
   0  -6   5  438.27   37.66
   0   6  -5  428.31   37.06
   0  -6  -5  467.27   43.28
   0  -6  -5  442.51   41.56
   0  -6   6  128.19   19.08
   0   6  -6  113.45   17.25
   0  -6  -6  104.77   21.65
   0  -6  -6  125.90   23.41
   0  -6   7   26.84    9.54
   0  -6  -7   46.61   14.43
   0   6  -7   41.59   12.92
   0  -6  -7   34.11   12.33
   0  -6  -7   29.15    5.96
   0  -6   8    9.86   11.31
   0  -6  -8   34.99    8.55
   0  -6  -8   15.43   10.01
   0   6  -8   11.53   12.23
   0   7   0   -0.21    3.09
   0  -7   0    1.35    3.20
   0  -7   1   83.27   16.46
   0   7   1   76.19   16.62
   0  -7  -1   90.68   17.14
   0   7  -1   83.55   15.83
   0  -7   2   37.46   11.34
   0   7   2   39.54   13.02
   0  -7  -2   38.35    6.51
   0   7  -2   32.42   10.53
   0  -7  -2   45.51   11.83
   0   7   3  105.93   27.69
   0  -7   3  138.92   12.53
   0  -7  -3  132.20   23.16
   0  -7  -3  112.26   18.70
   0   7  -3  114.19   12.01
   0   7   4  154.28   30.66
   0  -7   4  177.58   24.97
   0  -7  -4  158.89   25.38
   0  -7  -4  197.27   28.92
   0   7  -4  189.33   23.74
   0  -7   5  450.79   43.01
   0   7  -5  389.67   41.15
   0  -7  -5  483.65   50.79
   0  -7  -5  453.94   45.49
   0  -7   6  231.24   31.25
   0  -7  -6  222.39   33.71
   0   7  -6  210.01   29.20
   0  -7  -6  267.58   36.81
   0  -7   7    3.60    6.70
   0   7  -7   -2.31    4.76
   0  -7  -7   -2.73    5.79
   0  -7  -7   -4.64    5.25
   0   8   0 1556.18  115.01
   0  -8   0 1517.66  111.99
   0   8   1    0.29    5.45
   0  -8   1    2.58    2.99
   0  -8  -1    1.92    4.78
   0   8  -1    1.82    4.59
   0  -8   2  571.62   36.66
   0   8   2  587.73   69.80
   0  -8  -2  566.21   58.14
   0  -8  -2  547.13   33.49
   0   8  -2  556.92   54.36
   0   8   3  137.67   39.46
   0  -8   3  179.98   17.69
   0  -8  -3  169.50   25.86
   0   8  -3  145.59   28.54
   0  -8  -3  192.96   19.54
   0  -8   4   18.82   10.35
   0   8   4   13.15   12.63
   0  -8  -4   20.91   10.10
   0  -8  -4   25.29   11.05
   0  -8   5   -1.35    3.37
   0  -8  -5    0.35    2.28
   0  -8  -5   -1.58    3.53
   0   8  -5    1.39    3.42
   0   8  -6   -0.39    3.57
   0  -8  -6   20.32    3.99
   0  -8  -6    3.12    3.85
   0  -8   7  102.53   26.36
   0  -8  -7  137.59   26.31
   0  -8  -7  113.36   29.05
   0   8  -7   82.81   25.46
   0  -9   0    6.00    3.81
   0   9   0   -6.02    3.90
   0   9   1    5.84    4.56
   0  -9   1    2.36    6.49
   0  -9  -1   -3.59    6.48
   0   9  -1    7.67    6.78
   0  -9   2    3.39    3.96
   0   9   2    1.88    5.02
   0   9  -2   -0.80    3.85
   0  -9  -2   -2.80    2.21
   0  -9  -2    3.68    4.01
   0   9   3   21.28   16.27
   0  -9   3   23.90   11.57
   0  -9  -3   14.26    9.32
   0  -9  -3   20.11   12.05
   0   9  -3   20.05   11.51
   0  -9   4   12.34    6.22
   0   9   4   -2.23    7.57
   0   9  -4    3.74    6.20
   0  -9  -4   -4.07    6.48
   0  -9  -4    2.45    5.94
   0  -9   5   76.19   21.45
   0  -9  -5   87.29   21.64
   0  -9  -5   77.61   22.70
   0   9  -5   42.93   21.86
   0  -9   6  103.43   24.30
   0  -9  -6  106.62   26.02
   0  -9  -6   64.90   25.28
   0   9  -6   55.37   24.30
   0 -10   0  802.47   94.14
   0  10   0  848.09  106.89
   0  10   1  -10.51    8.21
   0 -10   1   -2.98    6.99
   0  10  -1   -1.52    7.39
   0 -10  -1    1.67    7.05
   0 -10   2    8.77   11.66
   0  10   2   26.31   15.03
   0 -10  -2   12.31    6.57
   0 -10  -2   13.67   12.10
   0  10  -2   16.60    7.78
   0  10   3   34.40   13.93
   0 -10   3   10.60   16.23
   0 -10  -3   33.97   14.43
   0 -10  -3   43.35   16.85
   0  10  -3   23.83   17.24
   0 -10   4   95.35   27.42
   0  10   4   74.43   21.33
   0 -10  -4  129.06   28.99
   0 -10  -4   70.61   26.07
   0  10  -4   98.78   29.34
   0 -10   5  132.30   31.36
   0 -10  -5  119.89   30.80
   0 -10  -5   77.20   33.05
   0  10  -5  116.97   33.90
   0 -11   0    6.51    8.97
   0  11   0    0.43   10.31
   0 -11   1   50.36   27.15
   0  11   1  103.53   34.51
   0  11  -1   62.13   32.26
   0 -11  -1   64.99   27.36
   0 -11   2   31.79   11.49
   0  11   2   68.94   25.58
   0 -11  -2   23.69   16.54
   0 -11  -2   22.44   11.92
   0  11  -2   27.10   21.68
   0 -11   3  383.16   65.91
   0  11   3  368.15   90.24
   0 -11  -3  387.85   67.92
   0  11  -3  284.75   69.73
   0 -11  -3  378.82   57.99
  -1   0  10  243.15   30.86
  -1   0   9   45.58   18.03
   1   0  -8  959.30   45.24
  -1   0   8  836.56   80.58
   1   0  -7    1.55    2.79
  -1   0   7    2.57    4.04
   1   0  -6 2216.70   84.80
  -1   0   6 2152.42  111.72
   1   0  -5  332.66   13.39
  -1   0   5  333.61   22.71
  -1   0   5  323.01    9.66
   1   0  -4  277.60   14.13
  -1   0   4  272.23   15.94
  -1   0   4  277.29   14.36
   1   0  -3  199.81    7.86
  -1   0   3  189.38    8.02
   1   0  -2 2011.05   57.75
  -1   0   2 2120.83   61.73
   1   0   1 2625.57   88.21
   1   0   1 2981.55   70.14
  -1   0  -1 2625.15   87.50
   1   0   2 2484.89   93.13
   1   0   3  700.96   35.22
   1   0   4  148.29   10.56
   1   0   5 2587.47  143.07
   1   0   6  194.26   18.53
   1   0   7  328.51   45.51
   1   0   8   22.20    8.67
   1   0   9  470.69   78.04
  -1  -1  10  156.91   25.05
  -1   1  10  137.21   38.14
  -1  -1   9   33.27   17.14
  -1   1   9   41.81   16.13
   1  -1  -8   27.43    6.48
   1   1  -8   31.98    8.26
  -1  -1   8   29.58   12.98
  -1   1   8   42.97    7.79
   1   1  -7  557.77   29.13
   1  -1  -7  539.90   40.41
  -1  -1   7  516.28   17.49
  -1  -1   7  556.22   48.99
  -1   1   7  531.28   44.66
   1   1  -6    0.39    1.52
   1  -1  -6    1.06    1.32
  -1  -1   6    1.19    2.63
  -1  -1   6   -0.77    1.37
  -1   1   6    1.30    2.44
   1  -1  -5  298.15   13.66
   1   1  -5  310.07   14.98
  -1  -1   5  313.50   14.87
  -1   1   5  290.52   21.28
   1   1  -4  438.51   16.75
   1  -1  -4  423.91   15.75
  -1   1   4  408.74   20.20
  -1  -1   4  415.53   16.23
   1   1  -3 1040.26   31.58
   1  -1  -3  939.83   28.88
  -1   1   3  948.64   30.20
  -1  -1   3  918.63   28.61
   1  -1  -2  357.31    8.87
   1   1  -2  355.38   12.01
   1  -1  -2  332.88    8.08
  -1  -1   2  342.17   11.61
  -1   1   2  344.27   10.64
   1   1  -1  438.93   12.30
   1  -1  -1  451.42    6.26
  -1  -1   1  437.20   13.09
   1  -1   0  629.27   18.62
   1   1   0  627.97   14.46
  -1  -1   0  607.60   12.56
  -1   1   0  620.46   17.34
   1   1   1  176.21    6.10
   1   1   1  185.57    6.76
   1  -1   1  213.74    5.77
  -1  -1  -1  166.03    9.26
  -1  -1  -1  166.81    5.61
  -1   1  -1  234.10    7.55
   1  -1   2    0.94    0.59
   1   1   2    1.31    0.93
   1   1   2    0.98    0.77
  -1  -1  -2    0.74    0.94
  -1  -1  -2    0.55    0.55
  -1   1  -2    0.56    0.61
   1  -1   3 1331.59   28.54
   1  -1   3 1408.23   60.94
   1   1   3 1301.06   57.21
  -1  -1  -3 1333.70   57.42
  -1  -1  -3 1315.41   27.52
   1   1   4   49.82    5.97
   1  -1   4   55.48   10.13
  -1  -1  -4   55.70    3.29
   1   1   5  763.92   53.43
   1  -1   5  805.18   54.30
   1   1   6 1208.77   86.21
   1  -1   6 1217.97   91.37
   1  -1   7    1.65    4.19
   1   1   7   -0.82    4.02
   1   1   8    0.37    6.22
   1  -1   8    2.44    4.00
   1  -1   9   33.80   18.48
   1   1   9   23.37   18.99
  -1  -2  10   74.81   16.96
  -1   2  10   44.11   24.79
  -1   2   9    5.36    4.35
  -1  -2   9    0.73    7.50
   1  -2  -8  162.60   21.81
   1  -2  -8  142.44   15.60
   1   2  -8  163.05   14.69
  -1  -2   8  143.77   12.86
  -1   2   8   87.98   26.57
  -1  -2   8  156.44   29.08
   1  -2  -7   12.03    3.66
   1   2  -7   12.21    4.28
   1  -2  -7   14.50    7.07
  -1   2   7   18.39    6.89
  -1  -2   7    8.85    3.88
  -1  -2   7   17.11    7.87
   1  -2  -6 1104.41   76.09
   1   2  -6 1087.36   47.82
   1  -2  -6 1130.40   46.36
  -1  -2   6 1265.45   48.90
  -1   2   6 1057.00   63.95
   1  -2  -5    3.29    1.98
   1  -2  -5    5.54    2.66
   1   2  -5    1.08    2.84
  -1   2   5    7.06    2.70
  -1  -2   5   -0.26    1.97
   1   2  -4 1770.31   64.37
   1  -2  -4 1748.32   71.72
   1  -2  -4 1737.77   61.22
   1  -2  -4 1790.86   68.42
  -1  -2   4 1777.24   61.59
  -1   2   4 1818.06   68.87
   1   2  -3  468.28   18.82
   1  -2  -3  442.52   22.30
   1  -2  -3  461.49   21.41
  -1   2   3  480.84   17.07
  -1  -2   3  439.15   19.06
   1   2  -2 2311.15   78.83
   1  -2  -2 2322.61   68.07
   1  -2  -2 2287.50   92.19
  -1  -2   2 2278.82   78.48
   1  -2  -1 3683.92  144.75
   1   2  -1 3533.83  129.45
  -1   2   1 3640.12  127.24
  -1  -2   1 3556.11  129.24
   1   2   0 2261.50   65.22
   1  -2   0 2358.93   77.32
  -1   2   0 2361.86   83.23
  -1  -2   0 2364.05   75.64
   1  -2   1 1557.76   49.09
   1   2   1 1603.95   50.76
  -1   2  -1 1571.49   53.48
  -1  -2  -1 1537.88   44.27
  -1  -2  -1 1683.65   47.89
   1  -2   2  165.56    6.56
   1   2   2  147.94    7.20
   1   2   2  145.13    8.39
  -1   2  -2  155.72    6.32
  -1  -2  -2  161.27    8.76
  -1  -2  -2  150.44   11.38
   1   2   3  258.03   19.22
   1  -2   3  290.10   12.56
  -1  -2  -3  266.20   19.37
  -1   2  -3  248.58   10.31
  -1  -2  -3  290.59   13.00
   1   2   4   98.74   12.57
   1  -2   4   94.45    6.63
  -1   2  -4   74.32    5.20
  -1  -2  -4   90.31    6.89
  -1  -2  -4   90.92   11.98
   1  -2   5  105.24   19.81
   1   2   5  119.10   12.04
   1  -2   5  131.20    6.49
  -1  -2  -5  128.19    7.99
  -1  -2  -5  132.23   18.85
  -1  -2  -5  126.47    5.89
   1   2   6    8.24    4.00
   1  -2   6    3.16    6.70
  -1   2  -6    6.83    1.66
   1   2   7  338.58   45.83
   1  -2   7  326.39   46.27
   1   2   8    5.74    7.21
   1  -2   8    2.06    4.76
   1   2   9   11.67   16.25
   1  -2   9   30.33   17.26
  -1  -3   9   61.13   19.81
  -1   3   9   27.37   17.44
   1  -3  -8  128.86   13.70
   1   3  -8  101.21   14.57
   1  -3  -8  141.43   12.48
  -1  -3   8   65.67   13.92
  -1  -3   8  136.07   27.43
  -1   3   8  105.01   23.47
   1   3  -7  349.02   25.45
   1  -3  -7  329.45   25.67
   1  -3  -7  365.14   30.22
  -1   3   7  377.22   36.30
  -1  -3   7  358.15   31.19
   1   3  -6   -0.06    2.15
   1  -3  -6    0.03    3.26
   1  -3  -6    1.10    2.60
  -1   3   6    1.96    2.78
  -1  -3   6    1.13    2.57
   1  -3  -5  396.76   26.65
   1   3  -5  406.04   23.37
   1  -3  -5  381.94   21.30
   1  -3  -5  405.66   25.78
  -1  -3   5  391.92   27.54
  -1   3   5  421.12   25.94
   1   3  -4    6.00    3.05
   1  -3  -4    6.22    3.54
   1  -3  -4    6.90    3.01
  -1   3   4    8.18    2.68
  -1  -3   4    7.86    3.10
   1   3  -3  951.73   38.65
   1  -3  -3  924.77   43.29
   1  -3  -3  933.62   33.36
  -1  -3   3  936.26   38.57
   1  -3  -2   25.57    2.90
   1   3  -2   28.70    2.97
   1  -3  -2   30.26    5.50
  -1  -3   2   29.88    4.77
  -1   3   2   28.89    5.77
   1  -3  -1 1087.28   41.53
   1   3  -1 1088.53   32.76
  -1  -3   1 1118.06   41.82
  -1   3   1 1130.79   49.96
   1  -3   0 1564.70   55.88
   1   3   0 1636.28   63.02
  -1   3   0 1589.75   63.24
  -1  -3   0 1610.30   58.06
   1   3   1  353.44   15.93
   1  -3   1  348.99   18.04
  -1  -3  -1  353.55   18.51
  -1  -3  -1  349.47   16.00
  -1   3  -1  344.63   16.51
   1   3   2  758.82   29.18
   1  -3   2  830.03   29.69
  -1   3  -2  840.60   29.28
  -1  -3  -2  804.70   37.51
  -1  -3  -2  795.18   37.14
   1   3   3  108.54    7.75
   1  -3   3  150.69   10.96
   1   3   3  127.66   10.98
  -1  -3  -3  121.40    8.53
  -1   3  -3  127.75   10.14
  -1  -3  -3  158.43    8.93
   1  -3   4  245.66   12.46
   1   3   4  244.40   22.88
  -1  -3  -4  267.00   13.89
  -1  -3  -4  245.66   14.92
  -1   3  -4  206.49   14.15
   1   3   5  299.74   31.31
   1  -3   5  326.99   15.76
  -1  -3  -5  298.37   20.23
  -1  -3  -5  297.57   31.46
   1  -3   6  164.66   27.64
   1  -3   6  170.62   10.73
   1   3   6  107.22   25.18
  -1  -3  -6  163.88   11.41
  -1  -3  -6  162.20   25.01
  -1   3  -6  116.86    8.73
   1  -3   7   11.77    8.33
   1   3   7    8.15    7.79
  -1   3  -7    5.46    2.78
   1  -3   8  109.67   18.95
   1   3   8   79.85   27.96
  -1  -4   9   34.09   17.96
  -1   4   9   27.90   13.41
   1  -4  -8   -1.60    2.54
   1   4  -8    1.14    2.80
   1  -4  -8    1.09    3.68
  -1   4   8    3.78    3.69
  -1  -4   8    0.96    2.65
   1   4  -7    8.71    4.67
   1  -4  -7    3.73    4.24
   1  -4  -7   11.37    4.52
  -1   4   7    5.74    5.45
  -1  -4   7    7.12    4.24
   1   4  -6 1084.27   59.01
   1  -4  -6 1083.95   65.96
   1  -4  -6 1060.46   57.00
   1  -4  -6 1076.35   54.02
  -1   4   6  994.82   59.14
  -1  -4   6 1071.38   53.63
   1  -4  -5    6.10    4.01
   1   4  -5    7.97    3.89
   1  -4  -5    8.95    3.99
  -1  -4   5    1.22    3.89
  -1   4   5    8.50    4.05
   1   4  -4  230.08   18.42
   1  -4  -4  221.62   18.82
   1  -4  -4  216.41   15.98
  -1  -4   4  240.16   18.03
   1   4  -3   49.06    5.08
   1  -4  -3   53.68    6.54
   1  -4  -3   61.74    7.88
  -1  -4   3   62.70    8.12
  -1   4   3   45.19   10.61
   1  -4  -2 1163.36   51.04
   1   4  -2 1157.76   53.00
  -1   4   2 1134.96   65.49
  -1  -4   2 1132.84   51.08
   1   4  -1 2574.48  115.03
   1  -4  -1 2501.26   88.48
  -1  -4   1 2557.39  107.86
  -1   4   1 2622.56  124.03
   1  -4   0 1674.94   70.29
   1   4   0 1768.59   79.07
  -1  -4   0 1709.70   57.32
  -1   4   0 1652.99   71.59
   1   4   1  302.44   17.73
   1  -4   1  329.04   13.85
  -1  -4  -1  326.83   12.81
  -1   4  -1  271.34   18.28
   1  -4   2  538.57   27.19
   1   4   2  585.71   27.62
  -1  -4  -2  596.13   28.77
  -1   4  -2  521.24   26.20
  -1  -4  -2  533.05   31.24
   1  -4   3  427.33   22.11
   1   4   3  412.16   26.40
  -1   4  -3  358.41   20.42
  -1  -4  -3  405.98   29.14
  -1  -4  -3  412.82   22.73
   1   4   4  336.15   22.04
   1  -4   4  334.87   19.71
   1   4   4  326.27   19.46
  -1   4  -4  278.43   17.31
  -1  -4  -4  301.92   19.95
  -1  -4  -4  305.47   29.39
   1  -4   5    0.85    1.50
   1   4   5   -2.40    2.43
  -1  -4  -5   -0.68    2.11
  -1  -4  -5   -3.37    2.80
  -1   4  -5    1.65    1.47
   1  -4   6    9.41    4.26
   1   4   6   12.38    4.21
  -1  -4  -6    6.19    4.68
  -1   4  -6    5.62    3.56
  -1  -4  -6   12.03    3.18
  -1  -4  -6   11.17    7.61
   1   4   7    7.50    5.76
   1  -4   7    6.80    7.38
   1  -4   7    2.27    2.24
  -1   4  -7    4.78    4.00
  -1  -4  -7    2.04    2.72
  -1  -4  -7    4.36    3.20
   1  -4   8  332.61   61.75
   1   4   8  312.79   49.08
  -1   5   9  229.41   27.53
   1   5  -8   -0.28    4.70
   1  -5  -8    6.35    4.14
   1  -5  -8    1.81    5.90
  -1  -5   8   -0.08    3.89
  -1   5   8    3.45    3.51
   1  -5  -7  281.51   27.43
   1  -5  -7  285.24   28.61
   1  -5  -7  275.39   34.75
   1   5  -7  283.90   31.42
  -1  -5   7  306.32   27.56
  -1   5   7  260.81   22.89
   1   5  -6    2.49    3.35
   1  -5  -6    1.50    3.38
   1  -5  -6   -1.45    3.21
  -1  -5   6    3.87    3.38
   1  -5  -5  451.15   31.36
   1  -5  -5  368.33   31.36
   1   5  -5  371.49   32.36
   1  -5  -4  112.80   12.19
   1   5  -4  104.67   14.45
   1  -5  -4   90.51   13.75
  -1  -5   4  107.54   13.92
   1  -5  -3   58.75    8.52
   1   5  -3   77.64   11.00
   1  -5  -3   87.34   10.60
  -1   5   3   82.21    8.40
  -1  -5   3   27.65   10.62
   1  -5  -2  222.13   19.22
   1   5  -2  254.39   22.29
  -1  -5   2  216.88   19.95
  -1   5   2  237.49   27.25
   1   5  -1   65.93   12.07
   1  -5  -1   71.05   10.24
  -1  -5   1   66.13    6.54
  -1   5   1   68.14   11.84
   1  -5   0   88.00   13.54
   1   5   0   83.58   11.57
  -1  -5   0   96.50    7.38
  -1   5   0   84.25   11.93
   1   5   1   35.68    7.12
   1  -5   1   38.92    7.62
  -1   5  -1   38.88    7.83
  -1  -5  -1   36.87    7.51
   1   5   2 2474.43  113.29
   1  -5   2 2458.41  112.04
  -1   5  -2 2406.65  109.37
  -1  -5  -2 2158.97  104.62
  -1  -5  -2 2405.08  110.03
   1   5   3    3.56    4.93
   1  -5   3    9.82    3.99
  -1   5  -3    7.92    3.90
  -1  -5  -3    6.36    4.90
  -1  -5  -3    8.15    4.19
   1   5   4  422.18   33.91
   1  -5   4  429.15   28.20
  -1  -5  -4  441.92   30.56
  -1  -5  -4  423.76   37.32
  -1   5  -4  423.89   28.28
   1  -5   5  358.52   26.07
  -1  -5  -5  393.20   28.18
  -1   5  -5  333.32   33.93
  -1  -5  -5  309.41   38.94
   1   5   6 1498.58   81.21
   1  -5   6 1160.15   70.76
  -1   5  -6 1491.37   74.96
  -1  -5  -6 1384.71   76.85
  -1  -5  -6 1427.59   87.09
   1  -5   7   39.00   11.33
   1   5   7   67.67   11.66
  -1   5  -7   47.16   10.80
  -1  -5  -7   50.32   12.05
  -1  -5  -7   31.33    8.30
  -1  -5  -7   66.16   18.22
   1   5   8  120.91   23.21
   1  -5   8  166.83   40.16
   1  -6  -8    5.19   46.72
   1  -6  -8  219.11   27.29
   1   6  -8  303.19   33.20
  -1  -6   8  150.33   27.12
   1  -6  -7    1.53    2.58
   1   6  -7    3.27    5.20
   1  -6  -7    1.02    4.71
   1  -6  -7    4.96    5.00
  -1  -6   7    3.71    4.16
   1   6  -6  124.50   22.27
   1  -6  -6  122.07   20.55
   1  -6  -6  118.30   21.03
  -1  -6   6  132.52   20.80
   1   6  -5   63.06   14.98
   1  -6  -5   55.86   12.16
   1  -6  -5   69.13   14.06
  -1  -6   5   65.70   13.26
   1  -6  -4   69.91   14.72
   1   6  -4   75.51   15.82
   1  -6  -4   83.88   12.27
  -1   6   4   68.00   11.64
  -1  -6   4   76.91   14.41
   1   6  -3   -1.92    3.10
   1  -6  -3    1.80    1.74
   1  -6  -3    0.82    1.97
  -1   6   3   -2.31    3.41
  -1  -6   3    0.48    2.72
   1  -6  -2  121.18   16.89
   1   6  -2  121.37   12.01
  -1   6   2  112.46   20.88
  -1  -6   2  104.89   10.14
   1  -6  -1   56.48    8.43
   1   6  -1   57.06   11.40
  -1  -6   1   59.59    7.24
  -1   6   1   51.20   13.30
   1   6   0   30.17    8.53
   1  -6   0   34.02    5.85
  -1  -6   0   30.02    5.29
  -1   6   0   26.51   10.00
   1   6   1  256.95   23.17
   1  -6   1  250.24   24.91
  -1  -6  -1  248.97   24.12
  -1   6  -1  242.34   16.25
   1  -6   2  151.03   17.66
   1   6   2  140.96   11.35
  -1   6  -2  130.94   17.16
  -1  -6  -2  136.28   17.53
  -1  -6  -2  130.06   16.33
   1  -6   3  441.83   23.06
   1   6   3  437.20   42.74
  -1  -6  -3  449.49   34.77
  -1  -6  -3  443.23   26.37
  -1   6  -3  432.75   34.00
   1  -6   4    2.86    2.73
   1   6   4    2.79    3.85
  -1  -6  -4    0.20    2.84
  -1  -6  -4   -0.84    2.18
  -1   6  -4    0.57    2.76
   1  -6   5  476.00   35.88
  -1   6  -5  374.78   34.96
  -1  -6  -5  451.39   35.87
  -1  -6  -5  435.22   49.26
   1  -6   6   27.98    9.63
  -1  -6  -6   29.60    9.36
  -1  -6  -6   42.04   14.35
  -1   6  -6   33.23   13.04
   1  -6   7   49.75   12.24
  -1   6  -7   66.88   15.70
  -1  -6  -7  117.20   22.29
  -1  -6  -7   56.16   12.01
  -1  -6  -7   62.50   13.29
   1  -7  -8    0.13   10.08
   1  -7  -8    6.72    9.71
   1   7  -8   13.35    8.38
   1  -7  -8   14.03    8.20
  -1  -7   8   11.79    8.18
   1   7  -7   -1.42    3.51
   1  -7  -7   -2.15    4.40
   1  -7  -7   -0.70    3.61
   1  -7  -7    0.64    2.05
  -1  -7   7   -0.18    3.73
   1  -7  -6   -0.10    4.20
   1   7  -6   -2.96    4.06
   1  -7  -6    0.95    3.43
  -1  -7   6    0.08    3.57
   1  -7  -5   43.79   12.16
   1   7  -5   57.21   15.82
   1  -7  -5   22.79   16.53
  -1  -7   5   56.25   13.45
   1   7  -4  354.10   43.43
   1  -7  -4  341.04   32.22
   1  -7  -4  334.89   44.90
  -1   7   4  312.09   49.70
  -1  -7   4  351.79   38.62
   1  -7  -3  883.43   73.09
   1   7  -3  823.03   70.79
   1  -7  -3  711.89   45.76
  -1  -7   3  775.85   41.71
  -1   7   3  768.26   80.65
   1  -7  -2  490.24   52.15
   1   7  -2  473.35   43.89
  -1   7   2  493.04   55.21
  -1  -7   2  486.88   29.12
   1   7  -1   26.04    9.02
   1  -7  -1   25.84   10.05
  -1   7   1   22.78   11.28
  -1  -7   1   19.49    5.65
   1  -7   0   56.15   13.87
   1   7   0   53.26   12.76
  -1  -7   0   61.83   13.65
  -1   7   0   56.98   15.68
   1   7   1   15.79    7.41
   1  -7   1   14.79    7.69
  -1   7  -1   19.00    7.84
  -1  -7  -1   13.83    7.84
   1   7   2  473.87   42.35
   1  -7   2  461.78   42.06
  -1   7  -2  497.63   43.97
  -1  -7  -2  458.71   42.35
  -1  -7  -2  414.08   37.74
   1  -7   3  208.45   25.57
   1   7   3  196.11   31.82
  -1  -7  -3  165.15   28.31
  -1  -7  -3  199.73   26.14
  -1   7  -3  199.81   26.91
   1   7   4  406.58   55.82
   1  -7   4  436.38   40.97
  -1  -7  -4  434.68   42.47
  -1   7  -4  447.63   43.72
  -1  -7  -4  475.73   48.30
   1   7   5  170.58   34.83
   1  -7   5  208.93   27.57
  -1   7  -5  220.49   28.02
  -1  -7  -5  176.50   27.08
  -1  -7  -5  186.78   32.76
   1  -7   6    6.43    7.00
  -1  -7  -6   25.48    9.79
  -1   7  -6    9.09    7.48
  -1  -7  -6    6.23    7.18
   1  -7   7   38.12   17.25
  -1  -7  -7   28.50   12.34
  -1   7  -7   29.96   19.54
  -1  -7  -7   47.28   17.65
   1   8  -7    1.57   12.13
   1  -8  -7   45.23   12.34
   1  -8  -7   18.78   15.18
  -1  -8   7   28.85   13.51
   1  -8  -6   66.42   21.21
   1   8  -6   42.12   18.22
   1  -8  -6   51.47   17.18
  -1  -8   6   69.52   17.82
   1  -8  -5    4.62    4.55
   1   8  -5    0.42    5.25
   1  -8  -5   -0.08    6.38
  -1  -8   5    1.83    5.15
   1  -8  -4  417.42   53.30
   1   8  -4  369.79   29.75
   1  -8  -4  389.97   39.60
  -1  -8   4  376.59   30.84
  -1   8   4  389.87   62.46
   1  -8  -3  435.43   36.59
   1  -8  -3  460.45   57.08
   1   8  -3  440.11   49.84
  -1  -8   3  458.71   32.21
  -1   8   3  445.81   68.04
   1   8  -2  155.99   25.99
   1  -8  -2  171.98   19.66
  -1   8   2  143.43   37.96
  -1  -8   2  155.81   17.24
   1   8  -1  158.06   16.32
   1  -8  -1  163.18   27.94
  -1  -8   1  162.28   27.33
  -1   8   1  146.39   34.34
   1   8   0   74.68   17.38
   1  -8   0   68.55   18.60
  -1  -8   0   67.44   17.76
  -1   8   0   72.50   13.06
   1   8   1  334.02   40.77
   1  -8   1  317.00   25.70
  -1   8  -1  301.10   45.24
  -1  -8  -1  323.12   25.38
   1  -8   2   20.29    9.71
   1   8   2   22.34   11.05
  -1   8  -2   18.54    9.94
  -1  -8  -2   14.84    9.56
  -1  -8  -2   13.80    9.77
   1   8   3  386.40   57.56
   1  -8   3  433.43   46.81
  -1  -8  -3  405.07   47.34
  -1   8  -3  432.21   48.32
  -1  -8  -3  417.88   47.40
   1   8   4   15.70   10.87
   1  -8   4   16.05    7.84
  -1  -8  -4   12.03    8.22
  -1  -8  -4    6.03    5.51
  -1   8  -4   11.50    8.44
   1  -8   5   59.23   17.49
   1   8   5   53.23   22.22
  -1  -8  -5   54.43   19.60
  -1   8  -5   64.08   17.91
  -1  -8  -5   55.94   17.26
   1  -8   6    1.15    5.18
  -1  -8  -6    5.28    6.77
  -1  -8  -6    2.96    5.34
  -1   8  -6   -0.53    6.16
   1   9  -6   23.88    8.09
   1  -9  -6   20.27   15.95
   1  -9  -6   11.66   12.09
  -1  -9   6   31.48   13.55
   1  -9  -5   35.16   16.12
   1  -9  -5   14.62   11.75
   1   9  -5   31.88   12.93
  -1  -9   5   22.56    8.31
   1   9  -4   12.01   10.41
   1  -9  -4    6.75   12.72
   1  -9  -4   16.83    9.23
  -1   9   4   42.33   15.00
  -1  -9   4   12.22    6.98
   1  -9  -3   49.29   21.08
   1  -9  -3   56.95   13.08
   1   9  -3   49.34   10.93
  -1  -9   3   46.14   11.36
  -1   9   3   58.90   22.40
   1   9  -2    7.75    9.40
   1  -9  -2    9.14   10.32
  -1  -9   2   19.00    9.79
  -1   9   2   15.16   13.76
   1  -9  -1    4.30    7.93
   1   9  -1    9.63    7.44
  -1   9   1    7.06    6.03
  -1  -9   1    1.94    7.66
   1   9   0   12.37   10.05
   1  -9   0   13.50   10.43
  -1  -9   0   17.02    6.48
  -1   9   0   10.82   12.11
   1   9   1    7.75    7.77
   1  -9   1    6.30    7.60
  -1  -9  -1   -2.42    7.66
  -1   9  -1    9.37    5.41
   1   9   2    0.56    3.28
   1  -9   2   -2.40    4.66
  -1  -9  -2    3.04    3.96
  -1   9  -2    1.88    5.44
  -1  -9  -2    0.56    4.71
   1   9   3   32.58   22.45
   1  -9   3   58.71   17.70
  -1   9  -3   42.44   20.84
  -1  -9  -3   61.34   11.43
  -1  -9  -3   39.75   17.72
   1   9   4   -3.49    8.53
   1  -9   4   -5.51    6.08
  -1  -9  -4    8.62    6.67
  -1  -9  -4   -7.46    3.99
  -1   9  -4    3.02    7.29
   1  -9   5  128.58   28.33
   1   9   5   98.14   36.46
  -1   9  -5  102.93   32.68
  -1  -9  -5  102.56   30.12
  -1  -9  -5  127.19   28.44
   1 -10  -5   17.96    7.49
   1 -10  -5    2.28    9.49
   1  10  -5   19.79   11.22
   1 -10  -5    5.22    9.73
  -1 -10   5    7.08    6.79
   1 -10  -4   51.85   15.17
   1  10  -4   55.34   22.34
   1 -10  -4   60.06   18.84
  -1  10   4   58.05   30.34
  -1 -10   4   56.86   14.44
   1  10  -3   18.62   14.25
   1 -10  -3   16.98   10.46
   1 -10  -3   21.01   15.48
  -1 -10   3   20.31   14.50
  -1  10   3   45.30   17.68
   1  10  -2    1.43    4.98
   1 -10  -2    9.47    8.63
   1 -10  -2    0.69    4.14
  -1 -10   2    3.55    8.14
  -1  10   2   19.42    6.94
   1  10  -1    1.37    6.26
   1 -10  -1    4.83    6.39
  -1  10   1   -0.84    8.14
  -1 -10   1    0.82    6.32
   1  10   0   18.22    6.40
   1 -10   0   -1.87   10.06
  -1 -10   0    0.68   10.11
  -1  10   0    2.93   12.83
   1  10   1   45.44   21.26
   1 -10   1   37.08   11.70
  -1  10  -1   36.21   21.27
  -1 -10  -1   47.14   18.54
   1 -10   2   -1.13    2.79
   1  10   2    0.62    5.13
  -1  10  -2    0.92    5.20
  -1 -10  -2    0.77    3.76
  -1 -10  -2   -0.46    4.51
   1 -10   3  223.42   42.33
   1  10   3  210.08   54.37
  -1 -10  -3  207.14   41.54
  -1 -10  -3  233.58   44.26
  -1  10  -3  217.93   32.05
   1  10   4   44.35   16.89
   1 -10   4    5.35    8.59
  -1 -10  -4   44.49   14.27
  -1  10  -4   17.06   10.25
  -1 -10  -4   23.52   14.37
   1  11  -4   32.00   21.73
   1 -11  -4   33.90   18.32
   1 -11  -4   44.82   22.70
  -1  11   4   65.47   29.07
  -1 -11   4   32.57   22.26
   1  11  -3   46.99   25.74
   1 -11  -3   46.73   18.90
   1 -11  -3   59.46   27.12
  -1 -11   3   49.83   25.54
  -1  11   3   86.43   19.92
   1 -11  -2   85.54   14.56
   1 -11  -2   -1.26   11.39
   1  11  -2   88.11   23.86
  -1 -11   2   61.02   22.43
  -1  11   2   82.80   30.96
   1  11  -1   25.20   12.42
   1 -11  -1   11.62   19.53
  -1  11   1   83.69   26.62
  -1 -11   1   33.70   18.87
   1 -11   0   64.23   17.93
   1  11   0   81.99   28.88
  -1  11   0   79.39   35.43
  -1 -11   0   72.33   27.49
   1  11   1   30.48   17.16
   1 -11   1   27.88   14.71
  -1 -11  -1   -0.50    8.65
  -1  11  -1   29.70   18.89
  -1 -11  -1   40.03   14.94
   1 -11   2  457.06   74.18
   1  11   2  500.11   93.17
  -1 -11  -2  458.23   48.04
  -1  11  -2  472.26   93.46
  -1 -11  -2  385.36   61.80
   1 -11   3   14.70   12.95
   1  11   3   26.44   18.07
  -1 -11  -3   16.98    8.22
  -1 -11  -3    4.81   12.25
  -1  11  -3   -6.21   15.29
  -2   0  10   20.29   13.05
   2   0  -9    2.87    5.24
  -2   0   9    5.44    6.41
   2   0  -8 1084.59   71.23
  -2   0   8 2606.52  119.53
   2   0  -7 1134.12   54.82
  -2   0   7  956.87   63.30
   2   0  -6   -0.74    1.93
  -2   0   6    2.95    2.58
  -2   0   6    1.80    1.24
   2   0  -5 1651.22   63.96
  -2   0   5 1651.94   64.54
  -2   0   5 1631.10   67.52
   2   0  -4 8592.98  431.92
  -2   0   4 8494.42  429.18
   2   0  -3 1593.03   55.40
  -2   0   3 1655.33   59.07
   2   0  -2    0.95    1.59
  -2   0   2    3.90    1.68
   2   0  -1 4044.15  153.63
  -2   0   1 4083.75  156.01
  -2   0   1 5047.51  154.58
   2   0   0 1174.45   34.04
   2   0   0 1223.29   31.85
  -2   0   0 1192.09   34.07
   2   0   1 3710.35  139.53
   2   0   1 3096.63   99.27
  -2   0  -1 3891.21  111.80
  -2   0  -1 3656.02  136.86
   2   0   2 3171.71  117.37
  -2   0  -2 3130.07  132.61
   2   0   3  871.29   34.55
   2   0   4  646.65   32.50
   2   0   5   11.12    7.31
   2   0   6  130.57   25.87
   2   0   7  129.22   30.85
   2   0   8  566.31   84.01
  -2  -1  10   13.01   13.35
  -2   1  10   22.52   12.54
   2  -1  -9    4.97    5.28
   2   1  -9    0.69    3.77
  -2  -1   9    9.79    6.02
  -2   1   9    2.13    5.79
   2   1  -8   -1.65    2.21
   2  -1  -8   -0.13    2.25
  -2  -1   8    1.16    3.22
  -2  -1   8    1.26    1.24
  -2   1   8   -1.86    2.98
   2  -1  -7   44.47   11.13
   2   1  -7   60.71    9.02
  -2   1   7   54.46   11.40
  -2  -1   7   58.27   11.41
  -2  -1   7   54.72   12.47
   2  -1  -6  272.93   17.96
   2   1  -6  305.51   20.13
  -2   1   6  282.74   21.41
  -2  -1   6  270.98   18.39
   2   1  -5  481.78   24.52
   2  -1  -5  467.76   23.59
  -2  -1   5  452.77   22.99
  -2   1   5  444.70   29.12
   2   1  -4   37.81    5.42
   2  -1  -4   33.77    5.05
  -2  -1   4   37.47    5.21
  -2   1   4   33.96    3.83
   2   1  -3   23.82    3.99
   2  -1  -3   22.38    3.77
  -2   1   3   20.70    2.46
  -2  -1   3   23.79    3.78
   2  -1  -2  134.85    8.69
   2   1  -2  153.16    8.96
  -2  -1   2  130.72    8.60
   2  -1  -1  225.14    4.82
   2   1  -1  225.39   10.45
   2  -1  -1  215.50    9.95
  -2  -1   1  236.82   10.38
   2  -1   0   60.06    2.58
   2   1   0   71.70    3.43
   2   1   0   66.38    3.87
   2  -1   0   59.76    3.96
  -2  -1   0   74.96    5.23
  -2  -1   0   77.18    4.05
   2  -1   1   35.13    4.17
   2   1   1   39.40    3.10
   2  -1   1   37.65    4.58
   2   1   1   31.80    2.91
  -2  -1  -1   33.96    3.03
  -2  -1  -1   34.10    2.19
   2  -1   2 1389.55   30.07
   2  -1   2 1312.41   31.34
   2   1   2 1368.59   59.32
   2  -1   2 1313.25   55.91
  -2  -1  -2 1428.06   32.34
  -2  -1  -2 1399.58   59.77
   2  -1   3 1099.91   42.23
   2   1   3 1130.72   43.73
  -2  -1  -3 1170.02   59.08
   2   1   4   70.75   13.35
   2  -1   4   72.14   13.60
  -2  -1  -4   69.64    8.29
   2  -1   5   95.60   11.70
   2   1   5   82.40   18.29
   2  -1   6  797.14   77.83
   2   1   6  799.69   50.82
   2  -1   7    6.47   10.22
   2   1   7   12.54    9.75
   2  -1   8    3.31    9.12
   2   1   8    6.46    9.36
  -2  -2  10  295.57   54.34
  -2   2  10  344.54   50.98
   2   2  -9  179.61   19.80
   2  -2  -9  156.47   17.19
   2  -2  -9  173.73   25.18
  -2  -2   9  143.51   32.45
  -2   2   9  102.12   28.73
  -2  -2   9  156.92   11.60
   2  -2  -8  231.94   31.62
   2  -2  -8  270.19   21.17
   2   2  -8  243.69   22.94
  -2   2   8  216.24   29.46
  -2  -2   8  239.63   21.69
  -2  -2   8  231.70   34.68
   2  -2  -7  387.64   26.03
   2   2  -7  423.45   30.07
   2  -2  -7  367.88   33.77
  -2   2   7  401.30   32.33
  -2  -2   7  383.38   28.45
   2   2  -6  857.91   46.00
   2  -2  -6  864.37   53.44
  -2  -2   6  840.24   43.08
  -2   2   6  866.27   44.92
   2  -2  -5  106.58   10.80
   2   2  -5  121.10   11.22
  -2   2   5  120.63    9.43
  -2  -2   5  110.16   10.64
   2  -2  -4 1450.35   47.70
   2   2  -4 1505.79   60.70
  -2  -2   4 1501.90   59.58
  -2   2   4 1484.20   47.69
   2  -2  -3  200.36    8.12
   2  -2  -3  203.08    7.79
   2   2  -3  219.22   12.79
  -2  -2   3  198.07   12.40
  -2   2   3  191.44    7.21
   2   2  -2   53.68    5.52
   2  -2  -2   47.47    2.53
  -2  -2   2   35.80    5.86
   2   2  -1 1542.99   52.42
   2  -2  -1 1417.42   57.91
  -2  -2   1 1470.98   50.34
   2  -2   0  206.54   12.28
   2   2   0  193.31    9.54
  -2  -2   0  184.85    8.95
  -2  -2   0  196.53   11.57
   2  -2   1   35.67    3.75
   2   2   1   41.03    4.74
   2   2   1   47.79    5.99
  -2  -2  -1   40.10    3.13
  -2  -2  -1   42.27    5.93
   2   2   2 2239.74   72.02
   2   2   2 2134.97   76.10
   2  -2   2 2073.11   63.31
  -2   2  -2 2198.80   72.80
  -2  -2  -2 2003.57   62.61
  -2  -2  -2 2146.04   92.95
   2   2   3  526.71   25.09
   2  -2   3  521.42   37.12
   2   2   3  545.42   25.28
   2  -2   3  568.28   17.46
  -2  -2  -3  538.32   25.49
  -2  -2  -3  609.37   15.18
   2  -2   4  125.56    6.09
   2  -2   4  137.08   12.05
   2   2   4  162.25   19.03
  -2  -2  -4  147.37   18.58
   2   2   5  111.35   20.12
   2  -2   5   94.87   19.67
  -2  -2  -5  108.03   20.16
   2   2   6  531.14   61.10
   2  -2   6  584.90   60.48
   2   2   7   14.26   10.31
   2  -2   7    6.91   10.81
   2   2   8   11.75   12.30
   2  -2   8    9.92   12.87
  -2   3  10    7.63   13.48
  -2  -3  10   44.62   15.99
   2  -3  -9   81.70   14.03
   2  -3  -9  124.85   18.18
   2   3  -9   93.45   16.13
  -2  -3   9   27.69   14.64
  -2   3   9   63.04   21.18
  -2  -3   9  174.85   25.00
   2  -3  -8   47.65   14.24
   2   3  -8   74.00   11.48
   2  -3  -8   12.43   10.22
  -2  -3   8   76.83   11.23
  -2   3   8   50.98   13.70
   2  -3  -7  244.59   21.91
   2  -3  -7  266.93   32.28
   2   3  -7  236.59   23.12
  -2  -3   7  240.25   22.49
  -2   3   7  243.45   24.88
   2  -3  -6  193.32   24.55
   2   3  -6  187.12   18.08
   2  -3  -6  193.25   17.01
  -2   3   6  159.09   16.22
  -2  -3   6  188.75   16.97
   2   3  -5   54.68    8.72
   2  -3  -5   48.49   12.31
   2  -3  -5   62.32    6.86
   2  -3  -5   55.24    8.25
  -2   3   5   48.56    6.75
  -2  -3   5   56.02    8.34
   2   3  -4  381.40   23.12
   2  -3  -4  359.33   14.85
   2  -3  -4  365.17   31.98
  -2   3   4  387.01   16.03
  -2  -3   4  402.57   24.06
   2  -3  -3 3163.18  111.69
   2   3  -3 3179.37  137.12
   2  -3  -3 3128.27  161.31
  -2  -3   3 3384.76  125.59
   2  -3  -2  250.04   22.77
   2   3  -2  249.04   10.91
  -2  -3   2  273.32   15.87
   2  -3  -1 1279.03   60.12
   2   3  -1 1297.22   40.70
  -2   3   1 1254.56   47.43
  -2  -3   1 1363.24   51.83
   2   3   0   89.42    8.33
   2  -3   0   98.79    5.39
  -2  -3   0   97.68    8.10
  -2   3   0   98.43   10.10
   2   3   1  934.64   36.44
   2  -3   1  861.68   31.01
  -2   3  -1  912.58   42.70
  -2  -3  -1  872.98   30.20
  -2  -3  -1  883.69   32.28
   2   3   2 1875.87   70.72
   2  -3   2 1800.83   75.40
  -2  -3  -2 1841.85   62.96
  -2   3  -2 1945.88   78.68
  -2  -3  -2 1825.85   86.99
   2   3   3   14.90    3.99
   2  -3   3   11.17    2.68
   2   3   3   13.23    3.21
  -2   3  -3   14.48    3.77
  -2  -3  -3   19.86    5.86
  -2  -3  -3   11.93    3.39
   2  -3   4   17.47    3.90
   2   3   4   46.75    9.55
  -2   3  -4   31.15    6.72
  -2  -3  -4   50.92    9.86
  -2  -3  -4   38.52    4.42
   2   3   5  538.08   34.07
   2  -3   5  582.13   54.20
  -2  -3  -5  530.88   14.70
  -2  -3  -5  576.35   52.42
  -2   3  -5  565.25   25.31
   2   3   6  186.81   27.62
   2  -3   6   -3.19   29.70
  -2  -3  -6  168.72   18.08
   2   3   7   22.32   16.06
   2  -3   7   42.99   17.08
   2  -3   8   45.30   14.17
   2   3   8   33.53   12.83
   2   4  -9   -0.71    4.73
   2  -4  -9   -0.66    4.19
   2  -4  -9   11.80    4.49
  -2  -4   9   -0.31    4.56
  -2   4   9    4.26    5.05
   2  -4  -8  309.01   32.29
   2  -4  -8  296.04   29.27
   2   4  -8  288.40   32.08
  -2  -4   8  323.58   39.65
  -2   4   8  261.07   30.93
   2   4  -7  283.84   28.00
   2  -4  -7  270.96   32.06
   2  -4  -7  282.13   26.03
  -2  -4   7  273.56   25.83
  -2   4   7  248.08   24.24
   2  -4  -6  456.24   32.36
   2   4  -6  398.68   33.64
   2  -4  -6  414.23   29.10
   2  -4  -6  414.10   38.49
  -2   4   6  424.13   29.83
  -2  -4   6  425.45   32.16
   2   4  -5   73.58   12.02
   2  -4  -5   58.09   15.26
   2  -4  -5   78.73    8.40
  -2  -4   5   80.62   12.05
   2   4  -4  134.80    9.85
   2  -4  -4  141.25    9.51
   2  -4  -4  139.64   19.40
  -2  -4   4  155.00   15.61
   2   4  -3  332.62   24.14
   2  -4  -3  329.85   13.62
   2  -4  -3  356.75   27.57
  -2  -4   3  341.05   23.19
   2  -4  -2  238.11   19.89
   2   4  -2  176.83   17.22
  -2   4   2  201.91   14.31
  -2  -4   2  188.77   17.06
   2  -4  -1  369.07   23.84
   2   4  -1  357.98   22.96
  -2  -4   1  348.83   22.54
  -2   4   1  357.13   27.41
   2  -4   0  141.95   12.34
   2   4   0  163.41   13.88
  -2  -4   0  174.47   13.08
  -2   4   0  143.91   11.50
   2  -4   1  176.44   12.74
   2   4   1  175.33   15.29
  -2  -4  -1  163.21   12.68
  -2   4  -1  164.94   16.37
  -2  -4  -1  155.88    9.03
   2   4   2    0.75    2.34
   2  -4   2    2.18    1.83
  -2  -4  -2    2.59    2.70
  -2   4  -2    0.67    2.35
  -2  -4  -2   -0.55    1.80
   2  -4   3  152.90   15.39
   2   4   3  145.26   12.77
  -2   4  -3  137.95   14.63
  -2  -4  -3  149.56   19.04
  -2  -4  -3  135.60   11.18
   2   4   4   19.01    5.11
   2  -4   4   21.13    5.59
   2   4   4   23.67    8.66
  -2   4  -4   17.74    7.37
  -2  -4  -4   16.84    4.08
  -2  -4  -4   23.32    8.70
   2   4   5   77.24   18.32
   2  -4   5  103.05   11.69
  -2  -4  -5   91.61    7.94
  -2  -4  -5   85.01   19.75
  -2   4  -5   73.32   15.84
   2  -4   6   24.52    4.79
   2  -4   6   40.57   13.07
   2   4   6   30.66   10.75
  -2  -4  -6   13.98    3.14
  -2   4  -6   25.34    6.37
  -2  -4  -6   36.40    7.45
   2  -4   7   22.45   12.04
   2   4   7    9.89    6.43
   2  -4   8   83.95   32.32
   2   4   8   84.78   28.08
   2  -5  -9   83.66   19.75
   2   5  -9   78.28   20.19
   2  -5  -9   61.22   18.64
  -2   5   9  113.43   14.46
  -2  -5   9   86.76   19.23
   2  -5  -8   88.87   21.09
   2   5  -8   67.63   16.49
   2  -5  -8   59.70   16.08
  -2  -5   8   60.22   14.96
   2  -5  -7   62.48   12.62
   2  -5  -7   48.54   13.81
   2   5  -7   45.80   13.36
  -2  -5   7   47.71   12.46
   2   5  -6  286.83   30.38
   2  -5  -6  296.08   31.27
   2  -5  -6  279.33   23.74
  -2  -5   6  270.00   27.83
   2   5  -5   79.14   14.36
   2  -5  -5   77.78   10.13
   2  -5  -5   71.96   14.63
  -2  -5   5   79.26   14.17
   2   5  -4 1785.27  100.67
   2  -5  -4 1789.61   78.81
   2  -5  -4 1957.70   78.83
  -2  -5   4 1857.01   77.15
   2   5  -3  941.79   55.56
   2  -5  -3  860.30   41.05
   2  -5  -3  937.63   56.57
  -2  -5   3  934.23   53.15
   2  -5  -2  483.28   33.69
   2   5  -2  490.69   34.62
  -2  -5   2  513.09   34.61
  -2   5   2  511.39   41.59
   2  -5  -1  240.02   20.14
   2   5  -1  234.50   21.89
  -2  -5   1  229.30   20.56
  -2   5   1  260.36   28.77
   2   5   0  649.04   41.33
   2  -5   0  620.04   37.01
  -2  -5   0  620.89   25.79
  -2   5   0  627.72   49.93
   2  -5   1 1403.25   76.02
   2   5   1 1407.90   68.82
  -2  -5  -1 1415.29   76.88
  -2  -5  -1 1423.93   68.67
  -2   5  -1 1409.90   82.13
   2   5   2   -0.26    1.86
   2  -5   2    0.83    1.98
  -2  -5  -2    0.62    2.53
  -2  -5  -2   -2.13    1.93
  -2   5  -2    0.25    2.50
   2   5   3  285.48   23.77
   2  -5   3  278.33   27.72
  -2  -5  -3  267.35   27.35
  -2   5  -3  238.90   24.12
  -2  -5  -3  304.26   29.97
   2  -5   4  563.17   33.52
   2   5   4  559.70   57.32
  -2  -5  -4  592.52   33.40
  -2  -5  -4  565.26   52.04
  -2   5  -4  575.03   42.80
   2   5   5    1.00    7.91
   2  -5   5   34.12    8.82
  -2  -5  -5   36.98   12.43
  -2   5  -5   24.68    8.38
  -2  -5  -5   37.08    6.14
   2  -5   6   12.92    5.07
   2  -5   6   15.76    7.14
   2   5   6   15.25    6.66
  -2   5  -6    8.68    6.57
  -2  -5  -6    8.61    5.75
  -2  -5  -6   19.07   10.05
   2  -5   7  365.91   69.02
   2   5   7  398.78   41.53
  -2  -5  -7  392.88   63.77
   2   6  -9   -0.49    8.67
   2  -6  -9    5.45    7.92
   2  -6  -9   23.71    8.29
  -2  -6   9    3.31    7.49
   2  -6  -8  702.56   64.32
   2   6  -8  626.62   70.14
   2  -6  -8  683.14   62.11
  -2  -6   8  677.31   61.30
   2  -6  -7   94.23   17.93
   2   6  -7   78.85   18.75
   2  -6  -7   78.70   21.43
   2  -6  -7   69.95   10.73
  -2  -6   7   83.96   16.78
   2  -6  -6   28.30   10.15
   2   6  -6   27.60   10.58
   2  -6  -6   26.23    8.10
  -2  -6   6   21.78   10.57
   2  -6  -5  398.53   38.42
   2  -6  -5  375.72   27.67
   2   6  -5  367.66   39.84
  -2  -6   5  404.07   39.38
   2  -6  -4  828.36   60.15
   2   6  -4  787.54   61.95
   2  -6  -4  873.90   44.57
  -2  -6   4  828.16   59.25
   2   6  -3  464.40   27.68
   2  -6  -3  500.73   28.28
   2  -6  -3  472.30   39.39
  -2   6   3  464.87   52.90
  -2  -6   3  534.21   41.26
   2  -6  -2   17.38    4.26
   2   6  -2   18.10    8.07
  -2  -6   2   15.58    7.14
  -2   6   2   17.05    8.87
   2   6  -1  280.71   29.31
   2  -6  -1  268.58   26.62
  -2   6   1  245.06   23.24
  -2  -6   1  248.33   26.17
   2   6   0  129.27   19.49
   2  -6   0   97.05   19.12
  -2  -6   0  119.98   16.22
  -2   6   0  121.56   21.07
   2  -6   1  749.76   36.87
   2   6   1  697.84   48.64
  -2   6  -1  742.86   60.55
  -2  -6  -1  757.51   37.48
  -2  -6  -1  757.01   49.21
   2   6   2  167.54   18.01
   2  -6   2  178.43   18.92
  -2  -6  -2  137.77   13.85
  -2   6  -2  153.67   23.95
  -2  -6  -2  148.46   11.83
   2  -6   3  182.45   21.41
   2   6   3  200.45   24.53
  -2  -6  -3  214.44   28.29
  -2  -6  -3  191.42   21.09
  -2   6  -3  188.37   24.87
   2   6   4  153.39   26.03
   2  -6   4  177.03   19.19
  -2   6  -4  156.03   25.08
  -2  -6  -4  164.54   19.29
  -2  -6  -4  141.58   27.38
   2  -6   5   11.35    6.44
  -2  -6  -5   11.38   10.24
  -2   6  -5   11.71   10.55
  -2  -6  -5   16.25    5.97
   2  -6   6   23.35    8.79
  -2  -6  -6   28.88    8.00
  -2  -6  -6   32.40   14.93
  -2   6  -6   29.33   15.81
   2  -6   7   48.75   24.90
  -2  -6  -7   50.29   14.34
   2  -7  -8  141.90   26.75
   2  -7  -8  128.54   26.00
   2  -7  -8  144.56   29.12
   2   7  -8   84.76   32.27
  -2  -7   8  115.77   26.83
   2  -7  -7   -2.44    5.15
   2   7  -7   32.39   10.04
   2  -7  -7   25.39    7.31
   2  -7  -7   17.54    9.35
   2  -7  -6   38.86   13.64
   2  -7  -6   39.27   11.04
   2   7  -6   38.02   15.61
  -2  -7   6   39.51   14.24
   2  -7  -5   -2.71    4.55
   2  -7  -5    2.41    3.34
   2   7  -5    1.22    5.20
  -2  -7   5    3.44    2.85
   2   7  -4  508.78   55.81
   2  -7  -4  515.21   48.75
   2  -7  -4  527.31   36.73
  -2  -7   4  506.53   32.43
   2  -7  -3    3.15    3.21
   2  -7  -3    2.96    4.79
   2   7  -3    1.74    5.24
  -2  -7   3    2.87    2.93
  -2   7   3    0.42    6.32
   2  -7  -2  611.57   36.34
   2   7  -2  629.23   61.81
  -2  -7   2  590.80   52.77
  -2   7   2  627.50   63.84
   2  -7  -1   84.10   19.44
   2   7  -1   83.55   19.58
  -2  -7   1   76.02   16.61
  -2   7   1   78.80   14.53
   2  -7   0  571.24   54.35
   2   7   0  573.67   33.12
  -2   7   0  584.79   61.73
  -2  -7   0  569.71   48.78
   2  -7   1   50.15   13.36
   2   7   1   50.67   12.43
  -2  -7  -1   56.79    8.81
  -2  -7  -1   49.47   13.08
  -2   7  -1   47.77   16.79
   2   7   2  653.05   50.93
   2  -7   2  642.39   53.39
  -2   7  -2  653.42   65.79
  -2  -7  -2  619.58   57.96
  -2  -7  -2  672.88   52.56
   2  -7   3  923.13   67.72
   2   7   3  911.88   75.86
  -2  -7  -3  937.99   79.86
  -2  -7  -3  927.25   67.79
  -2   7  -3  976.90   84.12
   2  -7   4   43.24   11.36
   2   7   4   43.30   15.94
  -2   7  -4   33.96   14.97
  -2  -7  -4   42.83   11.69
  -2  -7  -4   32.40   15.61
   2   7   5  351.42   50.44
   2  -7   5  436.87   41.22
  -2   7  -5  384.11   50.98
  -2  -7  -5  373.03   57.44
  -2  -7  -5  412.68   38.98
   2  -7   6  567.81   64.97
  -2   7  -6  517.94   67.44
  -2  -7  -6  530.11   47.30
  -2  -7  -6  567.33   77.92
   2  -8  -7   23.10   14.19
   2   8  -7   22.68   13.66
   2  -8  -7   14.06    9.25
  -2  -8   7   10.39   11.92
   2  -8  -6  155.72   27.36
   2  -8  -6  207.38   36.25
   2   8  -6  177.52   40.86
  -2  -8   6  226.00   35.65
   2   8  -5  139.81   33.14
   2  -8  -5  117.10   28.90
   2  -8  -5  131.63   20.37
  -2  -8   5  144.52   27.15
   2  -8  -4  360.34   33.04
   2  -8  -4  392.55   48.40
   2   8  -4  363.93   54.85
  -2  -8   4  346.90   46.29
   2  -8  -3  352.31   56.52
   2   8  -3  388.82   36.68
   2  -8  -3  413.35   23.35
  -2  -8   3  385.67   47.99
  -2   8   3  392.53   59.15
   2   8  -2    2.33    6.48
   2  -8  -2    1.05    4.07
  -2   8   2    4.93    6.74
  -2  -8   2    3.59    3.32
   2   8  -1  276.26   24.22
   2  -8  -1  286.22   42.48
  -2   8   1  281.18   33.24
  -2  -8   1  298.04   38.01
   2   8   0    3.53    5.90
   2  -8   0   10.07    6.80
  -2   8   0    6.54    7.94
  -2  -8   0    3.71    3.78
   2  -8   1   76.89   21.21
   2   8   1   99.88   20.02
  -2  -8  -1  102.40   13.42
  -2   8  -1   88.47   16.32
  -2  -8  -1   87.45   20.42
   2   8   2 1387.10  101.91
   2  -8   2 1306.79  100.75
  -2   8  -2 1378.31  123.50
  -2  -8  -2 1419.71  100.58
  -2  -8  -2 1130.52   93.31
   2  -8   3   55.45   16.42
   2   8   3   68.91   18.65
  -2  -8  -3   57.61   16.44
  -2  -8  -3   61.82   19.38
  -2   8  -3   52.10   21.16
   2  -8   4  119.61   23.89
   2   8   4  116.85   32.66
  -2  -8  -4  130.06   24.17
  -2   8  -4  118.08   31.29
  -2  -8  -4  138.13   29.81
   2   8   5  172.14   37.19
   2  -8   5  204.46   32.13
  -2   8  -5  185.85   40.33
  -2  -8  -5  183.56   30.60
  -2  -8  -5  212.36   40.76
   2  -8   6  133.13   31.71
  -2   8  -6  156.67   44.07
  -2  -8  -6  239.17   31.16
  -2  -8  -6  221.29   46.27
   2   9  -6   32.29   13.64
   2  -9  -6   14.83   10.20
   2  -9  -6    9.73   16.44
  -2  -9   6   22.90   13.89
   2   9  -5    4.23    6.27
   2  -9  -5   -1.07    4.67
   2  -9  -5   -1.28    7.50
  -2  -9   5    6.99    6.06
   2  -9  -4   -1.14    8.33
   2  -9  -4    3.81    4.83
   2   9  -4   10.83    6.90
  -2  -9   4   -1.92    6.64
   2  -9  -3    9.57   17.44
   2   9  -3   32.79    9.20
   2  -9  -3   31.09   10.63
  -2  -9   3   31.33    9.24
  -2   9   3   25.57   18.08
   2   9  -2    5.20    5.88
   2  -9  -2    0.74    6.67
  -2  -9   2   -0.52    5.78
  -2   9   2    3.11    7.30
   2   9  -1   11.97    9.68
   2  -9  -1    8.68   11.39
  -2  -9   1   16.20   10.02
  -2   9   1   17.24   14.38
   2  -9   0    6.96    4.62
   2   9   0    3.63    7.05
  -2   9   0    6.75   10.10
  -2  -9   0    1.43    7.16
   2  -9   1    5.16    9.38
   2   9   1   11.79    9.04
  -2  -9  -1   16.28    9.25
  -2   9  -1   11.20   11.93
  -2  -9  -1   10.47    6.02
   2   9   2   39.39   15.27
   2  -9   2   35.29   15.06
  -2   9  -2   30.82   18.70
  -2  -9  -2   62.94   14.55
  -2  -9  -2    2.83   13.75
   2  -9   3   58.49   10.32
   2   9   3   52.19   20.36
  -2  -9  -3   66.20   16.17
  -2  -9  -3    0.49   11.42
  -2   9  -3   51.85   20.83
   2  -9   4   14.95    8.15
   2   9   4    0.64   11.20
  -2  -9  -4    7.20    8.10
  -2  -9  -4    4.09    9.61
  -2   9  -4    3.86   10.53
   2   9   5   33.20   19.17
   2  -9   5   54.98   16.42
  -2  -9  -5   44.05   21.22
  -2   9  -5   66.05   22.39
  -2  -9  -5   15.47   12.12
   2 -10  -5   53.62   23.65
   2  10  -5  111.90   32.52
   2 -10  -5  143.14   24.28
  -2 -10   5  117.50   31.72
   2 -10  -4   49.27   13.91
   2  10  -4   44.20   18.57
   2 -10  -4   14.80   13.96
  -2 -10   4   53.71   18.96
   2  10  -3  142.79   38.09
   2 -10  -3  145.08   29.69
   2 -10  -3  111.90   45.24
  -2  10   3  217.25   53.36
  -2 -10   3  212.75   25.32
   2 -10  -2    8.60   13.71
   2  10  -2   16.19    7.77
  -2  10   2   42.02   16.17
  -2 -10   2    7.67   13.05
   2 -10  -1   61.57   15.82
   2  10  -1   89.96   24.18
  -2  10   1   87.44   34.22
  -2 -10   1   61.50   24.27
   2 -10   0    1.04    7.01
   2  10   0   -3.10    6.72
  -2  10   0    7.09    9.59
  -2 -10   0    7.26    6.82
   2  10   1  191.09   26.13
   2 -10   1  144.88   41.28
  -2  10  -1  175.49   56.12
  -2 -10  -1  193.61   25.21
  -2 -10  -1  214.45   25.80
   2 -10   2    0.19    9.67
   2  10   2    8.78   11.08
  -2  10  -2   -5.80   12.24
  -2 -10  -2   32.75    9.70
  -2 -10  -2    0.18    8.83
   2  10   3   45.68   17.81
   2 -10   3   51.95   14.17
  -2  10  -3   16.81   18.20
  -2 -10  -3   -0.65    9.65
  -2 -10  -3   23.81   14.14
   2 -10   4   91.40   24.87
   2  10   4  101.00   35.43
  -2 -10  -4   79.09   16.02
  -2 -10  -4   53.33   29.62
  -2  10  -4   42.07   36.06
   2  11  -4  611.08   91.63
   2 -11  -4  612.43   70.63
   2 -11  -4  640.75  100.70
  -2 -11   4  658.43   92.71
   2 -11  -3  110.87   25.63
   2 -11  -3  107.59   25.25
  -2 -11   3  144.32   38.90
  -2  11   3  200.79   51.44
   2  11  -2  147.63   43.52
   2 -11  -2  127.83   46.74
  -2  11   2  193.26   34.46
  -2 -11   2  178.32   44.52
   2  11  -1   35.13   11.39
   2 -11  -1    6.11   11.79
  -2  11   1    3.04   14.06
  -2 -11   1   -0.05    7.10
   2  11   0  276.05   52.69
   2 -11   0  178.39   51.12
  -2  11   0  194.37   69.08
  -2 -11   0  211.07   49.13
   2  11   1  298.09   55.31
   2 -11   1  253.25   30.58
  -2 -11  -1   -3.76   47.97
  -2  11  -1  182.79   41.25
  -2 -11  -1  216.49   47.45
   2  11   2   91.51   26.54
   2 -11   2   43.50   23.36
  -2  11  -2   43.42   32.28
  -2 -11  -2   65.44   23.20
  -2 -11  -2   -0.54   22.73
   3   0 -10   26.70   12.27
  -3   0  10   59.76   15.90
   3   0  -9  358.62   35.85
  -3   0   9  349.10   41.43
   3   0  -8  419.61   34.90
  -3   0   8  367.35   34.95
   3   0  -7  322.55   23.89
  -3   0   7  294.53   15.93
  -3   0   7  310.73   25.30
   3   0  -6  354.59   24.70
  -3   0   6  347.13   24.92
  -3   0   6  352.18   21.82
   3   0  -5  448.50   26.08
  -3   0   5  448.04   26.36
   3   0  -4  110.93    9.52
  -3   0   4   81.70    6.08
   3   0  -3 1350.77   42.07
  -3   0   3 1256.22   53.85
   3   0  -2 1086.77   42.24
  -3   0   2 1144.15   44.48
   3   0  -1 2031.32   53.34
   3   0  -1 2115.55   72.43
  -3   0   1 2042.60   66.33
  -3   0   1 1905.61   70.11
   3   0   0 1578.90   53.05
   3   0   0 1337.26   44.45
  -3   0   0 1637.88   53.99
  -3   0   0 1614.75   48.43
   3   0   1  436.32   16.35
   3   0   1  475.69   16.52
  -3   0  -1  434.30   12.22
  -3   0  -1  437.67   22.69
   3   0   2 1881.22   78.91
   3   0   2 1502.40   34.24
  -3   0  -2 1927.99   80.90
   3   0   3  331.67   19.06
   3   0   4  226.17   18.20
   3   0   5  168.90   28.49
   3   0   6  116.19   29.11
   3   0   7  215.71   29.65
   3   0   8   62.19   28.92
   3  -1 -10    2.58    3.44
   3   1 -10    1.21    3.51
  -3  -1  10   -5.65    4.52
  -3   1  10    1.27    4.05
   3   1  -9  155.14   27.48
   3  -1  -9  133.01   21.03
  -3   1   9  120.19   22.58
  -3  -1   9  127.97   24.50
   3   1  -8    9.68    6.57
   3  -1  -8   -0.31    4.41
  -3  -1   8    6.87    5.64
  -3   1   8    6.18    5.11
  -3  -1   8   11.35    4.55
   3   1  -7   94.12   13.86
   3  -1  -7   92.83   12.60
  -3  -1   7   90.72   12.84
  -3   1   7   77.36   12.13
   3  -1  -6  151.86   15.80
   3   1  -6  159.81   17.20
  -3  -1   6  168.98   17.16
  -3   1   6  164.52   16.63
   3   1  -5  538.89   30.30
   3  -1  -5  497.05   20.08
  -3  -1   5  494.11   28.31
  -3   1   5  452.50   17.90
   3   1  -4    2.77    2.27
   3  -1  -4    2.65    1.47
  -3  -1   4    2.78    2.40
  -3   1   4    1.02    1.40
  -3   1   4    2.50    1.22
   3  -1  -3  111.14    9.84
   3   1  -3   95.30    5.76
  -3   1   3   88.99    5.67
  -3  -1   3  100.45    9.59
   3   1  -2  968.70   38.22
   3  -1  -2 1033.89   41.37
  -3  -1   2  963.41   29.54
   3  -1  -1  102.03    7.63
   3  -1  -1   91.15    5.23
   3   1  -1   85.24    7.44
  -3  -1   1   92.83    5.62
  -3  -1   1  115.52    7.47
   3   1   0  565.28   24.28
   3   1   0  514.42   21.58
   3  -1   0  605.88   21.59
   3  -1   0  615.39   20.71
  -3  -1   0  577.07   24.86
  -3  -1   0  618.73   25.48
   3  -1   1  168.02    9.41
   3   1   1  137.57    7.64
   3  -1   1  149.70    8.60
   3   1   1  147.95   12.85
   3  -1   1  150.57   11.65
  -3  -1  -1  147.09    8.20
  -3  -1  -1  150.20    8.87
   3  -1   2  850.11   44.87
   3  -1   2  811.03   24.40
   3  -1   2  852.85   23.72
   3   1   2  845.52   46.51
   3   1   2  807.14   21.63
  -3  -1  -2  912.99   24.57
  -3  -1  -2  851.54   45.16
   3   1   3  215.37   22.35
   3  -1   3  205.84   22.05
  -3  -1  -3  189.82   14.12
   3   1   4    5.55    6.84
   3  -1   4    9.81    6.72
  -3  -1  -4   11.08    4.19
   3   1   5   11.98   10.50
   3  -1   5   20.27    6.42
   3   1   6  188.52   37.23
   3  -1   6  182.41   36.40
   3  -1   7  114.61   20.81
   3   1   7  107.07   20.80
   3   1   8   31.35   20.98
   3  -1   8   27.38   21.08
   3  -2 -10   22.06   11.91
   3   2 -10   26.38   11.65
   3  -2 -10   52.15   21.46
  -3   2  10   38.85   13.89
  -3  -2  10   35.39   15.26
   3   2  -9   26.06   16.53
   3  -2  -9  143.89   20.33
   3  -2  -9   92.39   15.58
  -3  -2   9   67.36   16.01
  -3   2   9   62.75   18.14
  -3  -2   9  146.46   21.39
   3  -2  -8   76.73   13.69
   3   2  -8   88.04   15.45
  -3  -2   8   85.51   13.88
  -3   2   8   70.84   14.06
   3  -2  -7  617.12   40.97
   3   2  -7  551.47   41.55
  -3   2   7  556.56   44.92
  -3  -2   7  604.19   42.32
   3   2  -6  133.49   14.99
   3  -2  -6  124.70   14.42
  -3  -2   6  119.41   14.77
  -3   2   6  108.16   13.52
   3   2  -5  631.12   36.85
   3  -2  -5  664.70   38.50
  -3   2   5  624.50   27.14
  -3  -2   5  622.28   35.73
   3  -2  -4    2.29    2.22
   3   2  -4    2.70    2.22
  -3   2   4    0.84    0.95
  -3  -2   4    0.79    2.15
   3   2  -3  239.14   16.36
   3  -2  -3  221.11   16.31
  -3  -2   3  226.76   16.34
   3   2  -2 1146.86   45.88
   3  -2  -2 1068.31   34.72
  -3  -2   2 1224.82   46.72
   3   2  -1  463.50   21.16
   3  -2  -1  490.18   15.50
  -3  -2   1  477.64   15.25
   3  -2   0  521.35   19.52
   3  -2   0  513.51   24.99
   3   2   0  495.99   20.25
  -3  -2   0  507.23   20.22
  -3  -2   0  486.61   24.34
   3   2   1   37.13    5.57
   3   2   1   55.46    7.45
   3  -2   1   39.74    4.98
   3  -2   1   43.08    6.41
  -3  -2  -1   43.17    4.62
  -3  -2  -1   44.34    4.13
   3   2   2  335.98   25.71
   3  -2   2  294.50   13.45
   3  -2   2  343.47   24.79
   3   2   2  362.73   17.34
  -3  -2  -2  351.13   11.94
  -3  -2  -2  344.63   18.04
   3   2   3  134.08    6.31
   3  -2   3  118.97    6.36
   3  -2   3  120.21    6.44
   3  -2   3  113.45   10.55
   3   2   3  117.82   18.00
  -3  -2  -3  121.17    5.99
  -3  -2  -3  120.49   18.30
   3   2   4  365.43   25.66
   3  -2   4  340.96   36.50
  -3  -2  -4  350.15   38.62
   3  -2   5  290.83   26.76
   3   2   5  297.48   26.31
  -3  -2  -5  302.54   26.50
   3  -2   6   86.78   25.01
   3   2   6   76.21   15.31
   3  -2   7   75.24   26.67
   3   2   7   52.90   25.71
   3  -3 -10    0.50    5.30
   3   3 -10   -0.88    7.88
   3  -3 -10  -11.63    7.27
  -3  -3  10   15.67    7.90
  -3   3  10   21.39    6.29
  -3  -3  10   -0.11    5.44
   3  -3  -9    2.19    8.09
   3  -3  -9    8.61    5.33
   3   3  -9   10.21    7.80
  -3  -3   9   -0.52    5.45
  -3   3   9    7.98    5.88
   3   3  -8  112.61   16.90
   3  -3  -8  102.22   16.46
   3  -3  -8  100.91   23.55
  -3   3   8   75.65   15.41
  -3  -3   8   70.36   16.25
   3   3  -7   67.41   12.87
   3  -3  -7   72.57   15.78
   3  -3  -7   50.72   12.26
  -3   3   7   57.20    9.54
  -3  -3   7   70.64   12.61
   3  -3  -6    9.54    6.59
   3   3  -6    8.45    5.58
   3  -3  -6    6.07    5.11
  -3  -3   6   13.67    5.12
  -3   3   6   10.58    3.32
   3  -3  -5    1.59    4.72
   3   3  -5    6.15    3.69
   3  -3  -5    3.79    3.43
  -3  -3   5    0.67    3.39
  -3   3   5    4.03    1.77
   3  -3  -4  569.51   23.63
   3  -3  -4  603.73   45.80
   3   3  -4  609.16   36.43
  -3  -3   4  578.27   33.50
   3  -3  -3  212.83    5.51
   3  -3  -3  231.88   22.01
   3   3  -3  222.63   12.05
  -3  -3   3  234.71   18.03
   3  -3  -2 2188.34   87.16
   3   3  -2 2140.53   93.90
  -3  -3   2 2275.93   96.70
   3   3  -1  203.24   15.45
   3  -3  -1  222.50   13.56
  -3  -3   1  219.38   15.02
   3   3   0   77.43    7.79
   3  -3   0   75.68    9.18
  -3  -3   0   68.92    5.33
  -3  -3   0   71.50    7.10
   3   3   1  144.71   10.36
   3  -3   1  145.01   10.25
  -3  -3  -1  156.63   15.84
  -3  -3  -1  148.31   12.31
   3   3   2   16.75    3.68
   3   3   2   15.98    4.79
   3  -3   2   11.64    2.89
  -3  -3  -2   14.46    5.79
  -3  -3  -2   10.59    2.62
   3  -3   3    0.48    1.92
   3   3   3    1.93    1.88
   3  -3   3    2.73    3.42
   3   3   3    1.80    2.01
  -3  -3  -3    2.88    3.69
  -3  -3  -3    1.10    1.61
   3  -3   4  355.41   41.63
   3   3   4  331.91   37.58
   3  -3   4  430.95   19.42
  -3  -3  -4  382.20   15.07
  -3  -3  -4  364.85   40.94
   3  -3   5   29.41    8.18
   3   3   5   24.58   13.41
  -3  -3  -5   33.57    8.46
   3  -3   6   13.91   10.49
   3   3   6    6.11    9.99
   3   3   7    3.37    6.54
   3  -3   7   -0.97    6.91
   3  -4 -10   83.81   29.44
   3   4 -10  109.94   24.70
   3  -4 -10  157.66   24.86
  -3  -4  10    6.80   30.51
  -3   4  10  138.22   22.59
   3   4  -9   25.77    9.98
   3  -4  -9   28.32   11.44
   3  -4  -9   17.95    9.39
  -3   4   9   14.95    8.26
  -3  -4   9   13.37    9.25
   3  -4  -8   27.19   11.91
   3  -4  -8   41.01   16.08
   3   4  -8   49.87   12.78
  -3   4   8   37.99    9.32
  -3  -4   8   50.55   12.22
   3  -4  -7   28.00    9.05
   3   4  -7   37.18    9.64
   3  -4  -7   39.59   12.23
  -3   4   7   27.20    7.10
  -3  -4   7    7.15    9.01
   3   4  -6   26.85    9.91
   3  -4  -6   29.34   13.60
   3  -4  -6   38.84    5.90
  -3  -4   6   31.33    9.50
   3   4  -5   35.65    9.33
   3  -4  -5   36.51    8.14
   3  -4  -5   29.51    5.55
   3  -4  -5   41.45    6.00
  -3  -4   5   39.19    5.50
   3   4  -4 1088.24   62.54
   3  -4  -4 1116.02   38.64
   3  -4  -4 1118.93   82.52
  -3  -4   4 1114.66   47.03
   3   4  -3   20.21    3.83
   3  -4  -3   20.44    8.79
   3  -4  -3   18.82    2.84
  -3  -4   3   19.57    3.88
   3   4  -2  158.47   16.29
   3  -4  -2  167.39   13.27
  -3  -4   2  154.60   15.37
   3   4  -1  269.14   20.54
   3  -4  -1  235.37   15.02
  -3  -4   1  294.08   18.91
   3  -4   0    9.80    4.77
   3   4   0   11.29    4.58
  -3  -4   0   16.05    4.22
  -3  -4   0   16.67    3.42
   3   4   1    0.75    2.38
   3  -4   1   -0.05    2.59
  -3  -4  -1    1.06    2.80
  -3  -4  -1    2.15    1.89
   3   4   2    5.91    3.00
   3  -4   2    3.93    3.35
  -3  -4  -2   11.15    4.98
  -3  -4  -2    5.09    2.61
   3   4   3  156.18   11.91
   3  -4   3  153.46   15.77
  -3  -4  -3  138.50   22.22
  -3  -4  -3  137.69   13.51
   3  -4   4   23.02    9.49
   3   4   4   18.07    6.35
   3   4   4   14.71    7.12
   3  -4   4   20.97    3.96
  -3  -4  -4   13.37    4.36
  -3  -4  -4   25.64    9.94
   3  -4   5  342.28   28.59
   3  -4   5  276.82   15.77
   3   4   5  356.22   46.30
  -3  -4  -5  324.66   43.40
   3  -4   6   44.18   19.48
   3   4   6   39.28   17.50
  -3  -4  -6   53.48   19.52
   3  -4   7   -7.70   10.48
   3   4   7   -3.74    8.96
   3   5  -9    0.81    4.53
   3  -5  -9   -0.57    4.62
   3  -5  -9    1.78    4.16
  -3  -5   9    1.19    4.30
   3  -5  -8  355.53   41.19
   3   5  -8  301.10   41.18
   3  -5  -8  312.49   46.96
  -3  -5   8  320.41   38.12
   3   5  -7    2.88    5.88
   3  -5  -7    5.85    5.42
   3  -5  -7    4.63    6.63
  -3  -5   7    5.86    5.44
   3  -5  -6  791.39   41.73
   3  -5  -6  859.67   72.96
   3   5  -6  823.63   64.26
   3  -5  -6  845.52   40.90
  -3  -5   6  808.05   59.59
   3  -5  -5  296.04   35.57
   3  -5  -5  279.53   21.08
   3   5  -5  291.64   31.18
  -3  -5   5  285.97   20.25
   3   5  -4   87.19   15.99
   3  -5  -4   97.12   18.37
   3  -5  -4   94.29    7.42
  -3  -5   4   90.30    9.93
   3  -5  -3 1152.90   38.47
   3   5  -3 1078.56   67.37
   3  -5  -3 1088.46   53.77
  -3  -5   3 1028.13   46.01
   3   5  -2 2266.78  119.93
   3  -5  -2 2258.48  121.50
  -3  -5   2 2296.69  115.99
   3   5  -1  414.01   21.18
   3  -5  -1  416.18   30.77
  -3  -5   1  425.63   30.14
   3   5   0   64.03   11.40
   3  -5   0   69.40   10.20
  -3  -5   0   67.43   10.65
  -3  -5   0   65.37    7.86
  -3   5   0   65.55   14.73
   3   5   1 1649.75   88.71
   3  -5   1 1527.29   76.18
  -3  -5  -1 1510.16   74.71
  -3   5  -1 1545.39   89.78
  -3  -5  -1 1502.10   88.18
   3  -5   2    9.29    6.21
   3   5   2    5.15    4.34
  -3  -5  -2    8.85    3.96
  -3  -5  -2   10.49    6.22
  -3   5  -2    9.26    5.30
   3   5   3 1004.78   53.13
   3  -5   3 1001.65   52.83
  -3   5  -3 1025.29   63.00
  -3  -5  -3 1031.95   79.75
  -3  -5  -3  979.04   60.10
   3  -5   4   23.18    8.16
   3   5   4    7.72    7.58
  -3  -5  -4   32.25    5.47
  -3  -5  -4   29.32    7.77
   3  -5   5  669.55   76.70
   3  -5   5  761.96   47.85
  -3  -5  -5  600.91   36.59
  -3  -5  -5  665.86   77.31
   3  -5   6  179.62   33.02
   3   5   6   51.07   20.25
  -3  -5  -6  187.70   31.98
   3   5   7  186.00   30.61
   3  -5   7  165.85   30.18
  -3  -5  -7  200.39   47.63
   3   6  -9   97.58   26.01
   3  -6  -9  118.70   25.18
   3  -6  -9   74.24   25.48
  -3  -6   9   98.37   23.89
   3   6  -8   76.63   22.08
   3  -6  -8   87.25   21.41
   3  -6  -8   74.25   20.74
  -3  -6   8   89.66   20.44
   3  -6  -7   48.44   10.35
   3  -6  -7   49.15   14.55
   3  -6  -7   54.78   16.24
   3   6  -7   47.13   15.92
  -3  -6   7   37.11   14.80
   3  -6  -6   58.73   10.21
   3   6  -6   16.65   15.68
   3  -6  -6   54.41    8.82
  -3  -6   6   73.78   15.76
   3  -6  -5   77.99   11.35
   3   6  -5   77.82   17.63
   3  -6  -5   74.10    8.99
  -3  -6   5   76.85   17.46
   3   6  -4  272.79   34.58
   3  -6  -4  311.14   24.05
   3  -6  -4  292.98   22.94
  -3  -6   4  306.45   32.64
   3   6  -3  187.28   16.43
   3  -6  -3  199.65   26.57
  -3  -6   3  203.07   24.40
   3  -6  -2  121.66   11.82
  -3  -6   2  125.23   18.39
   3  -6  -1   82.48   13.44
   3   6  -1   69.82   14.75
  -3  -6   1   68.91   13.85
  -3   6   1   62.89   18.98
   3  -6   0  282.12   28.18
   3   6   0  294.22   31.68
  -3  -6   0  280.79   27.66
  -3   6   0  282.37   34.38
   3  -6   1   18.89    8.41
   3   6   1   21.34    7.34
  -3  -6  -1   20.24    7.72
  -3   6  -1   16.50    9.08
  -3  -6  -1   18.56    7.12
   3   6   2  429.98   34.55
   3  -6   2  454.56   36.76
  -3   6  -2  559.65   45.58
  -3  -6  -2  425.50   35.19
  -3  -6  -2  428.06   30.75
   3   6   3   85.77   18.60
   3  -6   3   57.12   13.89
  -3   6  -3   92.03   17.09
  -3  -6  -3   91.12   13.28
  -3  -6  -3   89.89   20.65
   3  -6   4  113.63   15.20
   3   6   4   98.57   19.17
  -3   6  -4  108.65   19.50
  -3  -6  -4   99.12   25.34
  -3  -6  -4   99.99   14.11
   3  -6   5   -1.46    3.06
  -3  -6  -5    2.46    2.39
  -3  -6  -5    1.20    5.64
   3  -6   6   37.18   21.98
  -3  -6  -6   42.88   13.03
   3  -7  -8  119.27   17.34
   3   7  -8   95.59   29.13
   3  -7  -8  128.35   28.02
  -3  -7   8  105.14   27.14
   3   7  -7    0.11    6.29
   3  -7  -7    1.21    4.05
   3  -7  -7    6.80    6.02
   3  -7  -7    4.69    3.55
  -3  -7   7   -0.56    5.73
   3  -7  -6   94.91   25.29
   3   7  -6   98.89   26.44
   3  -7  -6  128.70   15.46
  -3  -7   6  108.01   25.95
   3  -7  -5  495.78   31.47
   3   7  -5  431.31   54.71
   3  -7  -5  466.81   52.68
  -3  -7   5  477.08   53.54
   3   7  -4  165.59   29.12
   3  -7  -4  162.63   15.29
   3  -7  -4  157.48   27.52
  -3  -7   4  164.19   17.08
   3  -7  -3  433.12   45.25
   3   7  -3  441.76   31.89
  -3  -7   3  464.79   45.73
   3   7  -2   -0.30    4.97
   3  -7  -2    3.52    2.66
  -3   7   2    0.78    3.69
  -3  -7   2    0.31    4.41
   3  -7  -1  471.99   46.86
   3   7  -1  481.64   52.08
  -3   7   1  485.96   56.86
  -3  -7   1  478.85   46.04
   3  -7   0  430.47   46.97
   3   7   0  393.45   48.00
  -3   7   0  376.35   32.41
  -3  -7   0  419.26   40.77
   3   7   1  334.54   35.60
   3  -7   1  324.74   38.65
  -3   7  -1  335.66   43.19
  -3  -7  -1  341.25   34.48
  -3  -7  -1  303.49   23.07
   3   7   2  169.81   23.97
   3  -7   2  184.93   24.98
  -3  -7  -2  140.26   31.39
  -3   7  -2  196.95   30.65
  -3  -7  -2  182.56   24.36
   3  -7   3  118.08   19.40
   3   7   3  100.34   19.42
  -3  -7  -3   97.32   26.37
  -3   7  -3  108.29   23.47
  -3  -7  -3  109.57   18.52
   3   7   4    4.10    6.57
   3  -7   4    5.09    5.20
  -3   7  -4    6.79    8.97
  -3  -7  -4    5.22    7.90
   3   7   5  357.93   42.52
   3  -7   5  367.51   37.92
  -3  -7  -5  301.93   32.17
  -3  -7  -5  384.86   60.66
  -3   7  -5  320.11   48.48
  -3  -7  -6    1.53    7.10
   3   8  -8   13.58   14.65
   3  -8  -8   13.28    9.68
   3  -8  -8   25.29   13.66
   3  -8  -8   20.97   12.45
  -3  -8   8   13.74   12.67
   3  -8  -7  200.72   38.61
   3  -8  -7  277.65   43.86
   3   8  -7  255.91   49.50
   3  -8  -6   23.73   11.99
   3  -8  -6   28.94   10.41
   3   8  -6   21.59   13.91
  -3  -8   6   -5.04   12.39
   3   8  -5  197.31   42.89
   3  -8  -5  227.68   22.87
   3  -8  -5  173.86   37.25
  -3  -8   5  237.63   38.61
   3  -8  -4  287.64   41.83
   3   8  -4  274.75   48.13
   3  -8  -4  280.35   33.57
  -3  -8   4  307.08   42.02
   3  -8  -3   63.11   19.47
   3   8  -3   59.62   21.31
  -3  -8   3   64.41   11.42
   3   8  -2  363.14   53.45
   3  -8  -2  349.05   29.57
  -3  -8   2  356.82   46.06
  -3   8   2  361.12   61.72
   3   8  -1  751.61   79.25
   3  -8  -1  667.84   77.12
  -3   8   1  688.51   82.07
  -3  -8   1  673.40   66.85
   3  -8   0  472.37   56.24
   3   8   0  457.90   33.52
  -3  -8   0  414.05   49.56
  -3   8   0  450.94   61.44
   3  -8   1    6.27    6.15
   3   8   1    3.44    5.75
  -3  -8  -1    2.75    5.98
  -3  -8  -1    4.04    5.96
  -3   8  -1    5.38    7.41
   3  -8   2  186.14   31.02
   3   8   2  181.13   29.72
  -3  -8  -2  192.24   35.70
  -3   8  -2  170.22   37.62
  -3  -8  -2  206.88   19.00
   3   8   3    7.16    6.85
   3  -8   3    5.40    5.99
  -3  -8  -3    8.04    5.80
  -3  -8  -3    0.06    4.82
  -3   8  -3    2.36    7.36
   3  -8   4  344.37   41.29
   3   8   4  328.46   51.58
  -3  -8  -4  155.86   56.54
  -3  -8  -4  417.05   41.33
  -3   8  -4  325.76   51.87
   3  -8   5   10.27    8.23
   3   8   5   11.91    9.40
  -3  -8  -5    8.16    9.63
  -3   8  -5    6.66    9.77
  -3  -8  -5    7.54   12.14
   3  -9  -7    1.76    9.97
   3   9  -7   18.37   11.45
   3  -9  -7    1.85    6.31
  -3  -9   7   11.60    9.99
   3   9  -6    3.50    9.30
   3  -9  -6    4.42    8.26
   3  -9  -6    0.97    5.20
  -3  -9   6    9.84    8.14
   3   9  -5   32.02   22.49
   3  -9  -5   62.26   12.08
   3  -9  -5   18.63   19.67
  -3  -9   5   21.77   18.73
   3  -9  -4   13.69    5.47
   3  -9  -4    0.67    9.42
   3   9  -4   -0.79   10.97
  -3  -9   4    1.89    8.84
   3   9  -3   -0.34    3.93
   3  -9  -3   -1.28    2.14
   3  -9  -3   -1.36    6.41
  -3  -9   3   -0.97    5.31
   3   9  -2   80.82   17.61
   3  -9  -2   11.77   13.17
  -3  -9   2   49.87   17.25
  -3   9   2   57.93   23.93
   3  -9  -1    0.84    7.10
   3   9  -1    4.08    6.45
  -3  -9   1    1.37    6.31
  -3   9   1    5.17    7.86
   3   9   0   30.24   11.58
   3  -9   0   31.41   13.40
  -3   9   0   27.26    9.33
  -3  -9   0   27.99   11.92
  -3  -9   0    0.59    7.95
   3  -9   1    0.87    3.90
   3   9   1    1.79    3.76
  -3   9  -1   -2.35    4.79
  -3  -9  -1   -1.22    3.74
  -3  -9  -1   -0.48    3.81
   3   9   2   35.11   15.97
   3  -9   2   51.71   15.75
  -3   9  -2   35.24   19.01
  -3  -9  -2   -0.35   17.43
  -3  -9  -2   46.70   15.19
   3  -9   3   11.57    7.27
   3   9   3    4.20    8.42
  -3   9  -3    3.40    9.12
  -3  -9  -3    4.09    7.23
  -3  -9  -3   -1.80    9.03
   3  -9   4   27.93   10.59
   3   9   4   37.48   14.69
  -3   9  -4   17.27   13.34
  -3  -9  -4   -6.90   10.46
  -3  -9  -4    3.29   14.16
   3 -10  -5    5.45   18.49
   3 -10  -5  112.73   21.60
   3  10  -5   61.49   24.70
  -3 -10   5   56.18   23.85
   3  10  -4  132.11   36.82
   3 -10  -4  161.62   23.33
   3 -10  -4   23.64   43.65
  -3 -10   4  122.33   35.72
   3 -10  -3   16.92   22.18
   3 -10  -3   35.27    7.66
   3  10  -3   29.83   11.61
  -3 -10   3   38.38   17.94
   3 -10  -2    8.39   15.04
   3  10  -2   14.53   13.67
  -3  10   2   20.61   18.24
  -3 -10   2   21.92   13.51
   3 -10  -1    7.94   10.36
   3  10  -1    2.51    5.47
  -3  10   1    5.66   11.35
  -3 -10   1   14.64    9.13
   3  10   0  113.48   21.29
   3 -10   0   60.56   13.89
  -3  10   0   69.42   16.74
  -3 -10   0   61.81   21.44
  -3 -10   0   -0.56   14.28
   3 -10   1   -0.07    6.61
   3  10   1   12.63    6.34
  -3  10  -1    0.67    8.08
  -3 -10  -1    0.51    3.82
  -3 -10  -1   -3.21    6.42
   3  10   2   88.18   27.54
   3 -10   2   99.04   27.11
  -3 -10  -2   -1.88   29.46
  -3 -10  -2  117.42   26.30
  -3  10  -2  101.51   32.80
   3  10   3   59.23   22.92
   3 -10   3   36.53   11.37
  -3  10  -3   42.44   22.81
  -3 -10  -3   46.45   18.12
  -3 -10  -3    0.74   21.70
   3 -11  -3  297.87   42.11
   3 -11  -3  167.97   68.64
   3  11  -3  230.11   58.19
  -3 -11   3  298.07   36.63
   3  11  -2  272.61   55.11
   3 -11  -2  226.44   58.68
  -3 -11   2  261.67   56.83
  -3  11   2  239.14   48.36
   3 -11  -1  128.04   43.78
   3  11  -1  188.80   41.33
  -3  11   1  120.64   56.16
  -3 -11   1  135.68   25.79
   3  11   0   49.51   15.82
   3 -11   0   25.56   16.55
  -3 -11   0   -0.76   10.54
  -3  11   0   30.89   19.82
  -3 -11   0   22.99   16.03
   3 -11   1    7.48   60.87
   3  11   1  359.30   40.24
  -3 -11  -1  393.81   59.70
  -3 -11  -1  322.68   35.82
  -3  11  -1  247.89   74.11
   4   0 -10   15.89   13.42
  -4   0  10   61.45   14.18
   4   0  -9    6.42   11.53
  -4   0   9   52.40   10.64
   4   0  -8   77.75   23.46
  -4   0   8  208.99   18.58
   4   0  -7   31.20    8.78
  -4   0   7   30.73    6.81
  -4   0   7   35.61    8.84
   4   0  -6  167.14   18.95
  -4   0   6  168.86   19.00
   4   0  -5  259.95   22.12
  -4   0   5  261.13   21.99
   4   0  -4 3103.30  142.88
  -4   0   4 3079.02  121.75
   4   0  -3  454.59   27.39
  -4   0   3  473.27   27.08
   4   0  -2   21.24    4.50
  -4   0   2   19.04    4.45
  -4   0   2   15.96    2.20
   4   0  -1 2169.86   74.91
   4   0  -1 2222.14   85.59
  -4   0   1 2181.00   84.30
  -4   0   1 2184.50   76.30
   4   0   0  589.12   23.20
   4   0   0  545.86   26.43
  -4   0   0  550.37   26.97
  -4   0   0  573.69   22.83
   4   0   1 1723.99   64.20
   4   0   1 1802.00   66.03
  -4   0  -1 1765.06   81.21
   4   0   2  181.16   21.54
   4   0   2  212.04    7.52
  -4   0  -2  173.26   21.62
   4   0   3  592.57   33.08
   4   0   4   96.32   13.36
   4   0   5  714.09   77.30
   4   0   6   32.14   17.72
   4   0   7  662.17  100.12
   4  -1 -10   48.68   19.57
   4   1 -10   88.76   25.65
  -4  -1  10   85.59   19.71
  -4   1  10   77.68   18.02
   4  -1  -9  148.90   23.61
   4   1  -9  149.31   25.54
  -4  -1   9  148.50   25.38
  -4  -1   9  172.65   15.25
  -4   1   9  157.13   21.81
   4  -1  -8   46.99   12.52
   4   1  -8   58.09   13.47
  -4   1   8   48.48   13.44
   4   1  -7  103.92   17.75
   4  -1  -7  112.89   16.21
  -4   1   7   95.48   10.92
  -4  -1   7  130.16   16.62
   4  -1  -6  355.20   19.96
   4   1  -6  393.42   31.93
  -4   1   6  369.54   16.63
  -4  -1   6  376.02   32.06
   4   1  -5   28.31    6.86
   4  -1  -5   29.19    7.32
  -4  -1   5   29.10    7.37
  -4   1   5   23.51    3.20
   4  -1  -4  444.94   28.49
   4   1  -4  419.03   18.08
  -4  -1   4  395.90   18.15
  -4   1   4  379.12   17.60
   4  -1  -3   10.10    2.65
   4   1  -3   12.66    4.09
  -4   1   3   11.45    2.48
  -4  -1   3   11.35    4.34
   4  -1  -2 5064.37  235.18
   4   1  -2 4927.22  207.53
  -4   1   2 5052.20  183.41
  -4  -1   2 5256.91  241.54
  -4  -1   2 4929.90  203.57
   4  -1  -1  986.29   41.07
   4   1  -1 1009.35   40.10
   4  -1  -1  926.24   35.66
  -4   1   1  972.28   30.95
  -4  -1   1  942.80   36.89
  -4  -1   1  995.77   41.75
   4  -1   0  253.40   13.08
   4   1   0  211.46   14.11
   4  -1   0  244.14   13.95
   4   1   0  216.97   12.18
  -4  -1   0  230.80   12.75
  -4  -1   0  210.83   10.21
   4  -1   1   53.26    6.78
   4  -1   1   44.13    5.07
   4   1   1   52.25    8.44
   4   1   1   50.70    5.44
  -4  -1  -1   50.30    6.66
  -4  -1  -1   55.35    8.90
   4   1   2  850.37   27.63
   4  -1   2  866.70   52.32
   4  -1   2  735.97   32.72
   4  -1   2  905.02   30.93
   4   1   2  861.83   39.19
  -4  -1  -2  860.53   52.94
  -4  -1  -2  898.03   29.38
   4   1   3    1.84    3.07
   4  -1   3   -0.63    2.93
  -4  -1  -3   -2.10    3.03
   4   1   4    5.78    7.37
   4  -1   4    9.81    7.02
   4  -1   5   70.77   13.56
   4   1   5   77.06   22.53
   4  -1   6    5.91    9.18
   4   1   6    6.17    9.53
   4  -1   7    2.99    9.46
   4   1   7    3.88    9.48
   4  -2 -10   28.31   14.72
   4  -2 -10   38.29   14.64
   4   2 -10    7.68   12.51
  -4   2  10   26.54   11.19
  -4  -2  10   22.07   11.11
  -4  -2  10   35.74   13.37
   4  -2  -9   52.91   15.96
   4   2  -9   80.09   16.82
  -4   2   9   56.83   13.89
  -4  -2   9   79.05   16.21
   4   2  -8  475.72   45.39
   4  -2  -8  473.82   43.12
  -4   2   8  510.75   33.39
  -4  -2   8  469.59   43.29
   4  -2  -7  234.49   25.31
   4   2  -7  190.38   16.24
  -4  -2   7  237.02   26.16
  -4   2   7  213.94   14.68
   4  -2  -6  997.32   61.89
  -4  -2   6  992.10   61.66
  -4   2   6 1022.09   40.95
   4   2  -5  500.97   35.45
   4  -2  -5  508.01   35.71
  -4  -2   5  449.61   34.53
  -4   2   5  453.97   13.26
   4   2  -4  212.85   12.88
   4  -2  -4  214.93   21.07
  -4  -2   4  210.59   12.33
   4  -2  -3   87.42    7.09
   4   2  -3   94.61   11.19
  -4  -2   3   78.73   10.95
   4  -2  -2 1490.62   33.68
   4  -2  -2 1317.14   62.06
   4   2  -2 1283.18   60.23
  -4  -2   2 1330.09   47.44
   4  -2  -1  281.37   11.37
   4  -2  -1  297.65   18.35
   4   2  -1  287.28   17.03
  -4  -2   1  276.87   17.18
  -4  -2   1  285.35   18.02
   4   2   0   98.30    8.44
   4  -2   0  103.52    8.86
   4  -2   0   75.88   11.93
   4  -2   0   99.61    9.08
  -4  -2   0  102.02    8.84
  -4  -2   0  107.04    7.40
   4   2   1  204.73   15.32
   4   2   1  215.89   20.60
   4  -2   1  221.87   12.33
   4  -2   1  218.16   17.72
   4  -2   1  211.53   15.11
  -4  -2  -1  212.32   12.06
  -4  -2  -1  199.61   12.78
   4   2   2  717.54   24.92
   4   2   2  660.01   46.37
   4  -2   2  725.21   31.12
   4  -2   2  809.44   34.86
   4  -2   2  734.70   49.24
  -4  -2  -2  733.74   53.56
  -4  -2  -2  941.13   34.50
   4  -2   3  996.85   33.12
   4   2   3  864.73   47.77
   4   2   3  955.48   27.28
   4  -2   3  870.69   67.42
  -4  -2  -3  888.52   46.88
  -4  -2  -3  891.63   27.86
   4  -2   4  127.48   25.97
   4   2   4  141.54   25.95
  -4  -2  -4  134.78   26.37
   4  -2   5   59.10   12.35
   4   2   5   39.58   19.32
   4  -2   6    4.86    8.96
   4   2   6    5.82    9.12
   4  -2   7  153.52   27.72
   4   2   7  137.05   43.94
   4   3 -10   63.07   19.03
   4  -3 -10   34.14   17.77
   4  -3 -10  111.29   35.42
  -4  -3  10   78.46   18.12
  -4  -3  10   77.40   21.69
  -4   3  10   48.14   21.56
   4   3  -9  268.36   36.92
   4  -3  -9  204.37   45.07
   4  -3  -9  268.31   34.48
  -4   3   9  288.41   36.80
  -4  -3   9  293.23   37.61
   4   3  -8   -3.18    4.75
   4  -3  -8    4.33    6.04
   4  -3  -8    5.25    2.77
  -4  -3   8   -0.39    4.32
  -4   3   8    0.40    3.84
   4   3  -7    5.63    4.32
   4  -3  -7    8.11    3.53
   4  -3  -7    4.33    4.04
  -4  -3   7    2.16    4.15
  -4   3   7   -0.82    1.91
   4   3  -6   88.46   20.57
   4  -3  -6  196.05   21.36
  -4  -3   6   91.15   19.67
  -4   3   6  165.04    8.57
   4   3  -5  265.96   16.94
   4  -3  -5  256.46   25.79
  -4  -3   5  274.68   25.72
   4   3  -4    2.95    1.68
   4  -3  -4   -1.35    1.74
  -4  -3   4    1.90    2.76
   4  -3  -3  103.86   12.97
   4   3  -3  109.20   13.00
  -4  -3   3   94.91   13.28
   4  -3  -2  528.67   42.36
   4  -3  -2  512.77   13.97
   4  -3  -2  527.81   21.74
   4   3  -2  522.47   31.88
  -4  -3   2  536.36   30.80
   4  -3  -1   56.14    6.40
   4  -3  -1   46.91   10.47
   4   3  -1   50.59    8.43
  -4  -3   1   57.46    8.96
  -4  -3   1   59.61    5.07
   4   3   0 1042.69   46.53
   4  -3   0 1036.26   56.32
   4  -3   0 1047.26   53.35
  -4  -3   0 1033.29   56.18
  -4  -3   0 1036.49   45.84
   4  -3   1  665.71   37.65
   4   3   1  649.33   30.52
   4  -3   1  646.11   31.51
  -4  -3  -1  667.19   30.04
  -4  -3  -1  651.12   45.26
   4  -3   2    8.30    3.03
   4   3   2   13.57    3.88
   4   3   2   10.38    4.66
   4  -3   2    7.88    5.42
   4  -3   2    7.90    2.79
  -4  -3  -2   15.26    6.18
  -4  -3  -2    7.98    4.04
   4  -3   3   -0.80    1.46
   4  -3   3   -0.44    1.34
   4  -3   3    0.06    2.70
   4   3   3    1.21    1.33
   4   3   3   -2.55    2.69
  -4  -3  -3    0.53    1.04
  -4  -3  -3   -1.60    1.87
   4  -3   4  376.88   14.70
   4  -3   4  300.06   42.10
   4   3   4  244.09   24.35
  -4  -3  -4  318.33   42.13
  -4  -3  -4  285.27   11.37
   4  -3   5   28.91   15.22
   4   3   5   30.19   13.80
  -4  -3  -5   30.44   15.37
   4  -3   6  140.84   37.04
   4   3   6  120.67   32.04
   4   4 -10   88.59   22.72
   4  -4 -10   98.58   27.84
   4  -4 -10   63.29   20.45
  -4  -4  10  114.28   20.89
  -4   4  10   32.84   18.50
   4  -4  -9    0.14    4.97
   4   4  -9    2.05    5.09
   4  -4  -9   19.06    6.56
  -4  -4   9   -4.75    4.88
  -4   4   9    0.71    3.74
   4  -4  -8   36.43   13.83
   4   4  -8   37.81   14.51
   4  -4  -8   54.25   20.21
  -4  -4   8   60.93    8.92
  -4   4   8   37.87    5.57
   4   4  -7  948.42   71.65
   4  -4  -7  991.64   74.03
   4  -4  -7  692.56   84.49
  -4  -4   7  934.67   69.56
   4   4  -6   55.58   13.67
   4  -4  -6   47.07   13.14
   4  -4  -6   47.49   16.77
  -4  -4   6   63.05   13.05
   4   4  -5  513.99   43.78
   4  -4  -5  512.14   53.48
   4  -4  -5  536.87   43.85
  -4  -4   5  542.46   28.80
   4   4  -4    2.88    3.35
   4  -4  -4    1.51    1.97
   4  -4  -4    1.10    4.23
  -4  -4   4    0.66    3.16
   4  -4  -3  117.04   18.44
   4  -4  -3   77.23    3.07
   4   4  -3   78.19   13.18
  -4  -4   3   72.30   13.30
   4  -4  -2   27.78   10.93
   4   4  -2   32.31    7.86
  -4  -4   2   29.31    7.86
   4  -4  -1  397.73   39.19
   4   4  -1  408.70   31.42
  -4  -4   1  653.19   32.23
  -4  -4   1  419.82   22.16
   4   4   0  132.18    9.33
   4  -4   0  125.61   17.07
  -4  -4   0  142.71   14.06
  -4  -4   0  155.40   17.31
   4   4   1   49.83    8.48
   4  -4   1   47.74    7.96
  -4  -4  -1   41.21   11.64
  -4  -4  -1   46.83    7.46
   4   4   2  555.13   46.37
   4  -4   2  730.32   31.61
   4  -4   2  512.91   44.38
  -4  -4  -2  519.87   51.55
  -4  -4  -2  500.30   28.65
   4   4   3  378.70   27.35
   4  -4   3  411.39   41.84
   4  -4   3  359.14   21.07
  -4  -4  -3  401.12   27.29
  -4  -4  -3  418.06   30.01
   4   4   4  607.99   44.87
   4  -4   4  579.58   61.79
   4  -4   4  591.24   32.50
   4  -4   4  578.10   25.80
   4   4   4  574.18   41.29
  -4  -4  -4  608.94   25.26
  -4  -4  -4  600.73   68.35
   4  -4   5   40.31   16.39
   4   4   5   33.30   17.53
  -4  -4  -5   28.62   17.35
   4   4   6    1.61    6.39
   4  -4   6    0.04    3.90
  -4  -4  -6    1.83    6.26
   4   5  -9   40.27   15.97
   4  -5  -9   16.59   15.03
   4  -5  -9   61.54   18.44
  -4  -5   9   37.39   15.37
   4   5  -8  144.89   27.03
   4  -5  -8  143.96   33.88
   4  -5  -8  114.60   26.94
  -4  -5   8  119.98   15.78
   4   5  -7  639.79   61.83
   4  -5  -7  619.50   78.05
   4  -5  -7  661.95   60.44
  -4  -5   7  658.44   60.00
   4  -5  -6   13.12    8.05
   4   5  -6   12.40    8.28
   4  -5  -6   10.10   10.46
  -4  -5   6   15.47    7.92
   4  -5  -5  440.63   18.26
   4  -5  -5  451.62   54.96
   4  -5  -5  435.04   27.00
   4   5  -5  463.53   43.73
  -4  -5   5  426.03   27.03
   4   5  -4    3.11    4.90
   4  -5  -4    6.80    6.31
   4  -5  -4    3.73    1.63
  -4  -5   4    6.72    4.90
   4  -5  -3  773.39   73.42
   4   5  -3  795.77   60.83
  -4  -5   3  971.10   61.10
   4  -5  -2  963.88   71.68
   4   5  -2  982.14   63.52
  -4  -5   2  969.09   62.28
   4   5  -1  766.01   53.70
   4  -5  -1  792.18   55.94
  -4  -5   1  950.79   52.59
   4  -5   0    1.94    2.97
   4   5   0    1.45    3.01
  -4  -5   0    1.57    1.97
  -4  -5   0    0.36    2.79
   4   5   1    3.56    4.60
   4  -5   1    8.98    3.77
  -4  -5  -1    3.53    3.72
  -4  -5  -1    4.96    3.53
   4   5   2  700.60   44.43
   4  -5   2  653.98   47.86
  -4  -5  -2  793.54   40.89
  -4  -5  -2  689.21   65.12
   4  -5   3  146.49   15.68
   4  -5   3  131.13   25.98
   4   5   3  143.84   14.86
  -4  -5  -3  143.60   28.90
  -4  -5  -3  151.09   18.67
   4  -5   4  140.88   14.51
   4   5   4   84.10   23.73
   4  -5   4  127.63   19.00
  -4  -5  -4  203.99   17.16
  -4  -5  -4  145.17   33.32
   4  -5   5   43.19   19.04
  -4  -5  -5   44.24   19.87
   4   5   6   -2.15   18.74
  -4  -5  -6  148.12   18.79
   4   6  -9   14.02   14.95
   4  -6  -9   58.34   14.82
   4  -6  -9   16.14   15.33
  -4  -6   9   14.76   13.82
   4  -6  -8   38.02   16.63
   4   6  -8   54.16   10.91
   4  -6  -8   31.22   20.21
  -4  -6   8   33.57   16.35
   4   6  -7   96.28   26.13
   4  -6  -7  121.07   24.95
   4  -6  -7  123.81   30.26
  -4  -6   7  107.31   24.79
   4  -6  -6   30.65    8.32
   4  -6  -6   44.25    7.48
   4  -6  -6   35.21   10.51
   4   6  -6   32.88   14.54
  -4  -6   6   39.39   13.15
   4  -6  -5  195.68   14.53
   4  -6  -5  200.49   22.43
   4   6  -5  178.37   31.04
  -4  -6   5  170.60   30.15
   4   6  -4  626.63   61.10
   4  -6  -4  698.23   32.11
   4  -6  -4  656.92   70.14
  -4  -6   4  658.82   59.50
   4  -6  -3   28.88   12.50
   4   6  -3   33.62   12.19
  -4  -6   3   43.83   11.72
   4  -6  -2   79.97   17.55
   4   6  -2   85.10   17.18
  -4  -6   2   80.32   16.10
   4  -6  -1  122.95   11.97
   4   6  -1   76.63   20.26
  -4  -6   1  135.14   18.25
   4   6   0  179.86   26.00
   4  -6   0  171.37   13.94
  -4  -6   0  200.31   21.41
  -4  -6   0  159.47   23.81
   4   6   1  284.63   34.50
   4  -6   1  281.31   28.99
  -4  -6  -1  288.86   27.14
  -4  -6  -1  281.67   37.18
   4  -6   2    2.29    3.45
   4   6   2    1.16    3.05
  -4  -6  -2    0.97    2.94
  -4  -6  -2    0.26    2.90
   4  -6   3   43.21   14.70
   4   6   3   45.18   11.01
  -4  -6  -3   51.26   17.49
  -4  -6  -3   46.07   12.71
   4  -6   4  162.78   19.77
   4  -6   4  158.93   34.61
   4   6   4  145.23   32.35
  -4  -6  -4  127.52   23.43
  -4  -6  -4  205.51   24.35
  -4  -6  -5  155.34   41.74
   4  -7  -8  142.20   35.56
   4   7  -8  167.24   37.83
   4  -7  -8  191.37   36.62
  -4  -7   8  158.13   34.88
   4  -7  -7  194.84   31.32
   4   7  -7  116.75   30.84
   4  -7  -7  120.28   28.15
  -4  -7   7   67.29   28.01
   4   7  -6  137.34   31.63
   4  -7  -6  141.62   32.64
   4  -7  -6  149.92   12.93
  -4  -7   6  122.50   29.00
   4   7  -5  342.83   48.57
   4  -7  -5  342.98   26.23
   4  -7  -5  362.01   50.33
  -4  -7   5  385.89   48.78
   4   7  -4  127.65   17.53
   4  -7  -4  138.66   15.15
   4  -7  -4  137.03   28.38
  -4  -7   4  132.33   17.18
   4  -7  -3  182.59   32.61
   4   7  -3  232.02   33.43
  -4  -7   3  209.44   31.00
   4  -7  -2  387.09   44.74
   4   7  -2  416.56   47.29
  -4  -7   2  384.11   43.20
   4   7  -1  944.20   82.80
   4  -7  -1  878.05   49.14
  -4  -7   1  939.94   71.13
   4  -7   0  309.05   24.46
   4   7   0  365.41   45.17
  -4  -7   0  327.13   36.09
  -4  -7   0  377.61   43.95
   4  -7   1  153.95   29.09
   4   7   1  175.19   25.70
  -4  -7  -1  156.64   14.88
  -4  -7  -1  180.04   19.34
   4  -7   2    6.07    5.10
   4   7   2    5.00    4.87
  -4  -7  -2    1.11    6.92
  -4  -7  -2    1.66    4.60
   4  -7   3   60.67   15.67
   4   7   3   50.72   21.18
  -4  -7  -3   76.24   13.65
  -4  -7  -3   62.02   23.32
   4  -7   4  242.36   31.44
   4   7   4  269.47   51.61
  -4  -7  -4  283.15   36.55
  -4  -7  -4  233.78   53.29
  -4  -7  -5   45.12   23.90
   4   8  -7   37.19   15.92
   4  -8  -7   15.65   15.36
   4  -8  -7   21.28    9.04
  -4  -8   7   24.72    8.98
   4  -8  -6  511.52   34.57
   4   8  -6  462.51   72.62
   4  -8  -6  520.09   69.06
  -4  -8   6  515.18   70.16
   4   8  -5   20.95   13.78
   4  -8  -5   22.31    8.06
   4  -8  -5   21.90   13.38
  -4  -8   5   16.94   13.17
   4   8  -4   81.05   15.95
   4  -8  -4   70.23   23.55
   4  -8  -4   84.71   11.56
  -4  -8   4  106.36   24.33
   4   8  -3    1.67    4.80
   4  -8  -3    1.29    4.37
  -4  -8   3    0.04    2.69
   4   8  -2  615.21   48.87
   4  -8  -2  585.54   63.52
  -4  -8   2  601.90   63.45
   4  -8  -1   -0.60    2.69
   4   8  -1   -1.18    5.18
  -4  -8   1    5.06    4.15
   4   8   0   54.52   34.70
   4  -8   0  205.06   22.21
  -4  -8   0  162.57   28.13
  -4  -8   0  166.28   34.07
   4   8   1   52.28   15.31
   4  -8   1   62.22   17.62
  -4  -8  -1   64.33   14.87
  -4  -8  -1    0.15   18.45
   4  -8   2   66.05   17.86
   4   8   2   64.95   16.90
  -4  -8  -2   80.38   16.14
  -4  -8  -2   -2.06   22.79
   4   8   3  113.83   25.19
   4  -8   3  115.18   25.08
  -4  -8  -3  116.52   22.63
  -4  -8  -3  149.62   34.84
   4  -8   4    6.09    6.54
   4   8   4    8.43    8.24
  -4  -8  -4    9.15   10.09
  -4  -8  -4    2.09    5.96
   4   9  -6   12.64   13.71
   4  -9  -6   11.56   11.72
  -4  -9   6    9.74   12.30
   4   9  -5    1.13   12.81
   4  -9  -5   -2.11   10.87
   4  -9  -5   18.74    5.84
  -4  -9   5   -2.15   11.29
   4   9  -4   15.96    9.44
   4  -9  -4   10.15   13.94
   4  -9  -4   23.65    6.94
  -4  -9   4    6.76   13.10
   4  -9  -3   -0.80    8.22
   4   9  -3   15.42    9.14
  -4  -9   3    1.54    7.77
   4  -9  -2  206.65   42.98
   4   9  -2  283.15   50.93
  -4  -9   2  207.12   40.81
   4   9  -1   46.76   13.46
   4  -9  -1    3.38    9.66
  -4  -9   1   24.53    7.92
   4  -9   0   16.28   14.21
   4   9   0   39.84   13.03
  -4  -9   0   21.76   12.11
  -4  -9   0   -0.14   14.51
   4   9   1    3.47    4.19
   4  -9   1   -3.25    4.41
  -4  -9  -1    0.91    4.10
  -4  -9  -1   -0.49    4.97
   4  -9   2   60.75   17.82
   4   9   2   59.11   16.80
  -4  -9  -2   37.10   16.12
  -4  -9  -2    1.17   21.81
   4  -9   3    9.76    8.05
   4   9   3   -0.24    9.19
  -4  -9  -3   14.19   10.60
  -4  -9  -3    2.35    7.28
   4  10  -5   12.60   17.87
   4 -10  -5   12.26   15.51
  -4 -10   5   18.41    9.42
   4  10  -4   90.28   23.01
   4 -10  -4   46.80   31.36
   4 -10  -4   92.20   17.05
  -4 -10   4   75.97   29.69
   4 -10  -3   -1.89   13.83
   4 -10  -3    8.33    4.31
   4  10  -3   41.91   13.66
  -4 -10   3   -0.24   11.21
   4 -10  -2   24.90   38.14
   4  10  -2  164.45   32.86
  -4 -10   2   99.54   30.78
   4 -10  -1    4.19   10.82
   4  10  -1   24.79    9.93
  -4 -10   1    0.74    6.34
  -4 -10   1    5.75    5.82
   4  10   0  145.34   25.67
   4 -10   0   80.57   27.48
  -4 -10   0   76.21   25.39
  -4 -10   0   -2.34   26.05
   4  10   1   29.88    8.83
  -4 -10  -1   15.55   13.94
  -4 -10  -1   -1.29   16.50
   4  10   2    7.67   13.29
   4 -10   2   50.78   13.20
  -4 -10  -2    1.89   11.98
  -4 -10  -2   -1.94   15.69
   4 -11  -2   41.92   19.26
   4  11  -2   85.04   26.67
  -4 -11   2   62.19   26.69
  -5   0  10  509.10   50.52
   5   0  -9  575.09   39.09
  -5   0   9  503.84   41.21
   5   0  -8   77.46   16.10
  -5   0   8   75.54   10.91
  -5   0   8   64.38   10.11
   5   0  -7  310.54   33.09
  -5   0   7  291.43   32.00
   5   0  -6  738.99   54.00
   5   0  -5 2093.41  113.18
  -5   0   5 2084.20  112.89
   5   0  -4 1039.56   43.14
  -5   0   4 1021.85   59.19
   5   0  -3 1347.72   67.57
  -5   0   3 1282.17   43.32
  -5   0   3 1304.04   66.45
   5   0  -2  159.27    9.54
  -5   0   2  143.80   11.39
  -5   0   2  131.14   14.44
   5   0  -1 1614.23   69.95
   5   0  -1 1556.91   61.74
  -5   0   1 1599.05   68.99
  -5   0   1 1562.84   63.24
   5   0   0  864.55   37.92
   5   0   0  809.44   41.18
  -5   0   0  823.97   41.56
  -5   0   0  836.19   35.91
   5   0   1 4434.89  231.30
   5   0   1 4311.11  191.76
  -5   0  -1 4429.86  230.61
   5   0   2  423.58   16.69
   5   0   2  511.54   40.36
   5   0   3   44.47    8.98
   5   0   4  731.48   51.19
   5   0   5  385.13   61.89
   5   0   6  200.97   50.55
   5   1 -10   17.19    9.42
  -5  -1  10    9.75    7.92
  -5   1  10    9.24    6.99
   5  -1  -9   -2.60    4.28
   5   1  -9    5.60    4.77
  -5  -1   9    4.10    4.31
  -5  -1   9    2.76    3.67
  -5   1   9   -0.69    2.94
   5   1  -8   28.50   13.02
   5  -1  -8   29.61   12.42
  -5  -1   8   40.51    7.58
  -5   1   8   38.75    9.47
   5   1  -7    7.70    3.45
   5  -1  -7    7.08    5.24
  -5   1   7    2.03    3.17
  -5  -1   7    4.59    5.27
   5  -1  -6  554.40   43.90
   5   1  -6  539.87   43.28
  -5  -1   6  558.47   47.08
  -5   1   6  548.49   21.24
   5   1  -5  242.99   15.63
   5  -1  -5  239.62   24.67
  -5  -1   5  233.90   16.59
  -5   1   5  227.59    7.47
   5  -1  -4    9.05    3.39
   5   1  -4    9.10    3.14
  -5   1   4   10.72    3.06
  -5  -1   4    7.53    5.42
   5   1  -3   92.36    7.26
   5  -1  -3  104.25   12.24
  -5   1   3   73.65    6.99
  -5   1   3   75.84    3.79
  -5  -1   3   41.12   11.48
  -5  -1   3   75.04    6.59
   5   1  -2   70.26    9.12
   5  -1  -2   65.56    9.75
  -5   1   2   59.98    5.76
  -5  -1   2   63.48    8.72
  -5  -1   2   28.74    9.07
   5   1  -1  113.64   11.44
   5  -1  -1  111.14   11.07
   5  -1  -1  117.81    7.85
  -5  -1   1  115.65   11.10
  -5  -1   1   94.84   12.36
   5   1   0  100.99   13.03
   5   1   0  103.53    9.85
   5  -1   0  102.08   10.40
   5  -1   0  131.42   11.48
  -5  -1   0  109.43   10.84
  -5  -1   0  105.65   13.61
   5  -1   1   44.89    5.66
   5  -1   1   40.38    9.08
   5   1   1   39.18    6.39
   5   1   1   39.80    9.48
  -5  -1  -1   40.35    5.50
  -5  -1  -1   35.40    9.43
   5  -1   2  418.42   26.38
   5   1   2  404.57   39.57
   5   1   2  485.67   16.40
   5  -1   2  405.39   39.65
   5  -1   2  401.75   17.60
  -5  -1  -2  384.85   40.64
   5  -1   3  104.38   22.64
   5   1   3  105.94   23.14
  -5  -1  -3  132.33   23.39
   5  -1   4   30.27   13.91
   5   1   4   25.81   13.99
   5  -1   5   48.09   12.53
   5   1   5   37.34   20.65
   5  -1   6   12.87   14.07
   5   1   6   13.40   14.23
   5   2 -10   37.59   25.22
   5  -2 -10   94.71   24.01
  -5  -2  10  118.39   23.61
  -5  -2  10  148.75   23.71
  -5   2  10   95.90   18.53
   5  -2  -9    2.71    7.27
   5   2  -9   10.78    7.68
  -5   2   9    7.20    4.66
  -5  -2   9   11.60    7.44
   5   2  -8  116.65   14.05
   5  -2  -8  117.60   21.50
  -5  -2   8  128.91   21.61
  -5   2   8   90.88   14.48
   5  -2  -7  340.97   38.46
   5   2  -7  352.65   39.48
  -5  -2   7  358.18   39.67
  -5   2   7  345.34   18.99
   5   2  -6   26.51    8.40
   5  -2  -6   21.01    8.39
  -5  -2   6   14.90    5.08
   5   2  -5  207.56   24.47
   5  -2  -5  192.04   15.11
  -5  -2   5  214.82   24.75
   5  -2  -4   19.46    7.04
   5   2  -4   12.59    6.71
  -5  -2   4   14.96    6.71
   5  -2  -3 1043.77   45.06
   5   2  -3 1019.65   42.47
  -5  -2   3 1064.24   60.27
   5  -2  -2    0.29    2.43
   5  -2  -2    0.55    0.93
   5   2  -2    1.39    2.27
  -5  -2   2    1.84    2.25
  -5  -2   2   -0.29    1.62
   5  -2  -1  179.57   11.40
   5   2  -1  190.22   15.77
   5  -2  -1  223.38   17.94
  -5  -2   1  192.19   17.02
  -5  -2   1  181.31   17.23
   5  -2   0  315.03   21.16
   5  -2   0  303.93   19.50
   5   2   0  268.26   18.56
   5  -2   0  293.32   25.84
  -5  -2   0  281.28   20.29
  -5  -2   0  289.91   25.32
   5  -2   1  152.24   15.62
   5  -2   1  154.49   16.50
   5   2   1  129.72   11.10
   5  -2   1  130.54   15.76
   5   2   1  138.31   12.40
  -5  -2  -1  134.74   11.41
  -5  -2  -1  147.23   12.60
   5  -2   2   26.30    8.49
   5  -2   2   22.73    5.53
   5   2   2   20.70    5.14
   5  -2   2   20.44    4.41
   5   2   2   25.67    5.35
  -5  -2  -2   28.28    9.91
  -5  -2  -2   21.45    4.30
   5   2   3 1152.99   37.46
   5  -2   3 1144.85   42.84
   5   2   3 1041.62   82.72
   5  -2   3 1104.09   86.62
  -5  -2  -3 1090.42   93.03
   5  -2   4   36.96   12.54
   5   2   4   30.20   12.87
  -5  -2  -4    0.38   13.20
   5  -2   5   30.04   15.06
   5   2   5   17.69   15.32
   5   2   6  141.88   41.77
   5   3 -10    4.54   11.24
   5  -3 -10    5.84   10.63
   5  -3 -10   31.58    8.57
  -5  -3  10   10.10   10.89
   5  -3  -9   79.54   19.90
   5   3  -9   94.13   13.77
   5  -3  -9   95.74   27.89
  -5   3   9   39.57   13.70
  -5  -3   9   96.23   21.38
   5   3  -8  120.14   21.45
   5  -3  -8  114.91   21.77
  -5  -3   8   50.65   21.02
   5   3  -7   57.39    8.56
   5  -3  -7   35.48   13.86
  -5  -3   7   21.55   14.03
   5   3  -6 1293.06   90.38
   5  -3  -6 1399.62   97.58
  -5  -3   6 1395.99   94.06
   5   3  -5  240.00   26.99
   5  -3  -5  243.96   29.36
  -5  -3   5  222.41   17.34
   5  -3  -4 1355.07   61.51
   5   3  -4 1391.87   81.88
  -5  -3   4 1441.29   82.72
   5  -3  -3  186.16   20.93
   5   3  -3  184.61   12.74
  -5  -3   3  177.41   13.02
   5  -3  -2    2.08    2.94
   5   3  -2    2.55    2.89
   5  -3  -2    0.73    1.36
   5  -3  -2    2.22    2.50
  -5  -3   2    3.53    2.66
  -5  -3   2    0.00    2.86
   5  -3  -1  499.57   29.13
   5   3  -1  529.21   32.80
   5  -3  -1  542.37   34.46
   5  -3  -1  528.11   40.74
  -5  -3   1  499.72   34.30
  -5  -3   1  504.53   33.23
   5  -3   0 1490.25   89.79
   5  -3   0 1489.66   68.51
   5   3   0 1384.03   68.53
   5  -3   0 1542.91   72.27
  -5  -3   0 1456.67   69.47
  -5  -3   0 1449.00   84.09
   5  -3   1    9.39    5.10
   5  -3   1    6.96    3.92
   5   3   1    9.21    3.86
   5  -3   1    8.72    4.51
  -5  -3  -1   10.06    6.11
  -5  -3  -1   10.61    3.83
   5   3   2  341.16   26.37
   5  -3   2  394.32   22.62
   5  -3   2  340.11   36.29
   5  -3   2  330.04   18.82
   5   3   2  350.18   21.79
  -5  -3  -2  372.51   41.83
  -5  -3  -2  363.63   21.20
   5   3   3    9.89    3.55
   5  -3   3   11.03    7.55
   5  -3   3    6.45    2.85
   5   3   3   16.10    8.21
   5  -3   3   10.41    3.35
  -5  -3  -3    7.73    7.88
  -5  -3  -3    6.07    2.83
   5  -3   4  118.88   16.39
   5   3   4  122.63   23.80
  -5  -3  -4    0.46   26.79
   5  -3   5  162.91   32.74
   5   3   5  147.92   29.26
  -5  -3  -5   -0.47   33.43
   5   3   6   93.70   31.74
   5   4 -10   13.79   11.77
   5  -4 -10    7.55   11.04
   5  -4 -10   46.01   16.43
  -5  -4  10    6.91   11.99
   5  -4  -9   44.45   18.13
   5  -4  -9    9.24   12.71
   5   4  -9   38.17   13.04
  -5  -4   9   13.00   12.63
   5   4  -8  142.39   25.79
   5  -4  -8  144.89   31.80
   5  -4  -8   92.40   15.76
  -5  -4   8  129.96   25.63
   5   4  -7   94.56   30.83
   5  -4  -7  130.72   37.14
   5  -4  -7  237.30   19.96
  -5  -4   7  145.81   28.64
   5   4  -6   29.85   12.75
   5  -4  -6   40.44   12.01
   5  -4  -6   28.11   15.29
  -5  -4   6   36.54   11.96
   5   4  -5   54.13   16.42
   5  -4  -5   85.94   16.11
   5  -4  -5   68.77   20.25
  -5  -4   5   70.57   15.48
   5  -4  -4    3.20    4.07
   5  -4  -4    0.87    5.09
   5   4  -4    1.37    4.13
  -5  -4   4    2.59    4.09
   5  -4  -3  327.89   31.32
   5  -4  -3  337.15   39.67
   5   4  -3  343.49   32.48
  -5  -4   3  329.12   32.06
   5  -4  -2  369.19   43.74
   5  -4  -2  365.49   20.12
   5  -4  -2  336.91   12.63
   5   4  -2  384.32   30.93
  -5  -4   2  391.07   30.55
   5  -4  -1   28.58    4.91
   5  -4  -1   28.83    5.00
   5   4  -1   32.47    8.31
   5  -4  -1   37.32   10.56
  -5  -4   1   30.15    7.92
  -5  -4   1   31.25    7.98
   5  -4   0  166.17   11.95
   5  -4   0  177.49   22.31
   5  -4   0  162.41   15.88
   5   4   0  194.51   18.76
  -5  -4   0  167.46   23.65
  -5  -4   0  192.10   17.82
   5  -4   1  228.96   23.14
   5   4   1  207.07   20.09
   5  -4   1  239.91   20.20
   5  -4   1  224.22   20.28
  -5  -4  -1  230.55   19.53
  -5  -4  -1  236.31   20.44
   5  -4   2   19.64    7.89
   5  -4   2   14.03    6.81
   5  -4   2   17.43    5.34
   5   4   2   14.87    5.93
  -5  -4  -2   13.57    9.38
  -5  -4  -2   15.98    5.09
   5  -4   3  384.07   31.51
   5  -4   3  457.70   33.89
   5  -4   3  450.19   52.20
   5   4   3  468.31   25.22
  -5  -4  -3  411.65   32.37
  -5  -4  -3  399.43   56.89
   5  -4   4  181.07   15.39
   5  -4   4  164.58   35.96
   5   4   4  138.48   24.18
   5   4   5   -0.36    3.64
  -5  -4  -5    1.14    3.54
   5  -5  -9  278.48   45.46
   5   5  -9  256.49   47.37
   5  -5  -9  238.44   59.99
  -5  -5   9  303.36   46.92
   5   5  -8   17.64    7.63
   5  -5  -8   37.84   12.58
   5  -5  -8   14.37   17.16
  -5  -5   8   12.61   11.60
   5  -5  -7  686.34   72.07
   5   5  -7  740.15   73.52
   5  -5  -7  761.53  101.14
  -5  -5   7  740.63   70.79
   5   5  -6   54.92   15.75
   5  -5  -6   36.72   13.82
   5  -5  -6   58.35   15.41
  -5  -5   6   44.34   15.09
   5   5  -5   76.65   18.14
   5  -5  -5   80.55   17.14
   5  -5  -5   67.45   15.93
  -5  -5   5   70.52   17.71
   5   5  -4   20.34    8.05
   5  -5  -4   10.46   11.09
   5  -5  -4   11.09    4.76
  -5  -5   4   10.75    7.48
   5   5  -3  485.86   43.29
   5  -5  -3  417.31   54.38
  -5  -5   3  443.24   42.37
   5  -5  -2  979.27   88.53
   5   5  -2  967.37   72.25
  -5  -5   2 1191.77   73.85
   5   5  -1  307.10   31.20
   5  -5  -1  325.18   35.94
  -5  -5   1  319.97   30.71
  -5  -5   1  270.68   29.96
   5   5   0    2.40    3.44
   5  -5   0    2.41    3.66
   5  -5   0    2.68    2.90
  -5  -5   0    2.22    3.33
  -5  -5   0   -3.33    4.17
   5  -5   1   48.44   10.07
   5   5   1   57.03   11.35
   5  -5   1   47.59   11.91
  -5  -5  -1   47.36    9.81
  -5  -5  -1   46.20   10.48
   5   5   2  196.60   27.16
   5  -5   2  237.13   31.53
   5  -5   2  241.84   25.99
  -5  -5  -2  270.99   37.58
  -5  -5  -2  237.59   22.10
   5  -5   3  162.74   16.85
   5   5   3  131.17   21.79
   5  -5   3  151.98   28.12
  -5  -5  -3  153.37   22.38
   5  -5   4   30.80    8.00
   5  -5   4  105.71   17.48
  -5  -5  -4   -0.53   20.24
  -5  -5  -5   19.86   16.17
   5   6  -9  131.25   37.44
   5  -6  -9  165.53   37.42
   5  -6  -9  147.90   26.87
  -5  -6   9  143.24   36.08
   5   6  -8   63.12   24.96
   5  -6  -8   86.49   23.84
   5  -6  -8   88.27   28.83
  -5  -6   8   71.77   23.39
   5   6  -7   -0.15    6.12
   5  -6  -7   -0.77    9.34
   5  -6  -7   32.23   12.45
  -5  -6   7   30.80    9.25
   5   6  -6  154.60   27.93
   5  -6  -6    5.55   27.57
   5  -6  -6  161.18   35.39
  -5  -6   6  177.24   26.83
   5   6  -5  347.39   29.00
   5  -6  -5  277.51   57.16
   5  -6  -5  343.01   27.77
  -5  -6   5  311.29   42.21
   5  -6  -4  167.47    7.99
   5  -6  -4  139.01   34.05
   5   6  -4  151.10   29.05
  -5  -6   4  134.13   27.23
   5  -6  -3  190.96   21.72
   5   6  -3  176.28   30.24
  -5  -6   3  197.08   18.95
   5  -6  -2    5.89    6.61
   5   6  -2    6.29    6.33
  -5  -6   2    6.67    6.21
   5   6  -1  338.99   26.32
   5  -6  -1  340.12   41.56
  -5  -6   1  510.01   40.05
  -5  -6   1  364.02   44.24
   5   6   0  183.79   27.71
   5  -6   0  197.61   24.64
  -5  -6   0  182.78   19.88
  -5  -6   0  219.22   25.50
   5  -6   1  531.96   48.04
   5   6   1  597.27   55.16
  -5  -6  -1  557.45   64.75
  -5  -6  -1  641.47   47.91
   5  -6   2   75.66   23.24
   5   6   2  134.47   18.97
   5  -6   2  115.84   19.94
  -5  -6  -2  112.08   23.25
   5  -6   3   -0.06    3.65
   5  -6   3    2.68    5.56
   5   6   3    3.67    3.47
  -5  -6  -3   -2.36    6.36
  -5  -6  -3    2.04    3.46
  -5  -6  -4  246.05   53.55
   5   7  -8  -17.31    8.15
   5  -7  -8    2.73    8.36
   5  -7  -8   15.87    7.73
  -5  -7   8    5.63    4.64
   5  -7  -7   -4.64   24.36
   5   7  -7   -2.48   25.44
   5  -7  -7  142.74   26.02
  -5  -7   7  151.49   24.04
   5   7  -6  562.16   48.13
   5  -7  -6  540.29   45.20
   5  -7  -6  626.73   83.84
  -5  -7   6  554.86   67.13
   5   7  -5    1.19    7.03
   5  -7  -5    3.80    1.48
   5  -7  -5    6.21    7.26
   5  -7  -5   -1.22    3.97
  -5  -7   5    9.13    6.53
   5  -7  -4  193.70   11.13
   5  -7  -4  229.52   37.86
   5   7  -4  202.70   36.97
  -5  -7   4  208.39   22.91
   5  -7  -3   -0.85    5.93
   5   7  -3    4.57    5.66
  -5  -7   3    2.68    5.52
   5  -7  -2  123.40   27.83
   5   7  -2  159.03   28.55
  -5  -7   2  165.39   28.02
   5   7  -1   18.87    9.95
   5  -7  -1   14.04    8.96
  -5  -7   1   15.92    9.34
  -5  -7   1   14.22   10.55
   5   7   0  455.95   56.09
   5  -7   0  433.27   49.37
  -5  -7   0  475.92   48.75
  -5  -7   0  475.06   57.67
   5   7   1    3.38    3.26
   5  -7   1   -0.08    3.18
  -5  -7  -1   -1.65    2.67
  -5  -7  -1   -1.09    3.69
   5  -7   2    2.17    3.59
   5   7   2   -0.31    3.20
  -5  -7  -2    0.14    3.13
  -5  -7  -2   -1.45    4.93
   5  -7   3    1.85    4.17
   5   7   3    0.52    4.24
  -5  -7  -3    3.45    4.06
  -5  -7  -3   -1.83    5.13
  -5  -7  -4  181.70   49.19
   5  -8  -7    3.46   12.97
   5  -8  -7   20.52   13.56
   5   8  -7   -2.70   14.15
  -5  -8   7   38.05   13.44
   5   8  -6    0.35   10.90
   5  -8  -6   -3.98    6.16
   5  -8  -6   21.83   10.61
  -5  -8   6   37.64   10.14
   5   8  -5    1.27   11.21
   5  -8  -5   11.99   11.01
  -5  -8   5   19.82   11.24
   5  -8  -4    2.46    3.50
   5  -8  -4    4.40    4.40
   5   8  -4    2.86    7.13
  -5  -8   4    2.09    7.08
   5   8  -3  191.65   37.29
   5  -8  -3  190.08   35.80
  -5  -8   3  132.05   35.27
   5  -8  -2  113.68   26.60
   5   8  -2  129.79   29.08
  -5  -8   2   98.50   27.25
   5  -8  -1  109.44   28.91
   5   8  -1  149.64   32.76
  -5  -8   1  117.48   28.31
  -5  -8   1  158.66   32.27
   5  -8   0   15.30   16.36
   5   8   0   44.71   16.90
  -5  -8   0   26.91   13.30
  -5  -8   0   40.17   16.14
   5   8   1   11.30    8.91
   5  -8   1   12.45    9.72
  -5  -8  -1    8.31    7.03
  -5  -8  -1   10.84    8.55
   5  -8   2    5.69    7.11
   5   8   2    9.20    6.79
  -5  -8  -2    3.83    6.64
  -5  -8  -2    0.35    9.79
   5  -8   3  325.13   45.48
   5   8   3  322.05   46.03
  -5  -8  -3  308.37   65.48
  -5  -8  -3  355.90   42.57
   5   9  -6   95.36   25.09
   5  -9  -6   -1.48   14.04
   5  -9  -6   94.55   23.56
  -5  -9   6   93.61   22.78
   5   9  -5   -0.15    6.84
   5  -9  -5   -0.61    6.36
  -5  -9   5    2.27    4.12
   5  -9  -4   27.00   10.90
   5   9  -4   52.16   20.21
  -5  -9   4   22.46   18.12
   5   9  -3   39.17   11.24
   5  -9  -3    0.12    9.45
  -5  -9   3    0.80    6.09
   5  -9  -2    8.02   13.50
   5   9  -2   39.26   14.97
  -5  -9   2    9.77   13.07
   5  -9  -1    2.80    9.96
   5   9  -1    4.62   10.12
  -5  -9   1   10.82    9.35
  -5  -9   1    3.66    8.03
   5  -9   0    4.79   13.26
   5   9   0   17.06    7.24
  -5  -9   0   12.84   13.00
  -5  -9   0   12.03   10.86
   5   9   1    1.14    3.19
   5  -9   1    2.08    5.33
  -5  -9  -1    1.23    6.54
  -5  -9  -1   -1.06    4.91
   5  -9   2   46.57   13.03
   5   9   2   23.13   12.50
  -5  -9  -2   15.55   12.28
  -5  -9  -2   -0.31   10.65
   5 -10  -4   12.02   10.13
   5  10  -4   38.86   18.14
  -5 -10   4   14.60   16.35
   5 -10  -3    8.03    7.62
   5  10  -3  -13.82    8.97
  -5 -10   3    6.47    7.51
   5 -10  -2   -0.96    6.39
   5  10  -2  -13.45    6.40
  -5 -10   2   -0.09    3.60
  -5 -10   2   10.92    5.22
   5  10  -1  176.36   24.45
   5 -10  -1   34.14   45.02
  -5 -10   1  106.17   37.28
  -5 -10   1  165.00   42.47
   5 -10   0   15.43   12.72
   5  10   0   14.27   11.02
  -5 -10   0    0.17   12.92
  -5 -10   0    7.17   10.91
  -6   0  10    1.44    3.78
  -6   0   9  809.02   47.81
   6   0  -8   16.10    6.31
  -6   0   8   23.86    6.90
  -6   0   8   17.68    6.36
   6   0  -7  908.32   73.34
  -6   0   7  819.41   70.11
   6   0  -6  520.17   32.42
   6   0  -5  949.18   63.84
  -6   0   5  824.55   24.85
  -6   0   5  856.19   43.16
   6   0  -4  285.00   28.07
  -6   0   4  266.78   27.70
  -6   0   4  253.13   13.33
   6   0  -3 2210.71  116.61
  -6   0   3 2092.10   84.40
  -6   0   3 2123.93   89.53
   6   0  -2  521.15   36.04
  -6   0   2  501.18   34.89
  -6   0   2  482.13   24.59
   6   0  -1  740.88   41.82
   6   0  -1  668.06   26.02
  -6   0   1  671.40   36.29
  -6   0   1  673.20   38.89
   6   0   0  138.57   14.21
   6   0   0  146.57   15.17
  -6   0   0  147.55   17.39
   6   0   1 1444.47   88.55
   6   0   1 1449.43   70.70
  -6   0  -1 1462.76   91.43
   6   0   2 1234.05   49.30
   6   0   2 1385.86   98.75
   6   0   2 1445.97   67.31
   6   0   3   54.41   11.34
   6   0   4  345.34   36.14
   6   0   5   34.66   12.80
   6   1 -10  550.71   64.90
   6  -1 -10  487.46   60.43
  -6  -1  10  446.05   45.64
   6  -1  -9  128.62   26.35
  -6  -1   9  119.33   17.73
  -6   1   9   91.73   16.93
  -6  -1   9  142.81   25.68
   6  -1  -8  203.90   35.33
   6   1  -8  264.05   36.75
  -6   1   8  216.37   13.32
  -6  -1   8  256.85   22.56
   6   1  -7  437.89   47.74
   6  -1  -7  398.41   29.33
  -6  -1   7  418.92   45.35
  -6   1   7  398.50   16.67
   6   1  -6 1489.74  101.51
   6  -1  -6 1543.98  103.43
  -6  -1   6 1548.64  103.65
   6  -1  -5   93.87   11.11
   6   1  -5  108.20   17.22
  -6  -1   5   71.55   18.42
   6  -1  -4    5.76    5.07
   6   1  -4    7.91    3.09
  -6   1   4    4.90    3.02
  -6  -1   4    4.86    2.46
  -6  -1   4    6.12    5.39
   6  -1  -3   19.24    5.98
   6   1  -3   18.75    5.77
  -6   1   3   13.58    2.66
  -6  -1   3   16.17    4.62
  -6   1   3   -1.45    3.52
  -6  -1   3   11.37    6.23
   6  -1  -2    0.38    2.06
  -6  -1   2    3.24    1.56
  -6  -1   2    1.05    2.17
   6   1  -1    3.49    4.00
   6  -1  -1    6.53    2.81
   6  -1  -1    6.67    4.15
  -6  -1   1   10.63    4.03
  -6  -1   1    4.78    4.05
   6  -1   0 1032.29   60.99
   6   1   0 1072.10   49.07
   6   1   0 1375.69   55.99
   6  -1   0 1141.02   57.16
  -6  -1   0 1113.44   55.84
  -6  -1   0 1080.14   69.12
   6   1   1  321.21   31.96
   6  -1   1  364.78   29.84
   6  -1   1  345.14   34.03
  -6  -1  -1  364.27   35.13
  -6  -1  -1  359.48   21.08
   6   1   2    0.03    2.11
   6  -1   2    2.66    4.03
   6  -1   2    2.57    2.81
   6  -1   2    1.29    1.53
   6   1   2   -1.60    4.10
  -6  -1  -2    0.78    4.24
   6   1   3   13.81    6.54
   6  -1   3   17.67    6.60
   6  -1   4  206.13   26.90
   6   1   4  218.52   26.97
   6  -1   5   83.61   30.77
   6   1   5   80.52   18.80
   6  -2 -10  585.57   53.70
   6   2 -10  506.23   54.39
  -6  -2  10  208.23   51.13
  -6  -2  10  166.79   41.35
   6   2  -9   17.70   18.41
   6  -2  -9   68.53   17.77
  -6  -2   9   63.18   17.83
   6   2  -8    1.18    3.95
   6  -2  -8   -2.12    3.85
  -6  -2   8   -0.00    3.88
   6   2  -7  109.95   22.10
   6  -2  -7   99.55   21.26
  -6  -2   7   88.50   14.01
   6   2  -6   96.29   12.38
  -6  -2   6   73.24   20.13
   6  -2  -5 1624.67  107.11
   6   2  -5 1634.90  105.00
  -6  -2   5 1516.49   75.02
   6  -2  -4  400.52   37.47
   6   2  -4  379.73   37.22
  -6  -2   4  382.37   36.63
   6  -2  -3    6.94    3.13
   6   2  -3    8.25    3.10
  -6  -2   3    4.43    3.10
  -6  -2   3    4.52    4.98
   6  -2  -2   26.78    3.82
   6   2  -2   37.13    8.17
   6  -2  -2   39.39    5.46
  -6  -2   2   23.53    8.53
  -6  -2   2   34.66    7.26
   6   2  -1  123.25   13.65
   6  -2  -1  103.13   14.18
   6  -2  -1  132.66   15.11
  -6  -2   1  108.44   15.53
  -6  -2   1   90.35   14.56
   6   2   0 1498.70   72.89
   6  -2   0 1543.09   79.36
   6  -2   0 1499.07   94.01
   6  -2   0 1650.90   82.40
  -6  -2   0 1626.61   81.70
  -6  -2   0 1493.07   93.75
   6  -2   1  198.19   22.82
   6   2   1  185.60   16.08
   6   2   1  205.35   17.75
   6  -2   1  204.99   24.24
   6  -2   1  203.68   17.27
  -6  -2  -1  196.58   16.46
  -6  -2  -1  193.98   17.95
   6   2   2   64.91   12.65
   6  -2   2  125.61   20.77
   6  -2   2  114.44   10.45
   6  -2   2   75.68   13.53
   6   2   2   77.70   23.03
  -6  -2  -2  101.98   21.86
  -6  -2  -2  125.43    9.79
   6  -2   3    3.59    3.56
   6  -2   3    0.13    0.93
   6   2   3   -3.12    3.33
   6   2   3   -0.12    1.05
  -6  -2  -3    0.67    3.75
   6  -2   4   66.68   16.05
   6   2   4   84.07   14.65
   6   2   5   17.64   14.16
   6  -3 -10   -0.48    7.06
   6   3 -10   -0.96    4.69
   6  -3 -10   21.73    9.95
  -6  -3  10    6.34    7.09
   6   3  -9   35.15   25.29
   6  -3  -9  102.22   24.15
  -6  -3   9  125.96   25.93
   6   3  -8  360.19   32.14
   6  -3  -8  389.13   50.45
  -6  -3   8  399.63   53.04
   6  -3  -7  309.26   41.55
   6   3  -7  283.95   40.27
  -6  -3   7  291.11   25.83
   6   3  -6    3.58    5.63
   6  -3  -6    5.80    3.64
  -6  -3   6   -0.18    5.90
   6  -3  -5    3.50    5.35
   6   3  -5    1.99    4.91
  -6  -3   5    3.53    5.10
   6  -3  -4 1464.93   70.79
   6   3  -4 1298.84   88.55
  -6  -3   4 1329.92   90.69
   6  -3  -3   15.54    7.70
   6   3  -3   12.06    7.00
  -6  -3   3   13.49    7.16
  -6  -3   3   15.56    5.71
   6  -3  -2   45.21    9.39
   6  -3  -2   63.61   12.18
   6   3  -2   51.32   10.51
   6  -3  -2   36.72    6.05
  -6  -3   2   47.11   11.13
  -6  -3   2   62.54    9.77
   6  -3  -1   46.09   11.00
   6  -3  -1   38.63    9.26
   6   3  -1   43.14    9.75
   6  -3  -1   37.35   12.56
  -6  -3   1   53.09   10.09
  -6  -3   1   47.50   10.96
   6  -3   0   32.79    7.76
   6  -3   0   35.74   11.72
   6  -3   0   31.07   11.15
   6   3   0   29.45    7.93
  -6  -3   0   31.78    8.32
  -6  -3   0   25.05   10.78
   6  -3   1  274.87   35.93
   6  -3   1  273.22   24.38
   6  -3   1  304.04   30.45
   6   3   1  306.34   23.28
  -6  -3  -1  290.57   23.45
  -6  -3  -1  276.62   37.98
   6  -3   2   75.88   13.16
   6   3   2   -2.47    9.49
   6   3   2   58.58    7.79
   6  -3   2   27.16   10.57
   6  -3   2   22.48    6.46
  -6  -3  -2   73.59   10.28
  -6  -3  -2   65.58   15.53
   6  -3   3  132.24   29.95
   6  -3   3  164.12   16.18
   6   3   3  155.75   14.04
   6   3   3  140.25   21.34
   6  -3   3  130.24   12.70
  -6  -3  -3  162.99   10.64
  -6  -3  -3   -3.28   32.61
   6  -3   4    3.64    5.99
   6   3   4   -0.50    4.12
  -6  -3  -4    3.05    6.57
   6   3   5    4.79   10.51
   6   4 -10   51.91   24.82
   6  -4 -10   59.95   23.38
   6  -4 -10   74.82   34.20
  -6  -4  10   72.38   25.20
   6   4  -9   68.73   20.26
   6  -4  -9   30.39   20.24
   6  -4  -9   62.26   15.73
  -6  -4   9   32.70   21.01
   6  -4  -8   33.19   18.70
   6  -4  -8   -1.88   14.76
   6   4  -8   34.05   15.39
  -6  -4   8   56.08   14.69
   6   4  -7   16.90    6.72
   6  -4  -7   14.19   14.23
   6  -4  -7    0.92   10.27
  -6  -4   7   19.01    6.56
   6   4  -6   65.93   18.15
   6  -4  -6   63.89   18.82
   6  -4  -6   59.04   24.42
  -6  -4   6   52.33   17.56
   6  -4  -5 1484.35  107.23
   6  -4  -5 1274.12  134.92
   6   4  -5 1474.28  107.95
  -6  -4   5 1453.18  105.50
   6  -4  -4  268.37   34.18
   6  -4  -4  212.73   45.42
   6   4  -4  270.27   21.80
  -6  -4   4  271.30   33.41
   6  -4  -3  129.93   33.31
   6  -4  -3  267.85   27.74
   6   4  -3  204.49   26.82
  -6  -4   3  187.17   16.85
   6  -4  -2   67.95    8.82
   6  -4  -2  105.30   16.52
   6  -4  -2   86.01   22.74
   6   4  -2   94.60   16.08
  -6  -4   2   99.16   15.92
  -6  -4   2   85.45   13.90
   6  -4  -1   27.47    6.28
   6  -4  -1   39.17    9.72
   6  -4  -1    3.98   13.22
   6   4  -1   37.02    5.81
  -6  -4   1   31.43    5.91
  -6  -4   1   22.02   10.64
   6  -4   0  954.56   71.10
   6  -4   0 1016.41   63.96
   6  -4   0  994.10   58.90
   6   4   0  920.78   61.95
  -6  -4   0  956.05   76.99
  -6  -4   0  972.47   61.48
   6  -4   1   60.12   12.14
   6   4   1   64.83   15.45
   6  -4   1   48.35   11.90
   6  -4   1   71.56   14.41
  -6  -4  -1   60.84   11.00
  -6  -4  -1   67.96   11.61
   6  -4   2    3.63    6.29
   6  -4   2    8.31    7.08
   6   4   2    8.88    4.96
   6  -4   2    5.26    4.09
  -6  -4  -2    8.19    5.90
  -6  -4  -2    9.03    8.37
   6  -4   3    2.11    5.76
   6  -4   3   17.76    6.44
   6   4   3   16.42    4.52
  -6  -4  -3   -3.05   11.59
  -6  -4  -3   13.88    4.88
  -6  -4  -4   -1.30    6.99
   6  -5  -9   23.82   16.31
   6   5  -9   10.23   11.85
   6  -5  -9   21.50   11.26
  -6  -5   9   -2.84   11.33
   6   5  -8   -1.38   14.74
   6  -5  -8    1.67   15.35
   6  -5  -8   65.51   20.65
  -6  -5   8   51.37   14.90
   6   5  -7   -1.05   26.22
   6  -5  -7  150.51   36.17
   6  -5  -7    4.96   27.09
  -6  -5   7  148.67   15.72
   6   5  -6  930.36   89.72
   6  -5  -6  959.66   60.53
   6  -5  -6  887.19  122.56
  -6  -5   6  936.19   87.10
   6  -5  -5   97.36   21.27
   6  -5  -5   90.35   29.96
   6   5  -5   73.04   21.50
  -6  -5   5   76.83   20.90
   6  -5  -4    6.98    4.28
   6  -5  -4    5.04    6.05
   6   5  -4    5.88    6.83
  -6  -5   4    7.72    6.92
   6  -5  -3  146.71   37.78
   6  -5  -3  155.32   27.33
   6   5  -3  154.62   27.27
  -6  -5   3  181.34   17.20
   6  -5  -2  270.59   32.57
   6  -5  -2  278.23   26.54
   6   5  -2  290.30   33.58
   6  -5  -2  264.22   14.70
  -6  -5   2  221.71   29.42
  -6  -5   2  268.00   32.95
   6  -5  -1  221.97   19.02
   6  -5  -1  214.67   33.95
   6   5  -1  239.54   29.21
   6  -5  -1  237.33   28.69
  -6  -5   1  219.31   31.30
  -6  -5   1  255.42   28.99
   6  -5   0  371.43   39.06
   6  -5   0  348.43   32.94
   6   5   0  400.99   37.50
   6  -5   0  379.25   36.52
  -6  -5   0  416.86   37.16
  -6  -5   0  351.32   47.02
   6   5   1  198.53   25.75
   6  -5   1  208.72   27.38
   6  -5   1  178.21   22.43
   6  -5   1  218.08   24.92
  -6  -5  -1  171.37   36.17
  -6  -5  -1  202.36   24.12
   6  -5   2    1.63    3.49
   6  -5   2   -5.04    3.18
   6   5   2    2.10    3.77
   6  -5   2    4.06    4.50
  -6  -5  -2    2.32    5.54
  -6  -5  -2    3.51    3.06
   6  -5   3  218.51   22.42
   6   5   3  122.30   25.71
  -6  -5  -3    1.44   43.30
  -6  -5  -3  226.66   20.87
  -6  -5  -4    0.99    4.15
   6   6  -9  298.33   60.53
   6  -6  -9  310.80   76.05
   6  -6  -9  331.50   58.26
  -6  -6   9  313.86   37.83
   6  -6  -8    0.54    5.47
   6   6  -8   -1.00    5.39
   6  -6  -8   -2.21    4.11
  -6  -6   8    1.99    5.08
   6   6  -7   -0.99   38.66
   6  -6  -7  203.96   23.80
   6  -6  -7  242.29   49.09
  -6  -6   7  217.83   36.83
   6   6  -6    0.02   20.70
   6  -6  -6  133.97   26.63
   6  -6  -6   -2.46   20.55
  -6  -6   6  119.61   20.11
   6  -6  -5   10.39    9.43
   6  -6  -5    9.22    7.48
   6   6  -5    8.55    9.41
  -6  -6   5   11.66    9.26
   6  -6  -4   16.78    9.44
   6  -6  -4   11.44   12.45
   6   6  -4    9.22    9.91
  -6  -6   4   13.41    9.78
   6  -6  -3  606.29   24.22
   6  -6  -3  605.50   72.73
   6  -6  -3  599.59   40.82
   6   6  -3  607.74   64.02
  -6  -6   3  571.32   60.18
   6  -6  -2  109.92   15.93
   6  -6  -2  152.16   11.48
   6  -6  -2  122.52   30.37
   6   6  -2  138.36   26.33
  -6  -6   2  141.01   26.89
  -6  -6   2  133.60   24.78
   6  -6  -1  102.68   23.52
   6  -6  -1  125.92   14.24
   6   6  -1  101.35   22.87
  -6  -6   1  109.21   21.26
  -6  -6   1   94.32   24.36
   6  -6   0   12.30    6.82
   6  -6   0    9.03    4.19
   6  -6   0    0.56    5.62
   6   6   0    9.82    7.27
  -6  -6   0   12.21    6.64
  -6  -6   0    7.62    8.78
   6  -6   1  275.34   32.08
   6   6   1  279.02   37.48
   6  -6   1  278.70   20.71
   6  -6   1  278.06   32.74
  -6  -6  -1   -5.06   46.68
  -6  -6  -1  301.51   32.68
   6   6   2  357.51   37.07
   6  -6   2  320.42   35.59
   6  -6   2  324.70   44.31
   6  -6   2  301.52   38.65
  -6  -6  -2  330.84   35.93
  -6  -6  -2  328.15   35.74
   6  -6   3    2.69    5.07
   6  -6   3    1.25    3.82
   6   6   3    0.21    3.57
  -6  -6  -3    1.96    3.61
  -6  -6  -3    1.00    7.22
   6   7  -8  551.41   83.51
   6  -7  -8  517.04   78.55
   6  -7  -8  459.55   94.47
  -6  -7   8  487.91   77.76
   6   7  -7   -1.96   20.76
   6  -7  -7   -5.64   20.03
   6  -7  -7   73.69   14.64
  -6  -7   7   60.01   19.71
   6  -7  -6   58.71   12.95
   6   7  -6   -0.34   18.20
   6  -7  -6   -2.76   17.54
  -6  -7   6   48.53   17.11
   6  -7  -5   -2.42    5.15
   6  -7  -5    1.94    6.25
   6   7  -5    1.03    5.48
  -6  -7   5   -2.44    5.16
   6  -7  -4  177.29   22.35
   6  -7  -4  187.96   43.53
   6   7  -4  179.44   23.79
  -6  -7   4  184.26   21.85
   6  -7  -3  105.56    8.56
   6  -7  -3   89.21   27.40
   6   7  -3   85.40   26.67
  -6  -7   3   91.87   24.92
   6   7  -2  100.39   16.53
   6  -7  -2   79.63   27.46
  -6  -7   2  129.52   27.49
  -6  -7   2  140.93   25.22
   6  -7  -1  284.84   29.26
   6  -7  -1  284.08   44.25
   6   7  -1  325.45   46.76
  -6  -7   1  293.94   48.05
  -6  -7   1  465.74   45.18
   6  -7   0  129.64   20.36
   6   7   0  126.48   28.49
   6  -7   0  110.66   23.68
  -6  -7   0  110.57   24.20
  -6  -7   0  110.61   19.80
   6  -7   1   -1.51    2.75
   6  -7   1    4.57    4.53
   6  -7   1   -1.62    5.25
   6   7   1    2.16    5.40
  -6  -7  -1    5.40    6.32
  -6  -7  -1    4.33    4.36
   6  -7   2    6.28    4.31
   6  -7   2    3.64    7.55
   6   7   2   11.42    6.87
  -6  -7  -2    3.16   10.69
  -6  -7  -2    8.97    6.73
   6  -7   3  249.18   35.36
   6   7   3  276.18   35.49
  -6  -7  -3  282.77   34.20
  -6  -7  -3    1.25   60.10
   6   8  -7   -2.98   20.76
   6  -8  -7   -4.32   12.30
   6  -8  -7   62.66   13.20
  -6  -8   7   80.52   19.49
   6  -8  -6   -0.55   11.68
   6  -8  -6   23.52   12.77
   6   8  -6   -0.47   12.58
  -6  -8   6   19.24   11.88
   6  -8  -5  100.80   21.72
   6  -8  -5   -4.68   12.57
   6   8  -5   -0.94   21.31
  -6  -8   5  132.50   19.39
   6  -8  -4   -1.52    8.47
   6  -8  -4   23.39   13.97
   6   8  -4   31.55    8.96
  -6  -8   4   35.84   13.48
   6  -8  -3   14.25    8.69
   6   8  -3   53.20   14.88
  -6  -8   3   11.47   14.24
   6  -8  -2   71.60   23.77
   6   8  -2   94.18   26.52
  -6  -8   2   61.32   25.02
  -6  -8   2   97.01   26.45
   6   8  -1   18.44   10.29
   6  -8  -1   11.57    8.52
  -6  -8   1    4.20    8.86
  -6  -8   1    4.63    5.58
   6   8   0  355.04   59.12
   6  -8   0  314.54   49.51
  -6  -8   0  343.79   48.83
  -6  -8   0  307.40   60.89
   6  -8   1   54.74   24.85
   6   8   1   86.85   22.96
  -6  -8  -1   77.00   22.02
  -6  -8  -1   82.20   18.97
   6  -8   2   24.44   13.75
   6  -8   2   20.12    8.33
   6   8   2   45.89   13.31
  -6  -8  -2    2.00   20.27
  -6  -8  -2   37.36   13.19
   6  -9  -5    6.19   10.15
   6  -9  -5    0.42    6.08
   6   9  -5   10.68   10.87
  -6  -9   5   11.66    9.78
   6   9  -4   44.15   13.10
   6  -9  -4   19.87   19.10
  -6  -9   4   23.89   20.15
   6   9  -3   56.24   12.81
   6  -9  -3    2.42    6.64
  -6  -9   3    1.67    7.04
   6   9  -2   -9.87    7.89
   6  -9  -2    3.83    7.06
  -6  -9   2    3.62    6.95
  -6  -9   2    8.21    7.53
   6  -9  -1   -3.19    5.40
   6   9  -1    5.03    6.40
  -6  -9   1    1.48    5.45
  -6  -9   1    0.21    5.42
   6  -9   0   59.39   35.67
   6   9   0  125.13   31.55
  -6  -9   0  122.13   37.26
  -6  -9   0  115.14   30.48
   7   0  -8   -0.61   14.09
  -7   0   8  130.62   10.92
  -7   0   7  619.67   42.24
   7   0  -6 1301.72  101.31
  -7   0   6 1126.25   94.62
  -7   0   6 1287.80   40.65
   7   0  -5   12.07    4.43
  -7   0   5    6.89    2.67
   7   0  -4 2050.26   95.49
  -7   0   4 1903.65  121.45
  -7   0   4 1860.32   66.80
   7   0  -3  138.86   14.41
  -7   0   3  233.20   21.72
  -7   0   3  140.67   12.27
   7   0  -2   23.58    9.14
  -7   0   2   24.80    6.23
  -7   0   2   31.41    5.37
   7   0  -1   -0.29    1.36
  -7   0   1    0.69    1.43
   7   0   0 1543.14   81.15
   7   0   0 1759.03  100.12
  -7   0   0 1487.15   97.67
   7   0   1  209.74   26.15
   7   0   1  192.86   21.25
   7   0   2  287.46   22.24
   7   0   2  284.58   41.90
   7   0   2  305.11   24.48
   7   0   3    3.73    7.33
   7   0   4  100.12   32.31
   7  -1 -10   47.72   25.04
  -7  -1  10   86.98   15.80
   7  -1  -9   -0.65    5.04
   7   1  -8    5.82    5.09
   7  -1  -8   -3.88    4.93
   7   1  -7  338.21   50.09
   7  -1  -7  403.56   48.81
   7  -1  -6  297.80   31.15
   7   1  -6  114.78   31.39
  -7  -1   6  126.16   29.99
   7  -1  -5   20.14    8.78
   7   1  -5   18.21    8.50
  -7  -1   5   11.60    4.47
  -7  -1   5   14.06    5.29
   7  -1  -4  118.00   22.49
   7   1  -4  129.22   21.76
  -7  -1   4  144.79   13.76
  -7  -1   4  120.76   11.52
   7  -1  -3   67.81   15.81
   7   1  -3  148.00   15.88
  -7  -1   3   72.23    9.75
  -7  -1   3   50.80   10.17
   7   1  -2    4.24    3.80
   7  -1  -2    1.76    3.88
  -7  -1   2    2.08    3.13
  -7  -1   2    0.50    3.81
   7   1  -1   12.76    5.60
   7  -1  -1    7.40    4.88
   7  -1  -1    9.15    5.81
  -7  -1   1    7.38    7.97
  -7  -1   1   15.44    5.75
   7  -1   0   -0.37    3.60
   7   1   0    3.39    2.94
   7   1   0    0.56    2.57
  -7  -1   0    5.46    4.08
  -7  -1   0    3.19    3.10
   7  -1   1  161.50   13.68
   7  -1   1   39.30   17.07
   7  -1   1  154.30   21.31
   7   1   1  118.20   23.78
  -7  -1  -1  115.50   23.69
   7  -1   2    0.47    2.17
   7  -1   2    0.04    1.59
   7   1   2   -1.44    1.80
   7   1   2    1.11    3.05
   7  -1   2   -4.25    3.33
  -7  -1  -2    2.78    2.20
   7  -1   3   34.75   10.72
   7   1   3   37.55   15.81
   7  -1   4   11.30    7.96
   7   1   4   12.50   11.54
   7   2 -10  110.81   46.37
   7  -2 -10  240.55   45.54
  -7  -2  10  291.36   45.95
   7   2  -9   52.70   19.36
   7  -2  -9    5.29   18.88
  -7  -2   9   74.27   18.94
   7   2  -8   53.58   17.35
   7  -2  -8    4.38   16.55
  -7  -2   8   45.03   10.20
   7   2  -7    2.17    6.94
   7  -2  -7    0.87    6.74
  -7  -2   7    9.42    6.67
   7  -2  -6  207.80   35.67
   7   2  -6  227.55   23.11
  -7  -2   6  226.89   23.55
   7  -2  -5   86.23   21.05
   7   2  -5   83.13   20.79
  -7  -2   5   92.45    7.18
  -7  -2   5   62.95   21.26
   7  -2  -4   32.79    7.37
   7   2  -4   29.40    7.04
  -7  -2   4   28.25    6.70
  -7  -2   4   19.44   11.77
   7  -2  -3    6.95    3.82
   7   2  -3    7.20    5.85
  -7  -2   3    2.50    6.17
  -7  -2   3    7.48    4.18
   7  -2  -2 1022.79   69.93
   7   2  -2  907.33   63.02
  -7  -2   2  940.93   59.67
  -7  -2   2  970.88   69.56
   7  -2  -1  425.26   36.85
   7  -2  -1  394.95   27.36
   7   2  -1  404.01   33.27
  -7  -2   1  461.74   38.38
  -7  -2   1  408.80   38.99
   7  -2   0    6.72    7.00
   7   2   0   10.55    5.45
   7  -2   0   15.31    5.93
   7  -2   0   12.34    6.28
  -7  -2   0   14.87    7.74
  -7  -2   0   12.91    7.72
   7  -2   1  121.63   20.85
   7   2   1  123.57   18.34
   7  -2   1  124.80   17.97
   7  -2   1   56.92   14.61
  -7  -2  -1  120.16   23.04
  -7  -2  -1  128.99   14.25
   7  -2   2    9.10    7.87
   7   2   2   24.39    7.19
   7   2   2   47.05    8.18
   7  -2   2   15.10    5.91
   7  -2   2   33.72   11.77
  -7  -2  -2    0.74   12.91
   7  -2   3   51.53   18.56
   7   2   3   67.08   20.06
  -7  -2  -3    2.20   19.86
   7  -2   4   49.56   21.99
   7   2   4   34.04   23.41
   7   3 -10   17.14   34.68
   7  -3 -10  139.27   28.27
   7  -3 -10  135.14   32.60
  -7  -3  10  119.66   32.58
   7   3  -9   61.28   11.92
   7  -3  -9   -1.03   18.96
  -7  -3   9   29.30   18.81
   7   3  -8   77.16   21.41
   7  -3  -8   -1.81   21.48
  -7  -3   8   82.54   14.29
   7   3  -7   41.18   13.86
   7  -3  -7   25.97    8.98
  -7  -3   7   15.17   13.69
   7  -3  -6   45.93   16.14
   7   3  -6   47.14   15.32
  -7  -3   6   33.34    9.59
   7  -3  -5  747.04   71.58
   7   3  -5  750.38   68.20
  -7  -3   5  733.21   70.03
   7  -3  -4  352.03   29.15
   7   3  -4  354.32   42.71
  -7  -3   4  351.43   44.87
  -7  -3   4  487.08   32.80
   7  -3  -3   92.56   21.93
   7   3  -3  128.66   12.88
  -7  -3   3  121.98   16.72
  -7  -3   3  105.36   22.02
   7  -3  -2  400.76   50.92
   7  -3  -2  335.33   21.58
   7  -3  -2  426.58   39.36
   7   3  -2  457.85   37.80
  -7  -3   2  380.38   39.55
  -7  -3   2  349.33   35.97
   7   3  -1  256.82   26.05
   7  -3  -1  237.36   27.03
   7  -3  -1  167.26   32.38
   7  -3  -1  197.69   19.14
  -7  -3   1  224.54   26.29
  -7  -3   1  223.74   29.37
   7  -3   0   35.62   12.68
   7   3   0   32.69    8.89
   7  -3   0   29.57    9.74
   7  -3   0   31.03    9.05
  -7  -3   0   15.94    9.06
  -7  -3   0   40.32   12.38
   7  -3   1  378.51   36.17
   7   3   1  455.70   35.22
   7  -3   1  494.98   40.95
   7  -3   1  460.82   46.90
  -7  -3  -1  494.03   37.49
  -7  -3  -1  505.62   56.72
   7  -3   2   -1.30    2.29
   7  -3   2   -5.01    4.64
   7  -3   2    2.49    3.57
   7   3   2    4.47    2.70
  -7  -3  -2    4.39    3.40
  -7  -3  -2   -1.31    3.22
   7   3   3   -2.94    4.17
  -7  -3  -3    0.11    4.08
   7   4  -9   -4.93    5.27
   7  -4  -9   -5.81    4.94
   7  -4  -9    9.39    6.31
  -7  -4   9    6.21    5.36
   7  -4  -8    0.05   14.75
   7  -4  -8   24.59   19.74
   7   4  -8   29.09   14.99
  -7  -4   8   34.73   14.24
   7   4  -7   16.85    9.28
   7  -4  -7    1.61    9.18
   7  -4  -7    2.57    7.78
  -7  -4   7   11.91    9.07
   7  -4  -6   44.52   22.99
   7  -4  -6   62.65   19.44
   7   4  -6  101.53   23.21
  -7  -4   6   90.00   14.53
   7  -4  -5   34.56   22.95
   7  -4  -5   48.79   18.52
   7   4  -5   49.60   17.10
  -7  -4   5   56.48   17.42
   7  -4  -4   16.89   15.55
   7  -4  -4   23.68   12.20
   7   4  -4   20.83    7.08
  -7  -4   4   19.70   11.33
  -7  -4   4   25.44    5.61
   7  -4  -3   20.89   14.49
   7  -4  -3   32.84   12.58
   7   4  -3   13.63   11.63
  -7  -4   3   29.25   11.69
  -7  -4   3   36.56    8.92
   7   4  -2   90.37   15.78
   7  -4  -2   76.01   17.29
   7  -4  -2   35.42    9.37
   7  -4  -2   67.24   22.26
  -7  -4   2   76.49   15.62
  -7  -4   2   79.47   15.91
   7  -4  -1  746.60   77.45
   7   4  -1  810.09   62.45
   7  -4  -1  860.37   68.01
   7  -4  -1  754.57   45.12
  -7  -4   1  781.82   64.57
  -7  -4   1  719.92   69.73
   7  -4   0    3.59    3.65
   7  -4   0    1.70    4.51
   7  -4   0   -0.71    4.16
   7   4   0    1.02    3.85
  -7  -4   0    2.32    5.31
  -7  -4   0    1.95    5.00
   7  -4   1    9.84    7.77
   7  -4   1   18.41   10.92
   7  -4   1   31.93    9.46
   7   4   1   29.46    7.71
  -7  -4  -1    0.64    7.99
  -7  -4  -1   28.83    7.86
   7  -4   2    2.79    5.74
   7  -4   2    5.35    5.02
   7   4   2   -1.41    4.59
  -7  -4  -2    2.15    7.77
  -7  -4  -2    9.06    5.55
  -7  -4  -3   -0.38    5.58
   7   5  -9   -0.73   15.88
   7  -5  -9    8.76   15.89
   7  -5  -9   47.26   22.21
  -7  -5   9   25.37    9.51
   7   5  -8    0.10    8.29
   7  -5  -8   55.35   16.18
   7  -5  -8   -2.62    8.04
  -7  -5   8   69.85   13.22
   7   5  -7    2.35   12.50
   7  -5  -7  102.48   24.68
   7  -5  -7    2.43   20.89
  -7  -5   7  149.13   20.12
   7  -5  -6    1.37   13.02
   7  -5  -6   25.57   15.55
   7   5  -6   -0.06   12.34
  -7  -5   6   40.34   11.96
   7  -5  -5   28.21   15.78
   7  -5  -5   32.30   19.30
   7   5  -5   36.02    9.87
  -7  -5   5   38.69   15.34
   7  -5  -4  121.42   30.28
   7  -5  -4   79.14   13.91
   7   5  -4  109.45   21.56
  -7  -5   4   21.82   21.09
   7  -5  -3  405.09   45.42
   7  -5  -3  269.77   62.17
   7   5  -3  339.98   44.96
  -7  -5   3  384.59   43.74
  -7  -5   3  294.75   36.37
   7  -5  -2  284.18   22.95
   7  -5  -2  280.19   38.46
   7  -5  -2  261.84   30.48
   7   5  -2  272.49   37.58
  -7  -5   2  243.17   37.23
  -7  -5   2  285.15   36.90
   7  -5  -1  149.87   20.72
   7   5  -1  142.96   24.04
   7  -5  -1  128.77   24.57
   7  -5  -1  146.91   27.98
  -7  -5   1  129.16   27.40
  -7  -5   1   83.46   23.59
   7  -5   0   22.13    9.70
   7  -5   0   27.70    7.99
   7  -5   0   24.35    9.34
   7   5   0   22.52    9.29
  -7  -5   0   -1.24    7.66
  -7  -5   0   24.39    9.16
   7  -5   1   -0.48    3.71
   7  -5   1    1.00    3.17
   7  -5   1    1.64    3.96
   7   5   1    1.20    3.64
  -7  -5  -1   -0.70    3.48
  -7  -5  -1    1.48    5.05
   7  -5   2   64.64   33.99
   7  -5   2  221.66   23.69
   7   5   2  100.06   27.39
  -7  -5  -2    1.71   41.87
  -7  -5  -2  228.56   22.92
  -7  -5  -3    1.34    7.32
   7   6  -8   -2.13   13.88
   7  -6  -8    3.87   14.46
   7  -6  -8   35.84   17.72
  -7  -6   8   25.22   13.91
   7   6  -7    0.07    8.91
   7  -6  -7  104.81   17.85
   7  -6  -7   -0.27   14.93
   7  -6  -6    1.10    9.31
   7  -6  -6  186.08   19.36
   7   6  -6    1.87    9.53
  -7  -6   6   22.84   14.62
   7  -6  -5    4.52    7.99
   7  -6  -5    2.00    6.25
   7   6  -5    2.03    6.33
  -7  -6   5    0.96    3.88
   7  -6  -4  443.98   60.20
   7  -6  -4  404.38   48.82
   7   6  -4  484.97   59.95
  -7  -6   4  419.99   58.49
   7  -6  -3    6.60    4.55
   7  -6  -3    4.19    1.73
   7  -6  -3    2.56    8.44
   7   6  -3    3.46    4.48
  -7  -6   3   11.97    6.92
  -7  -6   3    3.23    7.12
   7  -6  -2    2.75    2.90
   7   6  -2    4.57    6.58
   7  -6  -2    3.66    7.74
   7  -6  -2    5.21    6.66
  -7  -6   2    4.98    6.63
  -7  -6   2    7.48    6.46
   7  -6  -1  295.03   44.67
   7   6  -1  278.70   43.04
   7  -6  -1  318.41   28.57
   7  -6  -1  309.41   28.20
  -7  -6   1  304.18   41.19
  -7  -6   1  290.72   48.07
   7  -6   0  282.90   37.82
   7   6   0  277.16   40.65
   7  -6   0  282.64   39.53
   7  -6   0  280.38   33.33
  -7  -6   0  274.40   38.13
  -7  -6   0  218.21   49.25
   7  -6   1   30.74   10.50
   7  -6   1   12.27   10.02
   7   6   1   42.20   11.66
  -7  -6  -1    2.53   14.67
  -7  -6  -1    7.51   10.06
   7  -6   2    6.76   13.83
   7  -6   2   35.65   13.54
   7   6   2   61.93   13.21
  -7  -6  -2   61.72   12.57
  -7  -6  -2    2.02   13.56
   7   7  -7    0.31   19.65
   7  -7  -7    1.06   12.00
   7  -7  -7  154.28   22.45
  -7  -7   7   31.40   18.80
   7  -7  -6    0.19    9.09
   7  -7  -6   -2.22    7.60
   7   7  -6   -0.51    7.66
  -7  -7   6    5.44    4.63
   7  -7  -5  124.27   40.78
   7  -7  -5  125.79   22.12
   7   7  -5  121.76   35.37
  -7  -7   5  135.25   34.39
   7  -7  -4   70.72   16.88
   7  -7  -4   43.11   19.56
   7   7  -4   49.88   17.13
  -7  -7   4   49.89   16.57
  -7  -7   4    0.55    9.53
   7  -7  -3  448.70   59.76
   7  -7  -3  403.46   63.60
   7   7  -3  425.55   61.86
  -7  -7   3  399.02   38.70
  -7  -7   3  428.68   59.79
   7  -7  -2   41.38   19.37
   7  -7  -2   58.07   18.09
   7  -7  -2   37.38    8.86
   7   7  -2   77.67   18.81
  -7  -7   2   47.90   18.41
  -7  -7   2   36.80   19.11
   7  -7  -1  210.08   24.91
   7  -7  -1  161.27   37.15
   7   7  -1  200.77   40.16
   7  -7  -1  222.25   37.38
  -7  -7   1  198.93   43.74
  -7  -7   1  207.02   23.67
   7  -7   0   79.71   19.16
   7  -7   0   50.55   17.45
   7   7   0   42.47   21.28
  -7  -7   0   49.84   15.11
  -7  -7   0   49.40   18.60
   7  -7   1  292.44   40.54
   7  -7   1  274.15   45.20
   7   7   1  234.26   47.40
  -7  -7  -1  301.92   39.14
  -7  -7  -1    0.40   56.14
   7  -8  -6    0.98    3.75
   7   8  -6    0.52    6.14
   7  -8  -6   -3.29    6.26
  -7  -8   6   -1.67    5.83
   7   8  -5    7.91   15.31
   7  -8  -5   16.37   15.01
   7  -8  -5   19.60    9.77
  -7  -8   5   15.67    9.29
   7  -8  -4   67.80   19.02
   7  -8  -4   49.13   20.24
   7   8  -4   49.80   20.01
  -7  -8   4   56.46   19.20
  -7  -8   4    1.00   11.61
   7  -8  -3   58.13   12.80
   7  -8  -3   29.33   21.00
   7   8  -3   35.46   21.64
  -7  -8   3   38.61   21.46
  -7  -8   3   39.86   21.23
   7  -8  -2  456.98   68.84
   7  -8  -2  468.28   43.44
   7   8  -2  457.55   46.39
  -7  -8   2  466.99   66.50
  -7  -8   2  437.81   65.05
   7   8  -1   10.02   15.39
   7  -8  -1   26.84   12.94
   7  -8  -1   25.83    8.30
  -7  -8   1    6.71   15.91
  -7  -8   1    9.00   13.25
   7   8   0    9.64    9.93
   7  -8   0   -8.21    8.23
   7  -8   0   20.68    8.11
  -7  -8   0    4.96   10.50
  -7  -8   0   -0.50    8.23
   8   0  -8    8.25    9.64
  -8   0   7   11.94    6.24
  -8   0   6  512.90   20.44
  -8   0   6  515.13   38.80
  -8   0   5  282.44   14.11
  -8   0   5  262.06   24.51
  -8   0   4   79.85    8.72
  -8   0   4   70.76   11.61
   8   0  -3    0.14    2.87
  -8   0   3    0.32    1.72
  -8   0   3   -0.38    1.61
   8   0  -2  423.42   42.47
  -8   0   2  416.69   43.31
   8   0  -1   77.51   21.55
  -8   0   1   85.85   16.06
   8   0   0    9.05    4.46
   8   0   1   41.77   18.37
   8   0   1   63.00   12.99
   8   0   2   30.08   14.19
  -8  -1   9    6.42    5.80
   8  -1  -8    2.50    4.41
   8   1  -7   87.40   14.76
  -8  -1   7   99.16   14.31
  -8  -1   7   50.87    8.45
   8  -1  -6  290.82   43.28
  -8  -1   6  252.15   16.61
  -8  -1   6  299.71   42.65
   8   1  -5  117.95   29.27
  -8  -1   5  103.92   17.15
  -8  -1   5  275.43   29.11
   8   1  -4  470.00   34.46
  -8  -1   4  431.92   28.89
  -8  -1   4  534.00   51.37
   8  -1  -3  112.22   21.57
   8   1  -3   73.88   21.57
  -8  -1   3  115.46   13.44
  -8  -1   3  105.95   19.61
   8  -1  -2   86.43   18.24
   8   1  -2   76.44   17.39
  -8  -1   2   83.26   14.90
   8  -1  -1    5.10    3.47
   8   1  -1    0.06    3.11
   8  -1  -1    0.37    1.84
  -8  -1   1    4.21    3.39
  -8  -1   1   -1.17    1.99
   8  -1   0    4.44    5.04
   8  -1   0    4.85    5.16
  -8  -1   0    9.15    6.56
   8   1   1    1.82    4.46
   8  -1   1    4.24    5.84
   8  -1   1    1.68    5.87
   8   1   1    5.22    5.52
   8  -1   1    8.54    5.38
  -8  -1  -1    9.88    7.22
   8   1   2    4.20    5.43
   8  -1   2    8.68    7.99
   8   2  -9   25.15   16.99
   8  -2  -9    4.43   17.17
  -8  -2   9   35.32   10.53
   8   2  -8  512.44   74.41
   8  -2  -8  478.16   46.22
  -8  -2   8  559.56   71.13
   8   2  -7  233.17   39.33
   8  -2  -7   -5.53   38.03
  -8  -2   7  236.45   23.72
   8   2  -6   68.33   10.88
  -8  -2   6   31.50    7.60
  -8  -2   6   22.22   16.94
   8  -2  -5  167.56   18.49
   8   2  -5  153.77   29.62
  -8  -2   5  141.02   15.70
  -8  -2   5   55.50   28.76
   8  -2  -4  123.74   15.58
   8   2  -4  142.70   24.11
  -8  -2   4   49.81   25.28
  -8  -2   4  106.81   15.31
   8  -2  -3  340.26   26.75
   8   2  -3  322.55   39.10
  -8  -2   3  325.92   40.04
  -8  -2   3  306.49   31.30
   8   2  -2    4.35    4.51
   8  -2  -2    0.71    4.85
  -8  -2   2   -2.00    4.73
  -8  -2   2    6.23    4.38
   8  -2  -1  511.27   47.90
   8  -2  -1  452.00   33.82
   8   2  -1  505.07   42.97
  -8  -2   1  531.13   46.13
  -8  -2   1  520.13   51.13
   8  -2   0   -0.83    2.55
   8   2   0    0.02    2.42
   8  -2   0    2.80    3.05
   8  -2   0   -1.05    2.66
  -8  -2   0    0.18    2.48
  -8  -2   0   -0.24    3.24
   8  -2   1  261.04   29.33
   8   2   1  228.57   23.00
   8  -2   1   64.16   31.55
   8  -2   1  174.41   32.34
  -8  -2  -1  252.28   38.13
   8   2   2   -2.84    4.73
   8  -2   2    2.31    6.92
  -8  -2  -2   18.80    7.65
   8   3  -9   41.97   11.46
   8  -3  -9    8.15   18.21
  -8  -3   9   24.29   11.44
   8   3  -8    9.55    9.19
   8  -3  -8   -0.95    9.54
  -8  -3   8    8.19    9.25
   8  -3  -7    2.62   18.49
   8   3  -7   50.23   18.03
  -8  -3   7   48.48   12.07
   8  -3  -6    0.82    6.62
   8   3  -6   14.76    6.29
  -8  -3   6    0.69    2.36
  -8  -3   6    3.49    6.75
   8  -3  -5    7.37    4.93
   8   3  -5    6.54    7.36
  -8  -3   5    3.92    5.69
  -8  -3   5    2.23    7.50
   8  -3  -4  281.90   44.09
   8   3  -4  272.15   40.14
  -8  -3   4  280.95   30.17
  -8  -3   4  316.75   41.66
   8   3  -3   13.41    7.60
   8  -3  -3   10.15    8.57
  -8  -3   3    9.36    8.82
  -8  -3   3    4.89    8.07
   8  -3  -2   60.67    9.92
   8  -3  -2   97.10   19.92
   8  -3  -2   95.32   25.49
   8   3  -2  101.14   18.11
  -8  -3   2   86.69   18.25
  -8  -3   2   84.76   20.00
   8  -3  -1   14.66    7.32
   8   3  -1   29.05    9.68
   8  -3  -1   12.24   12.23
   8  -3  -1   23.59   10.60
  -8  -3   1   33.25   11.47
  -8  -3   1   26.56   10.45
   8   3   0  143.37   19.51
   8  -3   0   48.16   20.25
   8  -3   0  131.71   20.47
   8  -3   0  143.53   24.94
  -8  -3   0   78.17   19.79
  -8  -3   0  154.34   27.07
   8  -3   1   12.24    9.72
   8  -3   1   11.03    9.59
   8   3   1   29.52    9.19
   8  -3   1   27.36   12.49
  -8  -3  -1   55.70   14.70
  -8  -3  -1   37.57    9.29
   8  -3   2    5.78    7.99
  -8  -3  -2    3.50    9.20
   8   4  -9  123.02   21.78
   8  -4  -9  138.60   44.94
   8  -4  -9    1.17   33.00
  -8  -4   9   90.22   34.84
   8   4  -8   67.91   21.99
   8  -4  -8    1.92   21.92
   8  -4  -8   36.85   28.80
  -8  -4   8   56.56   22.14
   8  -4  -7   -1.23   18.60
   8  -4  -7   35.12   15.28
   8   4  -7   58.67   18.21
  -8  -4   7   32.50   17.41
   8  -4  -6    1.57    5.59
   8  -4  -6    0.70    4.68
   8   4  -6    3.89    5.57
  -8  -4   6   -2.39    5.39
   8  -4  -5   24.99   21.41
   8  -4  -5   38.77   10.00
   8   4  -5   25.07   16.03
  -8  -4   5   34.63   15.69
  -8  -4   5   28.65   11.34
   8  -4  -4   -2.32    5.27
   8  -4  -4   -1.94    4.26
   8   4  -4    0.48    2.62
  -8  -4   4    1.11    3.19
  -8  -4   4    2.66    4.35
   8  -4  -3   22.28    9.57
   8  -4  -3   18.03   12.52
   8   4  -3   27.92   12.30
  -8  -4   3   27.37   10.75
  -8  -4   3   25.58   12.70
   8  -4  -2    2.57    7.54
   8  -4  -2    1.32    3.41
   8   4  -2   -0.96    5.28
   8  -4  -2    2.85    3.01
  -8  -4   2    4.43    5.38
  -8  -4   2    2.12    5.37
  -8  -4   2    5.74    5.37
   8   4  -1   63.67   14.80
   8  -4  -1   33.24   14.40
   8  -4  -1   40.06   15.52
   8  -4  -1   53.09   19.00
  -8  -4   1   59.26   17.12
  -8  -4   1   40.12   15.13
   8   4   0   57.56   15.20
   8  -4   0   47.43   14.64
   8  -4   0   46.68   16.24
   8  -4   0   56.87   18.04
  -8  -4   0   82.29   20.94
  -8  -4   0   52.46   16.14
   8   4   1    0.06    6.90
   8  -4   1    1.33    6.73
   8  -4   1   -4.59    8.53
   8  -4   1   24.07    8.18
  -8  -4  -1   29.15    6.51
  -8  -4  -1   -1.29    6.48
   8  -4   2    5.58    5.97
  -8  -4  -2   -0.78    4.31
   8   5  -8   -2.00   11.74
   8  -5  -8   16.12   14.36
   8  -5  -8   -3.83   11.69
  -8  -5   8   13.76    7.05
   8  -5  -7  119.31   30.00
   8  -5  -7    1.03   15.11
   8   5  -7    0.82   24.08
  -8  -5   7  192.02   24.59
   8  -5  -6  163.61   47.80
   8  -5  -6  200.65   58.20
   8   5  -6  225.51   48.00
  -8  -5   6  267.60   31.04
   8  -5  -5  299.49   73.98
   8  -5  -5  453.30   64.52
   8   5  -5  380.65   38.02
  -8  -5   5  379.23   30.46
  -8  -5   5  384.18   59.97
   8  -5  -4   35.09   10.86
   8  -5  -4   39.51   22.55
   8   5  -4   36.87   16.09
  -8  -5   4   35.21   16.50
  -8  -5   4   27.11   11.80
   8  -5  -3  146.39   22.01
   8  -5  -3  148.15   44.64
   8   5  -3  159.90   32.14
  -8  -5   3  135.98   32.67
  -8  -5   3  159.63   28.27
   8   5  -2  836.32   87.35
   8  -5  -2  913.25   63.65
   8  -5  -2 1022.62   44.73
   8  -5  -2  762.48  107.02
  -8  -5   2  741.61   87.38
  -8  -5   2  833.89   88.76
   8  -5  -1    6.79    6.91
   8   5  -1    6.35    7.64
   8  -5  -1    0.28    8.93
   8  -5  -1    5.47    8.25
  -8  -5   1   10.44    5.46
  -8  -5   1    6.60    7.74
   8  -5   0   64.25   21.95
   8   5   0  120.53   21.60
   8  -5   0   74.12   22.69
  -8  -5   0  118.01   28.44
   8   5   1   10.22    7.06
   8  -5   1   -2.40    7.60
   8  -5   1    2.46    6.59
  -8  -5  -1    1.13    9.70
  -8  -5  -1    9.47    6.15
   8  -6  -7   -4.39    8.41
   8  -6  -7   13.06   11.27
   8   6  -7    0.94    8.25
  -8  -6   7    3.62    8.11
   8  -6  -6  100.11   22.03
   8  -6  -6   85.41   45.55
   8   6  -6  101.78   20.93
  -8  -6   6  104.69   32.36
   8  -6  -5   59.49   26.02
   8  -6  -5   59.30   31.21
   8   6  -5   74.58   24.59
  -8  -6   5   59.83   12.48
  -8  -6   5   53.74   14.84
   8  -6  -4   21.73    9.85
   8  -6  -4   11.76   12.52
   8   6  -4    9.59   12.70
  -8  -6   4   11.50    9.67
  -8  -6   4   16.07   12.39
   8  -6  -3   23.27   15.26
   8  -6  -3   27.97   17.56
   8   6  -3   27.78    9.45
  -8  -6   3   28.21   14.91
  -8  -6   3   24.53    8.62
   8  -6  -2   73.98   23.65
   8  -6  -2   66.59   27.29
   8   6  -2   92.93   23.63
  -8  -6   2   65.95   24.56
  -8  -6   2   67.59   23.01
   8  -6  -1    9.71    9.93
   8   6  -1   24.56    9.48
   8  -6  -1    6.51    8.52
   8  -6  -1    7.73    9.68
  -8  -6   1    2.21    9.34
  -8  -6   1    9.90   11.15
   8   6   0    2.22   10.23
   8  -6   0   26.96    9.56
   8  -6   0   36.20   10.48
  -8  -6   0   -9.53    9.86
  -8  -6   0   -1.26   12.43
   8  -7  -6   11.05   10.67
   8  -7  -6    3.69   12.65
   8   7  -6    3.49    6.73
  -8  -7   6    6.43   10.33
   8  -7  -5   23.81    8.18
   8  -7  -5   24.14   15.42
   8   7  -5   17.18   13.29
  -8  -7   5   -4.63   12.88
  -8  -7   5    3.04    7.07
   8  -7  -4  490.69   76.23
   8  -7  -4  512.78   88.02
   8   7  -4  500.81   77.12
  -8  -7   4  475.45   73.80
  -8  -7   4  431.79   61.35
   8  -7  -3    3.23    5.67
   8  -7  -3   -3.39    5.90
   8   7  -3    0.83    5.73
  -8  -7   3   -1.00    5.34
  -8  -7   3   -2.67    5.47
   8  -7  -2  119.54   30.50
   8  -7  -2  103.34   31.26
   8   7  -2  107.98   30.20
  -8  -7   2   81.24   31.90
  -8  -7   2   88.29   29.34
   8  -7  -1   13.18   15.07
   8  -7  -1   40.82   15.48
   8   7  -1   15.16   15.88
  -8  -7   1   29.54   11.29
  -8  -7   1   25.28   14.93
   9   0  -6   -0.53    3.14
   9   0  -5  452.18   39.31
  -9   0   5  446.15   28.62
   9   0  -4   -0.15   10.79
  -9   0   4   21.30    6.86
  -9   0   3  332.20   29.10
   9   0  -2   10.28    8.14
   9   0  -1   48.87   19.17
   9   0   0  933.34   65.97
   9   0   1   61.05   13.93
  -9  -1   9   52.79   15.37
   9   1  -8    2.65    8.24
   9  -1  -6    0.14    5.01
   9   1  -6   64.20    8.15
  -9  -1   6   -2.58    3.04
   9  -1  -5   -0.12   10.56
   9   1  -5   66.56   10.62
  -9  -1   5    1.90    4.96
   9  -1  -4    0.49    3.08
  -9  -1   4    1.38    2.85
  -9  -1   3    1.36    9.14
  -9  -1   3   89.23   13.15
   9  -1  -2    4.42    6.95
   9   1  -2    8.06    6.61
  -9  -1   2    8.14    4.14
  -9  -1   2    2.72    5.79
   9   1  -1   34.34   11.49
   9  -1  -1   28.00   12.50
  -9  -1   1   36.58   13.26
   9  -1   0    6.44    7.66
   9   1   0    6.55    9.93
   9  -1   0   16.08    5.85
  -9  -1   0   24.47   10.49
   9  -1   1   -1.61    5.89
   9  -2  -8   -5.38   16.62
   9   2  -8   17.59   16.63
  -9  -2   8   33.86   10.31
   9  -2  -7   -1.26   31.04
   9   2  -7  200.88   31.99
  -9  -2   7  132.16   30.48
  -9  -2   7   80.57   18.35
   9  -2  -6   -0.44    5.27
   9   2  -6   34.85    8.57
  -9  -2   6    1.50    8.39
  -9  -2   6    1.88    4.17
   9  -2  -5    0.40   14.69
   9   2  -5   78.41   14.61
  -9  -2   5   17.89    8.34
  -9  -2   5   19.14   14.34
   9  -2  -4   -0.04    7.27
   9   2  -4   17.97    6.95
  -9  -2   4    1.37    7.17
  -9  -2   4    1.38    4.70
   9  -2  -3  132.70   18.45
   9   2  -3  145.38   26.92
  -9  -2   3  114.31   30.10
  -9  -2   3  133.29   27.86
   9  -2  -2  185.16   32.00
   9   2  -2  190.71   29.23
  -9  -2   2  185.15   30.95
  -9  -2   2  155.08   28.97
   9  -2  -1   22.76   20.56
   9  -2  -1   61.74   17.73
   9   2  -1   35.90   21.50
  -9  -2   1   78.84   16.36
  -9  -2   1   79.37   18.25
   9   2   0   15.00    6.48
   9  -2   0   15.83   12.31
   9  -2   0    5.73    8.99
   9  -2   0    8.53    6.57
  -9  -2   0   25.64    8.95
  -9  -2   0   -0.09    3.91
   9  -3  -8    9.48   16.93
   9   3  -8   29.45   16.38
  -9  -3   8   21.84   10.47
   9  -3  -7   -0.02   19.44
   9   3  -7   78.28   18.64
  -9  -3   7   13.88   18.70
  -9  -3   7   31.69    9.27
   9  -3  -6    1.39    9.32
   9   3  -6   79.55   14.54
  -9  -3   6   22.57   15.74
  -9  -3   6   13.99   11.28
   9  -3  -5   -0.32   18.33
   9   3  -5   83.08   17.32
  -9  -3   5   44.82   18.83
  -9  -3   5   29.82   11.60
   9  -3  -4    0.57    9.24
   9   3  -4   12.04    5.33
  -9  -3   4    8.79    9.69
  -9  -3   4    5.18    6.70
   9  -3  -3   33.72   19.98
   9   3  -3   32.52   14.20
   9  -3  -3   30.19   14.99
  -9  -3   3   26.25   11.97
  -9  -3   3   31.93   14.33
   9  -3  -2  146.04   29.28
   9   3  -2   77.64   27.41
   9  -3  -2  113.34   35.12
  -9  -3   2  195.25   27.84
  -9  -3   2  142.50   28.45
   9  -3  -1   67.88   21.31
   9  -3  -1   25.13   12.25
   9  -3  -1   49.77   15.70
   9   3  -1   61.98   15.00
  -9  -3   1   32.37   15.45
  -9  -3   1   49.52   17.69
   9  -3   0    7.08    6.70
   9  -3   0   10.74    9.36
   9   3   0    8.75    7.30
   9  -3   0    4.31    7.63
  -9  -3   0   26.52    9.56
  -9  -3   0    0.48    7.39
   9  -4  -8   13.83   21.97
   9  -4  -8   -3.67   16.11
   9   4  -8   22.64   16.54
  -9  -4   8   34.17   16.89
   9  -4  -7   -0.49    9.97
   9  -4  -7   -0.41   12.71
   9   4  -7    6.94    9.49
  -9  -4   7    4.31    3.67
  -9  -4   7    8.86    9.87
   9  -4  -6   34.35   24.85
   9  -4  -6    0.77   19.48
   9   4  -6   79.36   18.45
  -9  -4   6   21.77   10.71
  -9  -4   6   35.78   19.35
   9  -4  -5   69.83   31.49
   9  -4  -5   -0.48   15.53
   9   4  -5  115.62   14.50
  -9  -4   5   43.25   23.24
  -9  -4   5   56.07   16.14
   9  -4  -4    8.08   15.74
   9  -4  -4    0.18   13.32
   9   4  -4   44.87   12.54
  -9  -4   4   10.87   12.59
  -9  -4   4   15.21    9.94
   9  -4  -3    1.28    5.93
   9  -4  -3   -0.56    3.17
   9   4  -3   -7.27    4.78
  -9  -4   3   -0.62    4.32
  -9  -4   3   13.36    5.09
   9  -4  -2   57.24   28.60
   9   4  -2   66.15   20.17
   9  -4  -2   60.74   21.75
  -9  -4   2   66.12   21.55
  -9  -4   2   61.48   20.47
   9   4  -1   14.80   10.72
   9  -4  -1    7.27    6.92
   9  -4  -1   39.21   13.79
   9  -4  -1   13.06   10.98
  -9  -4   1   24.76   11.35
  -9  -4   1   18.28    7.91
   9  -4   0   17.06   14.11
   9  -4   0   11.25   14.01
   9  -4   0   18.96   12.82
   9   4   0   33.39   13.56
  -9  -4   0   72.04   13.50
  -9  -4   0   34.29   11.49
   9  -5  -7    0.14    7.17
   9  -5  -7    3.91    8.74
   9   5  -7    0.93    7.09
  -9  -5   7    0.82    3.01
  -9  -5   7    0.72    6.90
   9  -5  -6  158.79   64.59
   9  -5  -6  214.70   52.33
   9   5  -6  224.38   52.50
  -9  -5   6  266.09   33.33
  -9  -5   6  176.24   51.29
   9  -5  -5    5.73   11.74
   9  -5  -5    7.19    8.54
   9   5  -5    3.26    8.33
  -9  -5   5    3.17    8.30
  -9  -5   5    1.14    6.28
   9  -5  -4  328.16   52.19
   9  -5  -4  421.10   61.87
   9   5  -4  379.82   59.14
  -9  -5   4  318.02   50.32
  -9  -5   4  336.74   59.53
   9  -5  -3  213.68   37.96
   9  -5  -3  176.26   47.43
   9   5  -3  160.31   36.77
  -9  -5   3  131.39   21.38
  -9  -5   3  184.07   37.02
   9   5  -2   87.13   27.11
   9  -5  -2   83.19   34.96
   9  -5  -2   93.11   28.45
  -9  -5   2  121.35   28.69
  -9  -5   2   97.44   27.09
   9  -5  -1   57.58   21.05
   9  -5  -1   58.40   23.27
   9   5  -1   46.60   20.13
  -9  -5   1   53.49   23.01
  -9  -5   1   60.06   19.66
   9  -6  -5  163.20   51.18
   9  -6  -5   14.48   40.51
   9   6  -5  164.77   40.44
  -9  -6   5  171.40   26.21
  -9  -6   5  123.35   29.19
   9  -6  -4   28.25   20.12
   9  -6  -4   30.85   23.87
   9   6  -4   34.63   18.94
  -9  -6   4   26.25   15.77
  -9  -6   4   30.17   11.91
   9  -6  -3  147.61   33.59
   9  -6  -3  124.93   36.44
   9   6  -3  116.56   31.26
  -9  -6   3   95.12   19.83
  -9  -6   3   26.25   29.80
  10   0  -4  536.92   72.06
 -10  -1   7    7.89    6.83
 -10  -1   6   20.65    9.29
 -10  -1   5    6.36    5.66
  10   1  -4    0.59   10.85
 -10  -1   4    0.06    6.33
 -10  -1   4   25.64    6.51
  10  -1  -3  115.62   17.19
  10   1  -3   30.55   15.98
 -10  -1   3    7.06    9.94
 -10  -1   3   47.59   16.78
  10  -1  -2   41.76   18.12
 -10  -1   2   52.41   16.39
  10  -2  -7   -2.06   47.74
  10   2  -7  285.11   45.17
 -10  -2   7  203.60   45.52
  10  -2  -6   -0.15   29.70
  10   2  -6  126.83   28.23
 -10  -2   6   90.82   28.73
  10  -2  -5   -0.20   22.82
  10   2  -5   78.70   13.47
 -10  -2   5   62.81   21.99
 -10  -2   5   33.19   13.35
  10  -2  -4   87.71   24.35
  10   2  -4   55.79   22.73
 -10  -2   4   42.93   16.41
 -10  -2   4   93.78   23.73
  10  -2  -3    8.18    5.78
  10   2  -3   -4.48    8.44
 -10  -2   3    2.17    7.27
 -10  -2   3   22.62    8.66
  10  -2  -2  121.39   26.20
  10   2  -2  106.72   24.25
  10  -2  -2   45.60   33.91
 -10  -2   2   68.19   23.21
 -10  -2   2   93.31   15.11
  10  -3  -6   -0.40   25.48
  10   3  -6  153.84   24.03
 -10  -3   6   32.58   24.69
 -10  -3   6   36.83   14.83
  10  -3  -5   -0.54   17.19
  10   3  -5   76.86   16.24
 -10  -3   5   12.96   16.66
 -10  -3   5   16.17   11.34
  10  -3  -4   28.49   15.99
  10  -3  -4   62.83   19.42
  10   3  -4   11.88   18.96
 -10  -3   4   57.21   19.00
 -10  -3   4   33.90   14.03
  10  -3  -3   47.84   34.55
  10  -3  -3  112.31   18.33
  10   3  -3  109.27   27.53
 -10  -3   3   94.34   27.96
 -10  -3   3   74.23   24.72
  10  -4  -5    5.72   10.01
  10  -4  -5    0.32    8.29
  10   4  -5   21.47    8.06
 -10  -4   5   -3.53    8.49
 -10  -4   5   -4.56    5.83
  10  -4  -4   -2.12   16.88
  10  -4  -4   11.63   13.93
  10   4  -4   25.20   13.49
 -10  -4   4   21.03   14.24
 -10  -4   4   13.86   11.03
   0   0   0    0.00    0.00
;
_shelx_hkl_checksum              36628
loop_
_symmetry_equiv_pos_as_xyz
'x, y, z'
'-x, y+1/2, -z'
'-x, -y, -z'
'x, -y-1/2, z'
loop_
_atom_site_label
_atom_site_type_symbol
_atom_site_fract_x
_atom_site_fract_y
_atom_site_fract_z
_atom_site_U_iso_or_equiv
_atom_site_adp_type
_atom_site_occupancy
_atom_site_site_symmetry_order
_atom_site_calc_flag
_atom_site_refinement_flags_posn
_atom_site_refinement_flags_adp
_atom_site_refinement_flags_occupancy
_atom_site_disorder_assembly
_atom_site_disorder_group
P1 P 0.15342(8) 0.05756(7) 0.27310(8) 0.0120(2) Uani 1 1 d . . . . .
B1 B 0.2656(5) 0.2500 0.5453(5) 0.0124(8) Uani 1 2 d S T P . .
B2 B 0.2806(5) 0.2500 0.0982(5) 0.0123(8) Uani 1 2 d S T P . .
B3 B 0.9490(5) 0.2500 0.3494(5) 0.0120(8) Uani 1 2 d S T P . .
B4 B 0.4151(5) 0.2500 0.8845(5) 0.0147(8) Uani 1 2 d S T P . .
B5 B 0.6105(5) 0.2500 0.1995(5) 0.0157(8) Uani 1 2 d S T P . .
Na1 Na 0.6034(2) 0.2500 0.53499(19) 0.0260(4) Uani 1 2 d S T P . .
Na2 Na 0.8341(2) 0.2500 0.95832(19) 0.0255(4) Uani 1 2 d S T P . .
Li1 Li 0.0144(8) 0.2500 0.7154(8) 0.0183(13) Uani 1 2 d S T P . .
O1 O 0.2981(2) 0.11792(19) 0.4514(2) 0.0136(4) Uani 1 1 d . . . . .
O2 O 0.0322(2) 0.6182(2) 0.7508(2) 0.0196(4) Uani 1 1 d . . . . .
O3 O 0.1859(3) 0.1187(2) 0.1168(2) 0.0266(5) Uani 1 1 d . . . . .
O4 O 0.1555(2) 0.6040(2) 0.2673(2) 0.0176(4) Uani 1 1 d . . . . .
O5 O 0.4104(3) 0.2500 0.7209(3) 0.0158(5) Uani 1 2 d S T P . .
O6 O 0.0849(3) 0.2500 0.5273(3) 0.0127(5) Uani 1 2 d S T P . .
O7 O 0.2656(3) 0.2500 0.9166(3) 0.0127(5) Uani 1 2 d S T P . .
O8 O 0.4630(3) 0.2500 0.2318(3) 0.0233(7) Uani 1 2 d S T P . .
O9 O 0.7726(3) 0.2500 0.3418(3) 0.0184(6) Uani 1 2 d S T P . .
O10 O 0.5881(3) 0.2500 0.0243(3) 0.0194(6) Uani 1 2 d S T P . .
loop_
_atom_site_aniso_label
_atom_site_aniso_U_11
_atom_site_aniso_U_22
_atom_site_aniso_U_33
_atom_site_aniso_U_23
_atom_site_aniso_U_13
_atom_site_aniso_U_12
P1 0.0136(3) 0.0113(3) 0.0109(3) 0.0007(2) 0.0052(3) 0.0001(2)
B1 0.0099(17) 0.021(2) 0.0057(17) 0.000 0.0025(15) 0.000
B2 0.0100(17) 0.020(2) 0.0086(18) 0.000 0.0054(16) 0.000
B3 0.0078(17) 0.019(2) 0.0076(18) 0.000 0.0016(15) 0.000
B4 0.0094(18) 0.026(2) 0.0082(19) 0.000 0.0032(16) 0.000
B5 0.0078(17) 0.028(2) 0.0090(19) 0.000 0.0017(16) 0.000
Na1 0.0174(8) 0.0437(11) 0.0140(8) 0.000 0.0041(7) 0.000
Na2 0.0207(8) 0.0435(11) 0.0146(8) 0.000 0.0097(7) 0.000
Li1 0.014(3) 0.025(3) 0.018(3) 0.000 0.009(3) 0.000
O1 0.0118(8) 0.0170(9) 0.0109(8) -0.0008(7) 0.0039(7) 0.0015(7)
O2 0.0112(9) 0.0228(10) 0.0179(10) 0.0084(7) -0.0002(8) -0.0043(7)
O3 0.0414(12) 0.0275(11) 0.0135(9) -0.0041(8) 0.0143(9) -0.0193(9)
O4 0.0191(9) 0.0114(9) 0.0224(10) 0.0003(7) 0.0090(8) 0.0000(7)
O5 0.0081(11) 0.0296(15) 0.0092(12) 0.000 0.0033(10) 0.000
O6 0.0080(11) 0.0230(14) 0.0079(12) 0.000 0.0044(10) 0.000
O7 0.0078(11) 0.0243(14) 0.0063(11) 0.000 0.0034(10) 0.000
O8 0.0072(12) 0.055(2) 0.0075(12) 0.000 0.0031(11) 0.000
O9 0.0082(12) 0.0368(16) 0.0108(12) 0.000 0.0047(11) 0.000
O10 0.0100(12) 0.0409(17) 0.0078(12) 0.000 0.0045(10) 0.000
loop_
_atom_type_symbol
_atom_type_description
_atom_type_scat_dispersion_real
_atom_type_scat_dispersion_imag
_atom_type_scat_source
B B 0.0013 0.0007 'International Tables Vol C Tables 4.2.6.8 and 6.1.1.4'
Li Li -0.0003 0.0001 'International Tables Vol C Tables 4.2.6.8 and 6.1.1.4'
Na Na 0.0362 0.0249 'International Tables Vol C Tables 4.2.6.8 and 6.1.1.4'
O O 0.0106 0.0060 'International Tables Vol C Tables 4.2.6.8 and 6.1.1.4'
P P 0.1023 0.0942 'International Tables Vol C Tables 4.2.6.8 and 6.1.1.4'
loop_
_geom_angle_atom_site_label_1
_geom_angle_atom_site_label_2
_geom_angle_atom_site_label_3
_geom_angle
_geom_angle_site_symmetry_1
_geom_angle_site_symmetry_3
O4 P1 O3 108.99(11) 4_565 .
O4 P1 O1 111.89(10) 4_565 .
O3 P1 O1 109.95(10) . .
O4 P1 O2 112.22(10) 4_565 2_546
O3 P1 O2 106.36(12) . 2_546
O1 P1 O2 107.27(10) . 2_546
O4 P1 Na2 121.57(7) 4_565 1_454
O3 P1 Na2 60.21(9) . 1_454
O1 P1 Na2 126.01(7) . 1_454
O2 P1 Na2 46.40(8) 2_546 1_454
O4 P1 Na1 34.94(7) 4_565 3_656
O3 P1 Na1 114.45(9) . 3_656
O1 P1 Na1 78.16(7) . 3_656
O2 P1 Na1 134.10(8) 2_546 3_656
Na2 P1 Na1 155.81(3) 1_454 3_656
O4 P1 Na2 32.93(7) 4_565 3_656
O3 P1 Na2 76.35(8) . 3_656
O1 P1 Na2 129.39(7) . 3_656
O2 P1 Na2 119.17(7) 2_546 3_656
Na2 P1 Na2 101.30(3) 1_454 3_656
Na1 P1 Na2 55.70(4) 3_656 3_656
O6 B1 O5 118.2(3) . .
O6 B1 O1 110.61(19) . .
O5 B1 O1 105.87(19) . .
O6 B1 O1 110.61(19) . 4_565
O5 B1 O1 105.87(19) . 4_565
O1 B1 O1 104.8(3) . 4_565
O6 B1 Na1 173.0(2) . .
O5 B1 Na1 68.86(17) . .
O1 B1 Na1 65.77(15) . .
O1 B1 Na1 65.77(15) 4_565 .
O8 B2 O7 113.4(3) . 1_554
O8 B2 O3 109.84(19) . .
O7 B2 O3 107.29(19) 1_554 .
O8 B2 O3 109.84(19) . 4_565
O7 B2 O3 107.29(19) 1_554 4_565
O3 B2 O3 109.1(3) . 4_565
O6 B3 O9 111.7(3) 1_655 .
O6 B3 O2 110.88(18) 1_655 2_646
O9 B3 O2 108.74(18) . 2_646
O6 B3 O2 110.88(18) 1_655 3_666
O9 B3 O2 108.74(18) . 3_666
O2 B3 O2 105.7(3) 2_646 3_666
O6 B3 Na2 151.4(2) 1_655 1_554
O9 B3 Na2 96.81(19) . 1_554
O2 B3 Na2 56.89(14) 2_646 1_554
O2 B3 Na2 56.89(14) 3_666 1_554
O5 B4 O7 124.4(3) . .
O5 B4 O10 114.8(3) . 1_556
O7 B4 O10 120.8(3) . 1_556
O9 B5 O8 117.0(3) . .
O9 B5 O10 123.8(3) . .
O8 B5 O10 119.2(3) . .
O9 B5 Na1 64.11(19) . .
O8 B5 Na1 52.88(17) . .
O10 B5 Na1 172.1(3) . .
O8 Na1 O4 129.90(8) . 3_666
O8 Na1 O4 129.90(8) . 2_646
O4 Na1 O4 68.80(10) 3_666 2_646
O8 Na1 O9 56.54(9) . .
O4 Na1 O9 85.46(8) 3_666 .
O4 Na1 O9 85.46(8) 2_646 .
O8 Na1 O1 74.76(7) . 4_565
O4 Na1 O1 110.08(7) 3_666 4_565
O4 Na1 O1 150.52(9) 2_646 4_565
O9 Na1 O1 124.02(7) . 4_565
O8 Na1 O1 74.76(7) . .
O4 Na1 O1 150.52(9) 3_666 .
O4 Na1 O1 110.08(7) 2_646 .
O9 Na1 O1 124.02(7) . .
O1 Na1 O1 55.62(8) 4_565 .
O8 Na1 O5 120.42(10) . .
O4 Na1 O5 97.05(8) 3_666 .
O4 Na1 O5 97.05(8) 2_646 .
O9 Na1 O5 176.96(9) . .
O1 Na1 O5 53.48(6) 4_565 .
O1 Na1 O5 53.48(6) . .
O8 Na1 B1 90.22(11) . .
O4 Na1 B1 121.10(9) 3_666 .
O4 Na1 B1 121.10(9) 2_646 .
O9 Na1 B1 146.76(11) . .
O1 Na1 B1 32.49(6) 4_565 .
O1 Na1 B1 32.49(6) . .
O5 Na1 B1 30.20(9) . .
O8 Na1 B5 28.14(10) . .
O4 Na1 B5 108.72(9) 3_666 .
O4 Na1 B5 108.72(9) 2_646 .
O9 Na1 B5 28.40(10) . .
O1 Na1 B5 99.58(9) 4_565 .
O1 Na1 B5 99.58(9) . .
O5 Na1 B5 148.56(11) . .
B1 Na1 B5 118.36(12) . .
O8 Na1 Li1 117.88(14) . 1_655
O4 Na1 Li1 40.65(8) 3_666 1_655
O4 Na1 Li1 40.65(8) 2_646 1_655
O9 Na1 Li1 61.34(13) . 1_655
O1 Na1 Li1 150.39(6) 4_565 1_655
O1 Na1 Li1 150.39(6) . 1_655
O5 Na1 Li1 121.70(14) . 1_655
B1 Na1 Li1 151.90(15) . 1_655
B5 Na1 Li1 89.74(15) . 1_655
O8 Na1 Na2 174.90(9) . .
O4 Na1 Na2 46.76(5) 3_666 .
O4 Na1 Na2 46.76(5) 2_646 .
O9 Na1 Na2 118.37(8) . .
O1 Na1 Na2 109.69(6) 4_565 .
O1 Na1 Na2 109.69(6) . .
O5 Na1 Na2 64.67(7) . .
B1 Na1 Na2 94.88(9) . .
B5 Na1 Na2 146.77(10) . .
Li1 Na1 Na2 57.03(12) 1_655 .
O8 Na1 P1 115.53(4) . 2_656
O4 Na1 P1 21.01(4) 3_666 2_656
O4 Na1 P1 89.78(6) 2_646 2_656
O9 Na1 P1 85.92(5) . 2_656
O1 Na1 P1 92.41(5) 4_565 2_656
O1 Na1 P1 144.09(6) . 2_656
O5 Na1 P1 95.80(5) . 2_656
B1 Na1 P1 111.63(5) . 2_656
B5 Na1 P1 101.86(6) . 2_656
Li1 Na1 P1 58.07(4) 1_655 2_656
Na2 Na1 P1 62.47(3) . 2_656
O10 Na2 O4 122.15(8) 1_556 2_646
O10 Na2 O4 122.15(8) 1_556 3_666
O4 Na2 O4 69.59(10) 2_646 3_666
O10 Na2 O2 80.16(8) 1_556 3_667
O4 Na2 O2 154.64(9) 2_646 3_667
O4 Na2 O2 110.66(7) 3_666 3_667
O10 Na2 O2 80.16(8) 1_556 2_647
O4 Na2 O2 110.66(7) 2_646 2_647
O4 Na2 O2 154.64(9) 3_666 2_647
O2 Na2 O2 57.71(9) 3_667 2_647
O10 Na2 O3 134.34(8) 1_556 4_666
O4 Na2 O3 103.28(8) 2_646 4_666
O4 Na2 O3 75.60(7) 3_666 4_666
O2 Na2 O3 54.51(6) 3_667 4_666
O2 Na2 O3 79.86(7) 2_647 4_666
O10 Na2 O3 134.34(8) 1_556 1_656
O4 Na2 O3 75.60(7) 2_646 1_656
O4 Na2 O3 103.28(8) 3_666 1_656
O2 Na2 O3 79.86(7) 3_667 1_656
O2 Na2 O3 54.51(6) 2_647 1_656
O3 Na2 O3 49.56(8) 4_666 1_656
O10 Na2 B3 68.46(10) 1_556 1_556
O4 Na2 B3 141.00(6) 2_646 1_556
O4 Na2 B3 141.00(6) 3_666 1_556
O2 Na2 B3 30.48(5) 3_667 1_556
O2 Na2 B3 30.48(5) 2_647 1_556
O3 Na2 B3 73.60(8) 4_666 1_556
O3 Na2 B3 73.60(8) 1_656 1_556
O10 Na2 Li1 154.64(14) 1_556 1_655
O4 Na2 Li1 41.52(8) 2_646 1_655
O4 Na2 Li1 41.52(8) 3_666 1_655
O2 Na2 Li1 121.49(12) 3_667 1_655
O2 Na2 Li1 121.49(12) 2_647 1_655
O3 Na2 Li1 67.46(12) 4_666 1_655
O3 Na2 Li1 67.46(12) 1_656 1_655
B3 Na2 Li1 136.90(15) 1_556 1_655
O10 Na2 Na1 95.94(8) 1_556 .
O4 Na2 Na1 47.38(6) 2_646 .
O4 Na2 Na1 47.38(6) 3_666 .
O2 Na2 Na1 150.70(5) 3_667 .
O2 Na2 Na1 150.70(5) 2_647 .
O3 Na2 Na1 120.27(6) 4_666 .
O3 Na2 Na1 120.27(6) 1_656 .
B3 Na2 Na1 164.40(10) 1_556 .
Li1 Na2 Na1 58.70(12) 1_655 .
O10 Na2 P1 106.50(7) 1_556 4_666
O4 Na2 P1 130.66(8) 2_646 4_666
O4 Na2 P1 92.46(6) 3_666 4_666
O2 Na2 P1 26.71(4) 3_667 4_666
O2 Na2 P1 67.76(6) 2_647 4_666
O3 Na2 P1 27.89(4) 4_666 4_666
O3 Na2 P1 64.10(5) 1_656 4_666
B3 Na2 P1 50.45(6) 1_556 4_666
Li1 Na2 P1 94.85(11) 1_655 4_666
Na1 Na2 P1 139.74(4) . 4_666
O10 Na2 P1 106.50(7) 1_556 1_656
O4 Na2 P1 92.46(6) 2_646 1_656
O4 Na2 P1 130.66(8) 3_666 1_656
O2 Na2 P1 67.76(6) 3_667 1_656
O2 Na2 P1 26.71(4) 2_647 1_656
O3 Na2 P1 64.10(5) 4_666 1_656
O3 Na2 P1 27.89(4) 1_656 1_656
B3 Na2 P1 50.45(6) 1_556 1_656
Li1 Na2 P1 94.85(11) 1_655 1_656
Na1 Na2 P1 139.74(4) . 1_656
P1 Na2 P1 64.46(4) 4_666 1_656
O6 Li1 O4 122.6(2) . 2_546
O6 Li1 O4 122.6(2) . 3_566
O4 Li1 O4 84.8(3) 2_546 3_566
O6 Li1 O7 96.9(3) . .
O4 Li1 O7 115.9(2) 2_546 .
O4 Li1 O7 115.9(2) 3_566 .
O6 Li1 Na2 169.5(3) . 1_455
O4 Li1 Na2 51.56(15) 2_546 1_455
O4 Li1 Na2 51.56(15) 3_566 1_455
O7 Li1 Na2 93.6(2) . 1_455
O6 Li1 Na1 105.2(3) . 1_455
O4 Li1 Na1 51.03(14) 2_546 1_455
O4 Li1 Na1 51.03(14) 3_566 1_455
O7 Li1 Na1 157.9(3) . 1_455
Na2 Li1 Na1 64.27(13) 1_455 1_455
B1 O1 P1 123.00(18) . .
B1 O1 Na1 81.74(15) . .
P1 O1 Na1 132.39(10) . .
B3 O2 P1 122.96(18) 3_666 2_556
B3 O2 Na2 92.62(15) 3_666 3_667
P1 O2 Na2 106.88(10) 2_556 3_667
B2 O3 P1 132.50(19) . .
B2 O3 Na2 94.64(17) . 1_454
P1 O3 Na2 91.90(10) . 1_454
P1 O4 Li1 130.75(16) 4_565 3_566
P1 O4 Na2 126.98(10) 4_565 3_666
Li1 O4 Na2 86.93(17) 3_566 3_666
P1 O4 Na1 124.05(10) 4_565 3_666
Li1 O4 Na1 88.31(16) 3_566 3_666
Na2 O4 Na1 85.86(8) 3_666 3_666
B4 O5 B1 133.0(3) . .
B4 O5 Na1 146.0(2) . .
B1 O5 Na1 80.93(19) . .
B3 O6 B1 114.9(3) 1_455 .
B3 O6 Li1 118.9(3) 1_455 .
B1 O6 Li1 126.2(3) . .
B4 O7 B2 121.6(3) . 1_556
B4 O7 Li1 121.2(3) . .
B2 O7 Li1 117.3(3) 1_556 .
B5 O8 B2 124.9(3) . .
B5 O8 Na1 99.0(2) . .
B2 O8 Na1 136.1(2) . .
B5 O9 B3 129.7(3) . .
B5 O9 Na1 87.5(2) . .
B3 O9 Na1 142.8(2) . .
B5 O10 B4 120.2(3) . 1_554
B5 O10 Na2 121.3(2) . 1_554
B4 O10 Na2 118.6(2) 1_554 1_554
loop_
_geom_bond_atom_site_label_1
_geom_bond_atom_site_label_2
_geom_bond_distance
_geom_bond_site_symmetry_2
P1 O4 1.480(2) 4_565
P1 O3 1.5455(19) .
P1 O1 1.5483(17) .
P1 O2 1.5511(18) 2_546
P1 Na2 3.3017(16) 1_454
P1 Na1 3.4203(13) 3_656
P1 Na2 3.4405(13) 3_656
B1 O6 1.424(4) .
B1 O5 1.432(4) .
B1 O1 1.526(3) .
B1 O1 1.526(3) 4_565
B1 Na1 2.811(4) .
B2 O8 1.427(4) .
B2 O7 1.467(4) 1_554
B2 O3 1.475(3) .
B2 O3 1.475(3) 4_565
B3 O6 1.419(4) 1_655
B3 O9 1.421(4) .
B3 O2 1.513(3) 2_646
B3 O2 1.513(3) 3_666
B3 Na2 2.980(4) 1_554
B4 O5 1.349(4) .
B4 O7 1.365(5) .
B4 O10 1.393(4) 1_556
B5 O9 1.346(5) .
B5 O8 1.349(5) .
B5 O10 1.393(5) .
B5 Na1 2.826(4) .
Na1 O8 2.282(3) .
Na1 O4 2.364(2) 3_666
Na1 O4 2.364(2) 2_646
Na1 O9 2.545(3) .
Na1 O1 2.590(2) 4_565
Na1 O1 2.590(2) .
Na1 O5 2.655(3) .
Na1 Li1 3.040(6) 1_655
Na1 Na2 3.205(2) .
Na1 P1 3.4203(13) 2_656
Na2 O10 2.312(3) 1_556
Na2 O4 2.341(2) 2_646
Na2 O4 2.341(2) 3_666
Na2 O2 2.499(2) 3_667
Na2 O2 2.499(2) 2_647
Na2 O3 2.867(3) 4_666
Na2 O3 2.867(3) 1_656
Na2 B3 2.980(4) 1_556
Na2 Li1 2.984(6) 1_655
Na2 P1 3.3017(16) 4_666
Na2 P1 3.3017(16) 1_656
Li1 O6 1.895(6) .
Li1 O4 1.981(5) 2_546
Li1 O4 1.981(5) 3_566
Li1 O7 2.017(6) .
Li1 Na2 2.984(6) 1_455
Li1 Na1 3.040(6) 1_455
O2 B3 1.513(3) 3_666
O2 P1 1.5511(18) 2_556
O2 Na2 2.499(2) 3_667
O3 Na2 2.867(3) 1_454
O4 P1 1.480(2) 4_565
O4 Li1 1.981(5) 3_566
O4 Na2 2.341(2) 3_666
O4 Na1 2.364(2) 3_666
O6 B3 1.419(4) 1_455
O7 B2 1.467(4) 1_556
O10 B4 1.393(4) 1_554
O10 Na2 2.312(3) 1_554
