#------------------------------------------------------------------------------
#$Date: 2021-04-27 04:10:30 +0300 (Tue, 27 Apr 2021) $
#$Revision: 264565 $
#$URL: file:///home/coder/svn-repositories/cod/cif/1/56/21/1562126.cif $
#------------------------------------------------------------------------------
#
# This file is available in the Crystallography Open Database (COD),
# http://www.crystallography.net/
#
# All data on this site have been placed in the public domain by the
# contributors.
#
data_1562126
loop_
_publ_author_name
'Van Lommel, Ruben'
'Bock, Jonathan'
'Daniliuc, Constantin'
'Hennecke, Ulrich'
'De Proft, Frank'
_publ_section_title
;
 A Dynamic Picture of the Halolactonization Reaction through a Combination
 of ab-initio Metadynamics and Experimental Investigations .
;
_journal_name_full               'Chemical Science'
_journal_paper_doi               10.1039/D1SC01014J
_journal_year                    2021
_chemical_formula_sum            'C12 H11 Cl O2'
_chemical_formula_weight         222.66
_space_group_crystal_system      triclinic
_space_group_IT_number           2
_space_group_name_Hall           '-P 1'
_space_group_name_H-M_alt        'P -1'
_atom_sites_solution_hydrogens   geom
_audit_creation_method           'APEX3 v2016.1-0'
_audit_update_record
;
2021-01-14 deposited with the CCDC.	2021-04-23 downloaded from the CCDC.
;
_cell_angle_alpha                68.933(2)
_cell_angle_beta                 76.834(2)
_cell_angle_gamma                65.982(2)
_cell_formula_units_Z            2
_cell_length_a                   8.1989(4)
_cell_length_b                   8.4173(4)
_cell_length_c                   8.8635(4)
_cell_measurement_reflns_used    4281
_cell_measurement_temperature    100.(2)
_cell_measurement_theta_max      27.8561
_cell_measurement_theta_min      2.7323
_cell_volume                     519.00(4)
_computing_cell_refinement       'SAINT V8.37A (Bruker AXS Inc., 2015)'
_computing_data_collection
;

APEX3 v2016.1-0 (Bruker AXS Inc., 2016)
;
_computing_data_reduction        'SAINT V8.37A (Bruker AXS Inc., 2015)'
_computing_molecular_graphics    'XP (Sheldrick, 2014)'
_computing_publication_material  'SHELXL-2014/7 (Sheldrick, 2014)'
_computing_structure_refinement  'SHELXL-2014/7 (Sheldrick, 2014)'
_computing_structure_solution    'SHELXL-2014/7 (Sheldrick, 2014)'
_diffrn_ambient_temperature      100.(2)
_diffrn_detector_area_resol_mean 7.3910
_diffrn_measured_fraction_theta_full 0.980
_diffrn_measured_fraction_theta_max 0.980
_diffrn_measurement_device_type  'Bruker D8 Venture PHOTON 100 CMOS'
_diffrn_measurement_method       'omega and phi scans'
_diffrn_radiation_monochromator  'MX mirror'
_diffrn_radiation_type           'Mo K\a'
_diffrn_radiation_wavelength     0.71073
_diffrn_reflns_av_R_equivalents  0.0350
_diffrn_reflns_av_unetI/netI     0.0271
_diffrn_reflns_limit_h_max       10
_diffrn_reflns_limit_h_min       -10
_diffrn_reflns_limit_k_max       10
_diffrn_reflns_limit_k_min       -10
_diffrn_reflns_limit_l_max       11
_diffrn_reflns_limit_l_min       -11
_diffrn_reflns_number            9720
_diffrn_reflns_theta_full        26.73
_diffrn_reflns_theta_max         26.73
_diffrn_reflns_theta_min         2.47
_diffrn_source                   'Mo ImS'
_diffrn_source_type              'micro focus tube'
_exptl_absorpt_coefficient_mu    0.342
_exptl_absorpt_correction_T_max  0.98
_exptl_absorpt_correction_T_min  0.92
_exptl_absorpt_correction_type   multi-scan
_exptl_absorpt_process_details
;
Bruker AXS (2014). SADABS, Version 2014/5, Bruker AXS Inc., Madison, Wisconsin,
USA.
;
_exptl_crystal_colour            colourless
_exptl_crystal_density_diffrn    1.425
_exptl_crystal_density_method    'not measured'
_exptl_crystal_description       prism
_exptl_crystal_F_000             232
_exptl_crystal_size_max          0.109
_exptl_crystal_size_mid          0.081
_exptl_crystal_size_min          0.043
_refine_diff_density_max         0.348
_refine_diff_density_min         -0.209
_refine_ls_extinction_method     none
_refine_ls_goodness_of_fit_ref   1.140
_refine_ls_hydrogen_treatment    constr
_refine_ls_matrix_type           full
_refine_ls_number_parameters     136
_refine_ls_number_reflns         2161
_refine_ls_number_restraints     0
_refine_ls_restrained_S_all      1.140
_refine_ls_R_factor_all          0.0446
_refine_ls_R_factor_gt           0.0390
_refine_ls_shift/su_max          0.000
_refine_ls_shift/su_mean         0.000
_refine_ls_structure_factor_coef Fsqd
_refine_ls_weighting_details
'w=1/[\s^2^(Fo^2^)+(0.0245P)^2^+0.3961P] where P=(Fo^2^+2Fc^2^)/3'
_refine_ls_weighting_scheme      calc
_refine_ls_wR_factor_gt          0.0813
_refine_ls_wR_factor_ref         0.0838
_reflns_number_gt                1950
_reflns_number_total             2161
_reflns_threshold_expression     'I > 2\s(I)'
_cod_data_source_file            d1sc01014j3.cif
_cod_data_source_block           dan9759
_cod_database_code               1562126
_shelx_res_file
;


    dan9759.res created by SHELXL-2014/7


TITL dan9759.res in P-1
CELL  0.71073   8.1989   8.4173   8.8635   68.933   76.834   65.982
ZERR    2.000   0.0004   0.0004   0.0004    0.002    0.002    0.002
LATT  1
SFAC C  H  O  Cl
UNIT 24  22  4  2
SIZE 0.043 0.081 0.109
TEMP -173.150
ACTA
CONF

L.S. 30
BOND $H
FMAP 2
PLAN 10

OMIT 3   3   0
HTAB

WGHT    0.024500    0.396100
FVAR       1.14580
CL1   4    0.045581    0.680115    0.810799    11.00000    0.01255    0.02270 =
         0.02753   -0.00459   -0.00100   -0.00727
O1    3    0.331231    1.110915    0.641639    11.00000    0.01837    0.01458 =
         0.03186   -0.00861    0.00107   -0.00599
O2    3    0.414129    0.809516    0.750935    11.00000    0.01568    0.01329 =
         0.01614   -0.00573   -0.00387   -0.00511
C1    1    0.898073    0.335319    0.732002    11.00000    0.01600    0.02295 =
         0.02013   -0.00965   -0.00271   -0.00468
AFIX  43
H1    2    1.016785    0.334540    0.696905    11.00000   -1.20000
AFIX   0
C2    1    0.869502    0.172267    0.819799    11.00000    0.02029    0.01696 =
         0.01949   -0.00818   -0.00761    0.00274
AFIX  43
H2    2    0.969477    0.061224    0.842774    11.00000   -1.20000
AFIX   0
C3    1    0.697496    0.169920    0.873960    11.00000    0.02578    0.01336 =
         0.01468   -0.00414   -0.00348   -0.00543
AFIX  43
H3    2    0.679537    0.058530    0.934189    11.00000   -1.20000
AFIX   0
C4    1    0.551787    0.332982    0.838799    11.00000    0.01998    0.01699 =
         0.01205   -0.00572   -0.00230   -0.00776
C5    1    0.581412    0.495255    0.750406    11.00000    0.01693    0.01318 =
         0.01196   -0.00584   -0.00361   -0.00387
C6    1    0.752684    0.498876    0.695945    11.00000    0.01737    0.01719 =
         0.01585   -0.00511   -0.00386   -0.00709
AFIX  43
H6    2    0.770477    0.610290    0.635453    11.00000   -1.20000
AFIX   0
C7    1    0.353422    0.368610    0.880728    11.00000    0.01956    0.01513 =
         0.01973   -0.00415   -0.00106   -0.00816
AFIX  23
H7A   2    0.327320    0.300156    0.994579    11.00000   -1.20000
H7B   2    0.305807    0.336271    0.807272    11.00000   -1.20000
AFIX   0
C8    1    0.276130    0.575258    0.855119    11.00000    0.01311    0.01805 =
         0.01514   -0.00501   -0.00177   -0.00666
AFIX  13
H8    2    0.282681    0.595581    0.957678    11.00000   -1.20000
AFIX   0
C9    1    0.405201    0.653246    0.721370    11.00000    0.01271    0.01373 =
         0.01534   -0.00580   -0.00211   -0.00582
C10   1    0.355628    0.725969    0.544956    11.00000    0.01603    0.01674 =
         0.01459   -0.00413   -0.00388   -0.00568
AFIX  23
H10A  2    0.464104    0.696444    0.468349    11.00000   -1.20000
H10B  2    0.272194    0.673710    0.533549    11.00000   -1.20000
AFIX   0
C11   1    0.265741    0.931452    0.514569    11.00000    0.01604    0.01792 =
         0.01834   -0.00198   -0.00570   -0.00431
AFIX  23
H11A  2    0.299080    0.998261    0.402299    11.00000   -1.20000
H11B  2    0.133547    0.967855    0.532596    11.00000   -1.20000
AFIX   0
C12   1    0.336342    0.967889    0.636444    11.00000    0.01040    0.01518 =
         0.01835   -0.00498    0.00144   -0.00400
HKLF 4

REM  dan9759.res in P-1
REM R1 =  0.0390 for    1950 Fo > 4sig(Fo)  and  0.0446 for all    2161 data
REM    136 parameters refined using      0 restraints

END

WGHT      0.0245      0.3961

REM Instructions for potential hydrogen bonds
EQIV $1 -x+1, -y+2, -z+1
HTAB C10 O1_$1

REM Highest difference peak  0.348,  deepest hole -0.209,  1-sigma level  0.052
Q1    1   0.5000  0.5703  0.7229  11.00000  0.05    0.35
Q2    1   0.3210  0.6309  0.7769  11.00000  0.05    0.35
Q3    1   0.3798  0.6871  0.6424  11.00000  0.05    0.27
Q4    1   0.5761  0.4168  0.7957  11.00000  0.05    0.26
Q5    1   0.3000  0.4741  0.8561  11.00000  0.05    0.25
Q6    1   0.4556  0.3407  0.8715  11.00000  0.05    0.24
Q7    1   0.2957  0.9561  0.5714  11.00000  0.05    0.24
Q8    1   0.6566  0.4892  0.6988  11.00000  0.05    0.24
Q9    1   0.7806  0.1774  0.8284  11.00000  0.05    0.22
Q10   1   0.0655  0.6459  0.7203  11.00000  0.05    0.20
;
_shelx_res_checksum              25714
_shelx_hkl_file
;
  -1   0   0  953.70   17.60
   1   0   0  963.80   17.80
   1   0   0  980.30   17.80
  -2   0   0   50.29    4.10
  -2   0   0   46.80    4.60
   2   0   0   45.30    4.50
   2   0   0   55.89    4.20
  -3   0   0 3418.16   62.09
  -3   0   0 3402.36   61.49
   3   0   0 3374.96   61.99
   3   0   0 3563.64   62.19
  -4   0   0  107.19    7.10
  -4   0   0  112.19    7.80
   4   0   0  100.09    7.30
   4   0   0   98.39    7.10
  -5   0   0   35.00    6.20
  -5   0   0   44.30    7.10
   5   0   0   36.20    6.10
   5   0   0   38.40    6.60
  -6   0   0   91.29    8.10
  -6   0   0   88.59    8.70
   6   0   0  102.49    8.70
   6   0   0   89.19    8.10
  -7   0   0   18.30    5.70
  -7   0   0   17.10    5.90
   7   0   0    9.50    5.50
  -8   0   0   61.99   10.20
  -8   0   0   72.09   10.20
   8   0   0   67.89   10.70
   8   0   0   68.29   13.70
  -9   0   0   13.70    6.00
  -9   0   0   13.50    6.70
   9   0   0   11.40    5.70
   9   0   0   18.60    7.20
   9  -1   0   26.60    8.40
   9  -1   0   28.90    8.00
  -9   1   0   24.70    6.90
   8  -1   0  196.08   13.80
   8  -1   0  148.29   12.80
  -8   1   0  172.18   13.10
  -8   1   0  172.08   12.80
   7  -1   0    4.40    4.40
  -7   1   0    3.10    4.70
  -7   1   0    8.10    4.70
   6  -1   0  124.39    9.60
  -6   1   0  115.09    9.20
  -6   1   0  129.99   11.60
   5  -1   0 1092.09   28.40
   5  -1   0 1052.39   28.30
  -5   1   0 1079.99   28.50
  -5   1   0 1040.70   27.60
   4  -1   0  261.67   11.30
   4  -1   0  253.17   10.90
  -4   1   0  247.18   10.80
  -4   1   0  268.37   11.60
   3  -1   0 1177.78   25.80
   3  -1   0 1160.28   26.00
  -3   1   0 1160.88   25.50
  -3   1   0 1138.59   25.80
   2  -1   0  582.34   13.90
  -2   1   0  551.84   15.00
  -2   1   0  563.84   13.80
   1  -1   0 3025.90   50.79
   1  -1   0 2997.90   51.09
  -1   1   0 3035.00   51.09
  -1   1   0 3020.00   50.79
   0  -1   0  710.63   13.50
   0  -1   0  756.92   13.50
   0   1   0  726.03   13.30
   0   1   0  720.93   13.50
  -1  -1   0 2668.43   45.80
  -1  -1   0 2715.83   45.70
   1   1   0 2743.53   46.00
  -2  -1   0  402.46   11.20
  -2  -1   0  418.16   11.40
   2   1   0  413.46   11.60
   2   1   0  425.46   11.40
  -3  -1   0 2907.11   54.39
  -3  -1   0 3029.70   56.99
   3   1   0 2953.30   54.59
  -4  -1   0   19.70    4.30
  -4  -1   0   23.80    4.90
   4   1   0   18.70    4.60
   4   1   0   14.10    4.10
  -5  -1   0  234.98   11.70
  -5  -1   0  233.08   11.20
   5   1   0  236.68   11.70
   5   1   0  223.48   11.40
  -6  -1   0  462.25   17.70
  -6  -1   0  464.25   18.20
   6   1   0  460.85   18.10
   6   1   0  465.85   18.20
  -7  -1   0    9.60    4.00
  -7  -1   0   12.10    5.20
   7   1   0   20.40    6.00
  -8  -1   0  247.28   14.90
  -8  -1   0  261.37   16.20
   8   1   0  257.67   15.40
  -9  -1   0   95.59   10.90
  -9  -1   0   55.59   10.70
   9   1   0  108.09   16.00
   9   1   0   78.09   12.40
   8  -2   0  110.59   11.20
  -8   2   0   85.79    9.70
   7  -2   0  155.18   11.90
   7  -2   0  130.09   11.60
  -7   2   0  162.38   12.20
  -7   2   0  165.98   11.90
   6  -2   0   81.79    8.20
   6  -2   0   66.79    7.50
  -6   2   0   77.39   10.10
  -6   2   0   68.89    7.70
   5  -2   0  120.39    8.50
   5  -2   0  118.89    8.80
  -5   2   0  118.19    8.60
  -5   2   0  127.69    9.30
   4  -2   0  471.65   16.30
  -4   2   0  501.05   16.40
   3  -2   0  226.08    9.80
   3  -2   0  231.98    9.50
  -3   2   0  240.08   10.00
  -3   2   0  221.48    9.30
   2  -2   0  778.62   17.80
   2  -2   0  689.33   17.50
  -2   2   0  741.73   17.60
  -2   2   0  775.62   18.10
   1  -2   0  107.19    5.30
   1  -2   0  107.09    5.00
  -1   2   0  105.29    5.00
  -1   2   0  120.99    6.40
   0  -2   0  440.96   10.30
   0  -2   0  417.56   10.40
   0   2   0  424.86   10.50
   0   2   0  434.56   10.20
  -1  -2   0  382.66    9.90
  -1  -2   0  364.86    9.90
   1   2   0  371.06    9.90
   1   2   0  363.06   10.00
  -2  -2   0 2714.23   49.70
  -2  -2   0 2772.92   46.30
   2   2   0 2801.92   50.29
   2   2   0 2764.42   49.70
  -3  -2   0  784.82   19.50
  -3  -2   0  766.42   19.50
   3   2   0  742.53   19.40
   3   2   0  811.72   19.80
  -4  -2   0    0.50    2.70
  -4  -2   0   -2.50    2.40
   4   2   0    1.00    2.90
   4   2   0    0.00    3.10
  -5  -2   0  671.03   21.00
  -5  -2   0  654.43   20.60
   5   2   0  678.93   20.90
   5   2   0  660.83   21.10
  -6  -2   0  113.39    9.00
  -6  -2   0  112.59    9.20
   6   2   0  117.89    9.60
   6   2   0  127.19    9.60
  -7  -2   0   60.89    9.10
  -7  -2   0   51.79    8.30
   7   2   0   53.29    9.00
   7   2   0   53.39    9.30
  -8  -2   0   12.00    5.70
  -8  -2   0    5.80    5.20
   8   2   0    9.40    4.90
  -9  -2   0   16.10    6.00
  -9  -2   0    6.00    6.30
   9   2   0   22.50    7.40
   9   2   0   15.00    6.60
   7  -3   0   63.59    9.80
   7  -3   0   65.49    9.90
  -7   3   0   65.09    9.70
   6  -3   0  131.79   10.20
  -6   3   0  134.59   10.50
  -6   3   0  160.78   11.10
   5  -3   0   65.19    8.50
  -5   3   0   65.39    7.00
  -5   3   0   52.99    8.20
   4  -3   0   32.60    5.90
  -4   3   0   22.90    5.70
   3  -3   0  967.50   24.30
   3  -3   0  960.50   23.60
  -3   3   0  963.40   24.20
  -3   3   0  954.90   23.60
   2  -3   0  285.67   10.60
   2  -3   0  285.07   10.00
  -2   3   0  297.57   10.70
  -2   3   0  295.17   10.30
   1  -3   0  530.25   13.70
   1  -3   0  540.65   14.20
  -1   3   0  526.25   14.10
  -1   3   0  529.75   13.80
   0  -3   0  678.73   15.90
   0  -3   0  689.23   16.30
   0   3   0  692.33   16.00
   0   3   0  705.23   16.50
  -1  -3   0  549.35   13.90
  -1  -3   0  542.35   14.10
   1   3   0  518.25   13.60
   1   3   0  523.45   14.00
  -2  -3   0 1965.60   37.80
  -2  -3   0 1904.61   37.80
   2   3   0 1872.81   36.90
   2   3   0 1952.70   38.10
  -3  -3   0   30.20    3.10
  -3  -3   0   28.90    4.70
  -3  -3   0   25.30    4.60
   3   3   0   27.30    4.40
   3   3   0   30.80    5.00
  -4  -3   0    2.00    3.10
  -4  -3   0    4.20    3.40
   4   3   0    3.70    2.80
   4   3   0   -3.10    2.50
  -5  -3   0   98.69    8.00
  -5  -3   0   91.39    7.80
   5   3   0   96.09    8.20
   5   3   0   97.29    8.00
  -6  -3   0   73.59    7.60
  -6  -3   0   78.09    8.00
   6   3   0   73.79    9.50
   6   3   0   71.89    7.80
  -7  -3   0  631.34   23.70
   7   3   0  674.93   24.70
  -8  -3   0    0.60    3.40
  -8  -3   0    3.90    4.80
   8   3   0    3.90    4.30
   8   3   0    1.20    4.70
  -9  -3   0   78.19   12.00
  -9  -3   0  102.29   11.80
   9   3   0  104.99   14.70
   9   3   0   95.09   11.30
 -10  -3   0  319.37   20.20
  10   3   0  326.67   21.20
  10   3   0  320.97   20.30
   7  -4   0   98.69   17.60
   7  -4   0   75.99   11.00
  -7   4   0   90.89   17.10
  -7   4   0   81.99    9.30
   6  -4   0  280.97   14.70
   6  -4   0  284.97   15.40
  -6   4   0  268.77   14.60
   5  -4   0   69.99    7.10
   5  -4   0   61.99    7.40
  -5   4   0   43.50    7.20
  -5   4   0   58.99    6.80
   4  -4   0   96.79    7.90
   4  -4   0   85.39    9.00
  -4   4   0   82.29    7.50
   3  -4   0  335.57   13.10
   3  -4   0  337.97   12.70
  -3   4   0  327.17   13.20
  -3   4   0  344.17   13.10
   2  -4   0  151.78    7.90
   2  -4   0  163.18    7.90
  -2   4   0  155.88    8.30
  -2   4   0  148.39    7.90
   1  -4   0   16.20    3.70
   1  -4   0   20.20    3.90
  -1   4   0   23.70    4.20
  -1   4   0   17.00    3.70
   0  -4   0  247.68    9.10
   0  -4   0  240.88    9.40
   0   4   0  244.58    8.40
   0   4   0  239.98    9.40
   0   4   0  245.78    9.30
  -1  -4   0    7.80    3.00
  -1  -4   0    6.30    2.90
   1   4   0    5.20    1.70
   1   4   0    6.10    3.10
   1   4   0    4.70    2.80
  -2  -4   0  185.48    8.70
  -2  -4   0  175.58    8.40
   2   4   0  182.38    8.80
  -3  -4   0   99.59    7.00
  -3  -4   0  105.89    7.30
   3   4   0  100.89    7.00
   3   4   0   95.69    7.20
  -4  -4   0  479.25   12.30
  -4  -4   0  461.05   16.60
  -4  -4   0  498.55   17.10
   4   4   0  437.56   16.50
   4   4   0  547.45   17.60
  -5  -4   0  763.52   19.00
  -5  -4   0  777.82   23.90
   5   4   0  772.42   24.10
   5   4   0  835.42   25.00
  -6  -4   0  186.98   12.00
   6   4   0  204.18   12.50
   6   4   0  210.28   12.70
  -7  -4   0  183.08   15.50
   7   4   0  170.48   15.50
  -8  -4   0   24.20    6.50
  -8  -4   0   15.30    6.60
   8   4   0   22.00    6.70
   8   4   0   26.60    6.90
  -9  -4   0  153.98   13.20
  -9  -4   0  148.29   12.80
   9   4   0  138.29   13.30
   9   4   0  150.48   13.90
 -10  -4   0    0.20    6.60
 -10  -4   0   -3.80    4.60
  10   4   0    5.40    8.00
  10   4   0    2.70    7.30
   6  -5   0   15.60    6.60
   6  -5   0   13.10    5.90
  -6   5   0   20.90    5.90
  -6   5   0    5.00    4.20
   5  -5   0   75.49    8.20
   5  -5   0   75.29    7.60
  -5   5   0   70.19    7.80
   4  -5   0   87.89    7.70
   4  -5   0   91.29    8.20
  -4   5   0   92.39   10.10
  -4   5   0   77.89    7.90
   3  -5   0   69.89    6.80
   3  -5   0   79.19    6.50
  -3   5   0   83.99    7.60
  -3   5   0   84.09    6.90
   2  -5   0   23.00    4.60
   2  -5   0   26.20    5.10
  -2   5   0   20.80    4.90
  -2   5   0   26.90    5.00
   1  -5   0  147.49    7.90
   1  -5   0  146.69    7.80
  -1   5   0  141.79    8.00
  -1   5   0  140.89    7.80
   0  -5   0  389.16   12.60
   0  -5   0  340.87   12.30
   0   5   0  346.57   12.50
   0   5   0  321.87   10.90
   0   5   0  358.96   13.00
  -1  -5   0   57.79    5.30
  -1  -5   0   49.90    5.30
   1   5   0   54.39    5.40
   1   5   0   53.59    5.50
   1   5   0   45.00    3.50
  -2  -5   0  826.82   21.50
  -2  -5   0  765.12   21.30
   2   5   0  803.72   21.60
   2   5   0  784.32   21.80
  -3  -5   0 1358.56   31.50
  -3  -5   0 1279.67   31.20
   3   5   0 1265.07   31.50
   3   5   0 1311.27   30.90
  -4  -5   0    8.90    3.80
  -4  -5   0   16.90    4.80
   4   5   0   11.40    4.50
   4   5   0   11.70    4.60
  -5  -5   0  363.66   15.80
  -5  -5   0  319.37   11.50
  -5  -5   0  338.17   15.30
   5   5   0  320.47   15.20
   5   5   0  314.67   14.70
  -6  -5   0    4.90    3.90
  -6  -5   0    3.70    2.50
  -6  -5   0    0.70    4.40
   6   5   0    1.80    4.00
   6   5   0    1.90    5.30
  -7  -5   0   50.39    5.70
  -7  -5   0   64.99   10.40
   7   5   0   55.59    9.90
  -8  -5   0   26.70    5.50
  -8  -5   0   19.50    6.30
   8   5   0   38.40    9.00
   8   5   0   35.70    9.30
  -9  -5   0   81.49   12.80
  -9  -5   0   64.79    8.80
   9   5   0   60.19   10.90
   9   5   0   84.69   13.60
   5  -6   0   65.59   11.20
   5  -6   0   72.59   10.30
  -5   6   0   59.59    8.30
   4  -6   0    7.90    3.60
   4  -6   0    2.60    3.30
  -4   6   0    3.20    4.00
  -4   6   0    0.10    3.30
   3  -6   0   18.10    5.00
   3  -6   0   23.10    5.20
  -3   6   0   16.10    5.00
  -3   6   0   20.70    5.10
   2  -6   0  498.75   17.50
   2  -6   0  537.45   17.20
  -2   6   0  515.15   17.50
  -2   6   0  559.24   18.90
   1  -6   0    3.20    2.30
   1  -6   0    1.60    2.70
  -1   6   0   -1.00    2.90
  -1   6   0   -1.30    2.50
  -1   6   0    0.30    1.90
   0  -6   0  978.20   25.30
   0  -6   0  995.00   24.90
   0   6   0 1012.90   25.60
   0   6   0  989.90   25.90
   0   6   0  961.30   23.60
  -1  -6   0  144.89    8.40
  -1  -6   0  127.19    8.10
   1   6   0  141.89    8.50
   1   6   0  122.19    8.50
  -2  -6   0  100.19    7.30
  -2  -6   0  110.59    8.80
   2   6   0  106.59    7.80
   2   6   0  103.79    8.10
  -3  -6   0    3.20    3.00
  -3  -6   0    7.20    2.90
   3   6   0    4.30    3.30
   3   6   0    2.70    3.30
  -4  -6   0  105.59    8.70
  -4  -6   0  103.49    8.30
   4   6   0   89.69    8.10
   4   6   0   90.79    8.50
  -5  -6   0    4.20    4.00
   5   6   0    7.90    5.50
   5   6   0   -0.20    3.60
  -6  -6   0  547.25   21.60
   6   6   0  550.34   22.20
   6   6   0  557.54   22.70
  -7  -6   0    6.00    4.00
  -7  -6   0    5.70    3.00
   7   6   0   12.20    6.60
   7   6   0    3.10    3.90
  -8  -6   0  142.79   13.00
  -8  -6   0  123.79    9.00
  -8  -6   0  117.49   11.40
   8   6   0  140.69   12.50
   8   6   0  120.29   12.60
  -9  -6   0   95.59   14.60
  -9  -6   0   89.09    9.20
  -9  -6   0  109.39   16.00
   9   6   0  112.39   12.80
   9   6   0  125.09   16.10
   4  -7   0   77.69    9.00
   4  -7   0   63.59    8.70
  -4   7   0   65.49   10.20
  -4   7   0   98.99    8.80
   3  -7   0  168.78   10.50
   3  -7   0  165.38    9.90
  -3   7   0  152.88   10.50
  -3   7   0  151.58   11.10
  -3   7   0  146.99   10.50
   2  -7   0   -0.60    2.90
   2  -7   0   -0.60    2.30
  -2   7   0    4.60    3.10
  -2   7   0   -0.60    2.90
  -2   7   0    2.20    3.40
   1  -7   0  139.59    8.70
   1  -7   0  144.59    9.10
  -1   7   0  140.19    9.10
  -1   7   0  152.38    9.60
  -1   7   0  146.59    9.40
   0  -7   0  104.89    7.70
   0   7   0  100.89    8.40
   0   7   0  107.49    7.20
   0   7   0  106.89    8.10
  -1  -7   0  733.03   21.70
  -1  -7   0  737.83   22.50
   1   7   0  739.73   18.40
   1   7   0  747.33   28.20
  -2  -7   0   58.19    6.40
  -2  -7   0   49.00    5.90
  -3  -7   0  542.85   21.70
  -3  -7   0  568.04   19.70
   3   7   0  559.34   19.20
   3   7   0  543.65   20.20
  -4  -7   0  244.18   13.20
  -4  -7   0  262.27   13.40
   4   7   0  267.87   14.20
   4   7   0  252.77   13.60
  -5  -7   0   -0.90    2.90
   5   7   0   -0.40    3.50
   5   7   0    5.70    3.90
  -6  -7   0  330.37   17.40
   6   7   0  340.57   17.50
   6   7   0  316.67   17.30
  -7  -7   0   82.69   12.10
  -7  -7   0   73.79   10.90
   7   7   0   85.09    9.70
   7   7   0  110.69   11.90
  -8  -7   0   10.70    5.30
  -8  -7   0    5.40    5.70
   8   7   0   22.60    7.30
   8   7   0   34.00   10.20
  -9  -7   0    1.00    5.70
  -9  -7   0   -3.90    4.60
  -9  -7   0    0.90    3.60
   9   7   0   15.30    7.90
   9   7   0    7.40    5.90
   2  -8   0   -2.70    4.00
   2  -8   0    3.50    3.60
  -2   8   0    5.10    3.30
  -2   8   0   -2.30    3.60
  -2   8   0    2.40    3.40
   1  -8   0  284.77   12.70
   1  -8   0  251.57   14.00
  -1   8   0  257.97   13.30
  -1   8   0  268.77   13.80
  -1   8   0  250.97   12.70
   0  -8   0  139.49    8.90
   0   8   0  126.59    8.00
   0   8   0  119.89    9.20
   0   8   0  106.89   10.50
   1   8   0   34.50    6.70
   1   8   0   28.30    5.70
  -2  -8   0  264.17   13.20
   2   8   0  251.17   13.90
  -3  -8   0  139.79   10.20
   3   8   0  145.29   10.90
   3   8   0  140.29   10.30
  -4  -8   0    3.60    3.90
   4   8   0    6.20    4.80
   4   8   0    0.80    3.70
  -5  -8   0  158.28   11.90
  -5  -8   0  162.68   11.90
   5   8   0  133.79   11.20
   5   8   0  170.78   12.60
  -6  -8   0   15.90    6.10
  -6  -8   0    7.30    5.80
   6   8   0   22.10    6.50
   6   8   0   19.20    6.60
  -7  -8   0    6.20    5.00
  -7  -8   0    8.50    6.60
   7   8   0    9.20    6.40
   7   8   0    0.00    3.50
  -8  -8   0   -6.60    5.40
  -8  -8   0    3.00    5.90
   8   8   0   21.10    7.60
   8   8   0    6.60    4.60
   0  -9   0    0.90    4.10
   0  -9   0    8.10    3.50
   0   9   0   -0.80    3.90
   0   9   0    3.40    3.50
  -1  -9   0    4.10    3.70
   1   9   0   -5.60    3.20
   1   9   0   -4.30    3.60
  -2  -9   0  107.99    9.60
  -2  -9   0   94.69    8.50
   2   9   0  109.29    9.10
  -3  -9   0    8.40    3.60
  -3  -9   0    5.20    4.00
   3   9   0    5.90    4.30
   3   9   0    5.20    5.10
  -4  -9   0   18.40    5.50
  -4  -9   0   19.80    5.80
   4   9   0   13.80    5.20
   4   9   0   25.80    6.70
  -5  -9   0  123.49   11.50
  -5  -9   0  103.39   10.40
   5   9   0  100.49   10.90
   5   9   0  107.49   10.80
  -6  -9   0   15.00    5.90
  -6  -9   0   13.80    6.30
   6   9   0   19.30    9.90
   6   9   0   18.30    6.30
  -7  -9   0   31.10    8.80
  -7  -9   0   18.10    6.40
   7   9   0   29.00    8.30
   7   9   0   29.60    9.50
   6   9  -1   49.20   10.20
   6   9  -1   65.89   11.80
  -6  -9   1   61.09   10.70
  -6  -9   1   31.40    8.90
   5   9  -1   23.80    8.00
  -5  -9   1   21.80    7.20
  -5  -9   1   18.40    6.60
   4   9  -1   95.79   10.40
   4   9  -1   77.49   16.00
  -4  -9   1  110.19   11.00
   3   9  -1   59.19   10.10
   3   9  -1   65.49    9.40
  -3  -9   1   65.69   10.80
  -3  -9   1   73.59   10.80
   2   9  -1    1.50    4.10
  -2  -9   1    9.50    4.90
  -2  -9   1    6.40    3.70
   1   9  -1  177.78   12.70
  -1  -9   1  180.68   12.30
  -1  -9   1  198.38   13.70
   7   8  -1   65.19   10.80
   7   8  -1   88.59   13.20
  -7  -8   1   55.19   10.70
  -7  -8   1   67.19   12.50
   6   8  -1   74.19   11.60
   6   8  -1   55.39   10.00
  -6  -8   1   56.79    9.80
  -6  -8   1   69.99   11.00
   5   8  -1  292.37   17.10
   5   8  -1  263.17   16.20
  -5  -8   1  251.97   15.50
  -5  -8   1  278.77   16.50
   4   8  -1    5.90    4.40
   4   8  -1    5.90    4.50
  -4  -8   1   11.50    4.60
  -4  -8   1   20.40    6.50
   3   8  -1    1.10    4.10
  -3  -8   1    5.30    3.90
  -3  -8   1   -1.40    3.00
   2   8  -1    4.10    3.70
   2   8  -1    1.10    4.00
  -2  -8   1    7.60    3.40
  -2  -8   1    4.90    3.70
   1   8  -1   31.80    7.10
   1   8  -1   22.60    4.50
   1   8  -1   22.90    6.50
  -1  -8   1   22.00    5.70
  -1  -8   1   20.30    6.20
   0   8  -1   43.00    8.40
   0   8  -1   32.50    5.40
   0   8  -1   17.60    5.70
   0  -8   1   24.20    6.10
   0  -8   1   36.10    7.70
  -1   8  -1   84.59   11.00
  -1   8  -1   71.89    7.60
  -1   8  -1   75.09   10.10
   1  -8   1   86.69    9.50
   1  -8   1   79.79    7.80
  -2   8  -1   69.99   10.10
  -2   8  -1   63.19   10.80
  -2   8  -1   87.29    9.00
   2  -8   1   87.09   11.10
   2  -8   1   68.29    7.80
   8   7  -1   -0.90    5.20
   8   7  -1   16.90    8.30
  -8  -7   1   12.90    6.70
  -8  -7   1   10.50    5.70
   7   7  -1    8.80    4.90
   7   7  -1   15.70    5.60
  -7  -7   1   -0.10    4.50
  -7  -7   1    9.30    5.70
   6   7  -1   -2.30    7.70
   6   7  -1    6.20    3.80
   5   7  -1   11.10    4.90
   5   7  -1   10.30    5.30
  -5  -7   1    7.60    4.60
   4   7  -1   81.19   10.70
   4   7  -1   62.29    9.50
  -4  -7   1   72.69    8.30
   3   7  -1  509.15   20.70
  -3  -7   1  525.75   20.10
  -3  -7   1  502.55   20.00
   2   7  -1   20.90    5.50
   2   7  -1   13.10    5.20
  -2  -7   1   18.40    5.10
  -2  -7   1   23.30    5.80
   1   7  -1    7.90    4.60
   1   7  -1    9.20    4.40
   1   7  -1   15.60    3.70
  -1  -7   1   17.10    5.10
  -1  -7   1   17.70    4.30
   0   7  -1  148.39   10.80
   0   7  -1  141.29    8.80
   0   7  -1  150.58   10.30
   0  -7   1  148.89   10.50
   0  -7   1  164.08   10.50
  -1   7  -1   70.79    7.30
  -1   7  -1   69.89    7.90
  -1   7  -1   71.39    9.80
   1  -7   1   65.49    6.90
  -2   7  -1    3.60    3.50
  -2   7  -1    2.90    3.00
  -2   7  -1    3.90    3.60
   2  -7   1    4.20    4.20
   2  -7   1    2.50    3.30
  -3   7  -1   12.50    5.20
  -3   7  -1   21.00    5.30
  -3   7  -1   13.90    5.60
   3  -7   1   17.40    5.20
   3  -7   1   27.30    6.10
   9   6  -1   17.80    9.80
   9   6  -1    9.40    5.90
  -9  -6   1    8.50    6.60
  -9  -6   1   10.60    5.30
  -9  -6   1   12.40    6.90
   8   6  -1  213.48   15.90
   8   6  -1  202.28   15.60
  -8  -6   1  211.98   11.60
  -8  -6   1  202.38   15.20
  -8  -6   1  206.68   15.50
   7   6  -1  100.09   11.60
   7   6  -1   90.19   10.80
  -7  -6   1   94.89   10.80
  -7  -6   1  101.19    7.60
  -7  -6   1  112.29   11.00
   6   6  -1  427.06   20.40
   6   6  -1  467.95   20.50
  -6  -6   1  455.75   14.40
  -6  -6   1  443.06   20.30
  -6  -6   1  420.46   19.80
   5   6  -1   37.30    7.50
   5   6  -1   31.20    7.20
  -5  -6   1   33.00    7.00
   4   6  -1  345.17   15.90
   4   6  -1  355.36   20.40
  -4  -6   1  360.26   16.40
   3   6  -1   63.89    9.30
  -3  -6   1   62.29    7.20
  -3  -6   1   55.29    6.60
   2   6  -1   -0.90    3.40
   2   6  -1    1.70    3.20
  -2  -6   1    3.40    2.70
  -2  -6   1    1.00    2.70
   1   6  -1   89.59    7.80
   1   6  -1   99.99    6.20
   1   6  -1  100.59    8.70
  -1  -6   1   90.89    7.90
  -1  -6   1  105.79    8.10
   0   6  -1  159.88    8.70
   0   6  -1  170.08   10.10
   0   6  -1  170.38   10.80
   0  -6   1  158.58    9.70
   0  -6   1  163.48   10.10
  -1   6  -1  175.98   10.60
  -1   6  -1  158.98    9.30
  -1   6  -1  170.58   10.60
   1  -6   1  175.48   10.20
  -2   6  -1    7.40    3.70
  -2   6  -1   10.60    4.70
  -2   6  -1   10.70    4.10
   2  -6   1   11.00    4.00
   2  -6   1    9.80    3.90
  -3   6  -1  134.39   10.50
  -3   6  -1  150.68   10.60
  -3   6  -1  128.39   10.00
   3  -6   1  134.89    9.50
  -4   6  -1   17.40    6.30
  -4   6  -1   21.00    5.70
  -4   6  -1   22.70    5.80
   4  -6   1   23.60    6.30
   4  -6   1   25.60    6.10
  -5   6  -1   31.20    8.20
  -5   6  -1   31.60    7.80
  -5   6  -1   18.60    5.90
   5  -6   1   34.00    6.80
   9   5  -1  332.17   20.50
   9   5  -1  253.77   17.70
  -9  -5   1  292.27   19.10
  -9  -5   1  296.67   16.00
  -9  -5   1  293.97   18.30
   8   5  -1  175.58   13.80
   8   5  -1  161.58   14.00
  -8  -5   1  158.38   10.70
  -8  -5   1  156.78   13.10
  -8  -5   1  159.98   13.50
   7   5  -1  178.28   13.70
   7   5  -1  190.08   14.00
  -7  -5   1  182.98   13.90
  -7  -5   1  188.28   10.40
  -7  -5   1  191.08   13.80
   6   5  -1  423.86   19.10
   6   5  -1  410.96   19.30
  -6  -5   1  422.76   19.10
  -6  -5   1  440.96   15.00
  -6  -5   1  434.76   19.20
   5   5  -1  557.04   21.10
   5   5  -1  579.24   21.80
  -5  -5   1  558.14   15.90
  -5  -5   1  581.54   21.50
  -5  -5   1  555.04   21.10
   4   5  -1   67.89    7.60
   4   5  -1   69.19    7.30
  -4  -5   1   63.29    7.00
  -4  -5   1   67.79    7.40
  -4  -5   1   76.59    7.50
   3   5  -1   25.10    5.90
  -3  -5   1   23.80    5.90
  -3  -5   1   13.20    3.90
   2   5  -1  117.99    8.60
   2   5  -1  128.59    8.90
   2   5  -1  121.59    5.70
  -2  -5   1  127.19    8.60
  -2  -5   1  125.09    8.40
   1   5  -1  757.52   22.50
   1   5  -1  723.03   18.20
   1   5  -1  778.32   21.90
  -1  -5   1  780.62   21.90
  -1  -5   1  722.73   21.60
   0   5  -1  214.18    9.30
   0   5  -1  223.38   11.20
   0   5  -1  213.38   10.60
   0  -5   1  223.48   10.90
   0  -5   1  214.68   11.40
  -1   5  -1    4.20    3.20
  -1   5  -1    7.50    2.80
  -1   5  -1    4.60    3.10
   1  -5   1    9.40    3.70
   1  -5   1    5.40    4.10
  -2   5  -1 1271.47   31.70
  -2   5  -1 1304.57   32.80
  -2   5  -1 1262.57   31.60
   2  -5   1 1269.47   31.30
   2  -5   1 1247.28   32.00
  -3   5  -1    4.70    3.50
  -3   5  -1   -0.40    2.60
  -3   5  -1    4.30    2.90
   3  -5   1    3.90    3.10
   3  -5   1   12.70    4.10
  -4   5  -1  262.37   13.50
  -4   5  -1  246.68   13.70
  -4   5  -1  243.78   13.70
   4  -5   1  251.77   13.20
  -5   5  -1  138.69   10.80
  -5   5  -1  142.29   11.10
  -5   5  -1  135.49   11.20
   5  -5   1  131.39   10.10
   5  -5   1  145.19   11.40
  -6   5  -1    1.40    4.10
  -6   5  -1   10.50    4.80
  -6   5  -1   10.70    8.60
   6  -5   1   15.40    6.90
   6  -5   1    4.50    4.40
   9   4  -1   75.69   11.40
   9   4  -1  122.39   13.10
  -9  -4   1  101.99   11.60
  -9  -4   1  107.49   11.80
  -9  -4   1   95.59   10.10
   8   4  -1    6.90    5.40
   8   4  -1    5.90    4.90
  -8  -4   1    0.60    4.00
  -8  -4   1    7.30    5.30
  -8  -4   1   -0.40    3.40
   7   4  -1   11.90    4.80
   7   4  -1    4.20    4.90
  -7  -4   1    5.10    4.50
  -7  -4   1    0.60    3.40
  -7  -4   1    3.30    3.60
   6   4  -1  425.66   19.00
   6   4  -1  436.36   19.20
  -6  -4   1  415.36   18.60
  -6  -4   1  453.85   15.60
  -6  -4   1  436.26   18.80
   5   4  -1  185.78   11.50
   5   4  -1  177.08   11.50
  -5  -4   1  172.48    8.60
  -5  -4   1  178.78   11.10
  -5  -4   1  162.48   11.10
   4   4  -1   29.60    5.60
   4   4  -1   39.10    7.70
  -4  -4   1   30.80    6.30
  -4  -4   1   25.50    5.20
  -4  -4   1   28.50    4.40
   3   4  -1  481.55   16.90
   3   4  -1  478.35   16.00
  -3  -4   1  458.05   12.40
  -3  -4   1  446.16   16.20
  -3  -4   1  476.35   16.50
   2   4  -1   14.80    2.80
   2   4  -1   23.40    5.00
   2   4  -1   19.30    5.00
  -2  -4   1   17.80    4.20
  -2  -4   1   13.90    4.30
  -2  -4   1   18.20    2.80
   1   4  -1  576.04   17.70
   1   4  -1  543.05   14.10
  -1  -4   1  561.24   17.10
   0   4  -1   20.10    3.60
   0   4  -1   23.50    5.00
   0   4  -1   23.80    4.50
   0  -4   1   25.60    4.60
   0  -4   1   17.90    4.30
  -1   4  -1  709.23   19.30
  -1   4  -1  724.23   20.60
  -1   4  -1  735.73   20.20
   1  -4   1  747.03   20.10
   1  -4   1  731.23   20.50
  -2   4  -1  134.09    8.20
  -2   4  -1  141.49    9.00
   2  -4   1  120.89    8.30
  -3   4  -1   26.40    6.00
  -3   4  -1   20.60    5.20
   3  -4   1   29.70    5.50
   3  -4   1   21.60    5.30
  -4   4  -1   38.70    7.30
  -4   4  -1   42.40    7.60
   4  -4   1   40.10    7.00
   4  -4   1   39.60    7.20
  -5   4  -1   75.19    8.60
  -5   4  -1   71.49    8.10
   5  -4   1   65.29    7.70
  -6   4  -1   93.29    9.70
   6  -4   1   94.89   10.00
   6  -4   1   96.29    9.60
  -7   4  -1   48.30    8.90
   7  -4   1   43.00    9.10
   7  -4   1   71.59   11.50
   9   3  -1  153.58   14.20
   9   3  -1  207.78   15.60
  -9  -3   1  182.38   14.40
   8   3  -1  204.88   14.80
   8   3  -1  224.98   15.20
  -8  -3   1  205.78   14.80
   7   3  -1   49.99    8.70
   7   3  -1   50.59    8.90
  -7  -3   1   57.39    9.30
   6   3  -1  544.35   20.80
   6   3  -1  536.35   21.00
  -6  -3   1  519.65   20.20
  -6  -3   1  516.15   17.50
   5   3  -1  239.98   12.70
   5   3  -1  244.98   12.60
  -5  -3   1  238.18   10.40
  -5  -3   1  234.48   12.40
  -5  -3   1  241.48   12.70
   4   3  -1   41.80    6.80
   4   3  -1   40.20    6.50
  -4  -3   1   38.80    6.50
  -4  -3   1   36.30    5.90
  -4  -3   1   35.10    4.10
   3   3  -1  167.58    9.30
   3   3  -1  167.08    8.80
  -3  -3   1  160.68    8.90
  -3  -3   1  157.18    6.70
  -3  -3   1  173.98    9.10
   2   3  -1   82.79    6.40
   2   3  -1   99.89    7.00
   2   3  -1   97.69    4.70
  -2  -3   1   95.69    6.90
  -2  -3   1   93.29    4.80
  -2  -3   1  107.99    7.00
   1   3  -1  142.29    7.50
   1   3  -1  135.39    5.80
   1   3  -1  145.19    7.80
  -1  -3   1  122.89    7.30
  -1  -3   1  151.38    7.60
  -1  -3   1  135.79    5.60
   0   3  -1  133.59    7.50
   0   3  -1  112.89    5.80
   0   3  -1  120.59    6.80
   0  -3   1  112.49    6.60
   0  -3   1  122.69    7.10
  -1   3  -1  460.65   14.00
  -1   3  -1  455.35   14.40
  -1   3  -1  437.46   13.20
   1  -3   1  470.95   14.00
   1  -3   1  456.45   14.40
  -2   3  -1  162.18    8.30
  -2   3  -1  157.78    8.80
   2  -3   1  167.78    8.30
   2  -3   1  159.88    8.70
  -3   3  -1   -1.80    2.00
  -3   3  -1    2.40    2.70
   3  -3   1    1.70    2.30
   3  -3   1   -0.20    2.40
  -4   3  -1  473.25   17.60
  -4   3  -1  469.45   17.10
   4  -3   1  485.45   17.20
   4  -3   1  468.85   17.50
  -5   3  -1  148.99   10.40
  -5   3  -1  153.88   10.30
   5  -3   1  155.08   10.60
   5  -3   1  144.09   10.30
  -6   3  -1  104.09    9.70
   6  -3   1   99.99    9.20
   6  -3   1   95.89    9.70
  -7   3  -1   18.10    6.60
  -7   3  -1    6.70    5.30
   7  -3   1   34.20    8.10
   7  -3   1   32.20    7.20
   9   2  -1  116.29   12.40
   9   2  -1  145.99   14.90
  -9  -2   1  114.69   12.30
  -9  -2   1   92.39   10.20
   8   2  -1  177.68   15.60
   8   2  -1  180.08   17.10
  -8  -2   1  166.68   13.30
  -8  -2   1  174.98   12.90
   7   2  -1    1.90    3.70
   7   2  -1    1.20    4.20
  -7  -2   1    2.00    3.40
  -7  -2   1    0.30    3.60
   6   2  -1  197.58   12.20
   6   2  -1  209.38   12.60
  -6  -2   1  213.48   12.30
  -6  -2   1  215.28   12.30
   5   2  -1   78.19    7.60
   5   2  -1   79.89    7.60
  -5  -2   1   68.39    7.10
  -5  -2   1   95.49    7.80
   4   2  -1  321.87   13.20
   4   2  -1  313.17   12.90
  -4  -2   1  310.67   12.40
  -4  -2   1  309.67   13.00
   3   2  -1   -1.40    2.50
   3   2  -1   -2.20    2.30
  -3  -2   1    3.80    2.80
  -3  -2   1    0.10    2.30
  -3  -2   1   -0.40    2.10
   2   2  -1  225.78    7.20
   2   2  -1  243.28    9.70
  -2  -2   1  232.68    7.50
  -2  -2   1  224.38    9.20
   1   2  -1  226.78    7.00
   1   2  -1  240.28    8.70
  -1  -2   1  235.88    8.70
  -1  -2   1  230.88    7.10
  -1  -2   1  229.18    9.90
   0   2  -1 1855.11   37.60
   0   2  -1 1845.22   35.10
   0   2  -1 1771.22   33.80
   0  -2   1 1926.81   35.40
   0  -2   1 1856.91   33.70
  -1   2  -1 1675.53   32.80
  -1   2  -1 1669.43   33.40
   1  -2   1 1697.93   32.80
   1  -2   1 1614.54   33.00
  -2   2  -1  695.33   17.90
  -2   2  -1  720.03   18.80
   2  -2   1  703.53   18.50
   2  -2   1  700.43   18.00
  -3   2  -1 1442.16   32.20
   3  -2   1 1381.76   31.80
  -4   2  -1   97.89    7.90
  -4   2  -1   90.19    7.10
   4  -2   1  103.59    7.40
   4  -2   1  113.99    8.20
  -5   2  -1   23.00    5.70
  -5   2  -1   24.90    5.50
   5  -2   1   21.50    5.30
   5  -2   1   30.20    6.00
  -6   2  -1  233.98   13.60
  -6   2  -1  242.18   13.50
   6  -2   1  249.18   13.70
   6  -2   1  254.67   13.90
  -7   2  -1   -2.00    3.30
  -7   2  -1    6.00    4.00
   7  -2   1    3.70    4.30
   7  -2   1   10.50    4.50
  -8   2  -1    4.00    4.20
   8  -2   1    2.50    4.90
   8  -2   1    3.40    6.30
   9   1  -1  151.28   14.10
   9   1  -1  153.08   16.00
  -9  -1   1  175.68   14.40
   8   1  -1  107.19   10.50
  -8  -1   1  124.49   11.00
  -8  -1   1  108.59   11.00
   7   1  -1  109.79   10.10
  -7  -1   1  107.89   10.00
  -7  -1   1  124.39   10.80
   6   1  -1  121.59    9.50
   6   1  -1  112.99    9.30
  -6  -1   1  105.79    9.20
  -6  -1   1  130.09    9.50
   5   1  -1 1689.93   38.50
   5   1  -1 1640.14   38.30
  -5  -1   1 1648.94   38.10
  -5  -1   1 1587.44   37.70
   4   1  -1  818.62   22.00
   4   1  -1  768.22   21.70
  -4  -1   1  800.62   21.80
  -4  -1   1  806.52   21.70
   3   1  -1   -1.60    2.20
   3   1  -1   -1.30    2.20
  -3  -1   1   -0.60    2.50
   2   1  -1 5101.99   86.69
   2   1  -1 4995.90   86.19
  -2  -1   1 5065.19   86.59
  -2  -1   1 4987.70   84.79
  -2  -1   1 5212.98   86.99
   1   1  -1   28.60    3.50
   1   1  -1   32.00    3.80
   1   1  -1   25.70    2.80
  -1  -1   1   23.30    2.90
  -1  -1   1   31.50    3.80
  -1  -1   1   31.50    4.00
   0   1  -1  446.46   11.30
   0   1  -1  448.36   10.80
   0   1  -1  415.96   10.10
   0  -1   1  448.56   10.30
   0  -1   1  452.55   11.20
   0  -1   1  459.45   11.00
  -1   1  -1  586.54   13.70
  -1   1  -1  592.04   14.30
  -1   1  -1  595.54   13.90
   1  -1   1  581.84   14.20
   1  -1   1  586.24   13.80
  -2   1  -1   14.30    3.60
  -2   1  -1    7.50    2.90
   2  -1   1    7.70    2.80
   2  -1   1   10.30    3.30
  -3   1  -1   10.30    3.50
  -3   1  -1    9.20    3.30
   3  -1   1    7.00    3.50
  -4   1  -1  101.99    7.40
  -4   1  -1  109.79    8.00
   4  -1   1  108.19    7.60
   4  -1   1  120.19    8.10
  -5   1  -1  114.99    9.10
  -5   1  -1  132.09    8.70
   5  -1   1  123.19    8.80
   5  -1   1  125.29    9.00
  -6   1  -1  238.68   13.60
  -6   1  -1  254.47   13.20
   6  -1   1  240.28   13.00
   6  -1   1  266.77   15.20
  -7   1  -1  181.68   12.20
  -7   1  -1  169.98   12.90
   7  -1   1  176.78   12.30
  -8   1  -1  307.97   17.50
   8  -1   1  337.27   18.30
   8  -1   1  310.67   18.00
  -9   1  -1  244.38   15.90
   9  -1   1  212.88   16.20
   9  -1   1  219.68   16.80
   9   0  -1   56.19   10.70
   9   0  -1   67.29    7.20
   9   0  -1   80.99   13.00
  -9   0   1   85.19   13.00
  -9   0   1   53.89    9.30
   8   0  -1  271.17   16.20
   8   0  -1  299.57   17.00
   8   0  -1  306.57   14.80
  -8   0   1  287.57   16.10
  -8   0   1  279.37   16.30
   7   0  -1  150.28   11.20
  -7   0   1  141.59   10.70
  -7   0   1  155.68   11.80
   6   0  -1  802.92   24.90
   6   0  -1  785.52   24.60
  -6   0   1  774.32   24.10
  -6   0   1  763.22   24.60
   5   0  -1   26.90    5.30
   5   0  -1   26.60    5.50
  -5   0   1   29.20    6.00
  -5   0   1   14.80    4.30
   4   0  -1  525.35   16.30
  -4   0   1  488.75   15.70
  -4   0   1  492.85   16.00
   3   0  -1  536.45   15.00
   3   0  -1  523.05   15.00
  -3   0   1  531.95   14.90
  -3   0   1  529.25   15.10
   2   0  -1 2970.50   53.59
   2   0  -1 3086.79   53.79
  -2   0   1 3148.49   53.99
  -2   0   1 3020.40   53.69
   1   0  -1   -4.70    1.70
   1   0  -1   -4.40    1.60
  -1   0   1   -5.40    1.50
  -1   0   1   -6.10    1.40
  -1   0   1   -5.10    1.50
   0   0  -1   -3.90    1.30
   0   0  -1   -1.90    1.00
   0   0  -1   -3.20    1.10
   0   0  -1   -1.60    1.40
   0   0   1   -2.20    1.10
   0   0   1   -4.70    1.10
   0   0   1   -3.80    1.20
   0   0   1   -2.40    1.40
  -1   0  -1 1343.47   25.30
  -1   0  -1 1424.56   26.00
  -1   0  -1 1432.26   25.70
   1   0   1 1399.96   26.00
   1   0   1 1424.06   25.70
  -2   0  -1  193.38    7.80
  -2   0  -1  192.68    7.30
   2   0   1  193.08    7.40
   2   0   1  192.88    7.80
  -3   0  -1  266.37   10.50
  -3   0  -1  279.77   11.60
   3   0   1  255.97   10.40
  -4   0  -1 1110.89   27.40
  -4   0  -1 1131.99   27.00
   4   0   1 1111.29   27.10
   4   0   1 1120.99   27.60
  -5   0  -1   29.40    5.60
  -5   0  -1   22.10    5.40
   5   0   1   20.30    4.90
   5   0   1   31.40    5.90
  -6   0  -1  570.64   20.10
  -6   0  -1  574.14   21.10
   6   0   1  544.45   20.40
   6   0   1  604.94   21.30
  -7   0  -1  368.36   17.20
  -7   0  -1  402.76   18.70
   7   0   1  399.46   18.30
  -8   0  -1   41.40    9.40
  -8   0  -1   37.50    8.20
   8   0   1   22.20    7.30
  -9   0  -1   11.10    6.00
  -9   0  -1    1.50    3.80
   9   0   1    0.70    5.70
   9   0   1    5.00    5.90
   8  -1  -1  100.79   10.90
   8  -1  -1  120.59    7.80
   8  -1  -1  121.99   11.90
  -8   1   1  120.29   11.10
  -8   1   1  110.59   11.10
   7  -1  -1    5.30    4.00
   7  -1  -1    0.10    2.10
  -7   1   1    2.70    3.80
  -7   1   1    2.90    4.10
   6  -1  -1  220.38   14.00
   6  -1  -1  227.68   12.70
   6  -1  -1  242.28    9.40
  -6   1   1  231.28   12.50
  -6   1   1  232.28   12.80
   5  -1  -1  394.86   15.10
   5  -1  -1  350.16   11.10
   5  -1  -1  357.16   14.50
  -5   1   1  367.16   14.40
  -5   1   1  372.66   14.90
   4  -1  -1   20.70    4.30
   4  -1  -1   18.60    2.90
   4  -1  -1   14.10    4.00
  -4   1   1   12.30    3.60
  -4   1   1   21.50    4.60
   3  -1  -1 1063.19   24.50
   3  -1  -1 1126.39   24.70
   3  -1  -1 1143.39   22.10
  -3   1   1 1145.09   25.20
  -3   1   1 1097.79   24.30
   2  -1  -1   88.39    4.90
   2  -1  -1   89.49    3.90
  -2   1   1   69.79    5.30
  -2   1   1   87.09    4.70
   1  -1  -1  101.39    3.80
   1  -1  -1   93.19    4.00
  -1   1   1   98.79    3.80
  -1   1   1  101.19    3.70
  -1   1   1  104.89    4.00
   0  -1  -1 2030.70   35.00
   0  -1  -1 2112.09   35.00
   0   1   1 2083.79   35.00
   0   1   1 2105.49   35.20
  -1  -1  -1  304.47    7.20
  -1  -1  -1  274.77    6.50
  -1  -1  -1  286.57    7.00
   1   1   1  289.97    7.20
   1   1   1  287.17    6.90
   1   1   1  276.27    6.40
  -2  -1  -1  392.96   11.00
  -2  -1  -1  369.86   10.50
   2   1   1  384.06   10.60
   2   1   1  393.36   10.90
  -3  -1  -1  952.20   23.60
   3   1   1  936.71   22.10
   3   1   1  940.01   22.00
  -4  -1  -1  493.55   16.00
  -4  -1  -1  491.25   15.70
   4   1   1  504.35   16.30
   4   1   1  497.15   15.80
  -5  -1  -1   56.49    8.00
  -5  -1  -1   55.79    6.20
   5   1   1   53.89    7.50
   5   1   1   61.69    8.10
  -6  -1  -1   -2.90    2.30
  -6  -1  -1   -0.80    3.20
   6   1   1    0.20    3.30
   6   1   1    5.80    3.40
  -7  -1  -1   29.40    6.90
  -7  -1  -1   36.70    7.10
   7   1   1   38.10    7.90
   7   1   1   28.70    6.80
  -8  -1  -1   36.10    7.90
   8   1   1   41.50    9.80
  -9  -1  -1  134.39   12.70
  -9  -1  -1  129.69   12.70
   9   1   1  148.69   13.70
   9   1   1  158.98   13.80
   8  -2  -1  195.98   13.90
  -8   2   1  194.28   13.10
   7  -2  -1    3.40    3.80
   7  -2  -1    9.70    4.00
  -7   2   1   -2.60    3.90
  -7   2   1    1.60    4.40
   6  -2  -1  368.36   16.30
   6  -2  -1  386.16   16.50
  -6   2   1  397.26   16.30
  -6   2   1  394.86   16.80
   5  -2  -1 1126.99   28.80
   5  -2  -1 1122.29   29.20
  -5   2   1 1090.59   28.30
  -5   2   1 1098.59   29.30
   4  -2  -1   19.20    4.40
   4  -2  -1   12.00    3.30
   4  -2  -1   17.80    2.90
  -4   2   1   20.50    4.70
  -4   2   1   16.30    4.00
   3  -2  -1  724.63   18.20
   3  -2  -1  761.12   16.40
   3  -2  -1  709.43   18.40
  -3   2   1  737.13   18.20
  -3   2   1  724.03   18.60
   2  -2  -1   32.30    4.00
   2  -2  -1   36.30    4.10
   2  -2  -1   29.50    2.70
  -2   2   1   29.40    2.60
  -2   2   1   31.40    3.40
  -2   2   1   35.40    4.40
   1  -2  -1  229.08    6.40
  -1   2   1  231.98    6.30
  -1   2   1  231.38    6.20
  -1   2   1  223.98    6.40
  -1  -2  -1  365.46    8.40
  -1  -2  -1  362.46    8.50
   1   2   1  366.76    8.60
   1   2   1  372.76    8.70
  -2  -2  -1   69.69    4.60
  -2  -2  -1   66.49    4.70
   2   2   1   62.09    4.50
   2   2   1   70.79    5.00
  -3  -2  -1   19.80    4.50
  -3  -2  -1   19.30    3.80
   3   2   1   16.30    4.00
   3   2   1   23.80    4.40
  -4  -2  -1  226.08   10.10
  -4  -2  -1  229.38   10.50
   4   2   1  225.18   10.60
   4   2   1  223.78   10.20
  -5  -2  -1 2098.19   45.40
  -5  -2  -1 2175.98   46.20
   5   2   1 2178.18   46.10
   5   2   1 2045.70   45.60
  -6  -2  -1  224.98   12.80
  -6  -2  -1  219.78   12.10
   6   2   1  236.68   12.90
   6   2   1  218.38   12.30
  -7  -2  -1    4.20    4.00
   7   2   1    5.40    4.40
  -8  -2  -1  504.45   22.40
  -8  -2  -1  529.25   22.60
   8   2   1  528.65   23.40
   8   2   1  550.64   23.30
  -9  -2  -1  246.88   16.10
  -9  -2  -1  220.18   15.70
   9   2   1  223.88   16.10
   9   2   1  244.68   16.20
 -10  -2  -1   10.40    6.90
 -10  -2  -1   -1.00    5.90
  10   2   1   13.40    7.50
  10   2   1    3.20    7.00
   7  -3  -1  216.28   14.00
   7  -3  -1  191.78   12.80
  -7   3   1  199.28   13.20
  -7   3   1  215.28   13.20
   6  -3  -1  160.58   10.90
  -6   3   1  134.99   10.40
  -6   3   1  152.58   10.40
   5  -3  -1   25.70    5.40
  -5   3   1   27.90    5.60
   4  -3  -1  279.67   11.90
   4  -3  -1  307.17   12.00
  -4   3   1  283.27   12.10
  -4   3   1  291.07   11.80
   3  -3  -1   24.40    4.20
   3  -3  -1   30.80    4.60
  -3   3   1   21.80    3.80
  -3   3   1   18.90    4.00
   2  -3  -1  522.25   13.20
   2  -3  -1  500.35   13.40
  -2   3   1  510.25   13.60
  -2   3   1  498.35   13.10
   1  -3  -1  527.25   12.30
  -1   3   1  521.75   12.30
  -1   3   1  543.85   12.20
  -1  -3  -1 1187.48   22.50
  -1  -3  -1 1147.59   22.40
   1   3   1 1172.48   22.70
  -2  -3  -1  463.95   12.40
   2   3   1  451.85   12.30
   2   3   1  449.26   12.50
  -3  -3  -1  479.25   14.20
  -3  -3  -1  480.65   14.30
   3   3   1  477.35   14.50
   3   3   1  485.75   14.40
  -4  -3  -1  548.95   17.00
  -4  -3  -1  560.74   16.90
   4   3   1  537.15   17.00
   4   3   1  533.55   16.80
  -5  -3  -1  258.57   12.30
  -5  -3  -1  248.28   12.00
   5   3   1  250.67   12.30
   5   3   1  239.58   11.80
  -6  -3  -1  413.06   16.70
  -6  -3  -1  414.56   17.30
   6   3   1  394.76   16.90
   6   3   1  420.26   17.10
  -7  -3  -1    1.20    3.00
  -7  -3  -1    3.10    4.10
   7   3   1   -2.20    3.20
   7   3   1    4.50    4.20
  -8  -3  -1    4.30    4.70
  -8  -3  -1    8.60    3.70
   8   3   1    6.70    4.70
   8   3   1    6.20    4.20
  -9  -3  -1   74.39   11.30
  -9  -3  -1   65.49   11.90
   9   3   1   61.19   10.50
   9   3   1   82.39   12.40
 -10  -3  -1   21.40    6.60
 -10  -3  -1   16.70    7.40
  10   3   1   29.60    9.40
  10   3   1   51.59   11.20
   7  -4  -1    7.50    6.10
   7  -4  -1   -2.30    4.10
  -7   4   1    8.60    5.30
  -7   4   1    7.40    6.30
   6  -4  -1   57.29    8.50
   6  -4  -1   62.99    9.60
  -6   4   1   75.59   10.10
  -6   4   1   41.80    7.00
   5  -4  -1    8.20    3.10
   5  -4  -1    9.00    3.60
  -5   4   1    1.10    3.90
   4  -4  -1   10.70    3.50
   4  -4  -1    8.30    3.70
  -4   4   1    5.70    4.00
  -4   4   1   12.50    4.00
   3  -4  -1  496.45   15.40
   3  -4  -1  516.85   15.10
  -3   4   1  502.95   15.20
  -3   4   1  525.55   15.90
   2  -4  -1  611.04   15.40
   2  -4  -1  582.14   15.50
  -2   4   1  591.54   15.80
  -2   4   1  598.04   15.40
   1  -4  -1   84.79    4.90
  -1   4   1   87.59    4.90
  -1   4   1   81.79    5.00
   0  -4  -1  487.65   12.10
   0   4   1  468.55   12.20
   0   4   1  477.95   12.00
  -1  -4  -1 3299.77   58.59
  -1  -4  -1 3373.26   58.49
   1   4   1 3433.56   58.89
   1   4   1 3338.87   58.99
  -2  -4  -1  610.14   16.00
  -2  -4  -1  645.04   16.20
   2   4   1  636.94   16.10
   2   4   1  644.54   16.60
  -3  -4  -1   33.10    5.00
  -3  -4  -1   34.10    5.00
   3   4   1   40.40    5.70
   3   4   1   43.30    6.00
  -4  -4  -1   50.29    5.50
  -4  -4  -1   55.49    6.80
   4   4   1   57.29    7.30
   4   4   1   54.99    5.80
  -5  -4  -1    3.40    3.20
  -5  -4  -1   -0.40    2.70
   5   4   1   -1.00    2.90
   5   4   1    4.80    3.10
  -6  -4  -1   65.99    8.60
  -6  -4  -1   41.20    7.30
   6   4   1   52.19    7.90
   6   4   1   44.40    8.10
  -7  -4  -1  542.45   26.40
  -7  -4  -1  495.15   20.80
   7   4   1  493.95   20.90
  -8  -4  -1    8.10    4.70
  -8  -4  -1    1.40    3.80
   8   4   1    6.00    4.60
   8   4   1    5.60    4.50
  -9  -4  -1   74.19   12.70
  -9  -4  -1   81.89   12.20
   9   4   1   68.59   12.00
   9   4   1   88.49   13.60
 -10  -4  -1  292.07   19.00
 -10  -4  -1  219.88   17.80
  10   4   1  235.18   18.60
  10   4   1  234.38   17.50
   6  -5  -1    6.50    5.50
  -6   5   1    3.10    4.20
  -6   5   1    1.50    4.10
   5  -5  -1   66.29    6.90
  -5   5   1   68.79    9.30
   4  -5  -1  505.25   16.80
   4  -5  -1  457.85   20.20
  -4   5   1  521.15   17.30
   3  -5  -1   63.09    5.40
   3  -5  -1   65.09    5.70
  -3   5   1   63.79    5.80
  -3   5   1   57.59    5.90
   2  -5  -1  141.79    7.40
   2  -5  -1  155.48    7.30
  -2   5   1  150.18    7.70
  -2   5   1  145.69    7.50
   1  -5  -1   16.80    3.20
   1  -5  -1   17.80    3.60
  -1   5   1   15.00    2.60
  -1   5   1   19.20    3.50
  -1   5   1   15.30    3.30
   0  -5  -1   15.50    2.80
   0  -5  -1   10.80    3.00
   0   5   1   18.90    3.50
   0   5   1   10.40    2.80
  -1  -5  -1   82.59    5.20
  -1  -5  -1   90.89    5.50
   1   5   1   91.09    5.70
   1   5   1   88.59    5.60
  -2  -5  -1  233.98    9.50
  -2  -5  -1  226.68    9.30
   2   5   1  224.78    9.20
   2   5   1  226.48    9.50
  -3  -5  -1   57.19    6.90
  -3  -5  -1   34.40    5.40
   3   5   1   44.10    5.30
   3   5   1   44.00    5.90
  -4  -5  -1  846.82   23.30
  -4  -5  -1  797.02   22.70
   4   5   1  833.52   23.40
   4   5   1  792.22   22.70
  -5  -5  -1  172.78   10.20
   5   5   1  148.99   10.10
   5   5   1  151.08   10.20
  -6  -5  -1  348.87   16.00
  -6  -5  -1  364.86   16.00
   6   5   1  335.57   16.10
   6   5   1  353.36   16.50
  -7  -5  -1  584.34   22.30
  -7  -5  -1  575.14   22.60
   7   5   1  615.04   23.80
   7   5   1  589.64   23.20
  -8  -5  -1    5.10    4.30
  -8  -5  -1    0.80    4.10
   8   5   1   -2.30    3.70
   8   5   1   13.20    6.10
  -9  -5  -1  418.66   21.50
  -9  -5  -1  417.36   21.10
   9   5   1  404.16   21.60
   9   5   1  458.55   22.90
 -10  -5  -1   -2.60    9.70
 -10  -5  -1    0.00    5.70
  10   5   1   24.20    7.80
  10   5   1   20.40    7.30
   5  -6  -1   56.09    8.30
   5  -6  -1   53.79    8.40
  -5   6   1   52.69    8.00
   4  -6  -1   31.90    5.50
   4  -6  -1   37.70    6.10
  -4   6   1   41.70    6.10
  -4   6   1   25.40    5.30
   3  -6  -1   27.10    4.80
   3  -6  -1   22.00    5.50
  -3   6   1   31.30    5.90
  -3   6   1   17.40    4.30
   2  -6  -1    5.20    2.90
   2  -6  -1    2.00    2.30
  -2   6   1    2.30    2.30
  -2   6   1    3.10    3.40
   1  -6  -1  804.92   20.30
   1  -6  -1  823.32   20.30
  -1   6   1  840.02   21.00
  -1   6   1  811.02   21.00
   0  -6  -1   91.39    6.10
   0  -6  -1   91.59    5.80
   0   6   1   82.59    6.00
   0   6   1   95.59    6.20
  -1  -6  -1    0.40    1.80
  -1  -6  -1    6.70    2.40
   1   6   1    6.40    2.80
   1   6   1   10.80    3.30
  -2  -6  -1  184.78    8.80
  -2  -6  -1  172.88    8.70
   2   6   1  188.48    9.00
   2   6   1  180.18    9.20
  -3  -6  -1  397.76   14.80
  -3  -6  -1  392.36   14.40
   3   6   1  442.56   17.40
   3   6   1  422.16   15.30
  -4  -6  -1   16.40    4.40
  -4  -6  -1   19.60    4.90
   4   6   1   17.30    4.70
   4   6   1   19.00    5.10
  -5  -6  -1    6.00    3.50
  -5  -6  -1    8.00    4.70
   5   6   1    2.20    3.20
   5   6   1   -0.30    3.00
  -6  -6  -1  723.53   24.70
   6   6   1  707.43   24.70
   6   6   1  676.03   24.20
  -7  -6  -1    2.30    2.20
  -7  -6  -1    1.90    4.70
   7   6   1    1.00    3.90
   7   6   1    0.70    4.30
  -8  -6  -1   61.59    6.70
  -8  -6  -1   62.79   10.50
   8   6   1   72.79   11.00
   8   6   1   79.99   12.40
  -9  -6  -1   45.20    7.20
  -9  -6  -1   65.99   10.20
   9   6   1   55.19   10.90
   9   6   1   67.69   11.90
  -4   7   1   23.20    5.80
  -4   7   1   10.20    4.10
  -3   7   1  263.57   12.30
  -3   7   1  232.48   11.60
  -2   7   1  286.27   12.10
  -2   7   1  287.67   12.30
   1  -7  -1    9.10    3.20
   1  -7  -1   10.40    3.80
  -1   7   1    8.10    3.70
  -1   7   1    7.00    3.50
  -1   7   1    5.90    2.90
   0  -7  -1  110.29    6.70
   0  -7  -1  119.99    7.30
   0   7   1  103.19    7.20
   0   7   1  101.99    7.30
   0   7   1  119.19    7.00
  -1  -7  -1   28.30    4.60
  -1  -7  -1   26.20    4.70
   1   7   1   27.20    5.30
   1   7   1   31.50    5.50
  -2  -7  -1   51.99    5.50
  -2  -7  -1   56.29    5.70
   2   7   1   55.69    7.70
   2   7   1   61.89    6.20
  -3  -7  -1  311.47   13.10
   3   7   1  304.57   15.40
   3   7   1  308.17   13.60
  -4  -7  -1  148.99    9.80
  -4  -7  -1  167.58   11.90
   4   7   1  149.09   10.30
  -5  -7  -1   -2.10    3.10
  -5  -7  -1    3.20    2.70
   5   7   1   -1.80    3.50
   5   7   1    3.10    3.50
  -6  -7  -1   88.49    9.10
   6   7   1   88.39    9.70
   6   7   1   85.49    9.20
  -7  -7  -1  337.07   18.00
   7   7   1  318.37   17.80
   7   7   1  360.26   18.60
  -8  -7  -1  154.78   13.30
  -8  -7  -1  177.28   13.70
   8   7   1  190.88   15.30
   8   7   1  164.08   13.20
  -9  -7  -1   81.99   12.50
  -9  -7  -1   66.39    7.40
  -9  -7  -1   45.40    9.10
   9   7   1  113.99   17.00
   9   7   1   79.59   12.60
  -2   8   1    5.60    3.40
  -2   8   1    2.40    3.20
  -1   8   1   32.90    5.90
  -1   8   1   31.70    5.60
   0   8   1   62.79    6.90
   0   8   1   69.09    6.80
   0   8   1   75.39    5.80
  -1  -8  -1    5.70    2.40
   1   8   1   -0.30    2.60
  -2  -8  -1   16.30    3.90
  -2  -8  -1   16.00    4.50
   2   8   1   22.00    4.90
   2   8   1   19.70    5.40
  -3  -8  -1  297.17   19.90
  -3  -8  -1  255.17   12.40
   3   8   1  240.08   12.30
   3   8   1  241.28   12.90
  -4  -8  -1   11.40    4.40
  -4  -8  -1    9.20    4.30
   4   8   1   12.50    4.80
   4   8   1    4.90    3.80
  -5  -8  -1   92.09    9.20
   5   8   1   89.39    9.10
   5   8   1   91.49    9.50
  -6  -8  -1  392.86   18.50
  -6  -8  -1  373.56   17.70
   6   8   1  387.96   19.20
   6   8   1  373.16   18.50
  -7  -8  -1    6.60    4.90
  -7  -8  -1   16.40    6.50
   7   8   1   20.00    7.50
   7   8   1    2.10    4.30
  -8  -8  -1   36.20    9.90
  -8  -8  -1   34.40    8.30
   8   8   1   40.60    8.90
  -1   9   1    2.00    3.20
  -1   9   1    5.30    3.80
   0   9   1  133.09    8.20
   0   9   1  124.79    9.40
  -1  -9  -1   60.19    6.10
   1   9   1   68.69    7.80
  -2  -9  -1   80.49    7.30
   2   9   1   78.19    8.10
   2   9   1   83.79    8.00
  -3  -9  -1    1.40    3.60
  -3  -9  -1   12.10    4.60
   3   9   1    1.50    3.20
   3   9   1   11.00    5.10
  -4  -9  -1   90.39    8.50
  -4  -9  -1  100.49    8.80
   4   9   1   86.99    9.10
   4   9   1   90.09    9.40
  -5  -9  -1  158.58   11.70
  -5  -9  -1  236.58   14.00
   5   9   1  185.38   13.10
   5   9   1  171.58   12.50
  -6  -9  -1   63.49    9.60
  -6  -9  -1   86.89   12.20
   6   9   1   67.29   10.60
   6   9   1   42.50    8.10
  -7  -9  -1    7.60    6.70
  -7  -9  -1    5.60    5.00
   7   9   1   -1.00    3.80
   7   9   1   18.60   10.10
  -2 -10  -1    1.30    3.10
  -2 -10  -1    2.20    4.10
   2  10   1    5.30    4.80
   2  10   1    7.00    4.20
  -3 -10  -1   18.20    5.50
   3  10   1   17.20    5.70
   3  10   1    4.60    4.50
  -4 -10  -1   31.00    7.20
  -4 -10  -1   33.90    7.50
   4  10   1   16.30    7.10
   4  10   1   35.10    7.60
  -5 -10  -1   39.00    8.10
  -5 -10  -1   40.80    8.30
   5  10   1   51.89    9.40
   5  10   1   45.30    8.60
   4   9  -2   20.10    7.20
   4   9  -2   19.30    6.80
  -4  -9   2   20.40    6.90
  -4  -9   2   26.10    7.00
   3   9  -2   67.39   11.00
  -3  -9   2   90.49   12.70
  -3  -9   2   80.39   11.80
   2   9  -2   53.19   10.00
   2   9  -2   40.50    9.00
  -2  -9   2   49.80    9.60
  -2  -9   2   58.39   10.40
   7   8  -2   29.60    7.50
   7   8  -2   63.09   12.20
  -7  -8   2   38.20    8.30
  -7  -8   2   60.59   11.60
   6   8  -2   19.50    6.60
   6   8  -2   19.70    7.70
  -6  -8   2   26.80    8.60
  -6  -8   2   16.30    7.40
   5   8  -2  162.48   17.30
   5   8  -2  177.18   14.60
  -5  -8   2  169.38   14.10
  -5  -8   2  150.48   15.50
   4   8  -2   58.29   10.10
   4   8  -2   53.09   10.00
  -4  -8   2   51.59    9.70
  -4  -8   2   77.69   12.70
   3   8  -2   59.29   10.60
  -3  -8   2   73.79   11.10
  -3  -8   2   71.19   10.70
   2   8  -2  151.98   12.20
   2   8  -2  165.28   12.40
  -2  -8   2  149.29   11.80
  -2  -8   2  153.38   12.10
   1   8  -2   37.20    5.90
   1   8  -2   27.60    6.30
   1   8  -2   35.70    7.90
  -1  -8   2   44.30    9.30
  -1  -8   2   30.30    6.50
   0   8  -2    7.20    3.90
   0   8  -2    6.50    4.20
   0   8  -2    2.60    4.30
   0  -8   2    3.30    3.20
   0  -8   2    0.90    4.60
  -1   8  -2    5.00    4.30
  -1   8  -2   -2.00    3.60
  -1   8  -2    3.00    4.40
   1  -8   2    8.90    4.40
   8   7  -2  162.08   17.90
   8   7  -2  122.99   13.10
  -8  -7   2  130.19    9.60
  -8  -7   2  112.99   12.60
  -8  -7   2  140.49   14.50
   7   7  -2  101.79   14.50
   7   7  -2   57.09   13.60
  -7  -7   2   58.09    6.20
  -7  -7   2   70.79   12.40
   6   7  -2  221.88   15.30
   6   7  -2  159.88   13.50
  -6  -7   2  178.98   14.30
  -6  -7   2  167.58   13.80
   5   7  -2   -1.40    5.60
   5   7  -2   -0.80    3.60
   4   7  -2   16.70    5.50
   4   7  -2    8.20    5.10
  -4  -7   2   19.60    6.10
   3   7  -2  180.18   13.20
  -3  -7   2  199.78   13.10
   2   7  -2  156.78    8.20
   2   7  -2  159.58   12.10
   2   7  -2  154.68   11.90
  -2  -7   2  151.48   11.40
   1   7  -2    6.40    4.40
   1   7  -2    8.70    4.40
   1   7  -2    0.80    2.30
  -1  -7   2   -1.50    3.50
   0   7  -2   30.50    5.60
   0   7  -2   19.70    6.20
   0   7  -2   17.10    5.90
   0  -7   2   10.80    4.10
   0  -7   2   21.20    6.10
  -1   7  -2   74.39    8.20
  -1   7  -2   80.49   11.00
  -1   7  -2   73.69    8.50
   1  -7   2   86.49   11.60
   1  -7   2   73.99    8.10
  -2   7  -2  212.18   13.80
  -2   7  -2  227.58   13.70
  -2   7  -2  226.38   14.30
   2  -7   2  207.58   14.10
   2  -7   2  210.08   12.90
  -3   7  -2  197.38   18.90
  -3   7  -2  164.08   12.20
  -3   7  -2  160.18   12.30
   3  -7   2  165.48   11.60
   8   6  -2   92.69   13.10
   8   6  -2   79.59   12.90
  -8  -6   2   72.09   11.30
  -8  -6   2   65.39    9.20
  -8  -6   2   79.89   12.10
   7   6  -2    7.60    5.90
   7   6  -2    4.80    6.40
  -7  -6   2    7.10    3.70
  -7  -6   2   12.10    6.30
  -7  -6   2   12.50    6.30
   6   6  -2   37.90    7.90
   6   6  -2   52.49    9.30
  -6  -6   2   51.39    5.90
  -6  -6   2   52.59   10.10
  -6  -6   2   40.20    8.00
   5   6  -2    6.80    5.50
   5   6  -2    6.30    4.90
  -5  -6   2   13.00    6.00
  -5  -6   2    3.80    2.70
  -5  -6   2   -1.10    2.80
   4   6  -2    6.40    4.30
   4   6  -2    5.50    4.60
  -4  -6   2   13.20    5.40
  -4  -6   2    5.20    2.60
   3   6  -2  707.83   18.00
   3   6  -2  700.33   24.60
   3   6  -2  709.53   25.30
  -3  -6   2  694.63   24.00
  -3  -6   2  695.83   17.80
   2   6  -2    9.60    4.80
   2   6  -2    4.50    2.60
   2   6  -2    5.20    3.80
  -2  -6   2   10.70    4.10
  -2  -6   2    9.30    4.60
   1   6  -2    5.80    2.40
   1   6  -2    3.50    3.80
   1   6  -2    1.20    2.90
  -1  -6   2    3.20    2.90
  -1  -6   2    3.40    3.30
   0   6  -2 1774.22   39.70
   0   6  -2 1764.02   43.80
   0   6  -2 1745.53   42.40
   0  -6   2 1816.82   42.90
   0  -6   2 1735.33   42.90
  -1   6  -2    2.80    2.90
  -1   6  -2    0.30    4.20
  -1   6  -2    2.10    2.80
   1  -6   2   -0.10    3.10
   1  -6   2    1.90    3.00
  -2   6  -2   76.19    8.30
  -2   6  -2   75.89    8.90
  -2   6  -2   75.19    8.00
   2  -6   2   70.99    7.80
  -3   6  -2   35.10    7.10
  -3   6  -2   36.70    7.10
  -3   6  -2   35.40    7.20
   3  -6   2   33.90    6.90
   3  -6   2   40.50    8.50
  -4   6  -2   39.10    7.60
  -4   6  -2   40.60    8.00
  -4   6  -2   31.50    7.80
   4  -6   2   21.60    5.90
   4  -6   2   41.40    8.70
   9   5  -2   12.60    6.70
   9   5  -2   20.90    8.90
  -9  -5   2   14.00    6.20
  -9  -5   2   14.80    6.20
   8   5  -2   63.79   11.10
   8   5  -2   69.89   12.30
  -8  -5   2   79.59   13.20
  -8  -5   2   61.89   10.60
  -8  -5   2   65.29    9.40
   7   5  -2   44.70    8.40
   7   5  -2   46.00   10.40
  -7  -5   2   42.60   10.30
  -7  -5   2   41.80    8.60
  -7  -5   2   48.20    7.40
   6   5  -2   10.40    5.20
   6   5  -2    9.80    5.20
  -6  -5   2   23.40    6.90
  -6  -5   2   11.40    3.80
  -6  -5   2   14.90    5.50
   5   5  -2  247.88   14.60
   5   5  -2  229.88   13.70
  -5  -5   2  231.68   10.60
  -5  -5   2  226.08   13.70
  -5  -5   2  217.68   13.60
   4   5  -2  210.48   12.90
   4   5  -2  208.48   12.10
  -4  -5   2  200.78   12.50
  -4  -5   2  209.28   12.70
  -4  -5   2  203.18    9.30
   3   5  -2  206.98   12.10
   3   5  -2  222.18   12.90
   3   5  -2  221.68    8.90
  -3  -5   2  214.78   12.10
  -3  -5   2  251.27   13.00
  -3  -5   2  217.48    8.90
   2   5  -2  255.67    9.90
   2   5  -2  262.17   13.10
   2   5  -2  251.27   13.40
  -2  -5   2  284.87   13.50
  -2  -5   2  265.37   13.40
  -2  -5   2  288.77   10.10
   1   5  -2  133.29    7.60
   1   5  -2  147.69   10.10
   1   5  -2  137.59    9.30
  -1  -5   2  134.79    9.40
  -1  -5   2  133.89    9.40
   0   5  -2   54.29    6.20
   0   5  -2   60.49    7.10
   0   5  -2   49.40    5.20
   0  -5   2   53.09    6.30
   0  -5   2   58.79    6.50
  -1   5  -2   62.69    6.90
  -1   5  -2   65.29    6.30
  -1   5  -2   67.39    7.40
   1  -5   2   69.29    7.20
   1  -5   2   63.19    6.70
  -2   5  -2   94.99    8.00
  -2   5  -2  107.39    8.80
  -2   5  -2  114.49    9.30
   2  -5   2  104.09    8.50
   2  -5   2  102.19    8.70
  -3   5  -2  276.87   14.10
  -3   5  -2  260.07   15.00
  -3   5  -2  250.27   14.20
   3  -5   2  286.07   14.10
  -4   5  -2   14.20    5.20
  -4   5  -2    6.80    4.90
  -4   5  -2   10.40    4.60
   4  -5   2   10.70    4.40
   4  -5   2    9.10    3.70
  -5   5  -2  126.19   11.30
  -5   5  -2  131.39   11.60
  -5   5  -2  121.79   10.90
   5  -5   2  138.79   12.40
   5  -5   2  125.49   10.90
   9   4  -2   19.80    8.60
   9   4  -2   17.50    8.30
  -9  -4   2   14.10    5.70
  -9  -4   2   18.60    6.90
  -9  -4   2   25.40    8.60
   8   4  -2   72.09   12.00
   8   4  -2   87.79   13.50
  -8  -4   2   62.39   11.60
  -8  -4   2   64.39    9.10
  -8  -4   2   67.99   10.80
   7   4  -2  285.17   17.30
   7   4  -2  257.77   16.50
  -7  -4   2  305.07   17.20
  -7  -4   2  285.97   14.50
  -7  -4   2  279.97   16.80
   6   4  -2    4.80    4.40
  -6  -4   2    5.40    3.50
  -6  -4   2    3.00    4.90
   5   4  -2  306.07   15.80
   5   4  -2  273.47   14.50
  -5  -4   2  279.17   11.90
  -5  -4   2  274.57   14.80
  -5  -4   2  297.17   15.00
   4   4  -2  209.48   11.90
   4   4  -2  222.68   12.70
  -4  -4   2  209.98   12.10
  -4  -4   2  211.68   12.10
  -4  -4   2  221.88    9.90
   3   4  -2    6.40    3.70
   3   4  -2    2.40    2.00
  -3  -4   2    3.90    3.60
  -3  -4   2    1.50    2.00
  -3  -4   2   -1.10    1.90
   2   4  -2    3.00    2.10
   2   4  -2   -0.50    2.60
   2   4  -2    0.00    2.80
  -2  -4   2    1.00    2.60
  -2  -4   2    0.30    2.80
  -2  -4   2    1.60    1.80
   1   4  -2  806.32   23.10
   1   4  -2  819.62   24.00
   1   4  -2  783.52   20.10
  -1  -4   2  838.82   23.60
  -1  -4   2  849.12   20.00
  -1  -4   2  802.52   22.90
   0   4  -2  142.99    7.70
   0   4  -2  122.39    8.40
   0   4  -2  119.79    8.60
   0  -4   2  131.49    8.40
   0  -4   2  132.29    8.80
  -1   4  -2  298.57   12.90
  -1   4  -2  310.67   13.70
  -1   4  -2  324.27   12.70
   1  -4   2  290.87   13.30
   1  -4   2  297.27   12.80
  -2   4  -2  558.84   19.10
  -2   4  -2  553.74   19.70
  -2   4  -2  553.94   18.60
   2  -4   2  597.14   19.20
   2  -4   2  572.94   19.70
  -3   4  -2  131.19    9.40
  -3   4  -2  139.19    9.70
   3  -4   2  139.99   10.70
   3  -4   2  151.28    9.90
  -4   4  -2   -2.60    3.10
  -4   4  -2   -0.10    2.20
  -4   4  -2    4.70    4.10
   4  -4   2    4.90    2.90
   4  -4   2    5.50    3.90
  -5   4  -2   46.50    9.00
  -5   4  -2   51.69    8.90
  -5   4  -2   45.20    8.00
   5  -4   2   47.00    8.80
   5  -4   2   41.40    7.80
  -6   4  -2   60.39    9.80
  -6   4  -2   54.19    8.90
  -6   4  -2   47.70    9.00
   6  -4   2   64.19   10.40
   6  -4   2   50.19    9.10
   9   3  -2   30.70    8.60
   9   3  -2   18.10    6.80
  -9  -3   2   13.20    5.90
  -9  -3   2   16.10    7.10
  -9  -3   2    6.20    6.10
   8   3  -2   43.70    9.70
   8   3  -2   44.90    9.20
  -8  -3   2   48.70    8.80
  -8  -3   2   59.19   11.30
  -8  -3   2   47.50    8.70
   7   3  -2   -2.70    3.70
  -7  -3   2    5.40    3.90
  -7  -3   2   14.10    5.40
   6   3  -2  132.09   12.80
   6   3  -2   85.29    9.30
  -6  -3   2   96.59    9.30
  -6  -3   2   91.89    7.90
  -6  -3   2   97.29   11.10
   5   3  -2   47.70    7.90
   5   3  -2   36.00    7.10
  -5  -3   2   44.60    8.30
  -5  -3   2   39.40    7.50
  -5  -3   2   46.30    6.50
   4   3  -2  508.45   18.20
   4   3  -2  532.15   19.20
  -4  -3   2  527.95   16.20
  -4  -3   2  546.95   19.00
  -4  -3   2  516.35   18.70
   3   3  -2  213.68   11.10
  -3  -3   2  192.68   10.50
  -3  -3   2  189.38   10.40
  -3  -3   2  200.18    8.80
   2   3  -2 1479.55   33.90
   2   3  -2 1488.05   34.50
   2   3  -2 1427.46   30.20
  -2  -3   2 1507.65   30.80
  -2  -3   2 1482.75   34.30
  -2  -3   2 1525.85   34.10
   1   3  -2 1317.87   30.60
   1   3  -2 1223.28   29.30
   1   3  -2 1240.18   26.90
  -1  -3   2 1297.67   29.60
  -1  -3   2 1257.97   26.70
  -1  -3   2 1240.68   29.80
   0   3  -2   39.10    5.10
   0   3  -2   35.90    6.00
   0   3  -2   41.00    6.30
   0  -3   2   31.20    3.80
   0  -3   2   42.50    6.50
   0  -3   2   29.80    5.20
  -1   3  -2  619.84   17.70
  -1   3  -2  614.64   18.40
  -1   3  -2  601.54   18.70
   1  -3   2  625.94   19.00
   1  -3   2  661.33   18.70
  -2   3  -2  286.27   12.70
  -2   3  -2  280.27   11.70
  -2   3  -2  264.37   11.80
   2  -3   2  276.87   12.40
   2  -3   2  289.87   12.10
  -3   3  -2   23.30    5.30
  -3   3  -2   20.40    4.50
  -3   3  -2   19.10    5.50
   3  -3   2   22.00    5.30
   3  -3   2   25.20    5.60
  -4   3  -2  102.19    9.10
  -4   3  -2  102.89    8.50
  -4   3  -2  105.29    8.70
   4  -3   2  106.49    8.70
   4  -3   2  104.99    8.40
  -5   3  -2   57.19    9.00
  -5   3  -2   65.09    9.60
  -5   3  -2   43.80    7.50
   5  -3   2   54.39    9.10
   5  -3   2   49.99    7.90
  -6   3  -2   30.80    7.30
  -6   3  -2   24.60    7.10
   6  -3   2   23.40    6.20
   6  -3   2   30.00    7.10
  -7   3  -2  258.77   15.80
   7  -3   2  311.77   24.30
   7  -3   2  241.98   15.50
   9   2  -2   54.49   11.20
   9   2  -2   69.99   12.50
  -9  -2   2   40.80    8.20
  -9  -2   2   80.89   12.00
   8   2  -2   10.30    5.20
   8   2  -2   20.70    7.00
  -8  -2   2    4.90    4.60
  -8  -2   2   13.30    5.80
   7   2  -2  164.48   12.60
  -7  -2   2  136.69   11.40
  -7  -2   2  156.18   11.00
   6   2  -2  271.97   14.90
   6   2  -2  308.27   16.40
  -6  -2   2  281.87   14.80
  -6  -2   2  293.57   13.70
  -6  -2   2  277.47   15.50
   5   2  -2  348.97   15.60
  -5  -2   2  369.56   14.40
  -5  -2   2  341.97   15.30
  -5  -2   2  381.36   16.20
   4   2  -2  151.58    9.60
   4   2  -2  140.79    9.10
  -4  -2   2  159.88    9.60
  -4  -2   2  151.88    8.40
  -4  -2   2  139.69    9.20
   3   2  -2  366.86   14.00
   3   2  -2  330.27   12.70
  -3  -2   2  354.86   12.10
  -3  -2   2  345.47   13.50
  -3  -2   2  355.56   13.60
   2   2  -2  581.94   15.50
   2   2  -2  623.14   18.10
   2   2  -2  618.14   17.80
  -2  -2   2  636.54   16.20
  -2  -2   2  629.04   18.00
  -2  -2   2  635.94   17.70
   1   2  -2  137.09    7.80
   1   2  -2  126.39    6.40
   1   2  -2  126.49    7.20
  -1  -2   2  123.89    7.50
  -1  -2   2  136.99    7.50
   0   2  -2   41.00    5.30
   0   2  -2   36.60    5.40
   0  -2   2   35.00    3.90
   0  -2   2   45.80    6.10
   0  -2   2   36.00    5.30
  -1   2  -2  347.77   13.60
  -1   2  -2  341.47   11.60
  -1   2  -2  338.07   12.40
   1  -2   2  347.97   12.60
   1  -2   2  357.86   12.20
  -2   2  -2   -1.60    2.00
  -2   2  -2   -1.70    1.80
  -2   2  -2   -0.20    2.60
   2  -2   2    0.20    2.30
   2  -2   2   -1.00    2.30
  -3   2  -2  291.67   12.70
  -3   2  -2  293.57   12.30
  -3   2  -2  278.07   12.00
   3  -2   2  294.97   12.20
   3  -2   2  283.47   12.60
  -4   2  -2  925.91   26.80
  -4   2  -2  936.21   26.20
   4  -2   2  971.60   26.50
   4  -2   2  943.91   27.20
  -5   2  -2   59.89    7.10
   5  -2   2   65.29    7.10
  -6   2  -2  200.88   12.60
  -6   2  -2  171.48   12.50
   6  -2   2  186.28   12.00
  -7   2  -2  158.48   12.40
   7  -2   2  148.89   12.20
   7  -2   2  182.38   13.30
  -8   2  -2   65.19   11.10
   8  -2   2   49.40   10.30
   8  -2   2   41.80    9.00
   9   1  -2   27.20    9.30
   9   1  -2   40.30   10.30
   9   1  -2   26.30    5.90
  -9  -1   2   51.99   10.00
   8   1  -2  254.47   15.90
   8   1  -2  274.27   16.90
  -8  -1   2  257.77   15.40
  -8  -1   2  297.17   16.90
   7   1  -2    6.40    4.60
  -7  -1   2    5.60    4.30
  -7  -1   2   10.80    5.10
   6   1  -2  352.66   18.60
   6   1  -2  380.56   16.90
  -6  -1   2  357.46   16.10
   5   1  -2  269.67   13.00
   5   1  -2  268.57   13.10
  -5  -1   2  264.37   12.80
   4   1  -2 2236.38   47.00
  -4  -1   2 2257.17   45.60
  -4  -1   2 2223.38   46.90
   3   1  -2 1084.89   26.00
   3   1  -2 1033.60   25.30
  -3  -1   2 1054.29   25.60
  -3  -1   2 1071.59   24.70
  -3  -1   2 1068.19   25.70
   2   1  -2   66.89    4.70
   2   1  -2   72.19    7.20
  -2  -1   2   74.09    5.40
  -2  -1   2   77.79    5.90
  -2  -1   2   79.89    5.80
   1   1  -2 4036.00   70.79
   1   1  -2 4200.88   74.69
   1   1  -2 4130.19   72.39
  -1  -1   2 4064.69   71.09
  -1  -1   2 4121.89   72.19
   0   1  -2  765.32   18.20
   0   1  -2  813.52   18.70
   0   1  -2  814.32   19.20
   0  -1   2  833.42   19.40
   0  -1   2  815.32   18.80
   0  -1   2  802.02   18.30
  -1   1  -2    2.40    2.20
  -1   1  -2    4.40    2.80
   1  -1   2    4.10    2.70
   1  -1   2    4.00    2.20
   1  -1   2    4.30    2.30
  -2   1  -2 1026.10   24.00
  -2   1  -2 1059.59   25.10
  -2   1  -2 1049.89   26.10
   2  -1   2 1036.20   24.90
   2  -1   2 1087.49   24.50
  -3   1  -2 2597.14   51.79
  -3   1  -2 2586.14   51.09
  -3   1  -2 2600.94   50.99
   3  -1   2 2580.44   51.79
   3  -1   2 2655.23   51.19
  -4   1  -2   16.60    4.40
  -4   1  -2   23.70    5.30
   4  -1   2   17.10    4.60
   4  -1   2   19.50    4.80
  -5   1  -2  367.16   16.00
  -5   1  -2  346.87   15.00
   5  -1   2  319.97   15.10
   5  -1   2  364.46   15.20
  -6   1  -2  109.99    9.40
  -6   1  -2  105.49    9.70
   6  -1   2   95.29    8.90
  -7   1  -2   42.20    8.00
  -7   1  -2   19.60    5.80
   7  -1   2   37.00    7.80
  -8   1  -2   10.10    5.30
  -8   1  -2   29.30    7.10
   8  -1   2   18.30    7.60
   8  -1   2   17.00    7.10
   9   0  -2    3.80    6.60
   9   0  -2   21.90    8.40
   9   0  -2   18.90    4.10
  -9   0   2   26.90    8.10
  -9   0   2    7.30    6.00
   8   0  -2    6.70    5.60
   8   0  -2    5.20    4.50
   8   0  -2   10.30    4.00
  -8   0   2    5.90    4.50
  -8   0   2    4.40    4.80
   7   0  -2    8.50    4.60
   7   0  -2   12.90    5.40
  -7   0   2   15.40    5.70
  -7   0   2    7.40    5.60
   6   0  -2    0.80    3.20
   6   0  -2    3.80    2.80
   6   0  -2    3.00    3.60
  -6   0   2    3.50    3.40
  -6   0   2    4.30    4.20
   5   0  -2 1131.69   29.60
   5   0  -2 1063.59   28.60
  -5   0   2 1094.69   28.80
  -5   0   2 1144.99   29.10
   4   0  -2    4.00    3.00
   4   0  -2    0.00    2.40
  -4   0   2    1.30    2.70
  -4   0   2    6.20    3.00
   3   0  -2    6.10    3.00
   3   0  -2    5.70    2.90
  -3   0   2    2.40    2.60
   2   0  -2 4142.69   73.89
   2   0  -2 4350.96   74.79
  -2   0   2 4271.57   74.49
  -2   0   2 4283.47   74.49
  -2   0   2 4370.16   75.09
   1   0  -2   28.60    3.50
   1   0  -2   33.00    3.90
   1   0  -2   29.10    3.60
   1   0  -2   30.50    2.90
  -1   0   2   31.40    4.00
  -1   0   2   31.20    3.60
  -1   0   2   35.10    4.60
   0   0  -2 5153.58   84.29
   0   0  -2 5042.30   81.99
   0   0  -2 4941.31   83.59
   0   0  -2 4827.32   84.19
   0   0   2 5017.70   84.49
   0   0   2 5065.79   84.29
   0   0   2 4943.41   81.89
   0   0   2 5127.09   83.79
  -1   0  -2  463.75    9.70
  -1   0  -2  465.25   12.40
  -1   0  -2  454.35   12.00
  -1   0  -2  431.96   11.90
   1   0   2  455.15   11.90
   1   0   2  465.55   12.00
   1   0   2  463.25   12.50
   1   0   2  459.95    9.50
  -2   0  -2  105.99    5.90
  -2   0  -2  118.49    6.50
  -2   0  -2  120.09    7.50
   2   0   2  112.69    7.00
  -3   0  -2   45.60    6.00
  -3   0  -2   40.40    6.20
   3   0   2   41.50    5.90
   3   0   2   38.30    6.30
  -4   0  -2  247.58   11.10
  -4   0  -2  257.17   11.90
   4   0   2  242.68   11.20
   4   0   2  236.48   11.60
  -5   0  -2  138.69    9.70
  -5   0  -2  149.59    9.60
   5   0   2  143.99    9.50
   5   0   2  136.29    9.60
  -6   0  -2 1069.59   30.40
  -6   0  -2 1079.99   31.20
   6   0   2 1050.39   30.50
   6   0   2 1101.19   31.60
  -7   0  -2   47.20    9.00
  -7   0  -2   74.49   11.00
   7   0   2   65.89   10.20
  -8   0  -2  355.16   18.50
   8   0   2  350.96   23.90
   8   0   2  333.97   20.80
  -9   0  -2  105.59   14.20
   9   0   2   76.49   12.20
   9   0   2   93.69   14.60
   8  -1  -2  174.28   13.80
   8  -1  -2  145.19   12.40
   8  -1  -2  173.78    9.90
  -8   1   2  151.18   12.30
  -8   1   2  193.48   13.10
   7  -1  -2  180.38    9.50
   7  -1  -2  185.08   12.60
   7  -1  -2  165.58   12.40
  -7   1   2  196.58   12.30
  -7   1   2  178.78   12.30
   6  -1  -2    7.00    4.10
   6  -1  -2   10.80    4.30
   6  -1  -2    4.90    2.80
  -6   1   2    9.50    4.30
  -6   1   2   12.00    4.90
   5  -1  -2  152.18    7.60
   5  -1  -2  148.59    9.30
   5  -1  -2  148.49    9.40
  -5   1   2  131.69    9.00
  -5   1   2  153.98    9.20
   4  -1  -2  400.46   11.90
   4  -1  -2  418.76   14.30
  -4   1   2  387.16   13.80
  -4   1   2  386.36   13.60
   3  -1  -2  499.15   14.40
   3  -1  -2  492.05   12.70
   3  -1  -2  455.65   13.90
  -3   1   2  481.85   14.00
  -3   1   2  464.65   13.80
   2  -1  -2  181.38    7.30
   2  -1  -2  193.38    6.70
   2  -1  -2  193.08    7.40
  -2   1   2  190.88    7.20
  -2   1   2  187.78    7.10
   1  -1  -2 1181.08   22.10
   1  -1  -2 1115.49   21.60
   1  -1  -2 1168.48   22.20
  -1   1   2 1141.39   22.10
  -1   1   2 1146.39   21.80
  -1   1   2 1176.08   24.20
  -1   1   2 1154.08   22.00
   0  -1  -2 2461.05   44.80
   0  -1  -2 2597.84   43.30
   0  -1  -2 2519.75   43.00
   0  -1  -2 2543.25   43.70
   0   1   2 2568.44   43.00
   0   1   2 2522.95   43.50
   0   1   2 2494.55   44.90
   0   1   2 2683.43   43.50
  -1  -1  -2 9387.46  156.58
  -1  -1  -2 9999.00  156.38
   1   1   2 9591.64  155.68
   1   1   2 9554.94  155.18
   1   1   2 9722.53  156.28
  -2  -1  -2  203.38    7.50
  -2  -1  -2  219.18    8.40
  -2  -1  -2  214.88    7.90
   2   1   2  205.68    8.20
   2   1   2  215.48    7.40
   2   1   2  208.58    7.80
  -3  -1  -2 1628.54   32.60
  -3  -1  -2 1595.84   33.40
  -3  -1  -2 1679.03   34.30
   3   1   2 1616.94   34.10
   3   1   2 1637.44   33.60
  -4  -1  -2  951.80   24.70
  -4  -1  -2  964.70   24.20
   4   1   2  952.90   24.30
   4   1   2  949.01   24.80
  -5  -1  -2  169.68   10.00
  -5  -1  -2  170.98   10.60
   5   1   2  201.08   11.10
   5   1   2  197.08   10.60
  -6  -1  -2  369.06   16.40
  -6  -1  -2  353.06   15.50
   6   1   2  355.16   15.80
   6   1   2  352.66   16.20
  -7  -1  -2   -1.00    2.90
  -7  -1  -2    7.80    5.90
   7   1   2   -0.30    3.30
   7   1   2    2.30    3.40
  -8  -1  -2   23.80    7.00
  -8  -1  -2   33.10    8.50
   8   1   2   38.80    9.30
   8   1   2   22.90    7.10
  -9  -1  -2    1.40    4.70
  -9  -1  -2   -6.90    4.30
   9   1   2    6.70    5.30
   9   1   2    2.00    5.50
   8  -2  -2   66.49   10.70
   8  -2  -2   78.19    7.00
  -8   2   2   88.09   10.10
  -8   2   2   69.39   12.30
   7  -2  -2  105.19    7.60
   7  -2  -2  122.79   10.10
   7  -2  -2  105.39   10.10
  -7   2   2  120.69   10.20
  -7   2   2  105.79   10.00
   6  -2  -2   24.30    5.30
   6  -2  -2   23.00    4.10
   6  -2  -2   24.90    5.60
  -6   2   2   18.10    5.00
  -6   2   2   17.90    5.20
   5  -2  -2  284.27   10.40
   5  -2  -2  281.27   12.50
  -5   2   2  268.97   14.20
  -5   2   2  275.87   12.70
   4  -2  -2   63.59    4.60
   4  -2  -2   61.29    5.60
   4  -2  -2   55.59    5.60
  -4   2   2   64.69    5.90
  -4   2   2   60.39    6.00
   3  -2  -2   17.70    2.90
   3  -2  -2   11.70    3.10
   3  -2  -2   18.60    3.30
  -3   2   2   22.20    3.80
  -3   2   2   17.40    3.70
   2  -2  -2  272.27    8.30
   2  -2  -2  286.07    8.60
   2  -2  -2  264.37    8.40
  -2   2   2  269.47    8.30
  -2   2   2  271.07    8.50
  -2   2   2  259.07    8.20
  -1   2   2 1050.29   22.50
   0   2   2  611.64   13.70
   0   2   2  641.74   14.40
  -1  -2  -2 7971.60  129.09
  -1  -2  -2 7832.82  127.99
   1   2   2 7936.01  128.09
   1   2   2 7928.11  128.39
   1   2   2 8147.68  129.39
  -2  -2  -2  538.35   12.40
  -2  -2  -2  523.45   13.10
  -2  -2  -2  548.15   13.60
   2   2   2  535.55   13.50
   2   2   2  538.65   12.10
   2   2   2  564.54   14.50
  -3  -2  -2   24.30    3.30
  -3  -2  -2   24.90    4.50
  -3  -2  -2   30.10    4.40
   3   2   2   36.60    5.20
   3   2   2   36.10    4.70
  -4  -2  -2  373.66   13.70
  -4  -2  -2  344.57   12.80
   4   2   2  376.96   13.40
   4   2   2  353.86   13.40
  -5  -2  -2   53.09    7.40
  -5  -2  -2   45.10    6.60
   5   2   2   56.49    8.10
   5   2   2   37.50    6.80
  -6  -2  -2  358.96   15.50
  -6  -2  -2  336.47   15.60
   6   2   2  364.96   16.20
   6   2   2  335.07   15.40
  -7  -2  -2    5.60    4.20
  -7  -2  -2    3.90    5.30
   7   2   2   11.20    4.70
   7   2   2   12.50    6.30
  -8  -2  -2    3.30    4.20
  -8  -2  -2    2.30    4.00
   8   2   2    3.60    4.10
   8   2   2    4.50    5.20
  -9  -2  -2  232.38   16.20
  -9  -2  -2  242.78   16.10
   9   2   2  262.97   17.30
   9   2   2  250.77   16.60
 -10  -2  -2   35.20    8.50
 -10  -2  -2   12.60    7.00
  10   2   2   21.50    8.40
  10   2   2   29.90   10.20
   7  -3  -2   12.20    4.80
   7  -3  -2    6.30    6.20
  -7   3   2   13.30    5.00
  -7   3   2   10.10    5.30
   6  -3  -2   54.79    8.10
   6  -3  -2   49.70    5.80
  -6   3   2   62.69    6.90
  -6   3   2   43.90    6.90
   5  -3  -2    3.40    2.70
   5  -3  -2    0.30    2.20
   5  -3  -2    5.70    2.60
  -5   3   2   -2.50    2.90
  -5   3   2   -2.10    3.10
   4  -3  -2  509.25   14.20
   4  -3  -2  501.45   16.00
   4  -3  -2  520.85   16.00
  -4   3   2  513.75   16.10
  -4   3   2  515.15   15.80
   3  -3  -2  233.78    8.90
   3  -3  -2  222.88    9.00
   3  -3  -2  250.67    8.60
  -3   3   2  227.08    8.70
  -3   3   2  225.18    9.10
   2  -3  -2  513.75   13.00
  -2   3   2  478.85   12.40
  -1   3   2 1434.06   27.60
   0   3   2    0.50    1.80
   0   3   2    0.00    1.40
   1   3   2   23.50    2.60
  -2  -3  -2   38.40    3.70
  -2  -3  -2   44.10    3.90
  -2  -3  -2   39.00    2.80
   2   3   2   34.60    3.70
   2   3   2   39.30    4.00
  -3  -3  -2   39.50    5.40
  -3  -3  -2   38.00    4.80
  -3  -3  -2   29.00    3.00
   3   3   2   41.60    5.50
   3   3   2   44.80    5.50
  -4  -3  -2  643.14   18.20
  -4  -3  -2  653.43   18.90
   4   3   2  618.94   18.50
   4   3   2  620.04   18.20
  -5  -3  -2  448.76   16.60
  -5  -3  -2  439.46   15.90
   5   3   2  451.95   16.40
   5   3   2  449.46   16.60
  -6  -3  -2    4.10    3.00
  -6  -3  -2   -0.70    2.80
   6   3   2    1.40    2.40
   6   3   2    9.00    4.30
  -7  -3  -2  299.37   15.80
  -7  -3  -2  287.17   15.20
   7   3   2  272.47   15.20
   7   3   2  298.37   15.70
  -8  -3  -2  375.96   18.80
  -8  -3  -2  339.87   17.70
   8   3   2  328.57   17.80
   8   3   2  379.46   19.00
  -9  -3  -2   55.09   10.40
  -9  -3  -2   61.59   10.60
   9   3   2   65.59   10.30
   9   3   2   73.89   11.70
 -10  -3  -2   23.20    7.80
 -10  -3  -2    5.60    5.30
  10   3   2   33.60    9.10
  10   3   2   22.90    7.70
   7  -4  -2   46.20    7.50
  -7   4   2   36.30    7.50
   6  -4  -2  248.18   12.40
   6  -4  -2  266.17   13.80
  -6   4   2  243.18   13.10
  -6   4   2  249.68   16.50
   5  -4  -2   13.10    4.10
   5  -4  -2    8.60    3.30
  -5   4   2   11.50    4.70
  -5   4   2   13.80    4.10
   4  -4  -2   48.10    6.30
   4  -4  -2   49.40    5.10
  -4   4   2   44.00    5.20
  -4   4   2   45.70    6.60
   3  -4  -2  162.28    7.60
  -3   4   2  162.18    7.80
  -3   4   2  172.98    7.70
  -2   4   2   99.29    5.10
  -1   4   2  785.82   17.80
   0   4   2    4.50    2.10
   1   4   2   69.19    3.80
  -2  -4  -2  735.23   16.60
  -2  -4  -2  675.93   16.00
   2   4   2  734.23   16.70
   2   4   2  697.23   16.50
  -3  -4  -2  355.56   11.60
  -3  -4  -2  358.46   11.80
   3   4   2  344.37   11.80
   3   4   2  352.16   11.80
  -4  -4  -2  945.31   24.10
  -4  -4  -2 1004.40   24.70
  -4  -4  -2  982.50   19.90
   4   4   2  974.20   24.50
   4   4   2  961.60   24.70
  -5  -4  -2   56.59    6.60
  -5  -4  -2   51.09    5.90
   5   4   2   56.99    7.40
   5   4   2   67.39    7.00
  -6  -4  -2  313.87   14.40
  -6  -4  -2  296.87   14.50
   6   4   2  318.07   15.00
   6   4   2  324.97   15.00
  -7  -4  -2  152.08   17.50
  -7  -4  -2  182.38   12.50
   7   4   2  166.28   12.10
  -8  -4  -2   50.69    9.00
  -8  -4  -2   37.40    8.00
   8   4   2   59.29   10.50
   8   4   2   49.60    8.80
  -9  -4  -2   -2.50    4.30
  -9  -4  -2    8.10    4.90
   9   4   2   -3.20    3.90
   9   4   2   13.00    5.40
 -10  -4  -2   18.00    7.60
  10   4   2   24.60    7.30
  10   4   2   31.40   15.30
   6  -5  -2    8.20    4.90
   6  -5  -2    3.50    4.00
  -6   5   2    5.50    4.40
  -6   5   2   -3.30    4.00
   5  -5  -2   26.10    5.00
   5  -5  -2   26.30    5.20
  -5   5   2   18.60    4.30
  -5   5   2   18.30    4.30
   4  -5  -2   42.70    5.10
   4  -5  -2   44.30    5.20
  -4   5   2   47.70    5.40
  -4   5   2   49.20    6.70
  -3   5   2    7.80    2.70
  -2   5   2  590.44   14.90
  -1   5   2   45.30    3.80
   0   5   2   35.50    3.80
  -2  -5  -2    8.80    2.50
  -2  -5  -2    9.40    2.70
   2   5   2   13.60    3.00
   2   5   2    9.30    2.90
  -3  -5  -2  729.13   19.00
  -3  -5  -2  722.43   18.70
   3   5   2  707.53   19.10
   3   5   2  725.43   19.00
  -4  -5  -2   68.79    6.30
  -4  -5  -2   61.79    5.80
   4   5   2   59.79    6.50
   4   5   2   71.19    6.40
  -5  -5  -2    9.50    4.30
  -5  -5  -2    9.10    3.70
   5   5   2   10.00    4.30
   5   5   2    8.70    3.80
  -6  -5  -2    3.20    3.30
  -6  -5  -2    1.60    3.40
   6   5   2    4.40    4.30
   6   5   2   -0.50    3.10
  -7  -5  -2  424.86   18.40
  -7  -5  -2  439.96   19.10
   7   5   2  384.66   18.30
   7   5   2  426.16   18.90
  -8  -5  -2  138.09   11.40
  -8  -5  -2  136.99   11.90
   8   5   2  134.69   11.80
   8   5   2  118.79   10.90
  -9  -5  -2   23.90    7.40
  -9  -5  -2   14.80    6.20
   9   5   2   10.50    5.80
   9   5   2   16.90    6.80
 -10  -5  -2  154.68   16.00
 -10  -5  -2  148.69   14.50
  10   5   2  189.28   29.60
  10   5   2  206.08   20.90
  -5   6   2  215.98   11.40
  -1   6   2    2.50    1.90
   0   6   2  218.08    8.90
   1   6   2   49.20    4.20
  -2  -6  -2   16.30    3.30
  -2  -6  -2   20.40    3.80
   2   6   2   29.00    4.40
   2   6   2   17.80    3.70
  -3  -6  -2   68.09    5.70
  -3  -6  -2   70.79    5.50
   3   6   2   73.99    6.00
   3   6   2   66.49    5.90
  -4  -6  -2  411.66   14.80
  -4  -6  -2  400.16   17.00
   4   6   2  419.36   15.20
   4   6   2  386.16   15.20
  -5  -6  -2    4.20    3.40
  -5  -6  -2    6.50    3.00
   5   6   2    3.40    3.70
   5   6   2    5.40    3.60
  -6  -6  -2 1882.21   47.10
   6   6   2 1891.11   45.20
   6   6   2 1824.42   45.40
  -7  -6  -2    6.20    4.30
  -7  -6  -2    9.90    2.90
   7   6   2    8.00    5.60
   7   6   2    0.30    3.60
  -8  -6  -2    0.50    4.00
  -8  -6  -2    2.80    4.00
   8   6   2    3.80    5.00
   8   6   2    1.30    4.40
  -9  -6  -2  283.77   17.40
  -9  -6  -2  260.77   16.70
   9   6   2  264.97   17.10
   9   6   2  244.68   17.40
 -10  -6  -2    7.30    5.80
 -10  -6  -2    1.10    5.60
  10   6   2   -2.00    6.20
  10   6   2    4.10    4.50
   0   7   2  289.27   11.00
  -2  -7  -2   29.10    4.60
  -2  -7  -2   27.30    4.50
   2   7   2   23.90    4.40
   2   7   2   29.00    4.80
  -3  -7  -2  348.37   13.10
  -3  -7  -2  340.27   12.90
   3   7   2  365.26   13.80
   3   7   2  366.46   13.40
  -4  -7  -2  546.55   18.00
   4   7   2  543.55   19.00
   4   7   2  538.75   18.60
  -5  -7  -2    2.90    3.40
  -5  -7  -2    3.80    3.10
   5   7   2    6.50    4.00
   5   7   2   -1.20    2.90
  -6  -7  -2  137.29   10.00
  -6  -7  -2  134.89   10.60
   6   7   2  140.59   10.70
   6   7   2  142.29   10.90
  -7  -7  -2   29.60    6.80
   7   7   2   25.00    7.40
   7   7   2   29.00    6.90
  -8  -7  -2    0.30    4.10
  -8  -7  -2    1.30    4.00
   8   7   2    8.80    5.80
   8   7   2    0.30    4.40
  -9  -7  -2   87.99   17.80
  -9  -7  -2  114.49    7.50
  -9  -7  -2  101.89    7.80
   9   7   2  117.29   13.30
   0   8   2  190.88    9.00
   0   8   2  190.88    9.40
   1   8   2  248.48   10.40
  -2  -8  -2   11.30    3.10
  -2  -8  -2    9.00    3.00
   2   8   2    7.60    3.60
   2   8   2   10.60    3.70
  -3  -8  -2  310.37   12.80
  -3  -8  -2  328.27   13.00
   3   8   2  311.67   13.20
  -4  -8  -2  308.07   13.60
   4   8   2  310.27   14.30
   4   8   2  313.67   14.30
  -5  -8  -2   47.90    8.80
  -5  -8  -2   43.70    7.50
   5   8   2   37.20    7.40
   5   8   2   41.20    6.90
  -6  -8  -2   46.20    8.00
  -6  -8  -2   73.79   10.30
   6   8   2   42.60    8.30
   6   8   2   54.09    8.70
  -7  -8  -2  298.97   16.70
  -7  -8  -2  285.07   15.90
   7   8   2  276.67   16.50
   7   8   2  272.97   16.70
  -8  -8  -2  187.18   14.80
  -8  -8  -2  177.78   14.10
   8   8   2  201.18   15.40
   8   8   2  178.98   14.60
  -9  -8  -2   15.80    7.40
  -9  -8  -2    4.30    6.30
   9   8   2   10.00    5.40
   9   8   2   14.80    8.40
  -1   9   2   43.80    6.10
   0   9   2    9.70    3.10
   2   9   2   36.30    6.10
   2   9   2   37.70    6.00
  -3  -9  -2  103.79    7.70
  -3  -9  -2  105.69    7.60
   3   9   2   93.49    8.10
   3   9   2  103.09    8.40
  -4  -9  -2  133.09   15.10
   4   9   2  105.29    9.20
   4   9   2  107.79    9.10
  -5  -9  -2   75.89    7.90
  -5  -9  -2   85.89    8.50
   5   9   2   90.29    9.40
   5   9   2   89.29    8.90
  -6  -9  -2   54.59    8.70
  -6  -9  -2   68.79    8.20
   6   9   2   76.79   10.80
   6   9   2   51.99    9.00
  -7  -9  -2   54.89    9.50
  -7  -9  -2   76.69   11.10
   7   9   2   73.59   12.40
   7   9   2   65.59   10.20
  -8  -9  -2  134.19   12.70
  -8  -9  -2  121.89   12.50
   8   9   2  139.99   12.80
   8   9   2  115.09   13.00
   1  10   2   31.70    5.20
   2  10   2    7.90    3.90
  -3 -10  -2  155.48    9.50
  -3 -10  -2  165.58    9.90
   3  10   2  155.88   10.40
   3  10   2  143.19    9.90
  -4 -10  -2  172.38   11.10
  -4 -10  -2  146.39   10.00
   4  10   2  154.18   11.20
   4  10   2  152.28   10.80
  -5 -10  -2    4.70    3.80
  -5 -10  -2    0.20    4.60
   5  10   2    5.90    5.40
   5  10   2    3.30    4.20
  -6 -10  -2    5.00    5.80
  -6 -10  -2    5.80    5.40
   6  10   2   17.20    6.20
   6  10   2    7.90    3.70
   5   8  -3   -5.20    3.80
   5   8  -3   11.10    6.70
  -5  -8   3    4.90    5.80
  -5  -8   3    8.90    6.30
   4   8  -3   59.59    9.80
   4   8  -3   43.00    9.10
  -4  -8   3   54.19   10.20
  -4  -8   3   39.50    8.10
   3   8  -3   18.90    6.60
  -3  -8   3   26.00    7.70
  -3  -8   3   27.60    8.20
   2   8  -3   52.49    6.10
   2   8  -3   58.19   10.30
   2   8  -3   43.40   11.40
  -2  -8   3   47.60   11.30
  -2  -8   3   63.49   11.80
   1   8  -3   47.00    9.40
   1   8  -3   23.00    6.80
   1   8  -3   41.20    6.30
  -1  -8   3   49.70   10.30
  -1  -8   3   34.10    8.30
   0   8  -3  436.36   21.30
   0   8  -3  408.46   21.20
   0   8  -3  455.65   19.00
   0  -8   3  421.86   21.90
   0  -8   3  430.76   20.60
   7   7  -3  113.19   12.90
   7   7  -3  129.79   15.50
  -7  -7   3  115.69   13.20
  -7  -7   3   98.59    8.50
  -7  -7   3  124.09   12.70
   6   7  -3    1.00    7.30
  -6  -7   3    1.20    4.30
  -6  -7   3    7.20    3.70
   5   7  -3  273.87   17.50
   5   7  -3  278.57   17.50
  -5  -7   3  288.37   17.60
  -5  -7   3  281.57   11.90
  -5  -7   3  258.87   17.20
   4   7  -3   35.10    8.10
   4   7  -3   35.70    7.80
  -4  -7   3   28.60    7.80
  -4  -7   3   33.50    8.10
  -4  -7   3   33.20    4.80
   3   7  -3  162.48    8.90
   3   7  -3  140.89   12.70
   3   7  -3  161.58   13.80
  -3  -7   3  160.68   12.70
   2   7  -3   82.99    7.00
   2   7  -3   93.19   10.00
   2   7  -3   72.69   11.20
  -2  -7   3   81.29    9.40
  -2  -7   3   87.89    9.80
   1   7  -3    1.60    3.70
   1   7  -3    4.50    4.40
   1   7  -3    1.60    4.80
  -1  -7   3    3.50    4.10
  -1  -7   3    9.50    4.90
   0   7  -3   86.59   12.80
   0   7  -3   71.49    9.40
   0   7  -3   71.79   11.40
   0  -7   3   66.49   10.50
   0  -7   3   79.49   12.10
  -1   7  -3    2.40    3.80
  -1   7  -3    5.40    3.90
  -1   7  -3    5.90    4.00
   1  -7   3    4.80    4.80
   1  -7   3    2.10    4.00
  -2   7  -3   13.60    5.70
  -2   7  -3   23.10    6.70
  -2   7  -3   25.00    5.70
   2  -7   3   20.40    7.30
   2  -7   3    8.60    4.90
   8   6  -3  174.68   15.20
   8   6  -3  221.38   19.10
  -8  -6   3  178.38   12.70
  -8  -6   3  167.18   15.90
  -8  -6   3  182.08   16.00
   7   6  -3  196.38   15.10
   7   6  -3  183.08   15.30
  -7  -6   3  174.88   11.50
  -7  -6   3  179.28   14.50
  -7  -6   3  187.28   15.30
   6   6  -3  108.99   14.60
   6   6  -3   87.39   14.00
  -6  -6   3  100.49   14.40
  -6  -6   3   90.29   12.90
  -6  -6   3   90.39    8.20
   5   6  -3   26.00    6.90
   5   6  -3   14.70    5.20
  -5  -6   3   14.10    4.10
  -5  -6   3   14.40    6.00
  -5  -6   3   23.00    6.50
   4   6  -3  358.66   21.50
   4   6  -3  440.76   20.80
  -4  -6   3  478.05   15.50
  -4  -6   3  439.96   20.60
  -4  -6   3  470.35   21.90
   3   6  -3   48.70    6.40
   3   6  -3   41.60    9.20
   3   6  -3   37.80    7.70
  -3  -6   3   35.00    5.50
  -3  -6   3   29.60    7.10
   2   6  -3  675.53   24.80
   2   6  -3  701.93   26.50
   2   6  -3  689.93   20.50
  -2  -6   3  722.63   25.50
  -2  -6   3  720.93   20.10
   1   6  -3  129.19    8.70
   1   6  -3  117.99   10.40
   1   6  -3  125.39   10.90
  -1  -6   3  134.79   10.60
   0   6  -3  127.99   11.00
   0   6  -3  123.89    9.00
   0   6  -3  131.39   10.70
   0  -6   3  103.59    9.10
  -1   6  -3  102.79    9.80
  -1   6  -3   98.79   10.20
  -1   6  -3  107.49    8.90
   1  -6   3  109.59    9.90
   1  -6   3  120.09   10.00
  -2   6  -3   11.20    5.10
  -2   6  -3   15.80    5.20
  -2   6  -3   11.50    4.90
   2  -6   3   10.10    4.70
   2  -6   3   12.10    4.80
  -3   6  -3   77.69   11.20
  -3   6  -3   80.39   12.00
  -3   6  -3   65.79   10.30
   3  -6   3   71.09   10.90
   3  -6   3   61.29    9.90
  -4   6  -3   25.10    7.10
  -4   6  -3   41.80    8.70
  -4   6  -3   38.20    8.50
   4  -6   3   25.30    8.30
   4  -6   3   35.60    8.00
   8   5  -3   91.29   13.90
   8   5  -3   83.79   22.00
  -8  -5   3   80.99   10.90
  -8  -5   3   82.79   13.80
  -8  -5   3  102.09   15.50
   7   5  -3    5.40    4.90
   7   5  -3    4.90    5.80
  -7  -5   3   -6.30    3.50
  -7  -5   3   10.80    5.50
   6   5  -3   20.60    7.00
   6   5  -3   15.10    6.10
  -6  -5   3    7.10    4.50
  -6  -5   3    6.60    3.70
  -6  -5   3    8.50    5.10
   5   5  -3  177.38   13.30
   5   5  -3  164.78   12.40
  -5  -5   3  168.98    9.80
  -5  -5   3  160.98   12.40
  -5  -5   3  163.98   12.70
   4   5  -3   -2.40    3.20
   4   5  -3    0.30    3.90
  -4  -5   3   -2.80    3.30
  -4  -5   3   -0.80    3.10
   3   5  -3  647.54   23.60
   3   5  -3  641.04   18.80
   3   5  -3  697.43   30.10
  -3  -5   3  608.14   22.60
  -3  -5   3  646.14   18.90
   2   5  -3   94.29   14.80
   2   5  -3   71.59    7.80
   2   5  -3   64.49    6.20
  -2  -5   3   78.79    6.20
  -2  -5   3   81.29    8.20
  -2  -5   3   87.79    9.30
   1   5  -3   69.49    9.60
   1   5  -3   57.49    5.90
  -1  -5   3   65.69    5.80
  -1  -5   3   79.59    9.20
  -1  -5   3   65.89    7.30
   0   5  -3  272.67   12.90
   0   5  -3  272.47   15.00
   0   5  -3  276.57   14.20
   0  -5   3  276.87   14.00
   0  -5   3  294.47   16.80
  -1   5  -3   78.79   10.70
  -1   5  -3   68.29    7.00
  -1   5  -3   66.39    7.80
   1  -5   3   65.69    7.70
   1  -5   3   67.89   10.00
  -2   5  -3  252.57   14.70
  -2   5  -3  258.47   13.50
  -2   5  -3  239.88   13.60
   2  -5   3  252.87   13.90
  -3   5  -3   14.80    5.40
  -3   5  -3   10.90    5.60
  -3   5  -3   16.80    6.10
   3  -5   3   19.90    5.80
   3  -5   3   11.40    4.30
  -4   5  -3   18.80    5.60
  -4   5  -3   24.90    6.10
  -4   5  -3   21.60    7.00
   4  -5   3   33.90    7.80
   4  -5   3   28.00    7.40
  -5   5  -3   38.60    9.30
  -5   5  -3   25.80    8.20
  -5   5  -3   20.60    6.40
   5  -5   3   32.70    7.80
   5  -5   3   26.60    6.50
   8   4  -3   51.89   10.00
   8   4  -3   40.60    9.20
  -8  -4   3   46.60    9.20
  -8  -4   3   45.00    9.10
  -8  -4   3   56.99    9.40
   7   4  -3   59.09   10.70
   7   4  -3   58.89   10.50
  -7  -4   3   72.89   11.70
  -7  -4   3   60.09   10.50
  -7  -4   3   56.49    8.70
   6   4  -3  405.46   19.90
   6   4  -3  403.56   19.60
  -6  -4   3  387.16   19.30
  -6  -4   3  401.76   16.70
  -6  -4   3  429.46   20.10
   5   4  -3  709.23   26.20
   5   4  -3  766.32   29.50
  -5  -4   3  682.13   25.30
  -5  -4   3  649.74   27.40
  -5  -4   3  722.63   22.20
   4   4  -3   10.30    4.70
   4   4  -3    4.70    4.20
  -4  -4   3    6.00    3.20
  -4  -4   3    3.90    3.30
  -4  -4   3    3.50    3.90
   3   4  -3  225.58   10.20
   3   4  -3  238.18   13.40
   3   4  -3  227.18   12.80
  -3  -4   3  233.08   13.00
  -3  -4   3  237.58   10.80
  -3  -4   3  237.38   13.30
   2   4  -3   43.00    7.40
   2   4  -3   39.40    5.90
   2   4  -3   36.70    6.80
  -2  -4   3   34.90    6.40
  -2  -4   3   33.00    5.40
  -2  -4   3   39.10    6.60
   1   4  -3   88.89    8.60
   1   4  -3   89.69    6.80
   1   4  -3   88.69    8.00
  -1  -4   3   84.39    7.80
  -1  -4   3   79.09    7.60
  -1  -4   3   93.99    6.40
   0   4  -3  100.59    8.20
   0   4  -3  102.69    8.90
   0  -4   3  101.69    7.10
   0  -4   3  108.49    8.20
   0  -4   3  102.49    8.50
  -1   4  -3    7.90    3.90
  -1   4  -3    9.70    4.30
  -1   4  -3    9.00    4.10
   1  -4   3    5.80    3.50
   1  -4   3    7.80    3.80
  -2   4  -3   74.29    7.60
  -2   4  -3   60.29    8.50
  -2   4  -3   75.69   13.80
   2  -4   3   75.69    8.50
   2  -4   3   57.99    6.70
  -3   4  -3   81.49    8.30
  -3   4  -3   82.09    8.70
  -3   4  -3   84.69    8.20
   3  -4   3   89.09    8.50
   3  -4   3   79.89    8.90
  -4   4  -3   14.50    4.30
  -4   4  -3   10.70    5.20
  -4   4  -3    7.80    5.10
   4  -4   3    8.40    4.80
  -5   4  -3  190.08   13.30
  -5   4  -3  209.58   13.80
  -5   4  -3  208.48   14.00
   5  -4   3  200.08   13.60
   5  -4   3  182.28   13.60
  -6   4  -3  101.19   11.20
  -6   4  -3  101.19   14.20
   6  -4   3  110.79   11.10
   6  -4   3   97.19   15.00
   9   3  -3   41.50   10.60
   9   3  -3   58.79   12.80
  -9  -3   3   33.90    7.70
  -9  -3   3   61.89   10.80
  -9  -3   3   40.80   10.70
   8   3  -3  113.99   12.50
   8   3  -3  161.58   14.40
  -8  -3   3   86.79   12.60
  -8  -3   3  116.69   12.10
  -8  -3   3   97.49   10.70
   7   3  -3  425.56   20.90
   7   3  -3  390.46   20.10
  -7  -3   3  421.56   20.80
  -7  -3   3  411.56   20.20
  -7  -3   3  415.46   18.60
   6   3  -3  178.58   12.60
   6   3  -3  160.68   12.70
  -6  -3   3  158.08   12.30
  -6  -3   3  169.88   11.20
  -6  -3   3  173.38   12.50
   5   3  -3   10.90    4.30
   5   3  -3   19.80    6.20
  -5  -3   3   22.30    5.70
  -5  -3   3   28.30    7.30
  -5  -3   3   10.60    4.60
   4   3  -3   81.99    8.20
   4   3  -3   91.19    8.40
  -4  -3   3   97.09    8.80
  -4  -3   3   89.19    8.20
  -4  -3   3  100.49    7.60
   3   3  -3    3.00    3.20
   3   3  -3    2.10    2.30
   3   3  -3   -4.70    2.00
  -3  -3   3    2.00    2.90
  -3  -3   3    5.50    2.60
  -3  -3   3    1.80    2.70
   2   3  -3   42.20    5.90
   2   3  -3   34.80    5.90
   2   3  -3   44.00    6.70
  -2  -3   3   53.29    7.90
  -2  -3   3   36.40    6.40
  -2  -3   3   27.60    4.60
   1   3  -3  137.49    7.90
   1   3  -3  158.68   10.00
   1   3  -3  160.68    9.50
  -1  -3   3  147.79    7.90
  -1  -3   3  147.99    9.20
  -1  -3   3  152.38    9.60
   0   3  -3  237.98   11.50
   0   3  -3  223.18   10.40
   0   3  -3  249.18   12.10
   0  -3   3  245.08   10.30
   0  -3   3  245.08   11.60
   0  -3   3  228.68   11.70
  -1   3  -3   15.30    5.10
  -1   3  -3   24.40    5.00
  -1   3  -3   18.70    4.40
   1  -3   3   18.70    4.50
   1  -3   3   21.70    5.50
  -2   3  -3  284.97   12.80
  -2   3  -3  268.47   12.90
  -2   3  -3  286.27   13.80
   2  -3   3  269.77   13.40
   2  -3   3  286.27   13.10
  -3   3  -3  586.44   20.40
  -3   3  -3  585.94   20.50
  -3   3  -3  593.84   21.30
   3  -3   3  567.94   20.10
   3  -3   3  571.44   20.90
  -4   3  -3   28.20    7.60
  -4   3  -3   23.30    6.60
  -4   3  -3   20.60    5.60
   4  -3   3   18.50    5.00
  -5   3  -3  111.89   10.60
  -5   3  -3  112.39    9.80
  -5   3  -3  120.89   10.20
   5  -3   3  108.39    9.70
  -6   3  -3  205.48   14.50
  -6   3  -3  210.68   14.20
  -6   3  -3  192.58   13.60
   6  -3   3  211.88   14.10
   6  -3   3  171.58   13.80
  -7   3  -3   62.19   10.90
  -7   3  -3   25.50    8.20
  -7   3  -3   45.50    9.40
   7  -3   3   43.10    9.10
   7  -3   3   43.50    9.20
   9   2  -3   29.60   10.30
   9   2  -3   13.50    5.60
   9   2  -3   30.70   10.70
  -9  -2   3   13.90    6.60
  -9  -2   3   26.50    7.20
  -9  -2   3   34.50    9.10
   8   2  -3   57.69   11.00
   8   2  -3   70.39   11.50
  -8  -2   3   41.60    8.10
  -8  -2   3   59.99   11.40
  -8  -2   3   69.99   12.10
   7   2  -3   13.10    6.00
  -7  -2   3   13.50    5.30
  -7  -2   3   13.50    5.00
  -7  -2   3    2.60    4.80
   6   2  -3  175.38   12.40
  -6  -2   3  185.58   12.50
  -6  -2   3  175.58   11.50
  -6  -2   3  176.48   12.30
   5   2  -3  215.18   12.90
   5   2  -3  177.78   11.60
  -5  -2   3  184.78   11.70
  -5  -2   3  170.58   10.90
  -5  -2   3  197.88   11.90
   4   2  -3   42.10    6.50
   4   2  -3   38.00    7.20
  -4  -2   3   36.00    6.30
  -4  -2   3   46.60    7.30
  -4  -2   3   50.29    6.90
   3   2  -3  145.89    9.50
   3   2  -3  157.38    8.30
  -3  -2   3  154.08    9.70
  -3  -2   3  148.59    9.30
  -3  -2   3  158.98    8.70
   2   2  -3 1378.36   30.90
   2   2  -3 1440.46   33.10
   2   2  -3 1439.76   33.80
  -2  -2   3 1417.76   32.90
  -2  -2   3 1393.86   31.30
  -2  -2   3 1384.66   33.50
   1   2  -3  267.47   10.60
   1   2  -3  273.17   12.10
   1   2  -3  256.57   11.30
  -1  -2   3  259.17   10.60
  -1  -2   3  280.17   11.70
  -1  -2   3  276.17   11.90
   0   2  -3  513.25   16.40
   0   2  -3  481.35   15.50
   0   2  -3  521.15   17.10
   0  -2   3  510.65   16.90
   0  -2   3  512.85   16.30
   0  -2   3  543.55   15.80
  -1   2  -3 1019.10   26.50
  -1   2  -3 1003.80   25.80
  -1   2  -3 1004.70   25.30
   1  -2   3 1048.00   26.10
   1  -2   3 1049.49   24.90
   1  -2   3 1028.10   26.80
  -2   2  -3   64.39    8.50
  -2   2  -3   53.69    7.60
  -2   2  -3   51.89    5.60
   2  -2   3   65.99    8.60
   2  -2   3   51.99    5.80
  -3   2  -3   86.79    7.50
  -3   2  -3   83.89    8.00
  -3   2  -3   94.89    7.40
   3  -2   3   84.89    7.30
   3  -2   3   90.09    8.10
  -4   2  -3   31.40    6.40
  -4   2  -3   27.20    6.40
  -4   2  -3   32.20    6.30
   4  -2   3   34.90    6.80
   4  -2   3   34.50    6.20
  -5   2  -3    0.30    3.50
  -5   2  -3   -0.40    2.20
  -5   2  -3    0.50    3.60
   5  -2   3    0.50    3.00
  -6   2  -3    8.60    4.00
  -6   2  -3    3.60    3.80
  -6   2  -3    3.10    3.30
   6  -2   3   12.00    4.80
  -7   2  -3  343.47   18.40
  -7   2  -3  399.16   24.30
   7  -2   3  346.27   18.90
  -8   2  -3    6.30    4.60
  -8   2  -3   -4.20    4.50
  -8   2  -3   17.00    6.20
   8  -2   3    1.90    4.60
   8  -2   3    8.60    6.10
   8   1  -3   44.50    7.30
   8   1  -3   59.89   12.10
   8   1  -3   63.09   11.80
  -8  -1   3   52.69    9.70
  -8  -1   3   39.70    7.80
   7   1  -3  791.52   27.60
   7   1  -3  776.12   23.40
  -7  -1   3  735.63   26.80
  -7  -1   3  720.43   26.90
  -7  -1   3  789.22   27.30
   6   1  -3   29.60    6.90
  -6  -1   3   21.60    5.50
  -6  -1   3   25.10    6.70
  -6  -1   3   14.50    5.00
   5   1  -3  503.85   19.10
   5   1  -3  460.85   18.00
  -5  -1   3  489.55   18.60
  -5  -1   3  495.35   18.30
  -5  -1   3  480.15   18.70
   4   1  -3  754.62   22.70
   4   1  -3  780.32   23.60
  -4  -1   3  773.92   22.90
  -4  -1   3  759.42   22.80
  -4  -1   3  809.52   22.90
   3   1  -3    2.40    2.80
   3   1  -3    7.40    3.30
  -3  -1   3    9.10    3.50
  -3  -1   3    4.50    3.50
  -3  -1   3    2.50    2.40
   2   1  -3  154.68    8.60
   2   1  -3  173.28    9.10
   2   1  -3  158.48    8.20
  -2  -1   3  175.08    8.60
  -2  -1   3  153.08    8.50
  -2  -1   3  160.38    8.80
   1   1  -3  111.69    7.10
   1   1  -3  113.29    7.50
   1   1  -3  119.09    6.90
   1   1  -3  125.69    5.70
  -1  -1   3  123.39    7.20
  -1  -1   3  126.69    7.80
  -1  -1   3  120.39    7.10
   0   1  -3   61.39    4.30
   0   1  -3   49.40    4.90
   0   1  -3   59.39    5.40
   0   1  -3   61.69    5.90
   0  -1   3   55.29    5.30
   0  -1   3   55.19    5.70
   0  -1   3   51.19    5.00
  -1   1  -3  543.05   16.50
  -1   1  -3  518.85   15.90
  -1   1  -3  523.45   15.80
  -1   1  -3  557.04   11.80
   1  -1   3  551.84   15.80
   1  -1   3  525.85   16.50
   1  -1   3  555.24   16.20
  -2   1  -3   80.29    6.40
  -2   1  -3   73.79    6.60
  -2   1  -3   78.89    6.30
   2  -1   3   74.49    6.80
   2  -1   3   69.19    6.20
  -3   1  -3  209.18   11.00
  -3   1  -3  239.28   11.00
  -3   1  -3  225.48   10.80
   3  -1   3  235.08   11.00
   3  -1   3  234.28   11.60
  -4   1  -3  281.77   13.30
  -4   1  -3  303.17   14.10
  -4   1  -3  313.67   13.50
   4  -1   3  287.07   13.90
   4  -1   3  315.37   13.90
  -5   1  -3    4.20    3.70
  -5   1  -3    1.70    2.40
  -5   1  -3    3.30    3.70
   5  -1   3   -3.10    1.80
   5  -1   3   12.70    4.50
  -6   1  -3  382.06   17.60
  -6   1  -3  370.56   18.20
   6  -1   3  376.06   17.40
  -7   1  -3   95.59    9.90
   7  -1   3   91.79    9.80
  -8   1  -3    7.30    4.70
  -8   1  -3   16.00    5.40
  -8   1  -3   14.20    5.70
   8  -1   3   27.80    7.70
   8  -1   3   32.50    9.90
   8   0  -3  302.57   13.90
   8   0  -3  288.27   17.20
   8   0  -3  287.07   17.30
  -8   0   3  310.97   17.20
   7   0  -3    1.90    3.20
   7   0  -3    2.60    3.40
   7   0  -3    2.90    3.50
  -7   0   3    2.10    3.80
  -7   0   3   -3.50    3.80
   6   0  -3  132.59   10.40
   6   0  -3  143.69   10.00
  -6   0   3  138.99   10.70
  -6   0   3  140.59   10.40
   5   0  -3  302.17   14.00
   5   0  -3  281.27   13.50
   5   0  -3  305.47   11.90
  -5   0   3  285.67   13.70
  -5   0   3  309.97   13.90
  -5   0   3  314.37   14.60
   4   0  -3  303.87   11.00
   4   0  -3  297.27   12.70
   4   0  -3  291.27   12.80
  -4   0   3  289.57   12.70
  -4   0   3  278.17   12.40
  -4   0   3  294.27   13.10
   3   0  -3   18.60    3.30
   3   0  -3   26.10    4.70
  -3   0   3   23.30    5.20
  -3   0   3   22.20    4.50
   2   0  -3  251.37   10.20
   2   0  -3  237.88    9.80
   2   0  -3  243.38    8.60
  -2   0   3  222.38    9.50
  -2   0   3  232.18    9.60
  -2   0   3  236.48   10.30
   1   0  -3 1325.17   28.40
   1   0  -3 1309.67   27.70
   1   0  -3 1348.97   28.20
   1   0  -3 1308.57   26.00
  -1   0   3 1304.07   28.70
  -1   0   3 1327.07   27.70
  -1   0   3 1273.77   27.90
   0   0  -3 1815.22   34.40
   0   0  -3 1808.72   35.50
   0   0  -3 1725.03   35.50
   0   0  -3 1728.03   34.70
   0   0   3 1803.02   35.60
   0   0   3 1802.42   35.90
   0   0   3 1765.82   34.80
  -1   0  -3    4.40    3.00
  -1   0  -3    0.10    2.50
  -1   0  -3    3.10    2.60
  -1   0  -3    3.60    1.60
   1   0   3    8.20    3.00
   1   0   3    5.70    2.80
   1   0   3    3.20    1.60
   1   0   3    0.90    2.30
  -2   0  -3  403.26   13.30
  -2   0  -3  385.26   13.00
  -2   0  -3  416.76   13.90
   2   0   3  397.96   13.70
   2   0   3  416.66   13.40
   2   0   3  417.56   13.10
   2   0   3  399.86    9.40
  -3   0  -3  276.47   11.20
  -3   0  -3  286.07   11.60
  -3   0  -3  272.37   11.80
   3   0   3  275.07   11.40
   3   0   3  261.47   11.70
  -4   0  -3   17.60    4.70
  -4   0  -3   15.40    4.20
  -4   0  -3   21.20    5.40
   4   0   3   21.20    4.70
   4   0   3   19.90    5.30
  -5   0  -3  132.09   10.30
  -5   0  -3  140.29    9.60
  -5   0  -3  128.99    8.80
   5   0   3  130.69    9.50
   5   0   3  129.09    9.70
  -6   0  -3   16.90    5.20
   6   0   3   13.50    4.50
   6   0   3   12.10    7.00
  -7   0  -3   95.69   10.20
  -7   0  -3   93.49    9.70
   7   0   3  106.29   10.50
   7   0   3   98.49    9.80
  -8   0  -3  100.09   10.40
  -8   0  -3   85.59   12.60
   8   0   3  104.19   14.00
   8   0   3   90.09   10.10
  -9   0  -3  303.07   18.60
  -9   0  -3  277.87   17.10
   9   0   3  292.87   18.90
   9   0   3  298.87   19.90
   8  -1  -3   67.99    7.30
   8  -1  -3   73.79   11.20
  -8   1   3   38.70    7.90
  -8   1   3   71.09   10.10
   7  -1  -3   10.40    5.10
   7  -1  -3    6.80    3.40
   7  -1  -3    7.90    4.60
  -7   1   3    8.50    4.20
   6  -1  -3   31.30    6.20
   6  -1  -3   27.90    6.40
   6  -1  -3   20.00    4.20
  -6   1   3   36.40    6.70
   5  -1  -3  515.45   18.10
   5  -1  -3  464.15   15.20
  -5   1   3  480.55   17.20
   4  -1  -3   42.20    5.80
   4  -1  -3   40.60    4.50
   4  -1  -3   56.59    7.10
  -4   1   3   43.10    6.20
  -4   1   3   52.09    7.10
   3  -1  -3 1512.65   30.90
   3  -1  -3 1509.35   32.40
   3  -1  -3 1465.05   32.00
  -3   1   3 1539.15   32.40
  -3   1   3 1495.15   34.40
  -3   1   3 1497.25   32.20
   2  -1  -3  281.07    9.20
   2  -1  -3  259.67    9.40
   2  -1  -3  288.57   10.00
  -2   1   3  263.67   10.90
  -2   1   3  268.37    9.60
  -2   1   3  268.37    9.60
   1  -1  -3  255.97    8.70
   1  -1  -3  235.38    9.30
   1  -1  -3  239.08    8.30
   1  -1  -3  246.88    8.20
  -1   1   3  249.28    9.80
  -1   1   3  245.98    8.50
  -1   1   3  243.28    8.30
  -1   1   3  238.68    8.00
   0  -1  -3 1342.77   28.30
   0  -1  -3 1363.86   26.00
   0  -1  -3 1363.16   26.60
   0   1   3 1338.07   25.90
   0   1   3 1308.17   28.00
   0   1   3 1328.47   26.60
  -1  -1  -3 5021.60   82.89
  -1  -1  -3 4976.50   85.89
  -1  -1  -3 4979.50   84.39
   1   1   3 4903.51   83.79
   1   1   3 4941.61   84.59
   1   1   3 4930.21   87.19
   1   1   3 4867.61   82.29
  -2  -1  -3  969.40   22.40
  -2  -1  -3  954.00   21.90
  -2  -1  -3  929.71   22.00
   2   1   3  930.71   22.30
   2   1   3  953.30   19.40
   2   1   3  967.60   21.80
   2   1   3  984.60   22.00
  -3  -1  -3  426.26   14.50
  -3  -1  -3  426.66   14.00
  -3  -1  -3  425.76   13.70
   3   1   3  433.16   14.10
   3   1   3  443.56   14.90
  -4  -1  -3  373.16   14.00
  -4  -1  -3  399.76   15.00
  -4  -1  -3  366.76   13.40
   4   1   3  389.36   14.30
   4   1   3  357.26   14.50
  -5  -1  -3  122.59    8.10
  -5  -1  -3  116.59    8.50
  -5  -1  -3  115.09    8.80
   5   1   3  104.69    8.70
   5   1   3  114.29    8.50
  -6  -1  -3   85.09    8.10
  -6  -1  -3   74.29    7.10
  -6  -1  -3   77.49    8.60
   6   1   3   78.59    8.30
   6   1   3   83.39    8.40
  -7  -1  -3  113.99   10.00
  -7  -1  -3  114.09   10.80
   7   1   3  118.59   10.50
   7   1   3  118.19   10.20
  -8  -1  -3  739.23   27.30
   8   1   3  719.93   27.40
   8   1   3  701.83   27.70
  -9  -1  -3  109.99   12.00
   9   1   3   89.09   13.90
   9   1   3  140.69   20.50
   8  -2  -3  280.47   16.50
   8  -2  -3  289.57   13.40
   8  -2  -3  312.27   18.70
  -8   2   3  266.27   15.60
   7  -2  -3  133.39   11.30
   7  -2  -3  159.18   11.50
   7  -2  -3  140.69    8.90
  -7   2   3  125.59   10.10
  -7   2   3  141.29   10.90
   6  -2  -3   65.09    6.30
   6  -2  -3   72.29    8.20
   6  -2  -3   85.09    8.40
  -6   2   3   74.69    7.60
  -6   2   3   71.99    7.50
   5  -2  -3 1140.99   30.60
   5  -2  -3 1131.19   29.20
   5  -2  -3 1130.69   26.90
  -5   2   3 1126.99   28.30
   4  -2  -3    2.00    1.80
   4  -2  -3    3.30    2.80
   4  -2  -3    0.90    2.00
  -4   2   3    1.50    2.20
  -4   2   3    6.10    2.90
   3  -2  -3   41.10    4.40
   3  -2  -3   41.60    4.10
   3  -2  -3   39.70    5.00
  -3   2   3   53.79    7.10
  -3   2   3   34.20    4.10
   2  -2  -3    3.20    2.40
   2  -2  -3    0.90    1.70
   2  -2  -3   -1.20    1.70
  -2   2   3    0.30    1.70
  -2   2   3    0.20    1.50
  -2   2   3    5.10    2.80
  -2   2   3    0.40    2.10
   1  -2  -3   26.90    3.60
  -1   2   3   24.30    4.10
  -1   2   3   28.10    3.20
  -1   2   3   28.50    3.20
  -1   2   3   21.00    3.00
   0  -2  -3 1668.63   34.10
   0  -2  -3 1788.92   33.40
   0  -2  -3 1751.62   30.80
   0   2   3 1788.12   33.10
   0   2   3 1760.42   30.80
   0   2   3 1747.23   34.50
  -1  -2  -3   -1.80    1.80
  -1  -2  -3   -0.90    1.60
  -1  -2  -3    0.30    2.00
   1   2   3   -2.40    1.60
   1   2   3   -0.60    2.00
   1   2   3   -1.60    1.70
   1   2   3   -3.60    1.60
  -2  -2  -3   82.49    5.20
  -2  -2  -3   78.29    5.00
  -2  -2  -3   85.19    5.60
   2   2   3   81.09    5.10
   2   2   3   81.49    5.60
   2   2   3   84.99    5.90
  -3  -2  -3 1202.68   26.80
  -3  -2  -3 1195.68   26.20
   3   2   3 1186.98   27.50
   3   2   3 1235.98   27.10
  -4  -2  -3   80.19    6.50
  -4  -2  -3   86.49    6.10
  -4  -2  -3   90.19    7.60
   4   2   3   81.09    7.30
   4   2   3   95.09    6.90
  -5  -2  -3 1117.29   29.30
  -5  -2  -3 1050.99   28.20
  -5  -2  -3 1101.29   27.10
   5   2   3 1108.19   29.00
   5   2   3 1100.09   29.40
  -6  -2  -3  275.17   12.50
  -6  -2  -3  257.57   13.40
  -6  -2  -3  281.47   14.50
   6   2   3  257.57   13.90
   6   2   3  277.67   14.00
  -7  -2  -3   86.19    8.60
   7   2   3   98.89    9.40
  -8  -2  -3  157.28   12.50
  -8  -2  -3  131.99   12.40
   8   2   3  133.79   11.80
   8   2   3  153.58   12.80
  -9  -2  -3   57.29    9.90
  -9  -2  -3   29.00    7.60
   9   2   3   44.00    8.70
   9   2   3   90.89   14.50
 -10  -2  -3   10.00    6.60
 -10  -2  -3    8.50    6.10
 -10  -2  -3    3.00    5.50
  10   2   3   -6.20    6.10
  10   2   3    0.50    5.20
   7  -3  -3   -0.10    4.10
   7  -3  -3    4.40    5.00
   7  -3  -3    2.00    3.80
  -7   3   3    1.80    4.70
  -7   3   3   -1.20    3.40
   6  -3  -3   35.60    5.40
   6  -3  -3   57.79   13.10
  -6   3   3   36.80    6.40
  -6   3   3   47.50    7.50
   5  -3  -3   75.29    6.30
   5  -3  -3   75.09    6.70
   5  -3  -3   83.49    7.10
  -5   3   3   84.89    7.20
   4  -3  -3  404.06   13.70
   4  -3  -3  399.26   13.20
   4  -3  -3  379.66   13.30
  -4   3   3  405.06   13.60
  -4   3   3  385.26   13.40
   3  -3  -3  237.68    9.10
   3  -3  -3  262.37    9.80
   3  -3  -3  242.58    9.40
  -3   3   3  259.67    9.10
  -3   3   3  256.47    9.10
   2  -3  -3  137.79    6.80
  -2   3   3  144.09    8.40
   1  -3  -3   49.60    4.20
  -1   3   3   47.20    3.90
  -1   3   3   42.40    4.80
   0   3   3  592.24   14.80
   0   3   3  594.74   15.50
  -1  -3  -3  250.27    8.40
   1   3   3  262.17    9.00
   1   3   3  267.07    8.80
  -2  -3  -3  579.54   14.30
  -2  -3  -3  583.74   14.30
  -2  -3  -3  574.84   13.90
   2   3   3  583.44   14.50
   2   3   3  615.14   14.20
   2   3   3  576.64   14.00
  -3  -3  -3  139.59    6.50
  -3  -3  -3  133.29    7.60
  -3  -3  -3  140.79    7.10
   3   3   3  137.09    7.40
   3   3   3  145.79    6.30
   3   3   3  151.18    7.40
  -4  -3  -3  782.52   21.40
  -4  -3  -3  756.22   19.00
  -4  -3  -3  739.63   20.50
   4   3   3  785.42   21.50
   4   3   3  793.82   21.20
  -5  -3  -3  790.32   22.80
  -5  -3  -3  803.52   20.70
  -5  -3  -3  786.82   23.30
   5   3   3  776.72   23.20
   5   3   3  766.32   22.70
  -6  -3  -3  291.67   14.70
  -6  -3  -3  317.27   14.40
  -6  -3  -3  292.47   12.40
   6   3   3  305.17   14.80
   6   3   3  294.47   14.30
  -7  -3  -3    3.90    5.00
  -7  -3  -3   13.70    5.10
   7   3   3   22.50    6.50
   7   3   3   16.60    5.80
  -8  -3  -3   19.70    5.90
  -8  -3  -3   10.80    5.70
   8   3   3   11.50    5.50
   8   3   3   12.20    5.50
  -9  -3  -3   96.89   11.30
  -9  -3  -3  106.99   11.20
   9   3   3  111.29   12.40
   9   3   3  112.09   11.80
 -10  -3  -3  252.47   15.80
 -10  -3  -3  266.07   18.30
  10   3   3  246.98   18.50
  10   3   3  247.88   17.90
   6  -4  -3   58.99    8.30
   6  -4  -3   73.39    9.70
  -6   4   3   47.20    7.30
  -6   4   3   67.19    7.50
   5  -4  -3  112.69    7.40
   5  -4  -3  128.99    8.50
   5  -4  -3  108.79    7.60
  -5   4   3  135.69    8.70
  -5   4   3  120.39    8.10
   4  -4  -3  513.95   15.70
  -4   4   3  497.85   15.30
  -4   4   3  490.55   15.20
   3  -4  -3   38.50    4.90
  -2   4   3  146.49    7.00
  -1   4   3   61.29    4.40
  -1   4   3   74.39    5.70
   0   4   3    9.70    2.50
   0   4   3   18.80    3.60
   1   4   3  408.96   11.30
  -2  -4  -3  114.19    5.90
  -2  -4  -3  107.29    4.80
  -2  -4  -3  110.39    5.20
   2   4   3  116.39    5.00
   2   4   3  113.59    5.40
   2   4   3  107.89    5.50
  -3  -4  -3   72.79    5.30
  -3  -4  -3   79.09    5.70
  -3  -4  -3   73.89    4.30
   3   4   3   76.99    5.80
   3   4   3   77.39    5.50
  -4  -4  -3    4.10    2.70
  -4  -4  -3    4.20    3.40
  -4  -4  -3    3.70    2.10
   4   4   3    1.80    2.30
   4   4   3    4.20    3.70
  -5  -4  -3  280.87   13.00
  -5  -4  -3  270.87   12.20
  -5  -4  -3  273.97   10.10
   5   4   3  277.07   12.90
   5   4   3  281.37   12.60
  -6  -4  -3  225.48   10.10
  -6  -4  -3  233.08   12.30
  -6  -4  -3  234.38   12.80
   6   4   3  247.78   13.20
   6   4   3  215.48   12.20
  -7  -4  -3  322.87   13.50
  -7  -4  -3  366.16   19.00
  -7  -4  -3  336.57   16.80
   7   4   3  328.47   16.90
   7   4   3  321.47   16.20
  -8  -4  -3   11.00    5.00
  -8  -4  -3   -0.20    2.60
  -8  -4  -3    6.50    4.90
   8   4   3    5.60    5.20
   8   4   3    4.60    4.20
  -9  -4  -3  360.06   19.60
  -9  -4  -3  330.47   19.30
  -9  -4  -3  357.46   17.80
   9   4   3  350.06   19.70
   9   4   3  322.57   19.30
 -10  -4  -3   79.39    9.30
 -10  -4  -3   64.49   11.30
  10   4   3   92.89   16.20
  -6   5   3   46.30    7.40
  -6   5   3   24.00    5.00
  -5   5   3    6.40    3.20
  -5   5   3    2.00    3.10
  -3   5   3  163.48    7.80
  -2   5   3    0.00    2.00
  -1   5   3  697.83   17.80
   0   5   3  362.66   11.80
   0   5   3  328.37   11.30
   1   5   3  172.78    7.10
   2   5   3 2170.48   39.60
  -3  -5  -3   70.89    5.20
  -3  -5  -3   78.39    5.30
   3   5   3   67.69    5.40
   3   5   3   78.49    5.70
  -4  -5  -3  823.72   21.40
  -4  -5  -3  822.72   21.70
   4   5   3  795.12   21.60
   4   5   3  817.52   21.60
  -5  -5  -3   40.00    5.80
  -5  -5  -3   48.10    6.90
  -5  -5  -3   35.50    5.80
   5   5   3   41.00    6.60
   5   5   3   40.00    6.50
  -6  -5  -3   11.70    4.20
  -6  -5  -3   19.50    5.90
  -6  -5  -3   13.70    3.20
   6   5   3   11.30    4.20
   6   5   3   14.30    4.90
  -7  -5  -3  429.26   14.70
  -7  -5  -3  449.56   19.30
  -7  -5  -3  384.26   21.10
   7   5   3  413.26   18.50
   7   5   3  415.46   18.80
  -8  -5  -3   28.00    7.10
  -8  -5  -3   26.30    4.90
  -8  -5  -3   32.80    8.90
   8   5   3   27.30    7.40
   8   5   3   29.20    7.30
  -9  -5  -3   31.20    8.30
  -9  -5  -3   59.49   10.80
  -9  -5  -3   44.00    7.10
   9   5   3   41.20    8.40
   9   5   3   49.00    9.90
 -10  -5  -3    4.80    3.90
 -10  -5  -3   12.90    5.90
 -10  -5  -3   16.30    6.60
  10   5   3   -7.90    4.80
  10   5   3   10.10    6.40
  -2   6   3  152.08    7.60
  -1   6   3  504.15   15.00
   0   6   3   39.90    4.30
   0   6   3   43.70    5.60
   1   6   3  202.18    8.00
  -3  -6  -3   17.90    3.70
  -3  -6  -3   18.40    3.50
   3   6   3   16.30    3.80
   3   6   3   20.90    4.20
  -4  -6  -3    5.90    3.20
   4   6   3   12.00    4.20
   4   6   3   11.90    3.80
  -5  -6  -3    3.30    3.40
  -5  -6  -3    1.70    2.30
   5   6   3    3.70    3.80
   5   6   3    5.50    3.70
  -6  -6  -3   99.39    9.00
   6   6   3   90.19    9.30
   6   6   3   88.59    9.00
  -7  -6  -3   83.79    9.20
  -7  -6  -3   77.89    5.70
   7   6   3   97.69    9.60
   7   6   3   88.29    9.40
  -8  -6  -3   31.10    5.30
  -8  -6  -3   37.20   11.00
   8   6   3   32.70    7.40
  -9  -6  -3   11.80    4.10
  -9  -6  -3   18.10    6.30
  -9  -6  -3    9.10    5.10
   9   6   3   22.50    8.30
   9   6   3   26.40    8.50
 -10  -6  -3  217.28   16.60
 -10  -6  -3  221.08   16.90
 -10  -6  -3  218.18   12.70
  10   6   3  195.48   17.10
  10   6   3  192.98   16.40
  -1   7   3   -0.90    2.20
   0   7   3    3.60    2.40
   0   7   3    0.00    2.00
   1   7   3   30.40    4.90
   1   7   3   35.60    4.20
  -3  -7  -3   38.90    5.20
  -3  -7  -3   42.90    4.40
   3   7   3   40.90    4.90
   3   7   3   45.40    5.90
  -4  -7  -3    7.40    2.90
  -4  -7  -3   -1.60    2.70
   4   7   3    0.70    3.40
   4   7   3    4.10    3.00
  -5  -7  -3  168.78   10.40
  -5  -7  -3  163.48    9.80
   5   7   3  172.68   10.60
  -6  -7  -3   30.20    5.80
   6   7   3   40.80    7.70
   6   7   3   35.40    7.40
   7   7   3   37.10    8.40
   7   7   3   31.40    7.60
  -8  -7  -3  269.97   17.10
  -8  -7  -3  261.47   15.90
   8   7   3  276.27   16.50
   8   7   3  272.27   20.40
  -9  -7  -3  182.88    9.70
  -9  -7  -3  187.58   14.40
   9   7   3  189.48   15.10
  -1   8   3   24.80    5.20
  -1   8   3   39.80    5.30
   0   8   3  172.98    9.30
   0   8   3  183.08    9.40
   1   8   3  322.67   13.10
  -3  -8  -3  172.18    8.10
   3   8   3  160.78    8.70
   3   8   3  164.18    8.80
  -4  -8  -3  290.97   12.30
  -4  -8  -3  295.07   12.60
   4   8   3  315.87   13.30
  -5  -8  -3    1.20    3.20
  -5  -8  -3    2.70    2.70
   5   8   3   -1.50    3.20
   5   8   3   -0.40    4.10
  -6  -8  -3    5.90    4.20
   6   8   3    2.00    3.30
   6   8   3    7.30    4.60
  -7  -8  -3  382.76   18.60
  -7  -8  -3  383.06   17.60
   7   8   3  368.86   18.50
   7   8   3  376.96   18.40
  -8  -8  -3   10.10    5.30
  -8  -8  -3    5.70    4.60
   8   8   3   14.60    7.50
   8   8   3   17.40    6.80
  -9  -8  -3   12.90    5.90
  -9  -8  -3   17.00    7.40
   9   8   3   21.20    7.00
   9   8   3   31.80    8.50
  -1   9   3  112.69    9.20
   0   9   3   13.80    3.70
   0   9   3   10.90    3.60
   1   9   3    3.60    2.90
   3   9   3    1.60    3.10
   3   9   3    7.60    3.40
  -4  -9  -3    8.70    3.40
  -4  -9  -3   10.20    3.60
   4   9   3    8.80    4.40
   4   9   3    7.80    3.80
  -5  -9  -3   27.30    6.60
   5   9   3   33.50    6.80
   5   9   3   24.00    6.20
  -6  -9  -3   23.50    6.10
  -6  -9  -3   34.20    7.20
   6   9   3   31.40    6.60
   6   9   3   35.00    7.40
  -7  -9  -3   22.30    6.80
  -7  -9  -3   38.10    7.60
   7   9   3   31.30    7.90
   7   9   3   30.50    7.20
  -8  -9  -3  123.79   11.60
  -8  -9  -3  111.09   11.30
   8   9   3  102.89   11.20
   8   9   3  106.39   21.60
   1  10   3    5.90    3.80
   2  10   3   46.80    7.30
  -4 -10  -3    6.40    3.60
  -4 -10  -3    6.70    3.00
   4  10   3    9.60    4.20
   4  10   3    9.60    4.50
  -5 -10  -3   69.79    8.00
  -5 -10  -3  102.39    9.10
   5  10   3   94.39    9.50
   5  10   3   80.89    8.50
  -6 -10  -3   29.80    6.60
  -6 -10  -3   38.80    7.50
   6  10   3   37.10    7.90
   6  10   3   40.90    8.70
  -7 -10  -3  142.89   11.90
  -7 -10  -3  125.69   11.80
   7  10   3  131.49   11.30
   7  10   3  154.98   13.50
   6   7  -4  253.37   19.90
   6   7  -4  227.28   18.10
  -6  -7   4  256.27   17.80
  -6  -7   4  227.28   17.80
  -6  -7   4  225.98   12.60
   5   7  -4   36.70    9.30
   5   7  -4   24.50    8.40
  -5  -7   4   16.40    6.30
  -5  -7   4   14.20    6.00
  -5  -7   4    7.10    4.30
  -4  -7   4  256.37   17.00
  -4  -7   4  269.27   12.50
   3   7  -4   10.60    4.10
   3   7  -4   10.90    5.60
   3   7  -4    8.30    5.30
  -3  -7   4   25.80    7.20
  -3  -7   4    7.00    4.60
  -3  -7   4    8.90    3.90
   2   7  -4   16.90    6.30
   2   7  -4   26.00    5.60
   2   7  -4   24.00    7.40
  -2  -7   4   22.80    7.30
  -2  -7   4   12.30    6.00
   1   7  -4  182.18   11.70
   1   7  -4  200.98   14.80
   1   7  -4  161.28   16.50
  -1  -7   4  198.28   16.10
  -1  -7   4  187.68   14.10
   0   7  -4  125.99   10.40
   0   7  -4  106.49   12.70
   0   7  -4  114.89   11.70
   0  -7   4  130.59   12.30
   0  -7   4  121.59   13.80
  -1   7  -4   17.00    5.70
  -1   7  -4   16.40    5.80
  -1   7  -4   12.80    5.60
   1  -7   4    8.50    6.10
   1  -7   4   16.90    5.50
   7   6  -4    8.80    6.00
   7   6  -4   -2.30    7.40
  -7  -6   4    8.30    5.30
  -7  -6   4   10.20    7.10
  -7  -6   4   15.70    7.00
   6   6  -4   14.30    6.70
   6   6  -4   19.70    7.10
  -6  -6   4   19.00    6.80
  -6  -6   4   17.20    6.80
   5   6  -4  395.06   20.80
   5   6  -4  383.96   21.20
  -5  -6   4  377.96   20.40
  -5  -6   4  412.86   16.60
  -5  -6   4  399.36   21.40
   4   6  -4    1.30    2.80
   4   6  -4    2.50    3.90
  -4  -6   4   11.40    5.20
  -4  -6   4   -1.90    2.90
  -4  -6   4    0.30    4.50
   3   6  -4   90.69   10.50
   3   6  -4  103.09   10.90
   3   6  -4  100.59    8.00
  -3  -6   4  115.69   11.40
  -3  -6   4   94.09   10.60
  -3  -6   4   94.39    7.80
   2   6  -4  216.78   11.80
   2   6  -4  199.08   14.30
  -2  -6   4  222.88   11.00
   1   6  -4    0.00    3.10
   1   6  -4   11.90    5.40
   1   6  -4    5.50    5.00
  -1  -6   4    4.30    3.90
   0   6  -4  167.68   13.30
   0   6  -4  158.98   11.30
   0   6  -4  187.58   13.80
   0  -6   4  178.48   13.10
  -1   6  -4    1.00    3.70
  -1   6  -4    2.70    3.50
  -1   6  -4    8.40    4.80
   1  -6   4    2.90    5.00
   1  -6   4    2.20    3.90
  -2   6  -4   -0.90    3.70
  -2   6  -4    1.30    3.40
  -2   6  -4   -1.10    4.70
   2  -6   4   -2.10    3.10
   2  -6   4    8.40    4.70
  -3   6  -4   10.70    5.30
  -3   6  -4   12.00    4.90
  -3   6  -4    4.80    4.90
   3  -6   4   -3.00    5.40
   7   5  -4   46.50   10.00
   7   5  -4   65.09   11.10
  -7  -5   4   95.89   14.50
  -7  -5   4   48.80    8.50
  -7  -5   4   73.79   11.50
   6   5  -4  108.19   12.00
   6   5  -4  134.39   12.70
  -6  -5   4   98.49   10.90
  -6  -5   4  117.29   11.90
   5   5  -4   -2.00    3.50
   5   5  -4    9.40    4.40
  -5  -5   4    2.80    5.40
  -5  -5   4   -0.20    3.40
  -5  -5   4    1.60    4.00
   4   5  -4  123.39    8.50
   4   5  -4  111.89   11.70
  -4  -5   4  109.19    8.70
  -4  -5   4  105.39   10.80
  -4  -5   4  128.89   11.40
   3   5  -4   87.09    9.60
   3   5  -4   63.79   11.00
   3   5  -4   89.99    7.70
  -3  -5   4   73.29   11.80
  -3  -5   4   83.69    7.60
  -3  -5   4   91.39    9.80
   2   5  -4   60.39    6.80
   2   5  -4   75.19    8.60
   2   5  -4   71.59   10.90
  -2  -5   4   72.29    7.00
  -2  -5   4   96.19    9.60
  -2  -5   4   59.19    9.70
   1   5  -4    4.40    3.80
   1   5  -4    7.30    4.10
   1   5  -4    0.00    2.70
  -1  -5   4    4.20    3.00
  -1  -5   4    0.50    3.50
   0   5  -4   82.99   12.30
   0   5  -4   73.89    7.80
   0   5  -4   73.19   11.00
   0  -5   4   72.89   11.00
  -1   5  -4  374.96   18.00
  -1   5  -4  386.06   19.00
  -1   5  -4  367.36   16.80
   1  -5   4  342.67   17.30
  -2   5  -4  178.28   12.80
  -2   5  -4  204.58   14.20
  -2   5  -4  202.38   13.00
   2  -5   4  209.18   13.50
  -3   5  -4  133.79   11.60
  -3   5  -4  123.39   10.80
  -3   5  -4  127.29   11.90
   3  -5   4  138.49   11.70
   3  -5   4  118.79   11.80
  -4   5  -4  131.19   12.30
   4  -5   4  123.99   13.20
   8   4  -4   -0.10    5.30
   8   4  -4   10.20    7.60
  -8  -4   4   15.60    6.90
  -8  -4   4    4.40    4.80
  -8  -4   4    9.90    7.10
   7   4  -4   -4.90    4.40
   7   4  -4   -3.00    3.40
  -7  -4   4   -1.20    4.30
  -7  -4   4    5.40    5.60
  -7  -4   4   -7.80    3.80
   6   4  -4    1.30    4.90
   6   4  -4   15.20    6.60
  -6  -4   4    6.70    4.40
  -6  -4   4   11.30    5.00
  -6  -4   4    7.30    5.00
   5   4  -4    0.70    4.70
   5   4  -4    2.50    3.70
  -5  -4   4    5.20    4.70
  -5  -4   4   -1.20    3.50
  -5  -4   4    1.50    3.90
  -4  -4   4   25.30    9.60
  -4  -4   4   28.00    5.80
   3   4  -4  139.09   11.40
   3   4  -4  155.88   11.20
   3   4  -4  164.38    9.60
  -3  -4   4  154.28   11.50
  -3  -4   4  147.79   11.20
  -3  -4   4  143.99    9.50
   2   4  -4  199.28   10.60
   2   4  -4  195.98   12.50
   2   4  -4  191.18   12.90
  -2  -4   4  208.58   12.70
  -2  -4   4  198.68   12.70
  -2  -4   4  188.98   10.30
   1   4  -4  125.49    8.70
   1   4  -4  102.69    9.60
   1   4  -4  122.49    9.70
  -1  -4   4  125.39    8.50
  -1  -4   4  117.29   10.20
  -1  -4   4  120.69    9.80
   0   4  -4   32.10    4.10
   0   4  -4   31.60    7.30
   0   4  -4   32.30    6.00
   0   4  -4   30.60    7.00
   0  -4   4   20.60    5.90
   0  -4   4   20.60    5.60
   0  -4   4   27.20    5.10
  -1   4  -4 1644.44   41.30
  -1   4  -4 1595.14   42.20
  -1   4  -4 1601.24   39.90
   1  -4   4 1638.84   42.60
   1  -4   4 1578.24   40.50
  -2   4  -4   80.19   11.30
  -2   4  -4   53.49    8.70
  -2   4  -4   70.29   10.30
   2  -4   4   57.59    9.30
  -3   4  -4   47.10    9.10
  -3   4  -4   38.00    7.60
  -3   4  -4   37.90    8.30
   3  -4   4   34.80    7.50
  -4   4  -4   73.09   11.30
  -4   4  -4   70.89    8.50
  -4   4  -4  103.89   14.10
   4  -4   4   78.39   12.20
  -5   4  -4   26.30    7.00
  -5   4  -4   13.10    5.70
  -5   4  -4   15.00    6.70
   5  -4   4   16.90    6.80
  -6   4  -4   35.80    8.40
  -6   4  -4   15.70    6.60
  -6   4  -4   39.10    9.10
   6  -4   4   25.80    8.30
   6  -4   4   42.00    9.70
   8   3  -4   38.50    9.50
   8   3  -4   31.30    8.30
  -8  -3   4   18.70    6.20
  -8  -3   4   15.70    6.40
  -8  -3   4   21.50    7.80
   7   3  -4   48.60    9.80
   7   3  -4   41.40    8.70
  -7  -3   4   61.99   10.30
  -7  -3   4   44.20    8.10
  -7  -3   4   46.20    8.30
   6   3  -4  198.88   15.00
   6   3  -4  159.18   13.00
  -6  -3   4  179.28   13.20
  -6  -3   4  174.48   13.30
  -6  -3   4  179.18   11.90
   5   3  -4   36.70    7.40
   5   3  -4   26.60    7.00
  -5  -3   4   29.10    6.90
  -5  -3   4   26.00    6.60
  -5  -3   4   26.20    6.60
   4   3  -4  457.45   18.50
   4   3  -4  457.25   19.90
  -4  -3   4  441.46   19.30
  -4  -3   4  410.16   18.40
  -4  -3   4  476.35   17.80
   3   3  -4  225.48   11.20
   3   3  -4  226.28   13.20
   3   3  -4  231.48   13.60
  -3  -3   4  222.08   12.80
  -3  -3   4  239.98   13.30
  -3  -3   4  254.97   12.20
   2   3  -4  209.68   12.20
   2   3  -4  209.08   10.80
   2   3  -4  237.78   13.30
  -2  -3   4  227.68   13.00
  -2  -3   4  224.68   12.30
  -2  -3   4  227.48   11.20
   1   3  -4  488.85   19.10
   1   3  -4  478.25   18.10
   1   3  -4  468.95   16.70
  -1  -3   4  468.25   16.30
  -1  -3   4  453.25   18.10
  -1  -3   4  456.95   17.70
   0   3  -4    1.80    1.70
   0   3  -4   -1.40    2.10
   0   3  -4    1.40    3.00
   0   3  -4   -2.20    2.80
   0  -3   4    3.20    3.30
   0  -3   4    2.60    2.60
   0  -3   4    0.40    3.30
  -1   3  -4   60.49    6.50
  -1   3  -4   80.99   10.40
  -1   3  -4   60.59    8.70
   1  -3   4   63.29    7.30
   1  -3   4   61.29    6.90
   1  -3   4   58.99    6.20
  -2   3  -4  225.48   12.40
  -2   3  -4  203.98   12.10
  -2   3  -4  199.08   12.50
   2  -3   4  215.78   12.80
   2  -3   4  212.38   12.20
  -3   3  -4   37.30    6.90
  -3   3  -4   39.00    8.10
  -3   3  -4   38.50    8.10
   3  -3   4   44.00    8.10
   3  -3   4   44.70    8.90
  -4   3  -4  293.17   15.80
  -4   3  -4  303.67   16.50
  -4   3  -4  292.57   15.60
   4  -3   4  305.37   15.60
  -5   3  -4   61.59   11.50
  -5   3  -4   60.69   10.20
  -5   3  -4   73.99   10.40
   5  -3   4   66.19   10.20
  -6   3  -4   34.90    8.00
  -6   3  -4   24.60    6.90
  -6   3  -4   29.00    8.00
   6  -3   4   23.80    7.20
   6  -3   4   38.40    8.80
  -7   3  -4  118.19   12.40
  -7   3  -4  164.28   14.20
  -7   3  -4  161.88   14.00
   7  -3   4  140.89   13.40
   7  -3   4  135.49   14.30
   8   2  -4    2.30    3.60
   8   2  -4   10.60    7.30
   8   2  -4    9.40    6.70
  -8  -2   4   -2.20    4.40
  -8  -2   4   -8.90    5.20
  -8  -2   4    5.70    5.70
   7   2  -4  146.39   14.40
  -7  -2   4  106.09   11.00
  -7  -2   4  123.69   11.40
  -7  -2   4  136.19   13.80
   6   2  -4  361.16   18.70
  -6  -2   4  375.46   17.70
  -6  -2   4  374.26   18.50
  -6  -2   4  384.16   18.80
   5   2  -4   17.70    5.50
   5   2  -4   29.00    7.20
  -5  -2   4   25.60    6.10
  -5  -2   4   26.50    6.10
  -5  -2   4   17.30    5.90
   4   2  -4   71.89    8.20
   4   2  -4   70.19    7.60
  -4  -2   4   78.49    8.00
  -4  -2   4   76.19    7.60
  -4  -2   4   71.89    8.00
   3   2  -4  323.87   13.30
   3   2  -4  319.07   14.60
   3   2  -4  315.67   14.90
  -3  -2   4  309.47   14.50
  -3  -2   4  296.87   14.10
  -3  -2   4  311.27   13.70
   2   2  -4    3.40    3.50
   2   2  -4    4.70    3.00
   2   2  -4    7.00    2.90
  -2  -2   4    7.00    3.30
  -2  -2   4    4.50    3.30
  -2  -2   4    7.90    3.70
   1   2  -4  785.42   18.90
   1   2  -4  813.82   24.30
   1   2  -4  778.52   22.20
   1   2  -4  790.02   23.20
  -1  -2   4  794.82   23.10
  -1  -2   4  773.12   23.60
  -1  -2   4  803.22   22.40
   0   2  -4   28.10    5.40
   0   2  -4   38.10    6.60
   0   2  -4   31.10    5.60
   0   2  -4   28.30    3.50
   0  -2   4   32.50    6.20
   0  -2   4   24.50    5.20
   0  -2   4   25.40    5.10
  -1   2  -4  523.35   18.90
  -1   2  -4  511.65   18.20
  -1   2  -4  534.05   18.10
   1  -2   4  522.85   19.00
   1  -2   4  530.15   18.20
   1  -2   4  528.85   17.20
  -2   2  -4  187.48   11.40
  -2   2  -4  169.68   10.30
  -2   2  -4  157.18   10.10
   2  -2   4  180.18   10.50
   2  -2   4  175.28   11.10
  -3   2  -4  265.67   13.40
  -3   2  -4  258.67   14.10
  -3   2  -4  259.97   13.30
   3  -2   4  262.87   13.10
   3  -2   4  260.07   14.00
  -4   2  -4  572.84   24.60
  -4   2  -4  588.04   30.70
  -4   2  -4  565.94   21.10
   4  -2   4  507.35   20.00
  -5   2  -4   79.39    8.50
  -5   2  -4   86.39   11.50
  -5   2  -4   93.19   12.50
   5  -2   4   70.89    8.50
  -6   2  -4  148.19   11.80
  -6   2  -4  155.38   12.70
   6  -2   4  146.59   15.30
  -7   2  -4   71.79   13.20
  -7   2  -4  114.69   16.70
  -7   2  -4   92.39   12.60
   7  -2   4  145.09   24.70
   7  -2   4   86.49   13.50
   8   1  -4   45.60    9.20
   8   1  -4   62.89    8.50
   8   1  -4   54.39   11.80
  -8  -1   4   47.90    9.70
  -8  -1   4   59.09    9.40
  -8  -1   4   62.09   11.00
   7   1  -4   21.10    5.60
   7   1  -4   21.90    7.10
   7   1  -4   20.20    6.50
  -7  -1   4   16.10    5.80
  -7  -1   4   15.00    6.40
  -7  -1   4   19.70    6.60
   6   1  -4   22.40    6.10
   6   1  -4   24.40    5.00
  -6  -1   4   21.00    5.90
  -6  -1   4   18.40    5.80
  -6  -1   4   25.10    6.20
   5   1  -4   37.40    8.30
   5   1  -4   46.70    8.40
   5   1  -4   42.20    9.50
  -5  -1   4   39.90    8.00
  -5  -1   4   27.40    6.70
  -5  -1   4   39.90    7.20
   4   1  -4   90.49    7.90
   4   1  -4   96.89    6.90
   4   1  -4   96.39    8.60
  -4  -1   4  103.69    8.50
  -4  -1   4  100.39    8.60
  -4  -1   4  116.49    8.90
   3   1  -4  148.49    7.90
   3   1  -4  143.49    9.80
  -3  -1   4  150.68    9.40
  -3  -1   4  144.39    9.50
  -3  -1   4  146.69    9.40
   2   1  -4  746.03   22.00
   2   1  -4  725.03   18.50
   2   1  -4  717.83   21.40
  -2  -1   4  744.23   21.40
  -2  -1   4  715.33   21.20
  -2  -1   4  706.03   21.70
   1   1  -4  224.88   10.50
   1   1  -4  202.78   10.30
   1   1  -4  232.38   11.30
   1   1  -4  226.78    8.50
  -1  -1   4  224.28   11.00
  -1  -1   4  234.58   10.90
  -1  -1   4  213.48   10.50
   0   1  -4  785.82   22.10
   0   1  -4  839.12   23.10
   0   1  -4  807.82   22.10
   0   1  -4  826.72   18.30
   0  -1   4  801.62   21.90
   0  -1   4  832.32   22.30
   0  -1   4  796.82   22.80
  -1   1  -4  190.28    9.90
  -1   1  -4  193.38   10.00
  -1   1  -4  191.78    6.70
  -1   1  -4  179.08   10.10
   1  -1   4  186.78   10.30
   1  -1   4  199.98    9.90
   1  -1   4  192.28    9.60
  -2   1  -4   49.99    5.80
  -2   1  -4   53.79    7.20
  -2   1  -4   52.89    6.10
   2  -1   4   58.89    5.70
   2  -1   4   64.79    8.30
   2  -1   4   50.59    5.80
  -3   1  -4 1731.33   40.20
  -3   1  -4 1698.33   39.90
  -3   1  -4 1707.93   40.90
   3  -1   4 1754.42   40.00
   3  -1   4 1739.73   41.40
  -4   1  -4  283.47   14.30
  -4   1  -4  302.67   14.30
  -4   1  -4  290.37   13.80
   4  -1   4  277.27   14.60
   4  -1   4  273.07   13.70
  -5   1  -4   63.19    7.20
  -5   1  -4   67.49   11.00
  -5   1  -4   70.09    7.70
   5  -1   4   91.29   15.20
   5  -1   4   75.89   10.30
  -6   1  -4   82.79   12.00
  -6   1  -4   77.99   12.70
   6  -1   4   90.69   11.90
   6  -1   4   91.19   12.80
  -7   1  -4  410.26   20.10
  -7   1  -4  394.16   20.30
  -7   1  -4  437.46   21.70
   7  -1   4  395.86   20.10
   7  -1   4  418.56   21.50
  -8   1  -4  120.89   11.60
  -8   1  -4  139.69   13.00
   8  -1   4  137.99   13.50
   8  -1   4  102.29   12.00
   8   0  -4  108.39   12.10
   8   0  -4  105.59   11.80
   8   0  -4  107.29    9.10
  -8   0   4  110.19   11.20
  -8   0   4   66.39   10.50
  -8   0   4  106.29   11.30
   7   0  -4  131.89    9.20
   7   0  -4  138.79   12.50
  -7   0   4  150.38   12.40
  -7   0   4  142.39   11.60
  -7   0   4  129.09   11.50
   6   0  -4   16.90    5.50
   6   0  -4   25.10    5.10
  -6   0   4   18.10    6.00
  -6   0   4   18.40    5.90
  -6   0   4   16.90    5.50
   5   0  -4  990.50   29.10
   5   0  -4  982.20   25.90
  -5   0   4 1006.60   34.00
  -5   0   4  993.10   28.40
  -5   0   4  959.90   36.30
   4   0  -4  296.47   13.50
   4   0  -4  271.87   11.30
   4   0  -4  275.77   12.70
  -4   0   4  286.27   13.20
  -4   0   4  289.67   14.00
  -4   0   4  307.67   13.60
   3   0  -4  259.17   11.60
   3   0  -4  296.87   12.60
   3   0  -4  270.77   10.50
  -3   0   4  263.17   12.70
  -3   0   4  253.87   12.00
  -3   0   4  279.17   12.10
   2   0  -4  878.61   23.80
   2   0  -4  913.31   23.60
   2   0  -4  925.51   21.60
   2   0  -4  935.11   24.10
  -2   0   4  935.31   24.70
  -2   0   4  894.51   23.80
  -2   0   4  909.21   23.40
   1   0  -4  119.39    6.10
   1   0  -4  113.69    7.30
   1   0  -4  130.89    8.00
   1   0  -4  113.09    8.70
  -1   0   4  130.59    8.20
  -1   0   4  121.19    7.30
   0   0  -4    2.70    1.60
   0   0  -4    3.50    3.10
   0   0  -4   -0.60    1.80
   0   0  -4    5.00    2.70
   0   0   4    6.80    3.30
   0   0   4    2.30    2.60
   0   0   4    1.80    2.40
   0   0   4    2.90    1.80
  -1   0  -4  125.59    7.70
  -1   0  -4  126.89    8.00
  -1   0  -4  118.19    7.60
  -1   0  -4  120.79    5.50
   1   0   4  121.19    5.40
   1   0   4  125.39    7.60
   1   0   4  116.89    7.80
   1   0   4  120.39    7.40
  -2   0  -4   54.19    5.70
  -2   0  -4   53.99    7.10
  -2   0  -4   60.89    7.70
   2   0   4   64.79    8.00
   2   0   4   44.40    5.20
   2   0   4   45.00    5.30
  -3   0  -4  238.48   11.80
  -3   0  -4  233.28   11.20
  -3   0  -4  218.58   11.10
   3   0   4  247.58   12.20
   3   0   4  243.58   11.40
  -4   0  -4  737.73   23.30
  -4   0  -4  729.83   22.30
  -4   0  -4  707.53   22.50
   4   0   4  754.02   22.70
   4   0   4  689.93   23.10
  -5   0  -4   11.00    4.60
  -5   0  -4   15.90    4.70
  -5   0  -4   16.90    4.90
   5   0   4   13.50    4.80
   5   0   4   19.50    6.00
  -6   0  -4 1478.05   40.10
  -6   0  -4 1596.04   42.10
   6   0   4 1536.15   41.70
   6   0   4 1516.15   40.40
  -7   0  -4    5.10    4.20
  -7   0  -4    9.70    5.40
   7   0   4    7.00    4.40
   7   0   4    5.10    5.00
  -8   0  -4    5.90    4.30
  -8   0  -4    1.00    4.00
  -8   0  -4   25.30    6.90
   8   0   4   10.20    5.30
   8   0   4    9.10    5.70
  -9   0  -4  174.68   15.70
  -9   0  -4  149.99   13.40
   9   0   4  173.78   14.80
   9   0   4  172.98   15.70
   8  -1  -4    9.10    7.70
   8  -1  -4    0.20    3.40
   8  -1  -4   -5.40    5.30
  -8   1   4    5.50    4.40
  -8   1   4    9.80    5.20
  -8   1   4   11.00    5.50
   7  -1  -4   27.00    5.70
   7  -1  -4   20.00    7.10
   7  -1  -4   23.30    6.70
  -7   1   4   27.10    6.20
  -7   1   4   16.80    5.80
  -7   1   4   22.40    5.90
   6  -1  -4  155.78   11.30
   6  -1  -4  158.08    9.60
  -6   1   4  168.28   11.10
  -6   1   4  146.99   10.70
  -6   1   4  176.18   12.80
   5  -1  -4    3.00    3.30
   5  -1  -4   -2.70    2.10
  -5   1   4    3.40    3.10
  -5   1   4    0.20    3.40
  -5   1   4    4.10    3.90
   4  -1  -4   26.20    4.40
   4  -1  -4   27.60    6.20
   4  -1  -4   31.90    5.90
  -4   1   4   21.40    4.90
  -4   1   4   18.30    4.90
  -4   1   4   26.70    5.20
   3  -1  -4   -0.20    2.20
   3  -1  -4    3.70    2.40
   3  -1  -4   -2.00    1.70
  -3   1   4    0.30    2.60
  -3   1   4    3.40    2.50
  -3   1   4   -0.20    2.80
   2  -1  -4   65.19    5.30
   2  -1  -4   63.29    5.60
   2  -1  -4   59.49    4.80
  -2   1   4   67.09    6.60
  -2   1   4   58.19    5.30
  -2   1   4   68.89    5.70
   1  -1  -4   17.80    3.30
   1  -1  -4   17.80    4.10
   1  -1  -4   15.10    3.50
   1  -1  -4   19.00    4.00
  -1   1   4   20.00    4.50
  -1   1   4   16.70    3.60
  -1   1   4   14.50    3.10
  -1   1   4   16.60    3.80
   0  -1  -4   50.89    4.70
   0  -1  -4   40.40    4.80
   0  -1  -4   45.90    4.00
   0  -1  -4   55.89    5.50
   0   1   4   49.60    5.40
   0   1   4   51.69    4.80
   0   1   4   47.80    4.90
   0   1   4   53.29    4.20
  -1  -1  -4 3002.10   57.29
  -1  -1  -4 3077.09   53.79
  -1  -1  -4 3025.40   56.39
  -1  -1  -4 2979.00   55.59
   1   1   4 3053.19   57.19
   1   1   4 2975.20   56.39
   1   1   4 3009.80   55.49
   1   1   4 3031.90   53.39
  -2  -1  -4    2.30    2.50
  -2  -1  -4   -0.90    1.80
  -2  -1  -4   -1.00    2.40
   2   1   4    0.70    2.20
   2   1   4    1.60    2.40
   2   1   4    4.50    3.20
   2   1   4    0.50    1.50
  -3  -1  -4 1127.79   28.40
  -3  -1  -4 1148.39   28.10
  -3  -1  -4 1160.38   28.10
   3   1   4 1151.48   27.50
   3   1   4 1186.08   28.00
   3   1   4 1147.79   23.50
   3   1   4 1170.18   28.90
  -4  -1  -4  885.31   24.30
  -4  -1  -4  851.31   24.40
  -4  -1  -4  900.21   25.40
   4   1   4  884.91   24.70
   4   1   4  853.51   25.30
  -5  -1  -4   10.20    4.90
  -5  -1  -4   11.90    4.10
  -5  -1  -4    8.40    3.70
   5   1   4   18.00    6.10
   5   1   4    7.40    4.10
  -6  -1  -4   85.59    7.50
  -6  -1  -4   95.09    9.50
  -6  -1  -4   79.19    8.10
   6   1   4   88.89    8.80
   6   1   4   80.39    8.90
  -7  -1  -4  197.18   12.50
  -7  -1  -4  171.68   12.40
  -7  -1  -4  179.68   13.10
   7   1   4  173.18   12.50
   7   1   4  173.08   13.20
  -8  -1  -4    5.10    4.40
  -8  -1  -4    1.90    4.60
  -8  -1  -4    2.20    3.00
   8   1   4    5.80    4.80
   8   1   4    3.50    4.40
  -9  -1  -4  127.79   21.90
  -9  -1  -4  110.09   12.20
   9   1   4   95.49   10.90
   9   1   4  113.19   17.80
   7  -2  -4   14.30    4.40
   7  -2  -4    2.40    5.40
   7  -2  -4    4.00    4.90
  -7   2   4   10.60    4.40
  -7   2   4   10.40    5.60
  -7   2   4   13.50    9.50
   6  -2  -4  107.09    8.00
   6  -2  -4  108.89    9.10
  -6   2   4  119.09   11.10
  -6   2   4  125.79    9.50
   5  -2  -4   21.30    6.10
   5  -2  -4   20.60    4.60
  -5   2   4   29.50    6.00
  -5   2   4   26.60    6.40
   4  -2  -4   16.10    4.10
   4  -2  -4   16.00    3.70
   4  -2  -4   24.90    4.80
  -4   2   4   16.50    4.30
  -4   2   4   13.50    4.20
  -4   2   4   17.70    5.60
   3  -2  -4  360.66   12.30
   3  -2  -4  368.16   12.60
   3  -2  -4  360.06   12.30
  -3   2   4  361.56   15.20
  -3   2   4  329.17   11.90
  -3   2   4  378.66   12.60
   2  -2  -4   26.70    4.10
   2  -2  -4   23.60    3.60
   2  -2  -4   27.40    4.10
  -2   2   4   25.70    3.90
  -2   2   4   31.30    4.20
  -2   2   4   21.00    3.50
  -2   2   4   27.80    5.50
   1  -2  -4  592.34   15.60
   1  -2  -4  568.64   17.00
   1  -2  -4  570.94   14.60
  -1   2   4  578.64   14.50
  -1   2   4  569.84   15.30
  -1   2   4  596.04   17.90
  -1   2   4  580.44   14.30
   0  -2  -4  598.44   14.80
   0  -2  -4  597.94   17.00
   0  -2  -4  600.44   14.50
   0  -2  -4  606.64   15.60
   0   2   4  597.14   15.30
   0   2   4  594.94   17.30
   0   2   4  610.54   14.50
   0   2   4  589.34   14.90
  -1  -2  -4 1034.30   22.80
  -1  -2  -4  996.30   24.40
  -1  -2  -4 1039.80   22.40
   1   2   4 1055.29   22.40
   1   2   4 1062.69   22.60
   1   2   4 1065.49   23.00
   1   2   4 1051.79   24.80
  -2  -2  -4  375.76   13.00
  -2  -2  -4  393.56   12.30
  -2  -2  -4  392.36   12.80
   2   2   4  403.26   12.90
   2   2   4  393.06   11.60
   2   2   4  405.96   12.40
   2   2   4  394.86   13.00
  -3  -2  -4  102.99    7.20
  -3  -2  -4   91.69    6.60
  -3  -2  -4  103.79    6.90
   3   2   4  106.99    7.50
   3   2   4  101.39    6.60
   3   2   4  105.59    7.00
  -4  -2  -4  422.16   14.90
  -4  -2  -4  450.55   16.10
  -4  -2  -4  426.66   15.40
   4   2   4  406.96   15.80
   4   2   4  416.26   15.30
  -5  -2  -4  153.98    9.40
  -5  -2  -4  159.78   10.60
  -5  -2  -4  167.98   10.20
   5   2   4  169.28   10.90
   5   2   4  170.78   10.30
  -6  -2  -4   41.70    6.50
  -6  -2  -4   45.60    8.20
  -6  -2  -4   57.09    8.50
   6   2   4   42.80    7.60
   6   2   4   55.49    8.30
  -7  -2  -4  581.14   21.60
  -7  -2  -4  650.33   26.50
  -7  -2  -4  580.64   22.70
   7   2   4  569.34   22.90
   7   2   4  614.34   24.30
  -8  -2  -4   66.69   10.30
  -8  -2  -4   27.10    7.80
   8   2   4   45.70    8.90
   8   2   4   88.09   13.80
  -9  -2  -4   78.39   12.20
  -9  -2  -4   34.20    7.50
  -9  -2  -4   55.49    9.50
   9   2   4   50.89   10.30
   9   2   4   54.99    9.90
   7  -3  -4  130.39   11.90
   7  -3  -4  113.59    9.30
   7  -3  -4  113.59   10.50
  -7   3   4  113.89   10.50
  -7   3   4  134.39   11.10
   6  -3  -4   64.69    7.60
   6  -3  -4   78.59    7.30
  -6   3   4   64.69    9.80
  -6   3   4   71.89    7.70
   5  -3  -4   75.19    7.10
   5  -3  -4   79.79    6.80
   5  -3  -4   80.19    6.90
  -5   3   4   73.49   10.00
  -5   3   4   78.39    7.20
  -5   3   4   76.59    7.00
   4  -3  -4  332.57   12.30
   4  -3  -4  324.87   12.70
   4  -3  -4  333.17   12.60
  -4   3   4  337.87   12.40
  -4   3   4  342.47   12.60
  -4   3   4  356.26   16.20
   3  -3  -4  193.48    8.10
   3  -3  -4  200.28    9.30
   3  -3  -4  198.38   10.50
  -3   3   4  208.88   11.80
  -3   3   4  193.88    8.30
  -3   3   4  189.88    8.00
   2  -3  -4   20.20    3.70
  -2   3   4   17.80    3.20
  -2   3   4   29.20    6.00
   1  -3  -4  169.48    7.90
  -1   3   4  182.18    7.80
  -1   3   4  156.48    8.80
   0  -3  -4   28.20    4.30
   0  -3  -4   25.90    4.00
   0   3   4   27.90    4.40
   0   3   4   33.90    4.20
  -1  -3  -4  307.67    8.50
  -1  -3  -4  278.37   10.40
   1   3   4  302.17    8.50
   1   3   4  299.87   10.90
   1   3   4  302.67    9.00
   1   3   4  292.37   10.10
  -2  -3  -4 2369.56   44.10
  -2  -3  -4 2474.95   44.80
  -2  -3  -4 2297.97   45.50
   2   3   4 2435.56   44.40
   2   3   4 2398.46   44.90
   2   3   4 2427.56   45.80
   2   3   4 2356.86   45.20
  -3  -3  -4  567.74   16.20
  -3  -3  -4  586.84   16.60
  -3  -3  -4  588.14   16.90
   3   3   4  592.94   16.60
   3   3   4  591.44   16.00
   3   3   4  593.94   17.10
  -4  -3  -4  191.38   10.10
  -4  -3  -4  173.18    9.20
  -4  -3  -4  182.08    8.90
   4   3   4  186.38    9.50
   4   3   4  187.38   10.10
  -5  -3  -4  829.52   22.50
  -5  -3  -4  780.62   23.30
  -5  -3  -4  828.12   24.30
   5   3   4  796.62   24.30
   5   3   4  806.72   23.70
  -6  -3  -4   68.69    7.20
  -6  -3  -4   90.49   11.10
  -6  -3  -4   58.19    6.20
   6   3   4   86.69   11.30
   6   3   4   77.89   10.30
  -7  -3  -4   49.40    8.50
  -7  -3  -4   64.89   10.00
  -7  -3  -4   58.79    8.20
   7   3   4   70.89   11.00
   7   3   4   57.59   10.20
  -8  -3  -4   48.10    7.90
  -8  -3  -4   45.30    8.50
  -8  -3  -4   39.80    8.80
   8   3   4   44.20    9.30
   8   3   4   36.40    7.80
  -9  -3  -4   48.60    9.20
  -9  -3  -4   62.49   10.90
  -9  -3  -4   58.29    9.50
   9   3   4   81.19   13.10
   9   3   4   47.50    8.90
 -10  -3  -4   61.89   14.10
 -10  -3  -4   30.20    7.50
  10   3   4   43.40   11.10
   6  -4  -4   22.80    5.10
   6  -4  -4   42.20    6.80
   6  -4  -4   35.20    6.00
  -6   4   4   23.00    6.70
  -6   4   4   47.50    7.20
   5  -4  -4    9.00    4.20
  -5   4   4   12.10    5.00
  -5   4   4   28.40    5.80
   4  -4  -4  201.18   10.20
  -4   4   4  204.38    9.30
  -4   4   4  242.98   13.90
   3  -4  -4  474.15   15.70
  -3   4   4  506.05   18.90
   2  -4  -4   57.29    5.40
  -2   4   4   53.69    6.30
  -2   4   4   59.29    4.90
  -1   4   4  135.89    8.20
  -1   4   4  124.69    6.70
   0   4   4 1410.86   31.20
   0   4   4 1407.76   30.00
  -1  -4  -4  229.18    8.80
   1   4   4  239.58    9.40
   1   4   4  229.48    9.30
  -2  -4  -4  526.65   13.00
  -2  -4  -4  516.45   14.30
  -2  -4  -4  519.05   13.70
   2   4   4  533.75   13.70
   2   4   4  539.85   13.20
   2   4   4  532.45   14.60
  -3  -4  -4   50.29    5.00
  -3  -4  -4   49.80    4.50
  -3  -4  -4   42.00    4.30
   3   4   4   54.29    4.20
   3   4   4   51.79    4.80
   3   4   4   43.80    4.90
  -4  -4  -4  403.36   15.90
  -4  -4  -4  371.06   13.30
  -4  -4  -4  381.16   12.60
   4   4   4  381.16   13.70
  -5  -4  -4    1.60    2.50
  -5  -4  -4    3.50    3.80
  -5  -4  -4   -0.40    2.10
   5   4   4    0.20    2.50
   5   4   4   -0.60    2.40
  -6  -4  -4    0.70    2.30
  -6  -4  -4    4.80    2.80
  -6  -4  -4    1.60    4.10
   6   4   4    2.90    3.10
   6   4   4    1.40    3.10
  -7  -4  -4   55.49    7.80
  -7  -4  -4   53.19    8.90
  -7  -4  -4   60.19    9.90
   7   4   4   63.69    9.40
   7   4   4   69.89   10.90
  -8  -4  -4    0.80    4.30
  -8  -4  -4    1.20    3.30
  -8  -4  -4   -0.50    2.90
   8   4   4    3.40    4.20
   8   4   4    2.50    3.40
  -9  -4  -4   36.60    7.50
  -9  -4  -4   25.60    7.90
   9   4   4   36.50    8.90
   9   4   4   35.20    8.10
 -10  -4  -4  428.06   20.40
 -10  -4  -4  472.25   23.70
  10   4   4  409.66   25.90
  -5   5   4   31.30    7.70
  -4   5   4  135.49   11.20
  -3   5   4   55.59    5.30
  -3   5   4   69.99    8.20
  -2   5   4  168.18   10.60
  -2   5   4  181.58    8.60
  -1   5   4  355.16   12.30
  -1   5   4  363.66   14.00
   0   5   4   38.90    4.60
   0   5   4   37.60    4.90
   1   5   4  221.78    9.10
   1   5   4  219.78    9.50
   2   5   4  279.27   11.00
  -3  -5  -4  246.48    9.20
  -3  -5  -4  231.88    8.20
  -3  -5  -4  231.58    8.70
   3   5   4  231.78    9.10
   3   5   4  226.68    9.30
   3   5   4  241.38    8.00
  -4  -5  -4    4.40    2.90
  -4  -5  -4   -0.20    2.10
   4   5   4    2.00    2.80
   4   5   4   -2.10    1.80
  -5  -5  -4  594.74   16.40
  -5  -5  -4  613.24   19.60
  -5  -5  -4  605.64   19.20
   5   5   4  596.44   19.40
   5   5   4  604.44   19.90
  -6  -5  -4   49.00    5.40
  -6  -5  -4   69.19    9.30
  -6  -5  -4   55.69    6.20
   6   5   4   64.89    9.20
   6   5   4   59.19    8.60
  -7  -5  -4  190.48   12.80
  -7  -5  -4  182.78    9.90
   7   5   4  186.28   12.80
   7   5   4  202.38   13.00
  -8  -5  -4  131.89    9.00
  -8  -5  -4  128.49   11.00
   8   5   4  138.99   11.60
   8   5   4  167.08   22.90
  -9  -5  -4  291.47   18.40
  -9  -5  -4  344.97   15.70
  -9  -5  -4  307.67   17.90
   9   5   4  305.27   18.80
   9   5   4  299.77   18.30
 -10  -5  -4   39.50    8.40
 -10  -5  -4   19.10    7.30
 -10  -5  -4   33.40    9.10
  10   5   4   35.70    9.60
  10   5   4   35.30    8.80
  -4   6   4  130.19   11.20
  -3   6   4   65.69    9.00
  -3   6   4   62.99    5.70
  -2   6   4  115.69    9.10
  -2   6   4  100.89    6.90
  -1   6   4   25.20    5.00
  -1   6   4   32.70    4.60
   0   6   4   27.70    5.10
   0   6   4   24.20    4.20
   1   6   4   24.00    4.00
   1   6   4   21.50    3.90
   2   6   4  104.69    6.70
  -3  -6  -4   67.99    4.90
   3   6   4   61.19    5.00
   3   6   4   70.09    5.20
  -4  -6  -4  958.80   23.50
  -4  -6  -4  892.91   22.80
   4   6   4  934.11   24.00
   4   6   4  920.01   23.50
  -5  -6  -4    1.10    2.50
  -5  -6  -4   -0.40    2.90
   5   6   4   -0.10    2.70
   5   6   4    1.50    3.50
  -6  -6  -4  764.72   19.20
  -6  -6  -4  788.92   25.70
  -6  -6  -4  762.72   24.30
   6   6   4  745.53   24.40
   6   6   4  746.23   24.20
  -7  -6  -4   85.79    6.50
  -7  -6  -4  100.49    9.50
   7   6   4   78.89    8.70
   7   6   4  104.39   13.00
  -8  -6  -4   55.99    9.90
  -8  -6  -4   41.00    6.20
   8   6   4   36.00    7.80
   8   6   4   44.60    9.40
  -9  -6  -4   16.10    7.00
  -9  -6  -4   20.00    6.80
   9   6   4   28.30    8.50
   9   6   4   12.70    5.00
 -10  -6  -4   49.70   10.00
 -10  -6  -4   40.20    8.70
  10   6   4   27.70    7.80
  10   6   4   28.50    9.30
  -3   7   4   13.40    4.50
  -2   7   4    2.20    2.20
  -2   7   4   -2.80    3.20
  -1   7   4  480.55   15.70
  -1   7   4  481.65   17.50
   0   7   4  100.29    7.00
   0   7   4   93.19    7.40
   1   7   4  197.68    8.80
   1   7   4  185.48    9.50
   3   7   4   37.50    4.50
  -4  -7  -4    5.90    2.80
  -4  -7  -4   10.10    3.20
   4   7   4   10.40    4.10
   4   7   4   11.30    3.70
  -5  -7  -4  240.38   11.40
   5   7   4  247.48   12.30
   5   7   4  261.17   13.20
  -6  -7  -4   48.20    7.40
  -6  -7  -4   57.09    7.90
   6   7   4   80.19   10.40
   6   7   4   75.39   10.10
  -7  -7  -4 1207.48   33.80
   7   7   4 1102.89   33.50
   7   7   4 1123.29   33.90
  -8  -7  -4    8.80    3.50
  -8  -7  -4    5.10    4.60
  -8  -7  -4   16.00    6.40
   8   7   4    8.50    5.70
   8   7   4   11.80    5.60
  -9  -7  -4  118.59    8.60
  -9  -7  -4  123.09   12.50
   9   7   4  111.79   12.10
  -2   8   4   60.69    8.70
  -2   8   4   68.39    8.40
  -1   8   4    5.40    3.30
   0   8   4   40.40    6.40
   1   8   4  353.46   17.70
   1   8   4  340.37   12.10
  -4  -8  -4   78.49    6.10
  -4  -8  -4   89.89    6.50
   4   8   4   81.69    7.20
   4   8   4   77.99    6.60
  -5  -8  -4  225.78   11.40
  -5  -8  -4  240.68   11.30
   5   8   4  224.98   12.50
   5   8   4  236.58   12.10
  -6  -8  -4   70.69    7.70
   6   8   4   83.39    8.60
   6   8   4   88.89    8.80
  -7  -8  -4  370.56   17.10
   7   8   4  336.77   17.20
   7   8   4  344.27   17.20
  -8  -8  -4   56.19    9.60
   8   8   4   66.09   11.00
   8   8   4   49.90    9.80
  -9  -8  -4   13.10    5.80
   9   8   4   22.00    6.80
   9   8   4   13.00    6.40
  -1   9   4    0.20    2.80
   0   9   4  116.69    8.60
   0   9   4  111.99    8.20
   1   9   4   32.60    5.80
   2   9   4  230.18   12.10
   4   9   4  155.08    9.40
  -5  -9  -4   96.29    7.60
   5   9   4   87.99    7.90
   5   9   4   92.39    8.70
  -6  -9  -4    0.70    3.70
  -6  -9  -4   -1.20    3.30
   6   9   4    7.10    4.50
   6   9   4    4.60    3.40
  -7  -9  -4   74.29    8.90
  -7  -9  -4   64.19    9.70
   7   9   4   82.89    9.10
   7   9   4   83.39   11.40
  -8  -9  -4   -1.20    4.80
  -8  -9  -4    5.50    4.70
   8   9   4   11.60    4.60
   8   9   4    6.00    5.10
   1  10   4    3.40    3.40
   2  10   4  184.68   11.40
  -5 -10  -4   34.70    6.00
  -5 -10  -4   46.60    7.10
   5  10   4   36.90    6.60
   5  10   4   46.30    7.10
  -6 -10  -4   73.79   10.00
  -6 -10  -4   69.99    8.20
   6  10   4   89.89   11.30
   6  10   4   74.79    8.50
  -7 -10  -4   20.40    7.00
  -7 -10  -4   28.40    7.90
   7  10   4   36.10    8.60
   7  10   4   28.30    7.50
   3   7  -5    7.40    3.80
   3   7  -5    6.40    6.10
   3   7  -5    7.70    5.30
  -3  -7   5    8.40    4.20
  -3  -7   5   14.50    7.30
  -3  -7   5   11.20    6.60
   2   7  -5   15.90    5.40
   2   7  -5    4.40    6.70
   2   7  -5   19.70    5.20
  -2  -7   5    5.50    8.00
  -2  -7   5    9.00    5.70
   1   7  -5   12.90    5.10
   1   7  -5    7.80    6.00
   1   7  -5    8.70    4.00
  -1  -7   5   10.40    6.00
  -1  -7   5    8.90    6.80
   5   6  -5   40.50    9.40
  -5  -6   5   28.20    8.30
  -5  -6   5   39.90   12.30
  -5  -6   5   33.10    6.50
   4   6  -5   49.50    9.30
   4   6  -5   60.39    8.90
  -4  -6   5   68.09    8.90
  -4  -6   5   64.49   10.00
  -4  -6   5   56.59   10.70
   3   6  -5    4.90    4.50
   3   6  -5    4.60    4.60
  -3  -6   5   12.90    6.10
  -3  -6   5   10.50    5.30
   2   6  -5  186.08   17.60
   2   6  -5   94.79   11.10
   2   6  -5  119.89   11.90
  -2  -6   5  103.79   11.60
  -2  -6   5  121.39   10.50
  -2  -6   5  113.99   12.00
   1   6  -5   55.69   10.40
   1   6  -5   64.19   11.70
   1   6  -5   48.40    8.40
  -1  -6   5   62.39   11.20
  -1  -6   5   35.30    8.80
   0   6  -5   34.50    8.40
   0   6  -5   43.30    8.30
   0   6  -5   71.69   10.10
   0  -6   5   59.89   11.30
   0  -6   5   47.40    9.20
  -1   6  -5  122.99   12.40
  -1   6  -5  128.09   13.50
  -1   6  -5  119.69   11.10
   1  -6   5  130.89   18.00
   1  -6   5  120.59   12.00
  -2   6  -5   84.79   12.90
  -2   6  -5  107.69   11.40
  -2   6  -5  114.29   14.60
   2  -6   5  107.39   14.90
   2  -6   5   92.19   10.80
   6   5  -5   95.59   13.50
   6   5  -5  107.09   12.70
  -6  -5   5  112.09   12.40
  -6  -5   5  105.89   10.60
  -6  -5   5  102.09   11.80
   5   5  -5   66.39   11.40
   5   5  -5  105.29   14.10
  -5  -5   5   78.39    8.60
  -5  -5   5   81.79   12.30
  -5  -5   5   58.99    9.90
   4   5  -5   11.40    6.50
   4   5  -5    5.20    5.50
  -4  -5   5    8.50    6.10
  -4  -5   5   10.90    5.90
   3   5  -5  452.95   17.80
   3   5  -5  385.86   20.90
   3   5  -5  427.76   20.80
  -3  -5   5  417.86   17.10
  -3  -5   5  413.06   20.80
  -3  -5   5  412.76   20.60
   2   5  -5  120.69    9.80
   2   5  -5  102.59   11.00
   2   5  -5  121.39   11.20
  -2  -5   5  100.09   11.10
  -2  -5   5  135.29   11.60
  -2  -5   5  131.39    9.50
   1   5  -5    0.00    3.10
   1   5  -5    3.50    4.80
   1   5  -5    0.80    2.20
   1   5  -5    3.70    4.80
  -1  -5   5    6.40    4.40
  -1  -5   5    1.70    3.30
  -1  -5   5    3.20    3.90
   0   5  -5  148.99   11.20
   0   5  -5  136.99   12.40
   0   5  -5  146.19   11.80
   0  -5   5  136.99   11.70
   0  -5   5  156.58   13.00
  -1   5  -5   90.69   12.80
  -1   5  -5   81.19   11.50
  -1   5  -5   89.19   10.20
   1  -5   5  100.29   14.70
   1  -5   5   99.09   13.50
  -2   5  -5    2.40    4.10
  -2   5  -5   10.60    4.40
  -2   5  -5    4.30    4.20
   2  -5   5    3.10    4.70
   2  -5   5    4.20    4.40
  -3   5  -5    1.90    4.60
  -3   5  -5   18.20    6.30
   3  -5   5   -0.90    4.60
  -4   5  -5   14.30    6.20
  -4   5  -5   19.70    6.90
   4  -5   5    8.70    6.50
   4  -5   5    2.80    5.90
   7   4  -5  193.78   15.90
   7   4  -5  206.08   16.20
  -7  -4   5  193.78   15.40
  -7  -4   5  198.88   16.30
  -7  -4   5  209.48   13.90
   6   4  -5   80.89   13.30
   6   4  -5   68.29   12.30
  -6  -4   5   70.39   11.50
  -6  -4   5   65.19    9.90
  -6  -4   5   81.19   13.10
   5   4  -5  215.98   15.50
   5   4  -5  214.28   14.90
  -5  -4   5  205.98   15.10
  -5  -4   5  211.78   13.40
  -5  -4   5  231.08   15.40
   4   4  -5   14.00    5.70
   4   4  -5    4.80    3.50
  -4  -4   5    2.30    3.80
  -4  -4   5    8.90    4.20
  -4  -4   5    0.40    4.10
   3   4  -5  100.59    8.60
   3   4  -5  103.39   11.20
   3   4  -5  104.69   10.10
  -3  -4   5  101.59   10.10
  -3  -4   5  118.39   11.00
  -3  -4   5   83.99    8.50
   2   4  -5   13.00    6.20
   2   4  -5   13.70    6.70
   2   4  -5   14.80    4.90
  -2  -4   5   19.10    4.90
  -2  -4   5   11.40    5.70
  -2  -4   5   13.10    6.90
   1   4  -5  162.38   10.90
   1   4  -5  167.18    8.40
   1   4  -5  193.28   13.70
   1   4  -5  190.18   12.70
  -1  -4   5  172.88   12.90
  -1  -4   5  169.48   10.70
  -1  -4   5  158.68   12.00
   0   4  -5   27.70    6.80
   0   4  -5   25.80    4.00
   0   4  -5   28.70    6.10
   0   4  -5   20.40    6.30
   0  -4   5   33.50    8.30
   0  -4   5   22.60    5.80
   0  -4   5   32.90    8.00
  -1   4  -5   78.49    8.90
  -1   4  -5   79.29   11.50
   1  -4   5   96.69   13.60
   1  -4   5   79.89    8.90
  -2   4  -5   50.39    8.50
  -2   4  -5   56.59    9.50
  -2   4  -5   57.39   10.50
   2  -4   5   54.09   10.40
  -3   4  -5   53.39   10.60
  -3   4  -5   36.60    8.30
  -3   4  -5   50.79   10.00
   3  -4   5   36.30    9.10
  -4   4  -5   12.20    6.80
  -4   4  -5    5.60    4.50
  -4   4  -5    9.30    5.00
   4  -4   5    9.80    5.20
   4  -4   5   14.40    5.10
  -5   4  -5  111.49   12.30
  -5   4  -5  136.49   23.10
  -5   4  -5  105.29   12.00
   5  -4   5  104.89   11.30
   5  -4   5  123.29   13.20
   7   3  -5   15.60    6.50
  -7  -3   5   11.30    6.00
  -7  -3   5   23.90    8.60
   6   3  -5   14.40    6.30
   6   3  -5   15.20    6.10
  -6  -3   5   16.50    6.10
  -6  -3   5   25.00    6.80
  -6  -3   5   14.90    6.10
   5   3  -5  105.99   11.10
   5   3  -5  105.09   11.00
  -5  -3   5   86.99    9.20
  -5  -3   5   93.69   10.50
  -5  -3   5   86.29    9.90
   4   3  -5  488.45   21.90
   4   3  -5  554.14   21.60
  -4  -3   5  530.95   20.40
  -4  -3   5  473.25   21.40
  -4  -3   5  474.15   20.80
   3   3  -5  161.98   18.80
   3   3  -5  162.38   10.50
   3   3  -5  156.28   12.30
  -3  -3   5  163.28   10.90
  -3  -3   5  163.78   12.10
  -3  -3   5  151.98   13.80
   2   3  -5  113.49    9.00
   2   3  -5  120.69    7.60
   2   3  -5  125.69   10.30
   2   3  -5  113.39   10.40
  -2  -3   5  114.19    8.90
  -2  -3   5  114.89   10.10
  -2  -3   5  111.09    9.90
   1   3  -5  214.98   12.90
   1   3  -5  217.68   13.90
   1   3  -5  214.38    9.30
   1   3  -5  180.48   11.10
  -1  -3   5  192.58   12.30
  -1  -3   5  217.48   11.70
  -1  -3   5  202.68   13.00
   0   3  -5   68.39    9.60
   0   3  -5   55.89    4.70
   0   3  -5   78.59   11.40
   0   3  -5   54.69    9.40
   0  -3   5   59.99    8.70
   0  -3   5   54.39    8.50
   0  -3   5   55.89    7.50
  -1   3  -5  133.59   11.50
  -1   3  -5  140.99   10.60
  -1   3  -5  130.29    9.70
   1  -3   5  138.49    9.70
   1  -3   5  129.09   10.20
   1  -3   5  137.79   11.50
  -2   3  -5    5.00    4.20
  -2   3  -5    7.80    4.40
  -2   3  -5    3.10    3.70
   2  -3   5    3.20    4.10
   2  -3   5    3.30    3.60
  -3   3  -5   32.40    8.00
  -3   3  -5   32.70    7.40
  -3   3  -5   53.79   10.10
   3  -3   5   27.90    6.50
   3  -3   5   36.00    7.80
  -4   3  -5   58.59   13.20
  -4   3  -5   75.49    8.80
  -4   3  -5   93.19   13.40
  -5   3  -5   54.79    9.50
  -5   3  -5   48.70    9.80
  -5   3  -5   57.59   10.60
   5  -3   5   66.59   11.80
   5  -3   5   59.19   10.20
  -6   3  -5    6.10    4.60
  -6   3  -5   -4.90    4.90
  -6   3  -5    1.70    4.90
   6  -3   5   -0.70    5.00
   6  -3   5    6.10    6.20
   7   2  -5   59.19   11.20
   7   2  -5   60.19    8.50
   7   2  -5   71.79   12.60
  -7  -2   5   46.40    8.30
  -7  -2   5   81.19   12.90
  -7  -2   5   61.99   11.40
   6   2  -5   71.09    7.20
   6   2  -5   58.19   10.70
  -6  -2   5   87.59    9.70
  -6  -2   5   70.39   10.40
  -6  -2   5  103.09   17.30
   5   2  -5  400.56   19.70
   5   2  -5  403.66   16.30
  -5  -2   5  430.16   19.60
  -5  -2   5  440.46   19.20
  -5  -2   5  385.46   18.90
   4   2  -5  628.24   19.80
   4   2  -5  636.84   22.50
   4   2  -5  580.04   23.30
  -4  -2   5  617.54   23.30
  -4  -2   5  574.94   22.40
  -4  -2   5  623.64   22.60
   3   2  -5   70.89    6.20
   3   2  -5   72.59    8.10
   3   2  -5   79.49    7.60
   3   2  -5   76.49    8.60
  -3  -2   5   70.19    7.70
  -3  -2   5   82.59    8.40
  -3  -2   5   73.39    8.20
   2   2  -5  685.43   18.80
   2   2  -5  657.33   23.60
   2   2  -5  669.33   21.70
   2   2  -5  661.23   22.70
  -2  -2   5  654.43   23.20
  -2  -2   5  663.03   22.10
  -2  -2   5  646.54   22.30
   1   2  -5   31.20    6.60
   1   2  -5   35.20    6.60
   1   2  -5   30.90    6.40
   1   2  -5   25.10    4.20
  -1  -2   5   28.00    6.70
  -1  -2   5   27.20    6.10
  -1  -2   5   23.90    5.20
   0   2  -5    6.30    3.60
   0   2  -5   15.70    4.90
   0   2  -5    9.40    2.60
   0   2  -5   11.00    4.90
   0  -2   5    8.90    3.80
   0  -2   5   12.70    4.20
   0  -2   5   16.40    5.70
  -1   2  -5  111.09    9.00
  -1   2  -5  115.79    5.80
  -1   2  -5  110.09    8.80
  -1   2  -5  102.49    9.20
   1  -2   5  102.99    9.20
   1  -2   5  112.49    8.50
   1  -2   5  114.89    9.20
  -2   2  -5  149.79   10.50
  -2   2  -5  145.19   10.70
  -2   2  -5  134.39   10.00
   2  -2   5  139.19   10.20
   2  -2   5  128.39    9.20
   2  -2   5  132.79   10.40
  -3   2  -5    6.50    4.20
  -3   2  -5    8.30    4.30
   3  -2   5    8.80    4.30
   3  -2   5    7.20    4.70
  -4   2  -5   92.29    9.30
  -4   2  -5   97.39    9.30
  -4   2  -5   83.09   11.30
   4  -2   5   85.89    9.40
   4  -2   5   92.59    9.20
  -5   2  -5   37.90    7.50
  -5   2  -5   52.69   10.20
  -5   2  -5   36.10    8.40
   5  -2   5   44.00    9.90
   5  -2   5   45.30    8.60
  -6   2  -5  170.98   13.20
  -6   2  -5  145.69   12.70
  -6   2  -5  150.78   12.40
   6  -2   5  151.58   13.70
   6  -2   5  134.09   12.40
  -7   2  -5  194.68   15.20
  -7   2  -5  163.88   14.30
  -7   2  -5  204.48   15.50
   7  -2   5  203.38   16.90
   7  -2   5  195.68   15.60
   7   1  -5  285.77   17.30
   7   1  -5  336.07   18.60
   7   1  -5  300.07   14.80
  -7  -1   5  305.07   17.80
  -7  -1   5  313.27   21.30
  -7  -1   5  310.17   18.10
   6   1  -5  233.68   18.50
   6   1  -5  218.58   14.30
   6   1  -5  226.28   12.20
  -6  -1   5  233.08   15.30
  -6  -1   5  230.58   14.50
  -6  -1   5  233.58   15.50
   5   1  -5   17.50    5.60
   5   1  -5   18.80    4.60
  -5  -1   5   18.30    6.00
  -5  -1   5   15.00    5.70
  -5  -1   5   15.20    5.90
   4   1  -5   43.10    6.20
   4   1  -5   44.40    8.60
   4   1  -5   35.40   10.30
  -4  -1   5   37.00    6.70
  -4  -1   5   31.80    6.50
  -4  -1   5   45.80    9.20
   3   1  -5  134.89   10.10
   3   1  -5  127.49    9.30
   3   1  -5  129.39    8.00
  -3  -1   5  140.69    9.80
  -3  -1   5  136.79   10.00
  -3  -1   5  129.19    9.80
   2   1  -5   13.00    3.20
   2   1  -5   24.60    6.10
   2   1  -5   15.50    4.60
   2   1  -5   20.40    4.90
  -2  -1   5   22.10    5.30
  -2  -1   5   19.40    5.60
  -2  -1   5   15.50    4.80
   1   1  -5 1150.38   26.00
   1   1  -5 1149.78   30.30
   1   1  -5 1192.48   31.60
   1   1  -5 1131.89   30.10
  -1  -1   5 1165.58   31.00
  -1  -1   5 1148.79   30.20
  -1  -1   5 1183.58   30.70
   0   1  -5  471.25   17.40
   0   1  -5  464.35   17.30
   0   1  -5  512.75   18.40
   0   1  -5  502.65   14.00
   0  -1   5  519.75   18.00
   0  -1   5  498.75   18.30
   0  -1   5  478.35   17.30
  -1   1  -5  598.64   20.60
  -1   1  -5  630.64   20.30
  -1   1  -5  614.14   20.50
  -1   1  -5  616.14   15.30
   1  -1   5  595.64   19.80
   1  -1   5  593.84   20.90
   1  -1   5  587.54   19.70
  -2   1  -5  235.28   12.60
  -2   1  -5  262.37   13.30
  -2   1  -5  283.97   14.00
  -2   1  -5  268.07    8.70
   2  -1   5  288.47   13.10
   2  -1   5  262.57   13.70
   2  -1   5  256.07   12.80
  -3   1  -5   41.50    8.00
  -3   1  -5   36.30    6.70
  -3   1  -5   32.90    6.80
   3  -1   5   33.70    7.40
   3  -1   5   55.19    8.70
  -4   1  -5  664.63   24.20
  -4   1  -5  689.23   30.60
  -4   1  -5  651.53   23.10
   4  -1   5  603.64   22.30
   4  -1   5  651.63   24.30
  -5   1  -5   42.90    8.90
  -5   1  -5   35.00    7.80
   5  -1   5   38.80    8.90
   5  -1   5   36.30    7.20
  -6   1  -5  111.19   11.10
  -6   1  -5  105.99   10.70
   6  -1   5  124.59   11.00
   6  -1   5  119.69   11.40
  -7   1  -5  168.78   13.80
  -7   1  -5  150.98   13.60
  -7   1  -5  155.88   12.90
   7  -1   5  177.88   15.00
   7  -1   5  168.68   13.70
  -8   1  -5  126.89   16.10
  -8   1  -5  138.59   18.40
  -8   1  -5  115.89   15.60
   8  -1   5  100.59   14.30
   8  -1   5  118.99   13.80
   7   0  -5    4.90    5.60
   7   0  -5   10.30    6.10
   7   0  -5    4.50    3.50
  -7   0   5   -3.40    3.90
  -7   0   5    8.50    4.90
  -7   0   5    6.20    4.60
   6   0  -5  104.49   10.40
   6   0  -5   69.59    7.50
   6   0  -5   91.59    9.50
  -6   0   5   81.39   11.00
  -6   0   5   71.19   10.40
  -6   0   5   80.19    9.50
   5   0  -5    7.60    3.90
   5   0  -5    4.50    3.00
   5   0  -5    3.10    3.10
  -5   0   5    4.60    3.80
  -5   0   5    8.60    4.80
  -5   0   5   10.00    4.40
   4   0  -5  280.77   14.10
   4   0  -5  279.27   13.70
  -4   0   5  288.47   15.60
  -4   0   5  304.87   17.20
  -4   0   5  296.67   14.40
   3   0  -5    5.40    2.90
   3   0  -5    3.60    2.50
   3   0  -5    4.40    3.00
  -3   0   5    8.80    3.80
  -3   0   5    3.00    3.10
  -3   0   5    1.80    2.70
   2   0  -5  624.14   17.60
   2   0  -5  638.84   20.00
   2   0  -5  635.04   20.40
   2   0  -5  597.94   20.00
  -2   0   5  617.84   20.90
  -2   0   5  627.54   20.20
  -2   0   5  621.54   19.50
   1   0  -5  484.25   14.40
   1   0  -5  465.55   16.90
   1   0  -5  466.55   16.20
   1   0  -5  478.85   17.10
  -1   0   5  470.45   16.20
  -1   0   5  477.95   17.30
  -1   0   5  455.75   16.60
   0   0  -5   10.50    2.60
   0   0  -5   10.50    3.80
   0   0  -5    8.80    3.00
   0   0  -5   15.10    4.00
   0   0   5    9.70    3.80
   0   0   5    5.80    3.00
   0   0   5   11.20    3.80
  -1   0  -5  315.47   13.20
  -1   0  -5  309.67   13.60
  -1   0  -5  328.57   13.80
  -1   0  -5  323.67   10.40
   1   0   5  320.47   13.20
   1   0   5  334.77   13.70
   1   0   5  324.27   10.20
   1   0   5  321.67   13.80
  -2   0  -5  305.27   13.50
  -2   0  -5  291.57    9.50
  -2   0  -5  286.57   12.90
  -2   0  -5  284.77   13.20
   2   0   5  302.17   13.10
   2   0   5  292.07    9.20
   2   0   5  290.07   12.80
   2   0   5  275.27   13.20
  -3   0  -5   41.60    7.20
  -3   0  -5   38.30    6.90
  -3   0  -5   41.50    7.20
   3   0   5   36.70    6.30
   3   0   5   32.30    6.50
   3   0   5   40.60    6.50
  -4   0  -5  326.27   15.10
  -4   0  -5  317.77   14.90
  -4   0  -5  323.07   15.90
   4   0   5  317.07   14.70
   4   0   5  338.57   16.30
  -5   0  -5   16.50    5.40
  -5   0  -5   19.00    5.70
  -5   0  -5   19.70    6.70
   5   0   5   24.90    6.40
   5   0   5   16.40    5.60
  -6   0  -5   15.20    4.90
  -6   0  -5   18.40    5.90
   6   0   5   10.10    5.20
   6   0   5   14.50    5.30
  -7   0  -5  105.69   10.30
  -7   0  -5  107.29   11.50
  -7   0  -5  102.59   10.80
   7   0   5  117.89   12.00
   7   0   5  110.09   10.90
  -8   0  -5   51.19   11.20
  -8   0  -5   30.70    7.10
   8   0   5   61.19   11.40
   8   0   5   59.29   17.00
   7  -1  -5   70.29    9.90
   7  -1  -5   57.79    8.00
   7  -1  -5   82.89   11.60
  -7   1   5   59.09    9.50
  -7   1   5   87.09    9.60
  -7   1   5   66.89   13.70
   6  -1  -5   75.19    7.30
   6  -1  -5   74.59    9.90
   6  -1  -5   77.59    8.70
  -6   1   5   77.79    8.60
  -6   1   5   66.89   10.00
  -6   1   5   88.29    9.10
   5  -1  -5  373.66   15.10
   5  -1  -5  375.56   16.50
   5  -1  -5  398.66   16.50
  -5   1   5  385.76   16.40
  -5   1   5  405.16   18.90
  -5   1   5  385.46   16.70
   4  -1  -5   16.10    4.90
   4  -1  -5    7.70    3.50
   4  -1  -5   11.30    3.70
  -4   1   5    6.20    4.40
  -4   1   5   15.10    4.90
  -4   1   5   10.00    4.20
   3  -1  -5  523.85   26.30
   3  -1  -5  503.05   16.80
   3  -1  -5  493.35   16.10
  -3   1   5  511.75   17.10
  -3   1   5  461.65   18.80
  -3   1   5  498.15   19.20
   2  -1  -5  479.35   16.30
   2  -1  -5  497.55   15.30
   2  -1  -5  466.55   17.00
  -2   1   5  466.05   17.70
  -2   1   5  489.25   15.80
  -2   1   5  490.65   16.20
   1  -1  -5  210.48   10.20
   1  -1  -5  187.48    9.30
   1  -1  -5  191.78    8.60
  -1   1   5  199.38   10.80
  -1   1   5  197.18    8.70
  -1   1   5  195.68    9.70
  -1   1   5  197.88    9.40
   0  -1  -5  318.27   10.90
   0  -1  -5  329.97   13.30
   0  -1  -5  311.87   11.90
   0  -1  -5  312.27   12.40
   0   1   5  313.07   10.70
   0   1   5  314.57   13.40
   0   1   5  332.07   12.10
   0   1   5  293.47   12.10
  -1  -1  -5  450.05   16.20
  -1  -1  -5  473.55   13.50
  -1  -1  -5  476.15   15.80
  -1  -1  -5  434.46   14.80
   1   1   5  454.95   13.00
   1   1   5  474.65   16.30
   1   1   5  452.75   15.80
   1   1   5  473.85   15.10
  -2  -1  -5  248.38   11.20
  -2  -1  -5  272.67   12.20
  -2  -1  -5  258.67   12.00
   2   1   5  266.57   11.50
   2   1   5  242.08    8.80
   2   1   5  266.87   12.20
   2   1   5  250.67   11.60
  -3  -1  -5  130.19    8.60
  -3  -1  -5  130.99    8.80
  -3  -1  -5  134.49    9.20
   3   1   5  128.89    6.10
   3   1   5  127.59    8.40
   3   1   5  118.59    8.70
   3   1   5  120.79    8.20
  -4  -1  -5   82.99    8.20
  -4  -1  -5   88.39    7.70
  -4  -1  -5   87.29    7.50
   4   1   5   84.49    7.60
   4   1   5   73.79    4.80
   4   1   5   77.39    8.00
  -5  -1  -5  183.98   11.60
  -5  -1  -5  205.88   12.80
  -5  -1  -5  183.38   11.20
   5   1   5  191.08   12.20
   5   1   5  174.68   11.40
  -6  -1  -5   73.99    7.60
  -7  -1  -5    7.20    5.50
  -7  -1  -5    8.30    4.50
   7   1   5    2.00    3.70
   7   1   5    2.50    3.70
  -8  -1  -5  395.96   20.50
  -8  -1  -5  399.26   19.90
   8   1   5  403.46   21.00
   8   1   5  399.96   21.50
  -9  -1  -5   92.69   14.30
  -9  -1  -5   84.19   13.10
   9   1   5   62.39   10.80
   9   1   5   98.19   14.80
   7  -2  -5   65.69   11.50
   7  -2  -5   58.29    9.80
   7  -2  -5   56.09    7.10
  -7   2   5   42.10    8.30
  -7   2   5   61.39   11.10
  -7   2   5   97.49   10.10
   6  -2  -5  160.28   10.00
   6  -2  -5  135.09   10.60
   6  -2  -5  138.99   10.60
  -6   2   5  152.18   10.80
  -6   2   5  152.68   10.60
  -6   2   5  151.18   12.60
   5  -2  -5  107.99    8.90
   5  -2  -5  123.89    8.60
  -5   2   5  111.39    9.00
  -5   2   5  115.99   10.90
  -5   2   5  115.69    8.80
   4  -2  -5    1.40    3.00
   4  -2  -5    3.20    3.60
   4  -2  -5    1.90    3.60
  -4   2   5   -0.20    3.60
  -4   2   5    2.70    2.70
  -4   2   5    5.30    3.50
   3  -2  -5    2.90    2.10
   3  -2  -5    4.10    3.40
   3  -2  -5    3.90    2.60
  -3   2   5    3.00    2.60
  -3   2   5    4.00    3.10
  -3   2   5   10.00    5.30
   2  -2  -5  483.75   14.50
   2  -2  -5  476.65   15.30
   2  -2  -5  461.25   14.80
  -2   2   5  491.75   15.20
  -2   2   5  479.65   18.00
  -2   2   5  502.05   14.90
   1  -2  -5    2.10    2.20
   1  -2  -5    3.00    2.20
   1  -2  -5    1.80    2.60
   1  -2  -5    3.00    2.40
  -1   2   5   -0.80    2.50
  -1   2   5    0.80    2.20
  -1   2   5    2.40    2.10
  -1   2   5    1.40    2.30
   0  -2  -5 1158.78   26.10
   0  -2  -5 1187.68   26.10
   0  -2  -5 1131.39   25.40
   0   2   5 1139.09   25.20
   0   2   5 1150.38   26.10
   0   2   5 1135.69   25.60
   0   2   5 1161.08   29.00
  -1  -2  -5 2403.76   49.30
  -1  -2  -5 2399.76   46.50
  -1  -2  -5 2458.65   47.20
  -1  -2  -5 2462.05   46.40
   1   2   5 2469.95   49.90
   1   2   5 2380.16   45.70
   1   2   5 2408.16   46.40
   1   2   5 2378.06   47.40
  -2  -2  -5 1245.58   30.00
  -2  -2  -5 1268.07   31.80
  -2  -2  -5 1186.18   27.90
   2   2   5 1185.58   29.10
   2   2   5 1246.08   28.10
   2   2   5 1201.78   26.30
   2   2   5 1224.88   29.40
  -3  -2  -5  355.06   13.50
  -3  -2  -5  376.26   14.50
  -3  -2  -5  365.96   14.20
   3   2   5  364.66   13.80
   3   2   5  357.46   13.50
   3   2   5  360.66   11.60
   3   2   5  362.46   14.50
  -4  -2  -5  522.95   18.60
  -4  -2  -5  517.25   18.20
  -4  -2  -5  538.65   18.30
   4   2   5  520.75   17.50
   4   2   5  519.95   14.70
   4   2   5  521.75   18.20
   4   2   5  537.85   19.10
  -5  -2  -5   -2.20    2.80
  -5  -2  -5    2.20    2.60
  -5  -2  -5   10.60    4.30
   5   2   5    6.80    3.80
   5   2   5    3.60    3.10
  -6  -2  -5   21.80    6.70
  -6  -2  -5   24.30    5.30
   6   2   5   20.60    6.90
   6   2   5   23.30    7.00
  -7  -2  -5  284.67   16.00
  -7  -2  -5  307.07   15.60
   7   2   5  309.17   16.40
   7   2   5  303.07   17.30
  -8  -2  -5   26.40    7.00
  -8  -2  -5   14.00    5.00
  -8  -2  -5   13.70    5.10
   8   2   5   33.90    8.80
   8   2   5   29.50    8.50
  -9  -2  -5   55.89   10.10
  -9  -2  -5   80.39   13.00
   9   2   5   50.09   12.30
   9   2   5   44.20    9.00
   6  -3  -5    4.70    3.90
   6  -3  -5    8.50    5.00
   6  -3  -5    0.30    3.10
  -6   3   5   -0.50    3.40
  -6   3   5    2.00    4.10
   5  -3  -5   28.10    5.60
   5  -3  -5   30.00    6.00
   5  -3  -5   42.10    6.50
  -5   3   5   29.30    5.60
  -5   3   5   31.40    6.00
  -5   3   5   25.70    6.60
   4  -3  -5  621.84   18.40
   4  -3  -5  697.83   24.90
   4  -3  -5  618.54   18.70
  -4   3   5  650.43   18.70
  -4   3   5  620.84   18.80
  -4   3   5  669.03   24.30
   3  -3  -5  132.99    7.20
   3  -3  -5  135.59    8.40
   3  -3  -5  128.99    7.30
  -3   3   5  145.19    7.60
  -3   3   5  140.79    7.40
  -3   3   5  144.89   10.50
   2  -3  -5  229.98    8.70
   2  -3  -5  230.68   10.30
  -2   3   5  234.78    8.70
  -2   3   5  243.68   12.60
  -2   3   5  226.28    8.70
  -2   3   5  225.38   10.00
   1  -3  -5  278.57   11.10
  -1   3   5  277.07    9.10
  -1   3   5  268.57   10.50
  -1   3   5  266.57   12.50
   0  -3  -5  219.48    7.80
   0  -3  -5  221.48   10.50
   0  -3  -5  221.48    9.60
   0   3   5  228.58    8.20
   0   3   5  220.18    7.70
   0   3   5  226.08   10.90
   0   3   5  203.68    9.00
  -1  -3  -5   20.30    4.60
  -1  -3  -5   16.80    3.30
  -1  -3  -5   28.20    4.00
   1   3   5   19.50    3.40
   1   3   5   33.00    5.50
   1   3   5   24.40    3.90
   1   3   5   27.50    4.10
  -2  -3  -5  159.18    7.50
  -2  -3  -5  158.58    8.70
  -2  -3  -5  171.88    8.10
   2   3   5  168.68    7.80
   2   3   5  153.88    8.10
   2   3   5  172.58    8.10
   2   3   5  167.48    8.80
  -3  -3  -5   96.59    7.10
  -3  -3  -5  104.19    8.30
  -3  -3  -5  104.79    6.90
   3   3   5  110.09    6.50
   3   3   5   98.79    6.80
   3   3   5  117.99    7.30
   3   3   5  102.09    7.40
  -4  -3  -5    3.90    2.50
  -4  -3  -5    9.90    4.10
  -4  -3  -5    3.10    2.70
   4   3   5    5.10    2.90
   4   3   5    5.20    3.00
   4   3   5    2.30    2.30
  -5  -3  -5   31.10    5.90
  -5  -3  -5   37.90    6.90
  -5  -3  -5   26.90    5.60
   5   3   5   30.00    6.40
   5   3   5   36.10    6.20
  -6  -3  -5   67.39    9.20
  -6  -3  -5   55.99    8.20
  -6  -3  -5   82.29   10.90
   6   3   5   69.39    9.90
   6   3   5   58.39    9.20
  -7  -3  -5   11.20    5.30
  -7  -3  -5   11.50    4.80
   7   3   5   21.40    5.90
   7   3   5   12.00    5.80
  -8  -3  -5  222.38   14.90
   8   3   5  215.08   15.50
   8   3   5  253.07   15.60
  -9  -3  -5  125.79   11.20
  -9  -3  -5  114.79   12.00
   9   3   5  100.49   11.50
   9   3   5  111.79   12.80
   6  -4  -5  100.89    9.10
   6  -4  -5   96.19    8.60
  -6   4   5  104.99    9.10
  -6   4   5   91.39   10.90
  -6   4   5   95.09    8.10
   5  -4  -5   18.30    5.10
  -5   4   5   20.70    4.90
  -5   4   5   19.50    4.50
  -5   4   5   16.00    5.70
   4  -4  -5  918.41   25.40
  -4   4   5  866.41   29.30
   3  -4  -5   -1.80    2.60
  -3   4   5    2.90    3.80
   2  -4  -5   13.80    3.70
  -2   4   5    9.60    3.10
  -2   4   5   12.70    4.50
   1  -4  -5   -0.80    2.00
  -1   4   5   -0.90    1.70
  -1   4   5    2.60    2.90
   0   4   5   45.30    5.40
   0   4   5   41.10    4.40
  -1  -4  -5   28.50    4.80
   1   4   5   27.50    4.60
   1   4   5   21.10    4.50
  -2  -4  -5  222.78    8.40
  -2  -4  -5  187.68    7.50
  -2  -4  -5  198.68    9.20
   2   4   5  209.68    9.60
   2   4   5  205.88    9.30
   2   4   5  189.18    8.10
   2   4   5  198.58    7.90
  -3  -4  -5   96.29    6.20
  -3  -4  -5   90.89    6.70
  -3  -4  -5   90.89    6.50
   3   4   5   86.49    6.50
   3   4   5   88.09    6.40
   3   4   5   91.09    6.30
   3   4   5   86.29    6.10
  -4  -4  -5  128.69    8.00
  -4  -4  -5  117.19    8.40
  -4  -4  -5  127.19    7.90
   4   4   5  117.19    7.70
   4   4   5  133.29    7.40
   4   4   5  140.69    8.90
  -5  -4  -5   26.90    5.60
  -5  -4  -5   26.40    6.10
  -5  -4  -5   22.90    4.80
   5   4   5   30.60    6.10
   5   4   5   31.50    6.20
  -6  -4  -5  422.86   16.20
  -6  -4  -5  433.56   18.20
  -6  -4  -5  413.96   19.80
   6   4   5  421.96   18.20
  -7  -4  -5  391.56   16.60
  -7  -4  -5  379.16   18.20
   7   4   5  379.16   18.70
   7   4   5  384.36   17.80
  -8  -4  -5   24.50    7.40
  -8  -4  -5   55.49    9.50
  -8  -4  -5   41.10    7.80
   8   4   5   37.00    9.20
   8   4   5   42.60    8.60
  -9  -4  -5  105.59    9.90
  -9  -4  -5  115.39   11.80
   9   4   5  111.99   15.70
   9   4   5  117.69   11.80
 -10  -4  -5   77.09   10.40
 -10  -4  -5   85.09   14.60
  10   4   5   50.99   10.30
  10   4   5   82.59   15.40
   5  -5  -5    2.60    3.70
  -5   5   5   -2.30    3.80
   4  -5  -5    4.50    3.10
  -4   5   5    0.70    3.60
  -3   5   5  198.08   12.80
  -2   5   5   65.79    5.60
  -2   5   5   56.19    8.10
  -1   5   5  460.15   17.20
  -1   5   5  467.55   15.50
   0   5   5   43.10    4.70
   0   5   5   45.50    5.30
   1   5   5  353.66   13.10
   1   5   5  350.36   12.90
  -2  -5  -5  737.03   19.40
   2   5   5  790.02   21.50
   2   5   5  800.62   20.60
  -3  -5  -5   15.20    3.50
  -3  -5  -5   21.00    4.10
  -3  -5  -5   14.70    3.30
   3   5   5   16.40    3.30
   3   5   5   22.70    3.90
   3   5   5   19.10    4.00
  -4  -5  -5  124.99    7.70
  -4  -5  -5  128.29    7.50
  -4  -5  -5  127.69    8.20
   4   5   5  133.19    8.20
   4   5   5  125.29    8.20
   4   5   5  134.69    6.90
  -5  -5  -5   35.30    6.40
  -5  -5  -5   46.10    6.70
  -5  -5  -5   48.50    6.40
   5   5   5   41.70    6.60
   5   5   5   56.49    8.10
  -6  -5  -5   93.29   10.20
  -6  -5  -5   74.79    6.70
  -6  -5  -5   93.59    8.70
   6   5   5   88.39    8.50
   6   5   5   83.39    8.40
  -7  -5  -5   78.09   10.60
  -7  -5  -5   78.99    7.30
   7   5   5   88.69   12.00
   7   5   5   72.99    8.60
  -8  -5  -5  119.99    9.20
   8   5   5  113.99   10.40
   8   5   5  120.89   12.00
  -9  -5  -5   91.59   12.90
  -9  -5  -5   91.99   12.50
  -9  -5  -5  112.89   11.40
   9   5   5   98.69   14.20
   9   5   5  111.19   12.10
 -10  -5  -5  256.67   17.60
 -10  -5  -5  240.18   15.00
  10   5   5  223.48   17.40
  10   5   5  278.17   19.50
  -4   6   5   24.40    6.90
  -3   6   5  131.59    8.70
  -3   6   5  149.49   11.50
  -2   6   5  213.88   12.20
  -2   6   5  210.18   14.20
  -1   6   5   15.00    3.70
  -1   6   5   24.50    5.30
   0   6   5   16.40    3.80
   0   6   5   16.20    3.90
   1   6   5  295.57   12.30
   1   6   5  296.47   11.90
   2   6   5  125.89    7.20
   2   6   5  136.49    8.20
  -3  -6  -5    1.90    1.90
   3   6   5    4.90    2.30
   3   6   5    4.60    2.20
  -4  -6  -5   42.50    4.70
  -4  -6  -5   37.20    4.20
  -4  -6  -5   55.89    6.60
   4   6   5   44.60    6.20
   4   6   5   46.60    4.10
   4   6   5   46.60    6.40
  -5  -6  -5  396.06   14.80
  -5  -6  -5  383.16   12.70
  -5  -6  -5  386.26   15.30
   5   6   5  381.56   15.30
   5   6   5  408.86   15.80
  -6  -6  -5   -0.20    2.70
  -6  -6  -5    1.60    3.60
  -6  -6  -5   -1.00    1.80
   6   6   5    1.40    2.90
   6   6   5    0.70    3.30
  -7  -6  -5  128.79   10.70
  -7  -6  -5  127.49    8.40
   7   6   5  120.09   10.40
   7   6   5  117.59   10.70
  -8  -6  -5  110.09    8.50
  -8  -6  -5  100.19   11.20
   8   6   5  114.59   11.70
   8   6   5  110.89   10.80
  -9  -6  -5    6.10    5.40
  -9  -6  -5   10.90    4.80
  -9  -6  -5   17.00    6.60
   9   6   5    8.00    5.30
   9   6   5    5.20    6.40
 -10  -6  -5  196.98   15.90
  10   6   5  197.48   17.30
  10   6   5  172.18   15.10
  -3   7   5    5.50    4.30
  -2   7   5  154.58   11.20
  -2   7   5  137.69    8.80
  -1   7   5   12.40    3.70
  -1   7   5   14.60    5.20
   0   7   5  157.88    9.60
   1   7   5   43.90    5.00
   1   7   5   51.09    7.60
   2   7   5   11.30    5.70
   2   7   5   12.80    3.30
  -4  -7  -5   47.80    4.80
   4   7   5   51.69    6.40
   4   7   5   49.00    5.50
  -5  -7  -5   21.70    5.10
  -5  -7  -5   21.00    4.90
   5   7   5   16.70    5.10
  -6  -7  -5  323.27   14.60
  -6  -7  -5  300.17   13.90
   6   7   5  313.37   14.90
   6   7   5  308.67   14.80
  -7  -7  -5    3.40    2.70
  -7  -7  -5    3.00    3.80
  -7  -7  -5   12.00    5.50
   7   7   5    0.70    3.50
   7   7   5    0.50    3.80
  -8  -7  -5   19.80    4.20
  -8  -7  -5   17.00    6.50
  -8  -7  -5   24.60    7.10
   8   7   5   10.60    5.00
   8   7   5   20.50    6.80
  -9  -7  -5  102.89   10.90
  -9  -7  -5  102.79    8.70
  -9  -7  -5   99.99   11.80
   9   7   5  128.89   12.90
   9   7   5  115.49   12.00
  -2   8   5  261.37   12.00
  -1   8   5   99.09    7.80
   0   8   5   43.30    6.40
   0   8   5   60.89    7.50
   1   8   5  393.16   14.20
   1   8   5  384.46   15.30
   2   8   5   -0.10    2.40
   4   8   5   44.30    5.80
   4   8   5   33.90    5.50
  -5  -8  -5   32.90    5.50
  -5  -8  -5   28.30    5.60
   5   8   5   22.00    5.00
   5   8   5   27.50    5.60
   6   8   5   12.80    5.00
   6   8   5    9.60    4.10
  -7  -8  -5    6.00    4.10
  -7  -8  -5    8.10    4.10
   7   8   5    7.40    4.70
   7   8   5   11.80    5.10
  -8  -8  -5   20.30    5.90
  -8  -8  -5   18.00    6.20
   8   8   5   12.00    4.80
   8   8   5   21.80    6.50
  -9  -8  -5   71.49   11.40
  -9  -8  -5  101.79   10.40
   9   8   5   91.49   12.60
   9   8   5   96.19   13.70
  -1   9   5   23.30    5.60
  -1   9   5   23.20    5.30
   0   9   5   79.79    7.70
   0   9   5   71.19    6.90
   1   9   5   62.99    6.00
   1   9   5   76.59    7.20
   2   9   5   76.69    7.30
   3   9   5    5.50    2.80
  -5  -9  -5    4.80    3.30
  -5  -9  -5    4.40    3.30
   5   9   5    3.70    3.70
   5   9   5    1.90    3.20
  -6  -9  -5   57.69    6.80
   6   9   5   81.89    8.00
   6   9   5   74.49    8.20
  -7  -9  -5   23.80    6.30
  -7  -9  -5   33.80    6.90
   7   9   5   27.00    7.30
   7   9   5   35.90    6.90
  -8  -9  -5  110.09   11.10
  -8  -9  -5  101.09   10.30
   8   9   5  128.19   12.50
   8   9   5  107.09   11.10
   2  10   5   15.30    4.50
   3  10   5   97.19    9.00
   5  10   5   43.20    7.10
  -6 -10  -5   38.80    6.60
  -6 -10  -5   42.90    6.90
   6  10   5   34.30    8.70
   6  10   5   42.50    7.40
  -7 -10  -5    9.50    5.10
   7  10   5   10.20    5.60
   7  10   5   17.40    5.50
   3   6  -6    7.10    3.60
   3   6  -6   14.20    7.10
   3   6  -6    1.40    3.90
   3   6  -6    3.20    4.50
  -3  -6   6   14.10    7.40
  -3  -6   6    3.80    4.90
  -3  -6   6    0.20    4.40
   2   6  -6   19.90    7.60
   2   6  -6   13.60    5.50
   2   6  -6   18.60    7.60
   2   6  -6   11.50    4.00
  -2  -6   6   23.40    7.80
  -2  -6   6   23.80    7.80
  -2  -6   6   16.90    5.40
   1   6  -6   51.19    9.00
   1   6  -6   47.30   11.20
   1   6  -6   36.10    9.30
  -1  -6   6   40.80   10.90
  -1  -6   6   27.90    7.60
   0   6  -6    7.20    5.10
   0   6  -6   15.80    7.20
   0   6  -6   28.20    8.00
   0  -6   6   15.30    7.50
   0  -6   6   10.70    5.70
   5   5  -6   61.29   15.70
   5   5  -6   15.20    8.60
   5   5  -6   27.00    9.80
  -5  -5   6   34.20   10.30
  -5  -5   6   57.39   14.70
  -5  -5   6   32.10    7.60
   4   5  -6   20.50    7.30
   4   5  -6    4.00    3.90
   4   5  -6    7.30    4.50
  -4  -5   6    2.70    4.30
  -4  -5   6   11.60    6.50
  -4  -5   6    7.80    5.50
   3   5  -6  134.29   11.00
   3   5  -6  131.99    9.30
   3   5  -6  142.19   12.70
   3   5  -6  131.69   13.30
  -3  -5   6  146.39   13.20
  -3  -5   6  154.28   12.10
  -3  -5   6  141.59   13.20
   2   5  -6    8.80    3.90
   2   5  -6    6.60    3.10
   2   5  -6    8.30    4.70
   2   5  -6   -2.10    4.40
  -2  -5   6   12.30    6.70
  -2  -5   6    7.60    4.00
  -2  -5   6    4.70    5.60
   1   5  -6    8.40    3.50
   1   5  -6   -0.10    4.20
   1   5  -6    5.60    4.20
   1   5  -6    9.30    4.40
  -1  -5   6   14.60    6.00
  -1  -5   6   10.10    5.70
  -1  -5   6   -0.80    3.90
   0   5  -6  228.68   14.70
   0   5  -6  215.58   15.40
   0   5  -6  195.28   15.10
   0  -5   6  204.58   15.30
   0  -5   6  214.48   16.00
   0  -5   6  200.18   12.80
  -1   5  -6  129.09   11.60
  -1   5  -6  105.49   12.60
  -1   5  -6  127.19   12.60
   1  -5   6  100.69   11.50
   1  -5   6  120.89   13.10
  -2   5  -6   23.80    7.00
  -2   5  -6   25.50    8.10
  -2   5  -6   34.50    9.60
   2  -5   6   16.80    5.90
   2  -5   6   29.10    8.40
  -3   5  -6   31.50    8.30
  -3   5  -6   72.69   14.10
   3  -5   6   33.90   10.10
   3  -5   6   59.29   10.90
   6   4  -6   28.70    6.90
   6   4  -6   22.10    5.80
   6   4  -6   24.10    7.40
  -6  -4   6   26.80    6.80
  -6  -4   6   25.20    7.40
  -6  -4   6   18.20    9.10
   5   4  -6   65.29    8.40
   5   4  -6   53.79   10.70
   5   4  -6   63.29   10.50
  -5  -4   6   48.80    9.40
  -5  -4   6   65.19   11.20
  -5  -4   6   44.50    9.20
   4   4  -6   30.30    6.60
   4   4  -6   72.29    8.20
   4   4  -6   51.09    7.10
  -4  -4   6   52.49    8.60
  -4  -4   6   53.39    9.30
  -4  -4   6   61.19   11.10
   3   4  -6  109.69   11.50
   3   4  -6  103.29    8.10
   3   4  -6   99.39    9.40
   3   4  -6  119.99   12.30
  -3  -4   6   91.49   10.40
  -3  -4   6  105.49    9.60
  -3  -4   6  114.29   11.40
   2   4  -6   22.70    4.50
   2   4  -6   34.70    9.60
   2   4  -6   18.20    5.50
   2   4  -6   26.60    7.50
  -2  -4   6   30.80    7.90
  -2  -4   6   26.90    7.90
  -2  -4   6   15.50    4.90
   1   4  -6  193.48    9.60
   1   4  -6  185.68   13.80
   1   4  -6  195.48   13.00
   1   4  -6  207.68   14.90
  -1  -4   6  187.48   13.50
  -1  -4   6  201.18   12.30
  -1  -4   6  180.88   13.80
   0   4  -6    4.10    2.20
   0   4  -6   -0.30    3.50
   0   4  -6   -0.40    4.10
   0   4  -6    5.70    4.80
   0  -4   6    2.20    4.40
   0  -4   6    4.90    4.00
   0  -4   6    4.30    4.40
  -1   4  -6  155.88   13.50
  -1   4  -6  167.98   13.30
  -1   4  -6  176.68   12.70
   1  -4   6  178.08   13.90
   1  -4   6  187.38   13.70
  -2   4  -6   58.49   10.50
  -2   4  -6   54.49   10.10
  -2   4  -6   71.19   11.40
   2  -4   6   52.89    9.80
   2  -4   6   53.69   11.20
  -3   4  -6   54.39   10.20
  -3   4  -6   64.19   12.10
  -3   4  -6   60.49   11.50
   3  -4   6   39.20    8.10
   3  -4   6   67.29   12.60
  -4   4  -6    0.40    5.00
  -4   4  -6    6.00    6.70
  -4   4  -6   12.80    5.20
   4  -4   6    4.50    5.50
   4  -4   6   13.00    6.70
   6   3  -6   27.30    8.60
   6   3  -6   30.60    9.40
  -6  -3   6   48.50    9.30
  -6  -3   6   53.49   11.80
   5   3  -6   24.60    7.80
   5   3  -6   25.50    5.90
   5   3  -6   21.40    6.90
  -5  -3   6   25.00    6.50
  -5  -3   6   15.10    6.40
  -5  -3   6   27.40    6.50
   4   3  -6   96.39   11.00
   4   3  -6   70.19    7.60
  -4  -3   6   67.19   10.80
  -4  -3   6  104.09   10.10
  -4  -3   6   77.79   11.50
   3   3  -6   84.49    8.60
   3   3  -6   87.09   10.00
   3   3  -6   95.19    7.90
   3   3  -6   95.89   10.00
  -3  -3   6   86.79   10.00
  -3  -3   6   88.49    8.80
  -3  -3   6   98.39   10.20
   2   3  -6   16.90    6.30
   2   3  -6   16.30    5.60
  -2  -3   6   15.40    5.50
  -2  -3   6   14.20    6.20
  -2  -3   6   20.60    6.80
   1   3  -6    3.50    3.70
   1   3  -6    7.70    4.40
   1   3  -6    8.60    2.90
  -1  -3   6   15.80    5.80
  -1  -3   6    6.90    4.90
   0   3  -6   62.69    9.70
   0   3  -6   59.49   10.80
   0   3  -6   76.29   12.20
   0   3  -6   50.29    5.00
   0  -3   6   66.19   10.40
   0  -3   6   53.49    9.50
   0  -3   6   57.19    9.10
  -1   3  -6  227.28    9.00
  -1   3  -6  227.68   14.50
  -1   3  -6  233.68   14.10
  -1   3  -6  212.08   14.70
   1  -3   6  231.78   14.30
   1  -3   6  216.98   12.70
   1  -3   6  244.88   15.30
  -2   3  -6  787.62   28.20
  -2   3  -6  772.42   28.90
  -2   3  -6  824.02   28.40
   2  -3   6  768.12   29.00
   2  -3   6  801.52   28.00
  -3   3  -6  293.77   17.60
  -3   3  -6  276.07   16.70
  -3   3  -6  299.17   17.30
   3  -3   6  282.77   16.50
   3  -3   6  277.47   17.20
  -4   3  -6   25.60    7.60
  -4   3  -6   16.80    6.30
  -4   3  -6   28.30    7.60
   4  -3   6   15.60    5.80
   4  -3   6   22.00    6.90
  -5   3  -6  161.28   16.40
  -5   3  -6  139.19   13.30
   5  -3   6  164.68   13.40
   5  -3   6  139.79   14.50
   7   2  -6   -3.80    6.00
   7   2  -6   15.80    6.40
   7   2  -6    6.00    3.70
  -7  -2   6    8.50    6.70
  -7  -2   6    3.10    7.20
  -7  -2   6    6.10    5.60
   6   2  -6   85.79   12.60
   6   2  -6   63.09    8.90
   6   2  -6   66.29   11.00
  -6  -2   6   99.19   11.20
  -6  -2   6   56.29    9.80
  -6  -2   6   55.19    9.60
   5   2  -6    3.80    2.90
  -5  -2   6   -6.90    3.10
  -5  -2   6   -0.80    3.50
   4   2  -6    9.10    4.00
   4   2  -6    2.10    3.90
  -4  -2   6    4.60    4.90
  -4  -2   6    7.30    5.20
  -4  -2   6    5.10    3.50
   3   2  -6   23.30    6.50
   3   2  -6   36.50    6.70
   3   2  -6   25.20    6.70
   3   2  -6   32.30    5.50
  -3  -2   6   25.10    6.20
  -3  -2   6   38.60    7.10
  -3  -2   6   30.50    7.50
   2   2  -6    8.40    3.30
   2   2  -6    8.60    4.20
   2   2  -6    8.60    5.90
   2   2  -6    7.90    4.20
  -2  -2   6    7.50    5.20
  -2  -2   6   12.40    4.60
  -2  -2   6    6.40    3.70
   1   2  -6  385.16   13.60
   1   2  -6  419.56   17.60
   1   2  -6  367.86   20.20
   1   2  -6  367.76   18.10
  -1  -2   6  413.16   17.40
  -1  -2   6  395.36   18.40
   0   2  -6  104.19    9.40
   0   2  -6  113.89    6.80
   0   2  -6  102.59    9.90
   0   2  -6   97.99    9.10
   0  -2   6  119.99    9.80
   0  -2   6   92.89    9.00
   0  -2   6  108.29   10.00
  -1   2  -6  104.29   10.10
  -1   2  -6   98.99    9.10
  -1   2  -6  104.69    9.40
  -1   2  -6  112.39    6.30
   1  -2   6   94.79    9.40
   1  -2   6   99.29    9.00
   1  -2   6   97.89    9.30
  -2   2  -6  812.72   32.10
  -2   2  -6  878.71   28.90
  -2   2  -6  892.81   32.70
   2  -2   6  864.91   32.00
   2  -2   6  902.91   27.70
   2  -2   6  924.91   34.50
  -3   2  -6    3.30    4.40
  -3   2  -6   10.10    5.20
  -3   2  -6    4.30    4.40
   3  -2   6    5.50    3.90
   3  -2   6    3.70    4.40
  -4   2  -6    3.60    3.50
  -4   2  -6    2.10    3.50
  -4   2  -6   -2.30    4.30
   4  -2   6    3.00    3.70
   4  -2   6    4.80    4.50
  -5   2  -6    6.60    4.60
  -5   2  -6    7.20    4.60
  -5   2  -6   11.40    5.90
   5  -2   6   19.30    7.50
   5  -2   6    9.30    4.60
  -6   2  -6   20.90    9.50
  -6   2  -6   11.20    5.30
   6  -2   6   19.30   12.30
   6  -2   6    0.00    4.80
   7   1  -6   13.00    7.60
   7   1  -6   20.70    6.90
   7   1  -6   12.60    4.80
  -7  -1   6    5.30    4.50
  -7  -1   6   10.70    6.60
  -7  -1   6    2.10    6.10
   6   1  -6   35.60    8.80
   6   1  -6   33.30    8.10
   6   1  -6   31.80    6.10
  -6  -1   6   31.70    7.60
  -6  -1   6   36.50    8.20
  -6  -1   6   35.60    8.10
   5   1  -6  255.47   15.70
   5   1  -6  234.48   12.60
  -5  -1   6  275.07   16.20
  -5  -1   6  249.18   16.10
  -5  -1   6  240.98   14.70
   4   1  -6   10.00    5.10
   4   1  -6    3.60    2.80
  -4  -1   6    2.00    4.00
  -4  -1   6    9.80    4.80
  -4  -1   6    2.30    4.10
   3   1  -6   36.50    6.00
   3   1  -6   33.20    7.40
   3   1  -6   34.90    9.40
  -3  -1   6   22.10    6.40
  -3  -1   6   22.50    6.20
  -3  -1   6   33.00    7.90
   2   1  -6  886.01   23.60
   2   1  -6  917.11   27.70
   2   1  -6  865.51   27.00
   2   1  -6  858.21   28.00
  -2  -1   6  894.61   28.10
  -2  -1   6  902.61   28.60
  -2  -1   6  890.71   28.00
   1   1  -6   18.40    5.60
   1   1  -6   15.90    4.30
   1   1  -6   21.10    4.20
   1   1  -6   21.40    5.00
  -1  -1   6   22.20    5.40
  -1  -1   6   19.60    5.30
  -1  -1   6   22.20    5.70
   0   1  -6   79.39    5.80
   0   1  -6   76.09    7.80
   0   1  -6   83.99    8.20
   0   1  -6   83.59    8.50
   0  -1   6   77.89    8.20
   0  -1   6   85.69    8.70
   0  -1   6   78.59    7.90
  -1   1  -6  120.29    6.50
  -1   1  -6  123.99    9.80
  -1   1  -6  121.69    9.50
  -1   1  -6  119.89    9.80
   1  -1   6  136.79   10.70
   1  -1   6  116.49    9.60
   1  -1   6  112.89    9.30
  -2   1  -6  332.37   16.40
  -2   1  -6  345.57   16.50
  -2   1  -6  330.77   11.00
  -2   1  -6  319.57   15.60
   2  -1   6  347.07   17.00
   2  -1   6  323.27   15.10
   2  -1   6  318.97   15.50
  -3   1  -6   35.50    7.50
  -3   1  -6   27.30    7.50
  -3   1  -6   21.90    6.60
   3  -1   6   28.30    7.10
   3  -1   6   22.10    5.40
   3  -1   6   26.90    6.70
  -4   1  -6   44.30    8.00
  -4   1  -6   44.60    9.30
  -4   1  -6   35.70    7.80
   4  -1   6   39.70    8.70
   4  -1   6   31.80    7.70
  -5   1  -6  450.35   21.30
  -5   1  -6  455.65   21.70
   5  -1   6  451.75   21.90
   5  -1   6  492.65   21.50
  -6   1  -6    6.50    4.80
  -6   1  -6   13.50    5.80
  -6   1  -6    7.00    4.70
   6  -1   6   10.70    6.30
   6  -1   6   19.80    7.30
  -7   1  -6   56.39   11.30
  -7   1  -6   63.29   13.60
  -7   1  -6   43.60   12.30
   7  -1   6   55.09   10.60
   7  -1   6   62.09   13.80
   7   0  -6  156.28   13.80
   7   0  -6  185.68   12.30
   7   0  -6  216.48   16.20
  -7   0   6  183.88   13.70
  -7   0   6  150.08   12.60
  -7   0   6  187.58   15.30
   6   0  -6    3.80    3.30
   6   0  -6   25.10    6.80
   6   0  -6    7.40    4.90
  -6   0   6   11.70    5.00
  -6   0   6   12.90    4.80
  -6   0   6    9.80    3.60
   5   0  -6  291.07   16.20
   5   0  -6  299.07   14.00
   5   0  -6  294.57   15.70
  -5   0   6  326.97   17.60
  -5   0   6  297.77   16.00
  -5   0   6  305.47   16.10
   4   0  -6    4.90    4.00
   4   0  -6    1.40    3.00
   4   0  -6    2.40    3.40
  -4   0   6    3.00    3.90
  -4   0   6    0.60    4.00
  -4   0   6   -1.00    3.30
   3   0  -6   20.00    4.40
   3   0  -6   12.60    4.40
  -3   0   6   18.40    5.90
  -3   0   6   16.90    5.70
  -3   0   6   28.80    6.80
   2   0  -6  119.89    7.90
   2   0  -6  143.89   10.10
   2   0  -6  132.69    9.70
   2   0  -6  149.59   10.40
  -2   0   6  134.89    9.90
  -2   0   6  142.89    9.90
  -2   0   6  125.49   10.10
   1   0  -6   89.49    6.50
   1   0  -6   93.59    8.40
   1   0  -6   76.49    7.30
   1   0  -6   79.69    7.80
  -1   0   6   77.49    7.60
  -1   0   6   80.69    8.10
  -1   0   6   82.39    7.70
   0   0  -6  246.88   12.20
   0   0  -6  236.58   12.70
   0   0  -6  238.88   12.50
   0   0  -6  229.58    9.80
   0   0   6  225.68   12.60
   0   0   6  246.48   12.80
   0   0   6  231.08   12.10
  -1   0  -6  346.77   14.70
  -1   0  -6  342.37   11.70
  -1   0  -6  333.57   15.20
  -1   0  -6  354.16   15.70
   1   0   6  340.87   15.20
   1   0   6  330.87   14.60
   1   0   6  309.17   15.10
  -2   0  -6    9.20    4.00
  -2   0  -6   14.90    5.10
  -2   0  -6   12.90    2.80
  -2   0  -6   19.40    5.20
   2   0   6   13.90    4.40
   2   0   6   16.10    5.40
   2   0   6    6.10    3.20
   2   0   6   10.40    2.60
  -3   0  -6   95.99    8.70
  -3   0  -6  105.79    9.60
  -3   0  -6  102.39    8.80
   3   0   6   99.49    8.50
   3   0   6  100.09    8.90
   3   0   6   96.29    9.50
   3   0   6   90.09    5.50
  -4   0  -6  844.02   27.50
  -4   0  -6  780.52   27.50
  -4   0  -6  933.01   32.10
   4   0   6  844.92   27.20
   4   0   6  860.11   28.60
  -5   0  -6    0.60    4.60
  -5   0  -6    4.40    3.60
   5   0   6   -3.70    3.60
   5   0   6   -0.10    3.60
  -6   0  -6   96.69   10.90
   6   0   6  112.89   11.40
   6   0   6   99.29   10.10
  -7   0  -6   98.19   10.70
  -7   0  -6   98.19   14.50
  -7   0  -6  109.29   11.10
   7   0   6  101.79   11.50
   7   0   6  101.79   11.10
  -8   0  -6    4.60    5.20
  -8   0  -6    6.40    4.90
  -8   0  -6   -0.50    4.60
   8   0   6    5.20    4.00
   8   0   6    4.70    6.60
   7  -1  -6   41.10    9.40
   7  -1  -6   28.40    6.10
   7  -1  -6   56.69   11.90
  -7   1   6   41.40    7.60
  -7   1   6   34.40    7.70
  -7   1   6   38.20    8.40
   6  -1  -6    8.60    6.20
   6  -1  -6    9.90    3.80
   6  -1  -6    4.50    4.20
  -6   1   6    3.40    4.10
  -6   1   6    6.80    5.50
  -6   1   6   -1.90    3.60
   5  -1  -6   12.20    5.50
   5  -1  -6   12.70    4.10
  -5   1   6   11.90    4.70
  -5   1   6   13.40    5.10
  -5   1   6   19.20    5.90
   4  -1  -6  478.85   17.60
   4  -1  -6  490.85   19.00
   4  -1  -6  522.45   19.10
  -4   1   6  503.75   19.10
  -4   1   6  521.85   19.20
  -4   1   6  498.65   21.40
   3  -1  -6   17.20    4.70
   3  -1  -6   15.70    3.90
   3  -1  -6   12.40    4.40
  -3   1   6   12.70    3.90
  -3   1   6   14.40    5.00
  -3   1   6   16.80    5.50
   2  -1  -6   48.50    7.30
   2  -1  -6   40.50    6.70
   2  -1  -6   44.20    5.80
   2  -1  -6   42.50    6.70
  -2   1   6   57.09    8.70
  -2   1   6   48.90    7.70
  -2   1   6   47.00    6.90
   1  -1  -6  527.85   19.10
   1  -1  -6  515.25   16.30
   1  -1  -6  531.25   18.20
   1  -1  -6  538.85   17.80
  -1   1   6  532.95   17.70
  -1   1   6  519.05   18.10
  -1   1   6  525.75   19.80
   0  -1  -6   15.70    3.30
   0  -1  -6   17.50    4.70
   0  -1  -6   10.40    3.50
   0  -1  -6   19.60    4.50
   0   1   6   17.80    4.40
   0   1   6   18.30    3.60
   0   1   6   17.70    4.40
   0   1   6   17.30    4.70
  -1  -1  -6  140.39    9.50
  -1  -1  -6  138.29    8.50
  -1  -1  -6  121.69    7.10
  -1  -1  -6  126.89    9.00
   1   1   6  130.79    6.80
   1   1   6  134.19    9.40
   1   1   6  119.69    8.80
   1   1   6  131.59    8.40
  -2  -1  -6  391.56   15.60
  -2  -1  -6  393.66   16.00
  -2  -1  -6  412.26   16.60
   2   1   6  395.86   16.20
   2   1   6  385.76   16.10
   2   1   6  397.76   15.50
   2   1   6  383.06   12.30
  -3  -1  -6   30.80    6.60
  -3  -1  -6   27.70    6.20
  -3  -1  -6   32.60    6.10
   3   1   6   24.10    5.90
   3   1   6   30.10    4.00
   3   1   6   23.90    5.70
   3   1   6   33.80    6.40
  -4  -1  -6   45.00    8.50
  -4  -1  -6   36.30    7.20
  -4  -1  -6   44.50    8.10
   4   1   6   36.20    7.50
   4   1   6   34.20    6.50
   4   1   6   30.60    6.00
   4   1   6   36.10    4.60
  -5  -1  -6    6.00    4.80
  -5  -1  -6    6.90    3.70
  -5  -1  -6   13.70    6.00
   5   1   6    9.60    4.90
   5   1   6    5.90    4.50
  -6  -1  -6    6.20    4.00
  -6  -1  -6    5.30    4.20
   6   1   6    2.00    2.90
   6   1   6    5.80    4.70
  -7  -1  -6  289.27   17.10
  -7  -1  -6  274.17   17.00
  -7  -1  -6  284.37   16.60
   7   1   6  304.17   18.40
   7   1   6  292.57   17.10
  -8  -1  -6  114.19   16.30
  -8  -1  -6  119.19   16.20
  -8  -1  -6  106.89   15.10
   8   1   6  103.69   12.40
   8   1   6  112.29   15.30
   6  -2  -6   27.20    8.30
   6  -2  -6   32.20    6.30
   6  -2  -6   29.80    5.60
  -6   2   6   37.00    7.70
  -6   2   6   28.60    6.50
   5  -2  -6  184.38   11.60
   5  -2  -6  177.48   10.80
  -5   2   6  190.58   13.90
  -5   2   6  191.28   11.70
  -5   2   6  193.98   11.50
   4  -2  -6   48.40    7.40
   4  -2  -6   36.60    6.60
   4  -2  -6   38.50    6.20
  -4   2   6   42.20    6.70
  -4   2   6   42.00    8.50
   3  -2  -6  180.98   10.10
   3  -2  -6  187.68   10.20
   3  -2  -6  182.98    9.90
  -3   2   6  193.18   10.40
  -3   2   6  180.58   12.40
  -3   2   6  184.68   10.10
   2  -2  -6    8.70    3.70
   2  -2  -6    3.20    2.40
   2  -2  -6   13.20    3.80
  -2   2   6   10.80    3.90
  -2   2   6    4.10    3.90
  -2   2   6    4.50    3.10
   1  -2  -6   36.60    5.50
   1  -2  -6   26.40    4.70
   1  -2  -6   22.00    5.30
   1  -2  -6   24.70    4.70
  -1   2   6   31.30    5.20
  -1   2   6   24.80    4.30
  -1   2   6   40.20    7.00
   0  -2  -6  151.18    9.70
   0  -2  -6  146.69    8.30
   0  -2  -6  145.49    8.40
   0  -2  -6  151.08    8.10
   0   2   6  141.39    9.60
   0   2   6  134.89    7.90
   0   2   6  135.39    8.50
   0   2   6  139.19    7.70
  -1  -2  -6   50.09    4.90
  -1  -2  -6   59.69    6.50
  -1  -2  -6   55.89    7.90
  -1  -2  -6   55.59    5.40
   1   2   6   52.79    7.30
   1   2   6   48.30    4.80
   1   2   6   52.79    5.50
   1   2   6   52.29    7.80
  -2  -2  -6   34.50    5.60
  -2  -2  -6   33.50    5.80
  -2  -2  -6   40.20    6.50
   2   2   6   33.10    5.60
   2   2   6   35.00    5.70
   2   2   6   24.00    5.20
   2   2   6   34.90    4.60
  -3  -2  -6   22.80    5.30
  -3  -2  -6   26.50    5.40
  -3  -2  -6   21.70    5.30
   3   2   6   27.30    4.30
   3   2   6   18.60    4.60
   3   2   6   17.00    4.40
   3   2   6   18.80    5.40
  -4  -2  -6   87.49    7.70
  -4  -2  -6  100.39    8.50
  -4  -2  -6   97.39    8.80
   4   2   6  107.89    9.10
   4   2   6  106.09    8.50
   4   2   6   91.69    6.00
   4   2   6   94.99    8.00
  -5  -2  -6  661.53   23.30
  -5  -2  -6  672.73   25.30
  -5  -2  -6  655.03   23.70
   5   2   6  680.93   29.20
   5   2   6  653.53   17.90
   5   2   6  655.33   24.10
  -6  -2  -6   57.09   10.10
  -6  -2  -6   30.90    6.80
  -6  -2  -6   38.40    7.20
   6   2   6   32.30    8.10
   6   2   6   37.10    7.90
   6   2   6   27.70    4.60
  -7  -2  -6  551.34   24.30
  -7  -2  -6  606.04   24.30
   7   2   6  577.94   25.10
   7   2   6  600.24   17.20
   7   2   6  567.54   23.80
  -8  -2  -6   67.29   11.80
  -8  -2  -6   67.19   11.50
   8   2   6   75.19   12.30
   8   2   6   83.49   13.40
  -9  -2  -6   27.00    7.30
  -9  -2  -6   37.10    9.20
   9   2   6   40.10    8.30
   6  -3  -6   57.59    7.80
   6  -3  -6   64.09    9.10
  -6   3   6   67.99    7.90
  -6   3   6   71.19   12.20
   5  -3  -6    7.80    3.60
   5  -3  -6    6.00    3.50
  -5   3   6   17.30    6.90
  -5   3   6    7.40    4.00
  -5   3   6    4.70    3.50
   4  -3  -6   54.09    7.40
   4  -3  -6   43.30    6.20
   4  -3  -6   48.70    5.40
  -4   3   6   48.40    9.70
  -4   3   6   49.40    5.90
  -4   3   6   50.09    5.70
   3  -3  -6    5.80    2.90
   3  -3  -6    7.20    2.60
   3  -3  -6    9.10    3.20
  -3   3   6    6.60    3.30
  -3   3   6    8.50    4.50
  -3   3   6    2.90    2.80
   2  -3  -6    4.20    2.60
   2  -3  -6    3.80    2.50
   2  -3  -6    7.10    2.50
  -2   3   6    2.70    2.40
  -2   3   6    0.40    3.10
  -2   3   6    3.80    2.70
  -2   3   6    0.70    2.20
   1  -3  -6    4.30    2.60
   1  -3  -6    3.20    2.10
  -1   3   6    2.30    3.30
  -1   3   6    1.30    2.30
  -1   3   6    2.10    2.30
  -1   3   6    5.30    3.00
   0  -3  -6  309.57   10.80
   0  -3  -6  307.67   11.00
   0  -3  -6  318.37   13.80
   0  -3  -6  295.67   12.20
   0   3   6  299.97   11.70
   0   3   6  308.47   14.20
   0   3   6  312.37   10.90
   0   3   6  292.27   11.00
  -1  -3  -6   46.80    4.60
  -1  -3  -6   41.50    6.20
  -1  -3  -6   46.20    5.10
   1   3   6   55.79    5.40
   1   3   6   64.39    8.70
   1   3   6   39.60    4.60
   1   3   6   45.20    4.70
  -2  -3  -6 1075.79   26.00
  -2  -3  -6 1099.69   26.50
  -2  -3  -6 1054.29   28.40
   2   3   6 1082.49   28.40
   2   3   6 1059.99   25.50
   2   3   6 1044.90   26.50
   2   3   6 1086.19   25.90
  -3  -3  -6  286.07   13.30
  -3  -3  -6  311.07   12.60
  -3  -3  -6  305.87   13.10
   3   3   6  300.07   13.30
   3   3   6  321.67   12.90
   3   3   6  292.47   11.50
   3   3   6  302.37   13.10
  -4  -3  -6  423.56   16.80
  -4  -3  -6  424.96   16.90
  -4  -3  -6  419.66   16.00
   4   3   6  412.56   14.00
   4   3   6  391.56   15.70
   4   3   6  399.86   16.50
   4   3   6  412.26   15.70
  -5  -3  -6  387.96   17.30
  -5  -3  -6  400.86   16.80
  -5  -3  -6  399.36   16.70
   5   3   6  413.46   17.00
   5   3   6  403.96   17.80
   5   3   6  405.86   14.00
  -6  -3  -6  118.99   11.80
  -6  -3  -6  136.49   11.00
  -6  -3  -6  129.59   10.20
   6   3   6  113.69    9.70
   6   3   6  115.69   10.60
  -7  -3  -6  171.78   11.90
  -7  -3  -6  231.78   17.90
  -7  -3  -6  167.98   12.50
   7   3   6  183.08   14.10
   7   3   6  157.48   11.90
  -8  -3  -6  105.49   11.20
  -8  -3  -6  113.29   10.40
   8   3   6  105.09   11.90
   8   3   6  103.49   10.80
  -9  -3  -6   69.29   11.70
   9   3   6   70.49   13.00
   5  -4  -6  137.59    9.90
  -5   4   6  138.09    8.90
  -5   4   6  127.79   11.90
  -5   4   6  124.59    8.60
   4  -4  -6    5.20    3.50
  -4   4   6   11.80    5.50
   3  -4  -6   47.30    6.80
  -3   4   6   63.39    9.50
   2  -4  -6   43.00    7.80
   1  -4  -6  214.08   10.60
  -1   4   6  179.18   11.40
  -1   4   6  188.28    9.70
   0  -4  -6  251.17   12.00
   0   4   6  274.67   11.50
   0   4   6  239.48   12.40
  -1  -4  -6   52.89    7.10
   1   4   6   56.39    6.30
   1   4   6   48.90    4.50
   1   4   6   45.90    5.80
   1   4   6   45.00    4.10
  -2  -4  -6  694.53   20.80
  -2  -4  -6  671.93   17.80
  -2  -4  -6  695.73   18.30
   2   4   6  678.73   20.80
   2   4   6  707.83   18.20
   2   4   6  698.33   19.70
   2   4   6  686.73   18.70
  -3  -4  -6   30.00    5.70
  -3  -4  -6   47.40    5.40
  -3  -4  -6   43.70    4.90
   3   4   6   37.10    5.50
   3   4   6   39.60    5.80
   3   4   6   50.69    7.10
   3   4   6   40.10    6.30
  -4  -4  -6  142.29    9.40
  -4  -4  -6  153.68    9.00
  -4  -4  -6  141.89    9.20
   4   4   6  144.69    8.70
   4   4   6  149.49    8.50
   4   4   6  139.19    8.90
   4   4   6  149.59    9.60
  -5  -4  -6  464.05   18.00
  -5  -4  -6  465.25   17.60
  -5  -4  -6  430.66   17.00
   5   4   6  434.96   18.00
   5   4   6  431.66   17.20
  -6  -4  -6  181.88   12.10
  -6  -4  -6  177.28   11.00
   6   4   6  197.18   12.20
   6   4   6  187.08   12.80
  -7  -4  -6    0.10    4.40
   7   4   6   -2.10    4.80
   7   4   6    0.30    1.90
  -8  -4  -6  314.67   17.80
   8   4   6  311.17   17.60
   8   4   6  337.47   19.50
  -9  -4  -6   16.50    7.00
  -9  -4  -6   81.49    9.50
   9   4   6   50.99   10.70
   9   4   6   34.40   10.60
   5  -5  -6   15.50    5.00
  -5   5   6    4.40    6.40
   4  -5  -6    9.40    4.40
  -4   5   6    9.30    4.20
   3  -5  -6   69.19    7.10
  -3   5   6   80.09   11.70
  -2   5   6   40.80    6.00
  -2   5   6   60.69   10.20
  -1   5   6   64.89    7.20
   0   5   6   -0.50    2.50
   0   5   6    0.00    2.10
  -1  -5  -6    7.00    3.30
   1   5   6    9.40    3.40
   1   5   6    7.20    2.90
  -2  -5  -6  280.47   11.90
   2   5   6  297.87   12.30
   2   5   6  296.57   12.50
  -3  -5  -6  145.89    8.70
  -3  -5  -6  148.69    7.90
  -3  -5  -6  139.09    7.30
   3   5   6  144.09    7.70
   3   5   6  143.19    8.20
   3   5   6  143.99    8.60
   3   5   6  140.89    8.20
  -4  -5  -6   63.99    6.30
  -4  -5  -6   61.39    6.70
  -4  -5  -6   60.99    5.80
   4   5   6   62.39    6.10
   4   5   6   56.49    6.60
   4   5   6   65.09    5.80
   4   5   6   64.19    5.70
  -5  -5  -6  482.25   18.20
  -5  -5  -6  470.75   17.20
  -5  -5  -6  491.25   17.30
   5   5   6  472.85   18.40
   5   5   6  496.35   18.00
  -6  -5  -6   54.89    8.10
  -6  -5  -6   59.19    6.50
  -6  -5  -6   70.29    9.30
   6   5   6   62.79    7.20
   6   5   6   45.30    8.20
  -7  -5  -6  166.98   10.90
  -7  -5  -6  156.48   12.70
   7   5   6  166.78   12.40
   7   5   6  169.48   12.20
  -8  -5  -6    4.40    4.00
  -8  -5  -6    5.20    4.60
  -8  -5  -6    1.40    3.10
   8   5   6    4.00    3.60
   8   5   6    7.00    5.40
  -9  -5  -6  111.89   11.30
   9   5   6  121.49   13.10
  -4   6   6    1.70    4.40
  -3   6   6    2.20    3.70
  -2   6   6  137.49    8.90
  -2   6   6  141.69   11.10
  -1   6   6   51.29    7.50
  -1   6   6   54.89    5.50
   0   6   6   49.80    7.30
   0   6   6   53.69    5.40
   1   6   6 1039.80   27.70
   2   6   6  273.77   13.20
   2   6   6  298.07   12.40
  -3  -6  -6  446.36   14.70
   3   6   6  448.06   15.00
   3   6   6  484.65   13.70
   3   6   6  441.36   20.10
   3   6   6  447.56   13.80
  -4  -6  -6  988.30   24.90
  -4  -6  -6 1008.10   25.30
  -4  -6  -6 1019.10   24.90
   4   6   6 1008.10   26.10
   4   6   6  984.30   25.10
   4   6   6 1016.30   24.60
  -5  -6  -6   38.10    5.90
  -5  -6  -6   53.19    7.60
  -5  -6  -6   38.10    6.00
   5   6   6   42.70    6.90
  -6  -6  -6   17.40    4.30
  -6  -6  -6   20.50    6.00
  -6  -6  -6   15.30    4.50
   6   6   6   10.00    4.00
   6   6   6   31.80    7.00
  -7  -6  -6   28.60    6.00
  -7  -6  -6   25.00    6.40
  -7  -6  -6   32.10    6.70
   7   6   6   23.80    6.20
   7   6   6   30.50    7.90
  -8  -6  -6   86.69    8.50
  -8  -6  -6   72.59    8.40
  -8  -6  -6   93.59   10.50
   8   6   6   73.59   11.60
   8   6   6   87.19   12.80
  -9  -6  -6   -0.10    3.60
  -9  -6  -6    5.10    6.40
  -9  -6  -6    8.30    5.40
   9   6   6    6.40    6.20
   9   6   6    4.70    4.70
  -3   7   6  201.08   14.30
  -2   7   6    7.10    4.40
  -2   7   6    6.40    3.20
  -1   7   6   65.09    9.40
  -1   7   6   91.49    7.40
   0   7   6   74.69    6.80
   0   7   6   72.39    9.50
   1   7   6   21.10    4.50
   1   7   6   10.80    3.30
   2   7   6    4.10    2.70
   2   7   6   -0.10    2.50
   3   7   6   42.10    4.50
   3   7   6   37.50    6.10
  -4  -7  -6    1.20    2.20
  -4  -7  -6    1.20    2.00
  -4  -7  -6    0.90    2.30
   4   7   6    3.60    2.20
   4   7   6   -2.20    2.40
   4   7   6    3.10    3.00
  -5  -7  -6   98.89    7.90
  -5  -7  -6  104.79    6.70
   5   7   6   90.49    7.70
   5   7   6   99.79    8.20
  -6  -7  -6    8.20    4.50
  -6  -7  -6    8.40    3.30
  -6  -7  -6   12.00    4.90
   6   7   6   15.80    4.90
   6   7   6   18.70    5.60
  -7  -7  -6  621.34   19.40
  -7  -7  -6  667.63   24.30
  -7  -7  -6  637.54   23.00
   7   7   6  641.64   24.10
   7   7   6  617.94   23.60
  -8  -7  -6   71.19   10.50
  -8  -7  -6   59.89    6.90
  -8  -7  -6   49.90    9.20
   8   7   6   69.69   10.80
   8   7   6   75.19   11.30
  -9  -7  -6   34.30    7.30
  -9  -7  -6   39.00    9.20
  -9  -7  -6   20.10    6.80
   9   7   6   27.00    7.10
   9   7   6   54.59   11.10
  -2   8   6    2.70    3.70
  -2   8   6    1.20    3.20
  -1   8   6   14.00    4.50
  -1   8   6    3.50    3.90
   0   8   6   55.19    8.10
   0   8   6   53.69    6.00
   1   8   6   42.70    6.50
   1   8   6   47.90    7.10
   2   8   6   -3.90    2.00
   2   8   6   -0.80    2.20
   3   8   6  226.08   12.30
  -5  -8  -6   45.10    5.00
   5   8   6   34.50    6.10
   5   8   6   43.60    6.90
  -6  -8  -6  158.48   10.30
   6   8   6  164.58   11.10
   6   8   6  156.98   10.50
  -7  -8  -6  386.36   17.10
  -7  -8  -6  395.86   17.90
   7   8   6  386.66   18.00
   7   8   6  403.96   18.50
  -8  -8  -6   21.80    6.70
  -8  -8  -6   19.50    6.60
   8   8   6   21.30    7.10
   8   8   6   26.20    7.60
  -9  -8  -6   -0.70    5.70
  -9  -8  -6    0.10    4.70
   9   8   6   10.10    5.90
   9   8   6    2.60    4.10
   0   9   6   19.50    4.90
   0   9   6    3.80    5.10
   1   9   6   -0.90    3.10
   1   9   6    3.70    3.00
   2   9   6  153.08   10.30
   3   9   6  167.88   11.00
   4   9   6   17.80    4.90
   5   9   6   -0.20    3.10
  -6  -9  -6   -0.50    2.90
  -6  -9  -6    9.30    3.50
   6   9   6    5.00    4.40
   6   9   6    6.30    5.10
  -7  -9  -6   33.60    7.10
   7   9   6   22.50    6.60
   7   9   6   33.30    7.40
  -8  -9  -6  525.65   21.70
   8   9   6  505.55   22.00
   8   9   6  468.05   21.50
   2  10   6  219.68   13.00
   3  10   6   92.09    8.80
  -6 -10  -6  198.48   10.80
   6  10   6  184.38   11.40
   6  10   6  174.88   10.70
   3   5  -7  105.49    8.40
   3   5  -7  109.19   12.20
   3   5  -7  115.29   13.50
   3   5  -7  100.89   11.20
  -3  -5   7  105.79   10.80
  -3  -5   7   97.69   14.10
  -3  -5   7   92.99   14.40
   2   5  -7    7.70    5.30
   2   5  -7    1.10    2.70
   2   5  -7    0.20    4.50
   2   5  -7   -1.40    5.10
  -2  -5   7    1.50    5.80
  -2  -5   7    4.90    4.90
  -2  -5   7    7.30    4.80
   1   5  -7    5.50    5.50
   1   5  -7    5.10    4.60
   1   5  -7    8.40    3.60
   1   5  -7   12.80    6.30
  -1  -5   7    0.40    3.30
  -1  -5   7    8.20    6.40
  -1  -5   7    5.10    5.00
   0   5  -7   10.20    5.70
   0   5  -7   13.60    7.10
   0   5  -7   -3.60    4.80
   0  -5   7    6.70    6.00
   0  -5   7    5.80    4.30
   0  -5   7    8.90    3.80
  -1   5  -7   22.70    7.60
  -1   5  -7   35.50    8.30
  -1   5  -7   23.60    7.70
   1  -5   7   15.90    7.60
   1  -5   7   20.20    6.30
   5   4  -7   -0.80    3.00
   5   4  -7   12.60    6.10
   5   4  -7   10.90    6.70
  -5  -4   7   -3.10    5.30
  -5  -4   7    1.90    4.70
  -5  -4   7    7.90    7.00
   4   4  -7   10.30    3.90
   4   4  -7    9.70    5.30
   4   4  -7   13.30    7.60
  -4  -4   7   15.90    5.10
  -4  -4   7    8.60    5.70
  -4  -4   7   21.70    8.10
   3   4  -7   17.40    6.40
   3   4  -7   19.60    6.30
   3   4  -7   16.70    6.30
   3   4  -7   19.20    4.50
  -3  -4   7   23.10    8.20
  -3  -4   7    8.60    5.50
  -3  -4   7   20.60    6.70
   2   4  -7   97.99   14.60
   2   4  -7  102.69    8.30
   2   4  -7  107.69   11.10
   2   4  -7   95.89   10.30
  -2  -4   7   98.09   11.10
  -2  -4   7   93.79   10.30
  -2  -4   7   88.79   14.10
   1   4  -7   17.00    6.40
   1   4  -7   28.50    7.70
   1   4  -7   28.20    5.10
   1   4  -7   25.50    7.60
  -1  -4   7   26.40    7.00
  -1  -4   7   30.30    6.30
  -1  -4   7   33.10    9.10
   0   4  -7  113.79    7.40
   0   4  -7  112.79   11.80
   0   4  -7  124.79   11.50
   0   4  -7  119.79   11.90
   0  -4   7  103.29    9.90
   0  -4   7  109.79   16.10
   0  -4   7   93.79   10.40
  -1   4  -7  315.97   18.00
  -1   4  -7  356.76   19.80
  -1   4  -7  309.37   19.60
   1  -4   7  311.67   16.80
   1  -4   7  314.77   18.80
   1  -4   7  312.47   19.50
  -2   4  -7    8.80    5.40
  -2   4  -7    0.30    4.80
   2  -4   7    9.40    5.50
  -3   4  -7   12.00    6.40
  -3   4  -7   11.30    8.10
  -3   4  -7   16.30    6.80
   3  -4   7   10.00    5.80
   3  -4   7   18.40    7.50
   5   3  -7    2.00    5.20
   5   3  -7   14.30    4.30
   5   3  -7    2.30    5.50
  -5  -3   7    7.10    5.00
  -5  -3   7    9.20    5.30
  -5  -3   7    4.80    5.80
   4   3  -7  195.28   11.70
   4   3  -7  186.58   15.30
  -4  -3   7  206.78   15.60
  -4  -3   7  161.38   13.20
  -4  -3   7  189.48   14.80
   3   3  -7  129.59   13.10
   3   3  -7  161.68   10.30
   3   3  -7  162.38   13.40
   3   3  -7  158.68   12.40
  -3  -3   7  157.08   12.60
  -3  -3   7  139.59   12.30
  -3  -3   7  142.99   13.30
   2   3  -7   98.09    7.80
   2   3  -7  109.29   10.60
   2   3  -7  125.09   10.80
   2   3  -7   93.19   11.10
  -2  -3   7   93.49   10.30
  -2  -3   7  111.79   11.80
  -2  -3   7  120.09   10.80
   1   3  -7  145.99   13.30
   1   3  -7  152.98   12.90
   1   3  -7  167.38   12.60
   1   3  -7  169.88    9.70
  -1  -3   7  164.38   13.20
  -1  -3   7  170.98   13.70
  -1  -3   7  154.98   12.10
   0   3  -7    6.70    4.40
   0   3  -7    4.00    2.60
   0   3  -7   -2.80    3.30
   0   3  -7   -3.90    4.10
   0  -3   7    6.60    4.10
   0  -3   7    4.80    4.20
   0  -3   7   10.50    5.20
  -1   3  -7   45.90    9.50
  -1   3  -7   34.40    8.70
  -1   3  -7   31.00    7.50
   1  -3   7   27.00    7.10
   1  -3   7   37.00    8.20
   1  -3   7   39.70    9.20
  -2   3  -7  151.08   12.90
  -2   3  -7  152.28   12.70
  -2   3  -7  142.89   13.30
   2  -3   7  150.48   12.70
   2  -3   7  151.78   13.50
  -3   3  -7   14.20    5.40
  -3   3  -7   12.50    5.90
  -3   3  -7   10.40    4.80
   3  -3   7    8.70    6.10
   3  -3   7    3.20    4.10
  -4   3  -7    2.70    5.40
  -4   3  -7    2.60    4.80
   4  -3   7    1.80    4.30
   4  -3   7   -0.60    5.70
   6   2  -7   88.49   13.40
   6   2  -7   99.59    9.70
   6   2  -7   70.19   11.40
  -6  -2   7  104.39   14.50
  -6  -2   7  101.09   14.10
  -6  -2   7  113.39   12.90
   5   2  -7   14.60    8.00
   5   2  -7   11.90    4.20
   5   2  -7    7.40    5.30
  -5  -2   7   10.70    5.60
  -5  -2   7   10.90    5.40
  -5  -2   7    2.10    5.00
   4   2  -7  921.21   33.30
   4   2  -7  955.50   27.90
  -4  -2   7  917.91   33.30
  -4  -2   7  873.41   31.00
  -4  -2   7  951.30   32.40
   3   2  -7   98.89    8.30
   3   2  -7   84.99   13.70
   3   2  -7   80.69    9.10
   3   2  -7  116.49   17.40
  -3  -2   7   74.99   10.50
  -3  -2   7   85.89    9.70
  -3  -2   7  102.49   11.00
   2   2  -7    2.60    3.50
   2   2  -7    2.60    3.50
   2   2  -7    3.30    2.80
  -2  -2   7    0.70    3.70
  -2  -2   7   -3.20    2.80
   1   2  -7    1.30    3.30
   1   2  -7   -1.90    2.90
   1   2  -7    1.10    4.10
  -1  -2   7    2.80    3.70
  -1  -2   7    3.90    4.00
   0   2  -7  221.58   15.20
   0   2  -7  209.28   13.70
   0   2  -7  199.28    9.70
   0   2  -7  216.98   14.30
   0  -2   7  211.58   13.60
   0  -2   7  190.68   13.20
   0  -2   7  218.08   14.70
  -1   2  -7    9.60    5.30
  -1   2  -7    7.00    5.30
  -1   2  -7    7.20    2.90
  -1   2  -7    6.50    4.30
   1  -2   7    3.00    3.50
   1  -2   7    3.30    4.00
   1  -2   7    7.10    3.80
  -2   2  -7  119.19   11.10
  -2   2  -7  135.29   12.40
  -2   2  -7  138.49   12.00
   2  -2   7  135.19   11.00
   2  -2   7  122.69   11.40
   2  -2   7  147.39   12.90
  -3   2  -7   23.90    6.20
  -3   2  -7   14.50    6.20
  -3   2  -7    5.60    4.50
   3  -2   7    8.20    5.70
   3  -2   7   20.80    6.60
  -4   2  -7   76.49   11.80
  -4   2  -7   76.69   12.80
  -4   2  -7   70.39   11.30
   4  -2   7   68.79   11.10
   4  -2   7   75.79   13.20
  -5   2  -7   17.30    7.10
  -5   2  -7   15.80    6.20
   5  -2   7   20.60    7.10
   5  -2   7    6.80    6.80
   6   1  -7    8.50    5.30
   6   1  -7    4.20    3.40
   6   1  -7    5.30    6.00
  -6  -1   7    1.40    5.50
  -6  -1   7    6.90    5.30
  -6  -1   7    0.70    4.70
   5   1  -7   12.20    3.80
   5   1  -7   12.90    5.90
   5   1  -7    7.70    5.40
  -5  -1   7   17.10    6.50
  -5  -1   7   11.40    5.40
  -5  -1   7    4.30    6.90
   4   1  -7   12.30    7.50
   4   1  -7   12.90    5.70
   4   1  -7    7.10    3.20
  -4  -1   7   11.40    5.80
  -4  -1   7   10.00    5.20
  -4  -1   7   12.20    4.90
   3   1  -7  348.57   17.20
   3   1  -7  338.67   18.00
   3   1  -7  351.66   14.90
  -3  -1   7  341.27   17.70
  -3  -1   7  317.27   16.90
  -3  -1   7  344.17   18.20
   2   1  -7   33.40    7.70
   2   1  -7   35.70    6.00
   2   1  -7   33.30    6.50
  -2  -1   7   25.50    6.50
  -2  -1   7   27.00    7.10
  -2  -1   7   27.50    7.10
   1   1  -7  568.94   22.70
   1   1  -7  603.54   20.90
   1   1  -7  577.24   22.70
  -1  -1   7  547.95   21.80
  -1  -1   7  575.14   22.80
  -1  -1   7  589.84   23.10
   0   1  -7   47.10    9.00
   0   1  -7   43.70    8.70
   0   1  -7   46.90    6.00
   0   1  -7   28.00    6.00
   0  -1   7   35.60    8.10
   0  -1   7   36.30    7.60
   0  -1   7   37.30    7.30
  -1   1  -7  185.68    9.00
  -1   1  -7  189.48   12.70
  -1   1  -7  191.48   12.70
  -1   1  -7  189.78   13.50
   1  -1   7  182.78   12.90
   1  -1   7  168.28   12.10
   1  -1   7  194.88   12.80
  -2   1  -7  171.08    8.20
  -2   1  -7  172.48   13.30
  -2   1  -7  163.38   12.20
  -2   1  -7  177.58   12.70
   2  -1   7  182.08   14.80
   2  -1   7  189.98   12.50
   2  -1   7  185.88   12.70
  -3   1  -7   14.80    5.30
  -3   1  -7   16.60    5.90
  -3   1  -7    3.10    3.20
   3  -1   7   15.90    5.40
   3  -1   7    9.60    5.50
   3  -1   7   14.00    5.10
  -4   1  -7   53.39    9.00
  -4   1  -7   49.10    9.80
  -4   1  -7   46.70    8.90
   4  -1   7   50.99    9.40
   4  -1   7   61.19   10.90
  -5   1  -7    2.70    4.80
  -5   1  -7   -2.00    3.90
  -5   1  -7    7.00    5.20
   5  -1   7    6.30    6.20
   5  -1   7    9.80    5.00
  -6   1  -7  102.39   17.60
  -6   1  -7  111.49   11.20
  -6   1  -7   85.29   13.40
   6  -1   7  117.29   16.30
   6  -1   7  109.29   15.10
   6   0  -7  223.98   16.50
   6   0  -7  197.58   15.00
   6   0  -7  195.58   12.70
  -6   0   7  226.88   14.70
  -6   0   7  188.38   14.10
  -6   0   7  179.28   15.00
   5   0  -7   72.69   11.10
   5   0  -7   73.19    7.30
   5   0  -7   61.29    9.60
  -5   0   7   62.09   10.50
  -5   0   7   53.99    9.10
  -5   0   7   78.59   11.80
   4   0  -7  242.28   12.90
   4   0  -7  239.58   15.00
   4   0  -7  247.68   14.30
  -4   0   7  235.48   14.30
  -4   0   7  246.78   15.70
  -4   0   7  264.07   15.40
   3   0  -7   87.79    9.50
   3   0  -7   68.89    8.30
   3   0  -7   78.29    7.40
  -3   0   7   70.09   10.20
  -3   0   7   87.39    9.20
  -3   0   7   76.89   11.90
   2   0  -7   95.89    9.30
   2   0  -7   83.39    7.30
   2   0  -7   88.79    8.80
   2   0  -7   87.39    9.40
  -2   0   7   88.49    8.40
  -2   0   7   98.09    9.50
  -2   0   7   82.89    9.30
   1   0  -7   82.99    8.20
   1   0  -7   88.79    8.90
   1   0  -7   86.99    7.30
   1   0  -7   89.79    8.70
  -1   0   7   79.79    8.40
  -1   0   7   91.19    9.30
  -1   0   7   91.39    8.40
   0   0  -7   25.60    4.30
   0   0  -7   26.10    5.90
   0   0   7   34.00    6.90
  -1   0  -7   25.90    6.40
  -1   0  -7   23.50    4.30
   1   0   7   33.00    7.40
  -2   0  -7   18.60    5.70
  -2   0  -7   35.30    7.70
  -2   0  -7   25.90    4.00
  -2   0  -7   22.40    6.50
   2   0   7   19.60    5.50
   2   0   7   21.40    6.50
   2   0   7   25.30    6.40
  -3   0  -7   21.70    6.40
  -3   0  -7   12.20    5.30
   3   0   7    9.30    4.30
   3   0   7   16.30    5.30
   3   0   7   17.80    3.60
   3   0   7   18.50    5.80
  -4   0  -7  218.78   14.70
  -4   0  -7  236.28   14.60
   4   0   7  218.88   13.60
   4   0   7  237.58   15.30
  -5   0  -7   86.79   13.10
  -5   0  -7   79.79    9.40
   5   0   7  100.09   10.70
   5   0   7   79.49    9.30
  -6   0  -7   -3.10    3.80
  -6   0  -7   -5.90    3.50
  -6   0  -7    3.80    4.30
   6   0   7    9.60    6.60
   6   0   7    8.00    4.80
  -7   0  -7  167.58   13.90
  -7   0  -7  159.28   13.70
  -7   0  -7  142.39   14.30
   7   0   7  147.19   13.70
   6  -1  -7   42.60    8.50
   6  -1  -7   34.80    6.70
   6  -1  -7   62.29   14.00
  -6   1   7   46.70    9.70
  -6   1   7   37.30    7.70
  -6   1   7   47.50    9.10
   5  -1  -7  104.69   10.20
   5  -1  -7  127.69    9.60
   5  -1  -7  122.99   11.30
  -5   1   7  139.49   12.20
  -5   1   7  111.79   10.40
  -5   1   7  153.68   12.10
   4  -1  -7    0.60    3.10
   4  -1  -7    4.20    4.20
  -4   1   7    0.80    4.10
  -4   1   7   -3.30    3.70
  -4   1   7    4.10    3.60
   3  -1  -7   64.29    9.40
   3  -1  -7   56.29    7.30
   3  -1  -7   65.39    7.00
  -3   1   7   95.49   13.50
  -3   1   7   56.39    8.40
  -3   1   7   51.79    8.30
   2  -1  -7  338.87   14.20
   2  -1  -7  347.17   15.80
   2  -1  -7  339.87   15.20
  -2   1   7  342.27   15.20
  -2   1   7  345.67   15.70
  -2   1   7  335.87   17.30
   1  -1  -7  100.79    7.90
   1  -1  -7   94.29    8.50
   1  -1  -7   95.79    7.80
  -1   1   7   97.39    8.70
  -1   1   7  110.39   12.10
  -1   1   7  100.29    8.30
   0  -1  -7  665.93   23.30
   0  -1  -7  662.73   19.70
   0  -1  -7  662.23   22.40
   0  -1  -7  686.63   22.10
   0   1   7  653.93   23.60
   0   1   7  670.43   22.60
   0   1   7  651.93   21.50
  -1  -1  -7    2.10    2.80
  -1  -1  -7    6.40    4.50
  -1  -1  -7    5.50    2.80
  -1  -1  -7    4.40    3.30
   1   1   7    5.90    3.70
   1   1   7    4.10    3.00
   1   1   7    2.70    3.60
   1   1   7    7.30    2.70
  -2  -1  -7    0.20    2.50
  -2  -1  -7   -0.10    3.10
  -2  -1  -7    5.00    2.70
   2   1   7    0.20    2.70
   2   1   7    0.30    1.90
   2   1   7    2.50    3.00
   2   1   7   -0.50    3.30
  -3  -1  -7 1103.09   33.10
   3   1   7 1154.38   33.70
   3   1   7 1128.79   26.10
   3   1   7 1188.58   45.40
  -4  -1  -7   60.99    9.50
  -4  -1  -7   57.59    9.70
  -4  -1  -7   70.49    8.10
   4   1   7   65.09    7.70
   4   1   7   73.59   11.60
   4   1   7   51.39    4.80
   4   1   7   59.29    7.00
  -5  -1  -7   16.40    5.60
  -5  -1  -7   20.80    6.70
   5   1   7   23.10    7.10
   5   1   7   25.10    6.20
  -6  -1  -7  143.39   12.10
  -6  -1  -7  171.68   13.40
  -6  -1  -7  182.78   14.00
   6   1   7  158.58   12.70
   6   1   7  158.08   13.50
  -7  -1  -7   21.90    5.80
  -7  -1  -7   25.70    7.30
  -7  -1  -7   29.00    9.20
   7   1   7   15.40    6.80
   7   1   7   23.60    6.80
  -8  -1  -7   77.89   13.70
  -8  -1  -7   75.49   12.50
  -8  -1  -7   91.59   16.80
   8   1   7   64.59   12.20
   8   1   7   63.09   14.80
   6  -2  -7   11.00    4.00
   6  -2  -7   14.00    6.60
  -6   2   7    5.10    5.20
  -6   2   7    9.60    5.00
  -6   2   7    6.30    4.60
   5  -2  -7   50.29    7.50
   5  -2  -7   75.29   10.70
   5  -2  -7   49.10    8.20
  -5   2   7   51.59    8.30
  -5   2   7   42.40    7.20
  -5   2   7   42.50    8.30
   4  -2  -7   64.39    7.10
   4  -2  -7   58.39    8.60
  -4   2   7   48.80    9.10
  -4   2   7   60.19    8.40
  -4   2   7   67.99    9.60
   3  -2  -7   -0.10    2.70
   3  -2  -7    4.50    2.80
  -3   2   7    1.20    3.20
  -3   2   7    5.70    3.00
  -3   2   7    0.80    3.70
   2  -2  -7  231.68   11.70
   2  -2  -7  239.18   14.90
  -2   2   7  227.38   14.40
   1  -2  -7  452.45   16.20
  -1   2   7  473.95   16.50
  -1   2   7  386.16   18.40
   0  -2  -7  111.69    8.10
   0  -2  -7  114.29    9.40
   0  -2  -7  116.49    7.80
   0  -2  -7  121.99    8.60
   0   2   7  127.79    8.60
   0   2   7  120.09   10.20
   0   2   7  134.49    7.90
   0   2   7  111.09    8.60
  -1  -2  -7  225.08   11.20
  -1  -2  -7  208.18   10.30
  -1  -2  -7  219.08   11.50
  -1  -2  -7  225.98   12.60
   1   2   7  224.18   11.40
   1   2   7  221.48   11.90
   1   2   7  226.28   10.30
   1   2   7  215.28   12.80
  -2  -2  -7   17.80    5.60
  -2  -2  -7   26.60    5.80
  -2  -2  -7   20.00    5.00
   2   2   7   18.60    5.20
   2   2   7   23.10    5.40
   2   2   7   21.80    4.10
   2   2   7   18.00    4.90
  -3  -2  -7   63.59    6.80
  -3  -2  -7   61.39    8.80
  -3  -2  -7   65.69    9.50
   3   2   7   65.29    5.50
   3   2   7   66.09    9.40
   3   2   7   59.69    6.90
   3   2   7   73.19    7.30
  -4  -2  -7   51.49    8.70
  -4  -2  -7   75.09   13.70
  -4  -2  -7   56.79   10.00
   4   2   7   52.59    5.20
   4   2   7   67.29   10.00
   4   2   7   67.49    9.30
  -5  -2  -7    1.10    3.60
  -5  -2  -7    5.70    4.20
   5   2   7    6.00    3.90
   5   2   7    1.30    2.40
   5   2   7    4.70    4.80
  -6  -2  -7   74.19   10.80
  -6  -2  -7   83.79   11.70
   6   2   7   74.19    8.80
   6   2   7   77.19   12.90
   6   2   7   65.69    5.80
  -7  -2  -7    1.70    4.20
  -7  -2  -7    4.60    4.70
  -7  -2  -7    4.70    5.00
   7   2   7   17.00    6.50
   7   2   7   -1.40    3.80
  -8  -2  -7    8.70    6.40
  -8  -2  -7   13.00    7.30
  -8  -2  -7   21.30    6.50
   8   2   7    5.80    5.30
   8   2   7   19.60    7.50
   5  -3  -7   31.30    6.30
   5  -3  -7   54.49    8.50
   5  -3  -7   40.50    6.80
  -5   3   7   40.60    8.00
  -5   3   7   49.00    7.60
  -5   3   7   41.00    7.10
   4  -3  -7  361.26   17.10
   4  -3  -7  324.57   15.30
   4  -3  -7  307.17   13.90
  -4   3   7  324.17   14.10
  -4   3   7  310.97   18.10
  -4   3   7  332.47   14.00
   3  -3  -7   82.09    6.90
   3  -3  -7   73.19    7.40
   3  -3  -7   83.89    7.00
  -3   3   7   74.59    6.90
  -3   3   7   84.89    7.30
  -3   3   7   92.49    9.90
   2  -3  -7   59.89    6.00
   2  -3  -7   59.59    6.50
   2  -3  -7   60.79    6.10
  -2   3   7   64.49    6.20
  -2   3   7   67.39   10.30
  -2   3   7   57.09    6.10
   1  -3  -7  129.59    8.90
   1  -3  -7  131.69    8.00
  -1   3   7  132.49    8.30
  -1   3   7  137.89    8.20
  -1   3   7  135.49    8.60
   0  -3  -7    3.90    3.20
   0  -3  -7    3.30    3.10
   0  -3  -7    2.10    2.50
   0  -3  -7    3.60    3.10
   0   3   7    7.40    2.60
   0   3   7    7.60    3.00
   0   3   7   15.40    4.10
   0   3   7   10.00    4.80
  -1  -3  -7   35.00    6.80
  -1  -3  -7   33.70    5.20
  -1  -3  -7   27.80    5.20
   1   3   7   34.60    5.80
   1   3   7   28.00    5.00
   1   3   7   32.30    5.40
   1   3   7   25.60    5.70
  -2  -3  -7  674.73   20.70
  -2  -3  -7  636.54   19.80
  -2  -3  -7  676.13   22.60
   2   3   7  612.14   20.50
   2   3   7  662.03   22.50
   2   3   7  655.83   19.80
   2   3   7  662.13   19.30
  -3  -3  -7   30.90    6.10
  -3  -3  -7   29.10    5.70
  -3  -3  -7   32.30    6.50
   3   3   7   28.60    4.70
   3   3   7   30.10    5.90
   3   3   7   22.10    5.40
   3   3   7   28.10    5.80
  -4  -3  -7    6.00    3.30
  -4  -3  -7    4.10    4.20
   4   3   7   -4.90    2.60
   4   3   7    0.40    2.20
   4   3   7    3.30    2.90
  -5  -3  -7  233.38   13.80
   5   3   7  204.78   10.10
   5   3   7  230.48   13.30
   5   3   7  219.98   13.90
  -6  -3  -7   85.89    8.90
  -6  -3  -7  100.59   10.20
   6   3   7   87.29    9.20
   6   3   7   92.29    6.90
   6   3   7   94.59   10.30
  -7  -3  -7    1.40    4.80
  -7  -3  -7    4.10    4.10
   7   3   7   11.20    5.20
   7   3   7    9.90    5.70
   7   3   7    8.50    3.30
  -8  -3  -7  118.09   11.30
  -8  -3  -7  104.99   11.40
   8   3   7  103.59   11.10
   8   3   7   99.79    7.90
   8   3   7  117.49   12.30
  -9  -3  -7  113.39   16.00
  -9  -3  -7  110.59   15.60
   9   3   7  104.09   11.20
   5  -4  -7   38.40    8.00
  -5   4   7   31.60    8.30
   4  -4  -7  318.47   15.60
  -4   4   7  367.26   19.60
   3  -4  -7  266.47   13.60
  -3   4   7  250.07   15.60
   2  -4  -7   -1.30    2.90
  -2   4   7    3.90    3.10
  -2   4   7    5.40    3.70
   1  -4  -7   26.80    5.50
  -1   4   7   19.80    5.70
  -1   4   7   13.50    3.80
   0  -4  -7  363.86   15.70
   0   4   7  370.66   16.80
   0   4   7  376.66   15.10
   0   4   7  369.36   12.60
   0   4   7  362.96   11.90
  -1  -4  -7  178.28    8.50
  -1  -4  -7  174.28   10.70
  -1  -4  -7  197.28    8.90
   1   4   7  192.48   11.90
   1   4   7  198.98   10.10
   1   4   7  184.78    8.50
   1   4   7  192.78    9.30
  -2  -4  -7  597.54   18.00
  -2  -4  -7  601.94   17.70
  -2  -4  -7  607.64   20.80
   2   4   7  615.34   20.90
   2   4   7  589.54   18.70
   2   4   7  586.24   18.60
   2   4   7  593.54   17.60
  -3  -4  -7  236.08   12.80
  -3  -4  -7  243.08   13.70
  -3  -4  -7  226.78   10.90
   3   4   7  253.97   11.30
   3   4   7  236.18   12.50
   3   4   7  236.68   11.30
  -4  -4  -7  109.29    8.20
  -4  -4  -7  102.29    8.70
  -4  -4  -7   95.49    8.70
   4   4   7  111.59    7.60
   4   4   7   96.19    8.10
   4   4   7  101.89    8.20
   4   4   7  123.79    9.30
  -5  -4  -7  327.37   15.70
  -5  -4  -7  271.67   14.60
  -5  -4  -7  297.77   14.40
   5   4   7  320.87   15.10
   5   4   7  318.17   14.30
   5   4   7  335.57   16.30
   5   4   7  299.27   13.00
  -6  -4  -7   56.69    9.60
  -6  -4  -7   63.09   12.90
   6   4   7   57.09    9.00
   6   4   7   63.09    9.70
   6   4   7   55.09    6.10
  -7  -4  -7   17.50    5.90
  -7  -4  -7   39.00    8.60
   7   4   7   31.90    8.30
   7   4   7   66.49   16.20
   7   4   7   28.90    5.60
  -8  -4  -7   45.00    8.80
  -8  -4  -7   75.29   11.60
  -8  -4  -7   64.69   11.60
   8   4   7   55.89    9.40
   8   4   7   75.19   12.40
  -9  -4  -7   11.00    5.50
  -9  -4  -7   -5.70    6.30
  -9  -4  -7    0.20    4.90
   9   4   7   -1.00    4.60
   9   4   7    3.70    6.70
   4  -5  -7   33.70    6.30
   3  -5  -7  773.82   25.20
  -3   5   7  767.42   28.70
   2  -5  -7   38.60    6.80
  -2   5   7   36.20    7.60
  -2   5   7   36.70    6.00
  -1   5   7  541.85   18.70
  -1   5   7  520.75   21.60
   0   5   7   48.20    6.70
   0   5   7   62.29    9.10
  -1  -5  -7    8.70    3.60
   1   5   7    4.90    3.00
   1   5   7    8.10    3.60
  -2  -5  -7   83.79    7.80
   2   5   7   90.59    8.00
   2   5   7   98.69    6.20
   2   5   7   93.69    6.80
   2   5   7  103.29    8.50
  -3  -5  -7   35.00    5.50
  -3  -5  -7   38.40    6.30
  -3  -5  -7   46.00    6.20
   3   5   7   42.20    6.40
   3   5   7   42.40    6.90
   3   5   7   35.60    5.30
  -4  -5  -7   44.60    7.60
  -4  -5  -7   42.70    6.50
   4   5   7   33.00    7.40
   4   5   7   45.60    6.80
   4   5   7   38.70    6.60
   4   5   7   38.40    6.30
  -5  -5  -7  129.69    9.70
  -5  -5  -7  106.09    8.30
  -5  -5  -7   89.19    8.20
   5   5   7   87.49    8.70
   5   5   7  100.69    7.80
   5   5   7   97.89    8.30
   5   5   7   99.39    7.70
  -6  -5  -7   11.30    4.30
  -6  -5  -7    8.50    4.80
   6   5   7   17.30    6.10
   6   5   7   13.60    4.90
  -7  -5  -7   40.20    7.30
  -7  -5  -7   27.50    7.10
   7   5   7   45.90    9.60
   7   5   7   37.80    8.20
  -8  -5  -7  176.68   13.20
   8   5   7  184.08   13.50
   8   5   7  195.18   15.10
  -9  -5  -7   32.10    8.50
  -9  -5  -7    0.00    6.30
  -9  -5  -7    6.10    6.40
   9   5   7   16.40    9.00
   9   5   7   12.70    5.20
  -3   6   7   52.39    9.10
  -2   6   7   94.89    9.80
  -2   6   7   87.69    7.60
  -1   6   7   22.10    6.30
  -1   6   7   15.90    3.90
   0   6   7  242.18   13.50
   0   6   7  209.38   11.40
   1   6   7  271.17   13.40
   1   6   7  285.77   13.00
  -2  -6  -7  309.37   13.20
   2   6   7  289.37   14.10
   2   6   7  302.27   13.80
  -3  -6  -7  136.39    9.10
   3   6   7  127.79    8.70
   3   6   7  127.69    7.20
  -4  -6  -7    6.40    3.00
  -4  -6  -7    6.90    3.80
  -4  -6  -7    5.60    3.20
   4   6   7    7.20    2.90
   4   6   7    2.20    3.50
   4   6   7    8.70    3.60
  -5  -6  -7  364.86   15.00
  -5  -6  -7  360.56   15.30
  -5  -6  -7  327.47   14.30
   5   6   7  364.26   16.30
   5   6   7  362.56   14.20
   5   6   7  357.86   15.80
   5   6   7  371.86   15.40
  -6  -6  -7   -0.50    3.60
  -6  -6  -7   13.10    4.60
   6   6   7    5.60    4.10
   6   6   7    3.80    3.90
  -7  -6  -7  143.59   10.40
  -7  -6  -7  144.39   10.70
  -7  -6  -7  138.29   11.70
   7   6   7  127.59   10.90
   7   6   7  135.39   11.90
  -8  -6  -7   88.79    9.70
  -8  -6  -7  108.99    9.70
  -8  -6  -7   69.09   10.90
   8   6   7   96.89   10.40
  -9  -6  -7   17.50    7.50
  -9  -6  -7   13.00    6.40
  -9  -6  -7   15.20    7.40
   9   6   7   31.40    9.80
   9   6   7   20.40    6.70
  -2   7   7    9.40    4.50
  -2   7   7   14.40    4.60
  -1   7   7  123.19   11.00
  -1   7   7  120.59    8.90
   0   7   7   12.80    5.30
   1   7   7  130.79    9.10
   1   7   7  128.89    9.50
   2   7   7  226.78   12.30
   2   7   7  236.08   12.10
   3   7   7   15.90    4.20
   3   7   7   12.10    4.50
  -4  -7  -7  110.19    9.00
  -4  -7  -7  138.19    8.50
  -4  -7  -7  135.09    7.40
   4   7   7  131.19    8.30
   4   7   7  135.49    8.20
   4   7   7  129.59    7.70
  -5  -7  -7    5.60    3.10
  -5  -7  -7    0.30    3.00
  -5  -7  -7   -2.50    2.90
   5   7   7    5.90    3.20
   5   7   7    1.40    3.30
  -6  -7  -7   -0.10    3.50
  -6  -7  -7   -0.60    3.10
   6   7   7    1.40    3.10
   6   7   7    0.20    4.00
  -7  -7  -7    7.90    4.70
  -7  -7  -7   14.20    4.90
  -7  -7  -7   12.50    4.50
   7   7   7   13.80    5.80
   7   7   7    5.70    3.90
  -8  -7  -7   20.80    6.10
  -8  -7  -7   19.70    6.70
  -8  -7  -7   17.30    5.50
   8   7   7   26.30    7.80
   8   7   7   23.00    8.00
  -9  -7  -7    4.40    6.70
  -9  -7  -7   15.50    5.30
  -9  -7  -7   10.50    6.30
   9   7   7   11.50    6.20
   9   7   7   20.50    8.00
  -1   8   7  207.48   12.00
  -1   8   7  195.58   13.30
   0   8   7   12.40    3.90
   0   8   7    6.50    4.50
   1   8   7   36.50    6.50
   1   8   7   56.09    6.50
   2   8   7   -0.30    2.40
   2   8   7    0.60    3.00
   3   8   7    8.90    3.40
   3   8   7    1.10    3.00
   4   8   7  120.59    9.90
   4   8   7  127.09    7.30
  -5  -8  -7    0.60    2.90
  -5  -8  -7    1.60    2.20
   5   8   7    7.60    3.40
   5   8   7    2.30    2.60
   5   8   7    1.00    2.80
  -6  -8  -7  138.39    9.60
   6   8   7  162.88   10.50
   6   8   7  138.39   10.60
  -7  -8  -7  126.39    8.40
  -7  -8  -7  117.89   10.30
  -7  -8  -7  149.59   10.70
   7   8   7  122.79   11.10
   7   8   7  142.19   10.70
  -8  -8  -7   73.79    7.40
  -8  -8  -7   86.39   10.10
   8   8   7   97.69   10.80
   8   8   7   71.99   10.70
   1   9   7   12.60    4.20
   1   9   7   25.30    5.40
   2   9   7  322.17   13.50
   2   9   7  317.27   15.30
   3   9   7    4.70    3.40
   4   9   7   93.99    8.90
   5   9   7   37.10    7.00
  -6  -9  -7   11.80    4.10
   6   9   7   10.60    4.20
   6   9   7    5.30    4.90
  -7  -9  -7    7.30    4.90
  -7  -9  -7    1.00    4.20
   7   9   7    0.50    4.00
   7   9   7    7.10    5.20
   3  10   7   21.50    6.40
   4  10   7    7.20    4.60
   5  10   7    2.00    3.80
   2   4  -8   51.59   10.10
   2   4  -8   69.99   10.60
   2   4  -8   61.49    7.90
  -2  -4   8   54.49   10.60
  -2  -4   8   89.59    9.50
  -2  -4   8   94.89   15.60
   1   4  -8    3.30    5.30
   1   4  -8    3.70    9.00
   1   4  -8    2.90    3.40
   1   4  -8    7.10    5.20
  -1  -4   8   12.10    7.00
  -1  -4   8    3.60    5.10
  -1  -4   8    4.20    4.10
   0   4  -8   61.09    6.40
   0   4  -8   76.29   12.20
   0   4  -8   71.89   13.00
   0   4  -8   54.49   10.30
   0  -4   8   57.99    9.80
   0  -4   8   77.89   13.10
   0  -4   8   95.39   16.70
   4   3  -8   -2.00    5.40
   4   3  -8    2.30    3.00
  -4  -3   8   10.70    5.70
  -4  -3   8    4.90    5.50
   3   3  -8   12.30    4.10
   3   3  -8   19.60    7.20
   3   3  -8    9.30    6.40
   3   3  -8   11.00    5.20
  -3  -3   8    8.50    4.10
  -3  -3   8    2.70    5.90
  -3  -3   8    3.30    6.30
   2   3  -8   94.79   10.10
   2   3  -8   86.19   14.20
   2   3  -8   84.79   13.80
   2   3  -8   87.99    8.00
  -2  -3   8   91.89   14.10
  -2  -3   8   87.69   13.50
  -2  -3   8   97.69   10.60
   1   3  -8    1.50    4.30
   1   3  -8   10.70    6.00
   1   3  -8   12.60    3.90
   1   3  -8    2.90    5.50
  -1  -3   8    7.80    4.40
  -1  -3   8    3.30    4.60
  -1  -3   8    3.00    4.70
   0   3  -8   37.40    5.90
   0   3  -8   22.20    7.00
   0   3  -8   31.30    8.10
   0   3  -8   23.80    7.90
   0  -3   8   22.80    8.20
   0  -3   8   15.80    5.80
   0  -3   8   30.70    9.20
  -1   3  -8   57.49   11.40
  -1   3  -8   51.29    9.30
  -1   3  -8   53.09    6.40
  -1   3  -8   49.30    9.80
   1  -3   8   54.29   10.60
   1  -3   8   48.10    8.40
   1  -3   8   40.00    8.30
  -2   3  -8  161.58   14.30
  -2   3  -8  176.38   15.60
  -2   3  -8  169.48   15.00
   2  -3   8  162.38   14.00
   2  -3   8  179.88   17.70
   2  -3   8  172.98   13.20
  -3   3  -8   11.40    7.20
  -3   3  -8   12.40    7.50
   3  -3   8   16.00    7.80
   3  -3   8    0.90    5.30
   4   2  -8   15.90    7.00
   4   2  -8    7.10    6.60
   4   2  -8   14.00    5.80
  -4  -2   8    8.90    5.80
  -4  -2   8    5.10    5.50
  -4  -2   8   31.10   10.50
   3   2  -8   24.70    7.00
   3   2  -8   50.29   10.30
   3   2  -8   40.00    8.00
   3   2  -8   39.40    6.90
  -3  -2   8   47.80    9.10
  -3  -2   8   49.80   10.50
  -3  -2   8   27.30    6.70
   2   2  -8   30.10    7.10
   2   2  -8   19.50    4.80
   2   2  -8   24.40    7.60
   2   2  -8   22.30    8.00
  -2  -2   8   40.70    8.20
  -2  -2   8   19.60    6.00
  -2  -2   8   21.80    6.50
   1   2  -8   97.29   11.50
   1   2  -8   81.59    7.50
   1   2  -8   88.79   10.60
   1   2  -8   89.59   10.10
  -1  -2   8   65.39   10.10
  -1  -2   8   96.89   11.30
  -1  -2   8   95.09   10.30
   0   2  -8   82.59   12.20
   0   2  -8   64.89    6.50
   0   2  -8   69.99   12.40
   0   2  -8   72.39   11.80
   0  -2   8   80.09   13.20
   0  -2   8   57.79    9.50
   0  -2   8   60.19   10.20
  -1   2  -8    4.70    4.00
  -1   2  -8   -2.50    3.70
  -1   2  -8    2.00    2.60
  -1   2  -8    3.70    4.90
   1  -2   8    3.70    3.90
   1  -2   8    5.20    4.70
   1  -2   8    7.60    4.20
  -2   2  -8  177.78   14.20
  -2   2  -8  205.08   15.00
  -2   2  -8  161.18   14.10
   2  -2   8  183.88   13.10
   2  -2   8  169.98   14.40
   2  -2   8  142.09   12.60
  -3   2  -8    7.40    5.90
  -3   2  -8   15.00    6.20
  -3   2  -8   26.90    6.80
   3  -2   8    5.90    5.50
   3  -2   8   11.30    6.50
  -4   2  -8   45.80   12.70
  -4   2  -8   62.89   11.80
  -4   2  -8   72.19   13.40
   4  -2   8   57.49   11.30
   5   1  -8    6.80    5.30
   5   1  -8   -6.60    5.80
   5   1  -8    2.10    3.50
  -5  -1   8    2.40    4.50
  -5  -1   8   -1.00    5.60
  -5  -1   8    6.10    5.30
   4   1  -8    2.50    5.90
   4   1  -8   -2.60    3.00
   4   1  -8    5.00    4.50
  -4  -1   8    2.50    4.30
  -4  -1   8    2.90    4.70
   3   1  -8    5.90    3.20
   3   1  -8   10.30    7.20
   3   1  -8    4.30    3.90
   3   1  -8    0.50    4.20
  -3  -1   8    4.00    4.70
  -3  -1   8    1.00    4.60
   2   1  -8  211.58   14.10
   2   1  -8  198.78   14.70
   2   1  -8  216.28   11.90
  -2  -1   8  199.48   16.10
  -2  -1   8  222.58   14.70
  -2  -1   8  208.58   14.40
   1   1  -8   28.90    6.40
   1   1  -8   27.80    7.00
   1   1  -8   22.50    4.90
  -1  -1   8   34.30    8.40
  -1  -1   8   19.20    6.90
  -1  -1   8   13.70    5.50
   0   1  -8   14.60    6.00
   0   1  -8    5.80    3.00
   0   1  -8    1.60    3.90
   0  -1   8   12.20    5.40
   0  -1   8   10.70    4.10
  -1   1  -8   14.30    4.90
  -1   1  -8    5.90    4.80
  -1   1  -8   11.90    3.50
  -1   1  -8   10.40    5.60
   1  -1   8   10.90    4.50
   1  -1   8    8.00    5.00
   1  -1   8   13.20    5.50
  -2   1  -8   32.50    7.20
  -2   1  -8   28.20    5.00
  -2   1  -8   40.90    8.20
  -2   1  -8   34.70    8.50
   2  -1   8   28.80    7.30
   2  -1   8   40.20    9.40
   2  -1   8   25.00    5.70
  -3   1  -8  301.37   17.80
  -3   1  -8  324.27   18.80
  -3   1  -8  295.27   18.20
   3  -1   8  296.57   18.50
   3  -1   8  317.77   17.90
   3  -1   8  316.47   17.20
  -4   1  -8  188.58   14.80
  -4   1  -8  150.68   13.90
  -4   1  -8  150.48   13.00
   4  -1   8  158.58   14.30
   4  -1   8  145.29   12.70
  -5   1  -8    9.80    5.60
  -5   1  -8    1.50    5.80
  -5   1  -8    8.40    5.30
   5  -1   8    8.90    6.60
   5  -1   8   15.00    6.30
   5   0  -8   17.80    5.10
   5   0  -8   23.00    6.80
   5   0  -8   18.70    7.40
  -5   0   8   23.10    6.40
  -5   0   8   19.80    6.80
  -5   0   8   21.20    6.70
   4   0  -8    4.00    4.90
   4   0  -8   12.00    3.90
   4   0  -8    8.50    4.90
  -4   0   8   14.00    5.60
  -4   0   8   16.30    6.20
  -4   0   8    8.20    5.00
   3   0  -8   28.10    6.90
   3   0  -8   45.70    9.30
   3   0  -8   35.40    6.40
  -3   0   8   46.80    8.60
  -3   0   8   41.40    8.80
  -3   0   8   20.40    6.10
   2   0  -8  134.49   11.20
   2   0  -8  135.29   11.50
   2   0  -8  141.09    9.90
   2   0  -8  127.99   11.70
  -2   0   8  134.09   12.20
  -2   0   8  117.59   10.60
  -2   0   8  132.49   11.80
   1   0  -8  143.59   11.70
   1   0  -8  138.39    9.30
   1   0  -8  146.59   11.80
  -1   0   8  144.49   11.50
  -1   0   8  158.98   12.10
  -1   0   8  138.29   11.80
   0   0  -8   30.60    7.40
   0   0  -8   35.40    7.70
   0   0  -8   26.20    4.90
   0   0   8   26.80    6.80
   0   0   8   31.10    7.80
   0   0   8   39.50    8.20
  -1   0  -8  787.52   28.50
  -1   0  -8  875.91   23.60
   1   0   8  776.52   27.10
   1   0   8  771.22   28.20
   1   0   8  844.02   28.50
  -2   0  -8   84.29   11.80
  -2   0  -8   74.19    6.40
   2   0   8   69.69    9.80
   2   0   8   85.79    9.90
   2   0   8   73.39    8.70
  -3   0  -8    1.20    4.30
  -3   0  -8    4.20    3.90
   3   0   8   10.30    5.30
   3   0   8   -1.30    3.10
   3   0   8    1.80    3.70
  -4   0  -8  147.19   12.40
  -4   0  -8  132.79   12.60
   4   0   8  168.68   14.00
   4   0   8  173.48   13.10
   4   0   8  157.68   12.10
  -5   0  -8   -2.80    3.60
  -5   0  -8    6.10    5.20
  -5   0  -8    1.30    3.60
   5   0   8    9.30    4.70
   5   0   8    4.50    5.60
  -6   0  -8    5.60    4.70
  -6   0  -8   -4.80    4.80
  -6   0  -8    4.50    4.90
   6   0   8    1.40    4.70
   6   0   8   12.00    6.80
   5  -1  -8   22.80   10.90
   5  -1  -8   13.10    4.60
   5  -1  -8   10.90    5.70
  -5   1   8   25.00    7.30
  -5   1   8   16.40    6.20
  -5   1   8   12.50    6.40
   4  -1  -8  271.37   14.20
   4  -1  -8  252.07   14.90
   4  -1  -8  248.08   15.30
  -4   1   8  224.88   14.40
  -4   1   8  287.77   17.60
  -4   1   8  275.27   15.60
   3  -1  -8  102.99    9.60
   3  -1  -8   69.49    7.30
   3  -1  -8   84.39    8.50
  -3   1   8  100.59    9.80
  -3   1   8   85.39    8.90
  -3   1   8   86.79   10.00
   2  -1  -8   -1.10    3.70
   2  -1  -8    2.60    3.30
  -2   1   8    4.10    4.00
  -2   1   8    1.30    5.50
  -2   1   8    1.10    4.10
   1  -1  -8  133.19   10.70
   1  -1  -8  126.89    9.10
  -1   1   8  134.29   10.90
  -1   1   8  140.19   12.30
  -1   1   8  145.99   10.40
   0  -1  -8  151.18    9.40
   0  -1  -8  157.48   11.40
   0  -1  -8  148.09   10.30
   0   1   8  137.69   10.20
   0   1   8  151.18   11.20
   0   1   8  135.99   11.80
  -1  -1  -8    3.10    3.70
  -1  -1  -8    3.50    4.30
   1   1   8    8.00    4.80
   1   1   8    6.00    4.10
   1   1   8    2.20    3.60
  -2  -1  -8   17.90    6.30
   2   1   8    9.70    4.80
   2   1   8   18.50    6.30
   2   1   8    5.00    2.80
   2   1   8   17.20    5.50
  -3  -1  -8    4.10    4.50
   3   1   8    0.80    3.30
   3   1   8    6.00    4.20
   3   1   8    0.80    3.20
   3   1   8    4.50    2.20
  -4  -1  -8   47.10    8.50
   4   1   8   40.70    7.90
   4   1   8   41.30    7.40
   4   1   8   43.40    5.70
  -5  -1  -8   14.90    5.80
  -5  -1  -8   25.00    7.80
  -5  -1  -8   14.40    5.70
   5   1   8   19.40    6.90
   5   1   8   14.90    5.50
  -6  -1  -8   96.69   14.60
  -6  -1  -8   79.69   13.00
  -6  -1  -8   86.69   14.10
   6   1   8   66.49   11.60
   6   1   8   61.09   11.50
  -7  -1  -8  188.28   15.10
  -7  -1  -8  167.28   15.10
  -7  -1  -8  203.78   15.80
   7   1   8  163.18   15.60
   7   1   8  154.48   15.40
   5  -2  -8   25.80    6.80
   5  -2  -8   41.30   11.20
   5  -2  -8   17.40    5.70
  -5   2   8   29.90    7.00
  -5   2   8   18.80    7.10
   4  -2  -8   46.50    7.90
   4  -2  -8   38.00    6.80
   4  -2  -8   34.30    7.00
  -4   2   8   36.60    6.70
  -4   2   8   39.00    7.70
  -4   2   8   27.90    7.70
   3  -2  -8    3.60    6.20
   3  -2  -8    2.00    2.80
   3  -2  -8    4.50    4.20
  -3   2   8   10.60    4.70
  -3   2   8    2.60    3.60
  -3   2   8   11.90    4.60
   2  -2  -8   18.70    4.90
   2  -2  -8   45.00    7.80
  -2   2   8   30.30    7.80
  -2   2   8   35.20    6.90
  -2   2   8   31.70    6.70
   1  -2  -8   10.20    4.20
   1  -2  -8    5.20    3.40
   1  -2  -8    5.70    3.20
  -1   2   8    9.90    4.30
  -1   2   8    7.40    4.60
  -1   2   8    6.20    5.40
   0  -2  -8  108.09    9.00
   0  -2  -8  110.59    8.30
   0  -2  -8   98.19    8.00
   0   2   8   92.19    9.70
   0   2   8  111.79    9.50
   0   2   8  103.59    8.70
   0   2   8  106.09    7.80
  -1  -2  -8   91.09    9.10
  -1  -2  -8   91.49    8.70
  -1  -2  -8   85.99    7.20
  -1  -2  -8   92.49    8.20
   1   2   8   92.69    8.60
   1   2   8   83.89    7.00
   1   2   8   86.49    7.90
   1   2   8   83.99    8.80
  -2  -2  -8   13.40    5.20
  -2  -2  -8    8.40    4.40
  -2  -2  -8    5.20    3.50
   2   2   8    8.90    4.90
   2   2   8   12.30    5.00
   2   2   8   13.50    3.90
   2   2   8   11.90    4.40
  -3  -2  -8  301.97   16.30
  -3  -2  -8  277.77   15.50
   3   2   8  288.87   15.00
   3   2   8  285.37   15.90
   3   2   8  312.77   16.10
   3   2   8  307.67   12.30
  -4  -2  -8   35.40    7.80
   4   2   8   55.09    6.70
   4   2   8   58.19    8.90
   4   2   8   67.19   10.80
   4   2   8   63.59    9.60
  -5  -2  -8  133.19   12.80
  -5  -2  -8  129.09   13.70
   5   2   8  138.19    8.10
   5   2   8  133.69   11.00
  -6  -2  -8   81.29   13.20
  -6  -2  -8   77.79   12.00
  -6  -2  -8   79.99   12.40
   6   2   8  109.49   16.10
   6   2   8   80.99   11.60
   6   2   8   69.79    6.10
  -7  -2  -8   99.39   11.80
  -7  -2  -8  122.79   13.10
  -7  -2  -8  132.09   12.70
   7   2   8  130.19   18.10
   7   2   8  115.29   11.90
   4  -3  -8   15.90    4.90
   4  -3  -8   13.70    5.00
   4  -3  -8   19.10    5.40
  -4   3   8   10.00    4.10
  -4   3   8   22.10   10.10
  -4   3   8   24.00    5.80
   3  -3  -8   58.49    7.70
   3  -3  -8   68.29    7.40
  -3   3   8   54.79    7.70
  -3   3   8   64.99    7.40
  -3   3   8   75.99   11.10
   2  -3  -8  147.39    9.30
   2  -3  -8  135.39    9.20
   2  -3  -8  151.88   10.10
  -2   3   8  129.59    9.00
  -2   3   8  171.08   10.10
  -2   3   8  142.99   12.70
   1  -3  -8    5.00    3.40
   1  -3  -8    7.30    3.70
   1  -3  -8    0.10    2.20
  -1   3   8    7.60    3.70
  -1   3   8   -1.90    3.30
  -1   3   8   14.40    5.40
   0  -3  -8  251.87   18.70
   0  -3  -8  288.37   12.90
   0  -3  -8  283.17   13.50
   0  -3  -8  274.47   14.80
   0   3   8  276.37   13.40
   0   3   8  302.97   16.40
   0   3   8  286.67   14.80
  -1  -3  -8   24.50    5.80
  -1  -3  -8   26.50    6.20
   1   3   8   28.20    5.60
   1   3   8   24.10    4.90
   1   3   8   22.80    5.60
  -2  -3  -8  103.29    8.70
  -2  -3  -8   98.59    8.80
  -2  -3  -8  101.19    9.20
   2   3   8   94.09    8.40
   2   3   8  103.69    8.30
   2   3   8  108.99    9.40
   2   3   8   86.89    9.30
  -3  -3  -8  394.06   16.60
  -3  -3  -8  390.76   18.00
  -3  -3  -8  381.76   16.90
   3   3   8  420.76   18.40
   3   3   8  373.66   16.20
   3   3   8  399.46   17.60
   3   3   8  372.76   16.10
  -4  -3  -8    5.00    3.40
  -4  -3  -8   -1.10    2.70
  -4  -3  -8    2.60    2.80
   4   3   8    2.30    2.30
   4   3   8    4.00    3.30
   4   3   8    4.80    4.10
   4   3   8    1.40    3.10
  -5  -3  -8   15.70    6.30
   5   3   8   17.60    5.70
   5   3   8    7.00    4.30
   5   3   8   13.40    5.30
   5   3   8   14.30    3.80
  -6  -3  -8   29.70    7.70
   6   3   8   31.00    6.50
   6   3   8   25.40    6.50
   6   3   8   47.50   10.30
  -7  -3  -8   41.90    9.40
  -7  -3  -8   39.70    9.00
  -7  -3  -8   50.59   10.70
   7   3   8   59.09    8.60
   7   3   8   45.60    9.40
   7   3   8   44.60    9.80
  -8  -3  -8  504.75   24.30
  -8  -3  -8  356.76   30.10
   8   3   8  474.65   23.60
   8   3   8  507.85   17.00
   8   3   8  514.55   26.30
   4  -4  -8   51.49    7.70
  -4   4   8   46.40    6.80
  -4   4   8   46.00    8.70
   3  -4  -8   12.10    4.30
  -3   4   8   13.60    6.20
   2  -4  -8    3.30    3.20
  -2   4   8    0.80    3.50
  -2   4   8    4.70    3.30
   1  -4  -8   40.70    6.60
  -1   4   8   48.90    8.50
  -1   4   8   60.29    5.80
  -1   4   8   55.09    7.70
  -1   4   8   53.39    5.80
   0  -4  -8   28.10    5.60
   0  -4  -8   19.50    4.30
   0  -4  -8   22.00    4.50
   0  -4  -8   11.90    4.80
   0   4   8   23.10    6.00
   0   4   8   29.40    5.50
   0   4   8   20.10    4.30
  -1  -4  -8   30.90    5.20
  -1  -4  -8   30.60    6.70
  -1  -4  -8   24.50    4.30
   1   4   8   26.90    4.70
   1   4   8   33.80    6.10
   1   4   8   35.90    7.70
  -2  -4  -8  302.77   12.70
  -2  -4  -8  272.47   12.30
   2   4   8  266.87   12.40
   2   4   8  281.57   13.50
   2   4   8  277.67   14.10
  -3  -4  -8  130.79    9.00
  -3  -4  -8  123.89    9.20
  -3  -4  -8  146.39   13.50
   3   4   8  123.29    8.20
   3   4   8  136.09    9.90
   3   4   8  129.69    8.90
  -4  -4  -8    5.40    3.70
  -4  -4  -8   20.20    5.70
  -4  -4  -8   17.00    4.80
   4   4   8   14.80    3.50
   4   4   8   11.90    4.00
   4   4   8   21.00    6.00
   4   4   8   17.70    5.40
  -5  -4  -8  177.38   12.40
  -5  -4  -8  175.78   12.70
   5   4   8  193.68   12.00
   5   4   8  182.58   13.00
   5   4   8  191.28   10.30
   5   4   8  167.18   11.70
  -6  -4  -8  372.86   18.70
   6   4   8  381.86   15.10
   6   4   8  384.16   19.70
   6   4   8  356.76   18.00
  -7  -4  -8    4.20    4.30
  -7  -4  -8   -5.10    3.40
  -7  -4  -8    1.00    5.40
   7   4   8    6.70    4.40
   7   4   8    2.40    2.90
   7   4   8    5.80    5.20
  -8  -4  -8  320.27   18.90
  -8  -4  -8  325.47   19.10
   8   4   8  294.47   18.00
   8   4   8  335.07   20.40
   3  -5  -8  125.19   10.30
  -3   5   8  136.19   13.00
   2  -5  -8    3.80    3.30
  -2   5   8    3.30    2.70
  -2   5   8   -0.60    3.50
  -1   5   8  144.19    9.90
  -1   5   8  143.09   12.00
   0   5   8  184.58   12.90
   0   5   8  173.48   10.40
  -1  -5  -8   92.69    8.80
   1   5   8   99.89    9.50
   1   5   8   94.89    6.70
   1   5   8   90.69    6.30
  -2  -5  -8    5.00    2.70
  -2  -5  -8   -2.00    2.80
  -2  -5  -8   -0.10    1.90
   2   5   8    0.60    2.60
   2   5   8   -1.00    2.50
   2   5   8    0.60    2.40
  -3  -5  -8  328.57   15.40
  -3  -5  -8  315.17   14.70
  -3  -5  -8  319.27   13.50
   3   5   8  330.37   14.20
   3   5   8  317.97   15.10
   3   5   8  336.07   14.30
  -4  -5  -8  122.49    9.80
  -4  -5  -8  115.29    9.10
  -4  -5  -8  109.49    8.40
   4   5   8  119.49    9.30
   4   5   8  114.79    8.30
   4   5   8  111.09    9.50
   4   5   8  133.59    9.70
  -5  -5  -8  283.67   14.70
   5   5   8  269.57   14.10
   5   5   8  279.67   14.80
   5   5   8  266.87   16.50
   5   5   8  277.27   17.90
  -6  -5  -8   13.50    5.50
  -6  -5  -8    7.20    5.10
  -6  -5  -8   16.00    5.20
   6   5   8    9.80    5.30
   6   5   8   16.60    6.60
  -7  -5  -8   18.40    5.50
  -7  -5  -8   16.80    6.80
   7   5   8   20.00    5.40
   7   5   8   12.40    4.60
   7   5   8   25.60    7.80
  -8  -5  -8    4.50    4.10
  -8  -5  -8   -6.70    3.60
  -8  -5  -8   -3.10    5.20
   8   5   8   -6.60    5.00
   8   5   8    5.70    4.00
   8   5   8    2.00    3.20
  -2   6   8   36.40    8.20
  -2   6   8    5.60    3.50
  -1   6   8  189.58   11.60
  -1   6   8  207.78   14.20
   0   6   8    8.30    3.90
   0   6   8    7.80    4.50
   1   6   8  104.29    8.70
   1   6   8  103.89    9.30
  -2  -6  -8  155.68   10.50
   2   6   8  148.99   10.50
  -3  -6  -8   30.00    6.00
   3   6   8   25.10    4.60
   3   6   8   29.30    5.40
   3   6   8   34.60    6.40
  -4  -6  -8   25.90    6.00
  -4  -6  -8   22.50    5.70
  -4  -6  -8   24.40    5.10
   4   6   8   35.20    5.80
   4   6   8   24.50    5.40
   4   6   8   34.00    6.20
  -5  -6  -8    7.00    4.10
  -5  -6  -8   11.10    4.40
   5   6   8    1.20    2.70
   5   6   8    9.40    5.10
   5   6   8    4.70    3.40
   5   6   8    9.30    4.40
  -6  -6  -8  184.28   11.70
  -6  -6  -8  190.88   12.40
   6   6   8  181.28   12.00
   6   6   8  169.18   11.20
   6   6   8  184.28   12.80
  -7  -6  -8   83.89    9.00
  -7  -6  -8   51.89    8.70
  -7  -6  -8   68.69   10.70
   7   6   8   78.89    8.80
   7   6   8   82.09   12.20
   7   6   8   65.79    9.20
  -8  -6  -8   -2.90    4.20
  -8  -6  -8    4.80    5.00
  -8  -6  -8    7.70    8.30
   8   6   8   -0.40    3.10
   8   6   8    6.90    4.10
   8   6   8   13.40    5.80
  -1   7   8   16.50    4.70
  -1   7   8   11.30    5.00
   0   7   8    2.10    3.30
   0   7   8    7.70    4.40
   1   7   8  150.58   10.30
   1   7   8  132.29   10.50
   2   7   8  304.47   14.70
   2   7   8  327.47   15.40
  -3  -7  -8   82.19    7.80
   3   7   8  103.09    8.40
  -4  -7  -8   58.99    8.10
  -4  -7  -8   43.70    6.40
   4   7   8   42.60    6.50
   4   7   8   48.40    6.60
   4   7   8   48.40    6.90
  -5  -7  -8  210.38   11.70
  -5  -7  -8  212.48   11.90
   5   7   8  209.18   11.60
   5   7   8  226.18   13.00
   5   7   8  226.18   11.40
   5   7   8  224.38   12.80
  -6  -7  -8   73.89    7.80
  -6  -7  -8   76.39    8.40
  -6  -7  -8   96.79    8.80
   6   7   8   81.39    9.00
   6   7   8   78.59    9.80
   6   7   8   81.69    8.40
  -7  -7  -8   57.19   12.20
  -7  -7  -8   55.19    9.20
   7   7   8   51.09    7.90
   7   7   8   43.00    8.20
   7   7   8   63.39   10.60
  -8  -7  -8   93.09   10.50
  -8  -7  -8   85.39    9.40
   8   7   8   96.99   13.70
   8   7   8   95.39   10.30
   0   8   8   25.90    7.40
   0   8   8   27.30    6.40
   1   8   8   14.20    4.70
   1   8   8   17.10    4.70
   2   8   8   59.79    8.40
   2   8   8   69.49    7.30
   3   8   8  112.59    8.60
   3   8   8  104.99    9.30
   4   8   8   49.00    5.80
   4   8   8   68.49    9.40
  -5  -8  -8  139.99    9.20
   5   8   8  138.09   10.80
   5   8   8  124.19    9.40
   5   8   8  117.89    8.60
   5   8   8  129.49    8.20
  -6  -8  -8  109.09    9.00
  -6  -8  -8   90.49    9.00
  -6  -8  -8  132.69    9.10
   6   8   8  112.29   10.50
   6   8   8  116.29   10.40
   6   8   8  107.89    9.50
  -7  -8  -8    5.20    4.50
  -7  -8  -8    1.60    4.50
  -7  -8  -8    6.20    4.20
   7   8   8    5.70    4.30
   7   8   8    6.30    5.00
   2   9   8   29.80    6.10
   2   9   8   21.30    5.40
   3   9   8   14.90    3.90
   3   9   8   13.60    4.60
   4   9   8   12.50    5.20
   4   9   8    9.00    3.10
   5   9   8   36.60    7.50
  -6  -9  -8  149.88    9.90
   6   9   8  140.79   11.80
   6   9   8  132.79   10.30
   6   9   8  162.18   10.50
   2   2  -9   36.00    9.20
   2   2  -9   21.60    7.60
   2   2  -9   22.30    5.60
   2   2  -9   34.40    8.70
  -2  -2   9   36.30    9.00
  -2  -2   9   44.80   10.20
  -2  -2   9   34.60    9.00
   1   2  -9   47.60   10.60
   1   2  -9    7.00   10.50
   1   2  -9   48.50    7.20
   1   2  -9   41.20    9.00
  -1  -2   9   61.49   10.20
  -1  -2   9   59.39   11.30
   0   2  -9   82.39   13.80
   0   2  -9   54.09    7.20
   0   2  -9   56.49   10.70
   0   2  -9   97.49   24.20
   0  -2   9   48.80   10.40
   0  -2   9   76.29   12.00
   0  -2   9   69.29   17.50
  -1   2  -9   94.09   14.80
  -1   2  -9  102.69   16.10
  -1   2  -9   86.99    7.60
  -1   2  -9   86.89   17.60
   1  -2   9   80.49   14.20
   1  -2   9  102.59   15.90
   1  -2   9   71.49   13.30
  -2   2  -9  477.45   24.00
  -2   2  -9  409.66   23.30
  -2   2  -9  436.36   23.40
   2  -2   9  410.16   21.00
   2  -2   9  440.46   24.30
   2  -2   9  425.16   22.70
   3   1  -9  426.96   18.50
   3   1  -9  464.45   22.60
   3   1  -9  411.66   23.10
  -3  -1   9  404.86   22.30
  -3  -1   9  439.26   22.80
  -3  -1   9  403.66   21.60
   2   1  -9    9.20    3.80
   2   1  -9    8.90    5.30
   2   1  -9    4.40    6.10
   2   1  -9    1.10    6.20
  -2  -1   9   -0.30    5.20
  -2  -1   9    8.90    5.40
  -2  -1   9   13.40    9.10
   1   1  -9  205.98   11.70
   1   1  -9  199.38   15.40
   1   1  -9  195.08   15.50
   1   1  -9  203.58   15.20
  -1  -1   9  226.08   16.00
  -1  -1   9  214.78   15.00
  -1  -1   9  224.78   15.90
   0   1  -9    8.50    4.60
   0   1  -9    4.40    3.40
   0   1  -9    3.70    3.90
   0   1  -9   12.10    6.60
   0  -1   9    4.30    5.40
   0  -1   9    5.20    4.00
   0  -1   9    8.60    4.80
  -1   1  -9    1.70    3.00
  -1   1  -9   -3.10    4.90
  -1   1  -9    6.60    5.20
  -1   1  -9   15.00    6.60
   1  -1   9    6.10    5.10
   1  -1   9   10.30    4.70
   1  -1   9    1.60    3.60
  -2   1  -9    8.90    5.00
  -2   1  -9   14.10    6.70
  -2   1  -9    5.50    3.90
   2  -1   9   11.30    6.60
   2  -1   9    9.80    4.80
   2  -1   9   10.30    4.80
  -3   1  -9  108.09   12.90
  -3   1  -9  168.58   23.70
   3  -1   9  114.39   18.50
   3  -1   9  136.49   21.80
   3  -1   9  134.39   14.30
  -4   1  -9   18.60    7.10
  -4   1  -9   27.10    8.50
  -4   1  -9   24.20    7.20
   4  -1   9   33.30   10.30
   4  -1   9   28.10    9.00
   4   0  -9    0.30    3.60
   4   0  -9   11.30    6.60
   4   0  -9   -0.50    5.90
  -4   0   9    3.70    5.60
  -4   0   9   16.80    8.30
  -4   0   9    7.90    5.10
   3   0  -9  217.38   13.60
   3   0  -9  225.78   16.10
  -3   0   9  216.18   15.90
  -3   0   9  205.58   15.60
  -3   0   9  251.17   18.50
   2   0  -9   31.80    8.10
   2   0  -9   31.00    8.30
   2   0  -9   17.40    4.70
   2   0  -9   36.70    7.50
  -2   0   9   23.90    6.80
  -2   0   9   19.60    6.30
  -2   0   9   33.90    8.60
   1   0  -9  165.08   13.60
   1   0  -9  131.69   11.80
   1   0  -9  170.78   10.70
   1   0  -9  167.88   14.20
  -1   0   9  156.98   12.30
  -1   0   9  164.08   13.60
  -1   0   9  149.19   12.70
   0   0  -9   65.19   10.60
   0   0  -9   76.29    7.40
   0   0  -9   56.09    9.00
   0   0  -9   87.39   12.50
   0   0   9   63.19   10.20
   0   0   9   72.29   12.90
   0   0   9   68.29   10.00
  -1   0  -9   26.50    7.10
  -1   0  -9   46.40   10.30
  -1   0  -9   40.80    8.70
  -1   0  -9   28.90    5.70
   1   0   9   33.70    8.00
   1   0   9   40.70    8.30
   1   0   9   68.39   12.10
  -2   0  -9  204.88   14.70
  -2   0  -9  250.47   16.70
  -2   0  -9  237.78   16.50
   2   0   9  237.88   14.90
   2   0   9  242.08   15.30
   2   0   9  257.47   16.80
  -3   0  -9   27.80    7.90
  -3   0  -9   43.50   10.10
  -3   0  -9   16.60    6.50
   3   0   9   20.30    7.90
   3   0   9   19.10    6.00
   3   0   9   22.10    6.30
  -4   0  -9   39.50   12.30
  -4   0  -9   17.90    6.80
  -4   0  -9   27.70    7.40
   4   0   9   15.80    6.20
   4   0   9   41.00   10.90
   4   0   9   17.10    7.60
  -5   0  -9  104.79   16.20
  -5   0  -9   67.69   12.80
  -5   0  -9  100.09   14.20
   5   0   9   86.49   13.50
   5   0   9  101.19   16.80
   4  -1  -9    9.50    4.40
   4  -1  -9   -2.70    5.50
   4  -1  -9    0.70    5.30
  -4   1   9   16.10    5.60
  -4   1   9    7.80    5.20
  -4   1   9   -2.00    4.70
   3  -1  -9    0.60    5.30
   3  -1  -9    8.10    4.80
   3  -1  -9    7.90    4.80
  -3   1   9    8.70    5.20
  -3   1   9    4.80    5.50
  -3   1   9    3.10    5.90
   2  -1  -9  163.38   11.30
   2  -1  -9  168.68   12.90
   2  -1  -9  184.98   12.70
   2  -1  -9  170.48   13.50
  -2   1   9  174.38   13.00
  -2   1   9  177.88   12.30
  -2   1   9  185.48   14.50
   1  -1  -9   86.89    8.90
   1  -1  -9   99.29   10.50
   1  -1  -9   88.09    7.90
   1  -1  -9   90.29    9.90
  -1   1   9   84.49    8.80
  -1   1   9   85.79   10.30
  -1   1   9   80.59    9.70
   0  -1  -9   52.39    7.60
   0  -1  -9   68.09    7.80
   0   1   9   54.69    9.10
   0   1   9   46.80    8.90
   0   1   9   62.59   10.10
  -1  -1  -9   51.19    7.00
  -1  -1  -9   47.30    9.30
  -1  -1  -9   75.19    8.90
   1   1   9   63.09   11.20
   1   1   9   59.09    9.50
   1   1   9   60.69    9.60
  -2  -1  -9   15.80    6.50
   2   1   9   23.70    7.80
   2   1   9   38.40    7.70
   2   1   9   31.80    7.90
  -3  -1  -9   78.99   17.10
  -3  -1  -9   91.89   14.60
  -3  -1  -9   61.19   13.90
   3   1   9   78.69    8.90
   3   1   9   71.79    6.30
   3   1   9   70.49    9.90
   3   1   9  102.99   14.80
  -4  -1  -9   72.19   11.80
  -4  -1  -9   80.69   12.10
  -4  -1  -9   64.49   11.00
   4   1   9   63.49    9.30
   4   1   9   52.29    5.70
   4   1   9   54.59    8.90
   4   1   9   88.89   14.40
  -5  -1  -9   56.29   11.10
  -5  -1  -9   54.99   10.50
  -5  -1  -9   68.19   14.30
   5   1   9   41.80    9.80
   5   1   9   62.49   10.30
   5   1   9   52.29    6.50
  -6  -1  -9   17.70    6.90
  -6  -1  -9   19.10    6.20
  -6  -1  -9   15.40    6.40
   6   1   9   23.00    7.90
   6   1   9   14.40    6.40
   4  -2  -9  121.39   11.70
   4  -2  -9   95.79    9.50
  -4   2   9  127.19   10.90
  -4   2   9   75.59   11.90
  -4   2   9   88.59   12.30
   3  -2  -9   15.60    5.00
   3  -2  -9   29.40    7.50
   3  -2  -9   25.00    6.60
  -3   2   9   20.00    7.40
  -3   2   9   13.80    5.30
  -3   2   9   22.20    6.60
   2  -2  -9   21.00    4.90
   2  -2  -9   20.50    6.20
  -2   2   9   17.90    5.80
  -2   2   9   20.20    5.40
  -2   2   9   20.90    7.40
   1  -2  -9  165.08   11.80
   1  -2  -9  179.38   12.10
   1  -2  -9  194.98   14.80
   1  -2  -9  162.88   10.80
  -1   2   9  189.58   14.50
  -1   2   9  173.08   12.40
  -1   2   9  177.88   11.90
   0  -2  -9   65.59   10.50
   0  -2  -9   71.49    8.50
   0  -2  -9   71.29    7.60
   0   2   9   62.19   10.80
   0   2   9   79.69    8.80
   0   2   9   83.39    8.60
  -1  -2  -9   70.69    7.20
  -1  -2  -9   62.29   11.20
  -1  -2  -9   55.69    9.10
   1   2   9   61.79   10.40
   1   2   9   59.99    9.30
   1   2   9   62.29    9.30
  -2  -2  -9    7.70    4.20
  -2  -2  -9   15.50    4.60
  -2  -2  -9   18.00    6.40
   2   2   9   11.70    5.20
   2   2   9    9.00    4.90
   2   2   9   13.80    4.20
   2   2   9   16.20    5.40
  -3  -2  -9    8.20    4.10
  -3  -2  -9   21.80    6.80
   3   2   9   25.00    6.30
   3   2   9   17.30    5.70
   3   2   9   38.30    8.40
   3   2   9   20.50    4.90
  -4  -2  -9  195.58   14.10
  -4  -2  -9  197.38   14.50
   4   2   9  174.88   13.30
   4   2   9  185.48   15.60
   4   2   9  184.98    9.80
   4   2   9  173.98   12.90
  -5  -2  -9   60.79   11.30
  -5  -2  -9   73.69   12.00
  -5  -2  -9   55.69   10.30
   5   2   9   65.99    6.10
   5   2   9   54.89   11.10
   5   2   9   73.49    8.80
   5   2   9   81.89    9.20
  -6  -2  -9   37.80   10.00
  -6  -2  -9   32.80   10.50
   6   2   9   49.10   11.70
  -7  -2  -9   84.69   13.70
  -7  -2  -9   89.09   14.20
  -7  -2  -9  103.89   16.50
   7   2   9   74.79   11.70
   7   2   9   98.99   16.90
   3  -3  -9   29.10    7.00
   3  -3  -9   15.60    4.70
   3  -3  -9   18.00    5.00
  -3   3   9   13.60    6.00
  -3   3   9   23.40    5.80
  -3   3   9   16.00    6.40
   2  -3  -9   11.00    4.40
   2  -3  -9   -1.70    2.70
   2  -3  -9    5.10    3.10
  -2   3   9   13.70    5.40
  -2   3   9    5.40    3.90
  -2   3   9   10.70    5.30
   1  -3  -9   30.40    5.90
   1  -3  -9   25.50    6.30
  -1   3   9   50.39    8.00
  -1   3   9   38.30    6.40
  -1   3   9   40.20    8.50
   0  -3  -9  104.99   10.60
   0  -3  -9   94.39    8.30
   0  -3  -9   94.89    8.40
   0   3   9  104.09   11.30
   0   3   9   98.39    8.20
   0   3   9   92.39    8.10
   0   3   9   94.29    9.00
  -1  -3  -9  164.48   11.20
   1   3   9  199.48   14.10
   1   3   9  180.58   11.30
   1   3   9  163.58   11.60
  -2  -3  -9   57.69    8.90
   2   3   9   51.29    8.00
   2   3   9   63.89    9.40
   2   3   9   60.59    9.40
  -3  -3  -9   92.29   16.70
  -3  -3  -9   78.89    8.80
   3   3   9   78.69    9.00
   3   3   9   83.69    7.30
   3   3   9   75.99    8.50
   3   3   9  112.19   10.10
  -4  -3  -9  283.47   16.80
  -4  -3  -9  265.47   15.70
  -4  -3  -9  278.17   15.30
   4   3   9  257.67   15.90
   4   3   9  277.37   15.30
   4   3   9  259.57   15.40
   4   3   9  260.47   12.50
  -5  -3  -9   42.40    8.40
  -5  -3  -9   66.39   10.70
  -5  -3  -9   60.79   10.70
   5   3   9   38.40    8.30
   5   3   9   54.39   10.40
   5   3   9   32.40    5.50
   5   3   9   36.70    7.30
  -6  -3  -9   17.10    6.40
  -6  -3  -9   22.90    6.30
  -6  -3  -9   24.60    8.00
   6   3   9   24.00    5.40
   6   3   9   23.70    6.60
   6   3   9   29.20    8.30
  -7  -3  -9   35.70    9.00
  -7  -3  -9   20.00    7.90
  -7  -3  -9   18.20    8.60
   7   3   9   16.20    6.30
   7   3   9   25.10    9.00
   7   3   9   34.00    6.00
   3  -4  -9   27.00    5.80
  -3   4   9   25.00    7.30
  -3   4   9   24.10    5.00
   2  -4  -9   55.89    9.10
  -2   4   9   63.59    6.70
  -2   4   9   51.69   10.00
  -2   4   9   60.29    8.20
   1  -4  -9   78.69    6.90
   1  -4  -9   96.59    7.50
   1  -4  -9   95.09    8.70
  -1   4   9   72.39    9.10
  -1   4   9   90.89    7.50
  -1   4   9   89.59    7.70
  -1   4   9   83.99    9.90
   0  -4  -9  266.27   12.60
   0  -4  -9  279.67   16.20
   0  -4  -9  273.77   12.60
   0   4   9  274.37   13.30
   0   4   9  292.97   12.90
   0   4   9  275.47   17.00
  -1  -4  -9   16.60    4.80
  -1  -4  -9   14.30    4.70
   1   4   9   19.00    4.70
   1   4   9   20.20    6.30
   1   4   9   18.40    5.80
   1   4   9   12.30    4.20
  -2  -4  -9  402.96   16.90
  -2  -4  -9  379.06   16.10
   2   4   9  399.66   17.00
   2   4   9  397.16   16.10
   2   4   9  399.16   19.30
  -3  -4  -9   82.79    8.30
   3   4   9   86.99    9.20
   3   4   9   96.69   10.20
   3   4   9   74.99    7.90
  -4  -4  -9    4.40    3.90
  -4  -4  -9   -0.60    3.40
   4   4   9    7.90    4.20
   4   4   9    1.00    2.90
   4   4   9   -1.80    3.50
  -5  -4  -9   11.00    5.20
  -5  -4  -9    5.60    4.30
  -5  -4  -9   -3.00    3.10
   5   4   9    9.50    4.10
   5   4   9   -6.50    3.50
   5   4   9    2.40    3.50
  -6  -4  -9   73.89   11.90
  -6  -4  -9   64.19   10.80
  -6  -4  -9   67.89   11.60
   6   4   9   61.19   13.40
   6   4   9   71.29   10.40
  -7  -4  -9    2.20    5.10
  -7  -4  -9    3.90    5.00
  -7  -4  -9   12.40    6.30
   7   4   9    7.00    4.10
   7   4   9   15.60    7.20
   7   4   9    8.60    5.00
   2  -5  -9   23.10    5.40
  -2   5   9   16.40    6.70
  -1   5   9   38.70    8.10
  -1   5   9   50.79    8.00
   0   5   9   72.69   11.00
   0   5   9   86.59    8.20
   1   5   9   33.80    5.40
   1   5   9   40.80    6.40
   1   5   9   23.50    5.60
  -2  -5  -9   16.00    4.40
  -2  -5  -9   12.80    3.80
   2   5   9   21.70    5.90
   2   5   9   12.80    4.30
   2   5   9   19.90    4.30
   2   5   9   24.20    4.70
  -3  -5  -9  389.86   17.80
  -3  -5  -9  359.76   15.40
  -3  -5  -9  371.56   19.00
   3   5   9  357.16   17.50
   3   5   9  369.16   15.30
   3   5   9  385.06   16.00
  -4  -5  -9   22.90    6.40
  -4  -5  -9   29.30    8.10
   4   5   9   16.40    4.30
   4   5   9   26.90    5.90
   4   5   9   24.70    6.80
   4   5   9   26.20    5.40
  -5  -5  -9  123.69   10.50
  -5  -5  -9  128.69   10.20
   5   5   9  130.59   10.70
   5   5   9  139.39   10.50
   5   5   9  161.58   11.90
   5   5   9  142.09    9.70
  -6  -5  -9    7.20    5.80
  -6  -5  -9    3.00    4.50
  -6  -5  -9    3.50    4.60
   6   5   9    6.40    3.40
   6   5   9   14.80    5.40
   6   5   9    6.80    3.50
  -7  -5  -9   44.30    9.00
  -7  -5  -9   60.39   10.30
   7   5   9   43.10   10.10
   7   5   9   38.00    8.00
   7   5   9   29.70    5.80
  -1   6   9   63.49   10.20
  -1   6   9   69.89   10.30
   0   6   9  271.67   14.40
   0   6   9  270.77   16.70
   1   6   9  113.99    9.20
   1   6   9   98.29    9.90
  -2  -6  -9   32.20    6.80
   2   6   9   30.00    6.90
   2   6   9   30.40    6.30
  -3  -6  -9   79.99   11.20
  -3  -6  -9   63.39    5.80
   3   6   9   75.39    7.60
   3   6   9   68.69    7.50
   3   6   9   75.69    9.30
   3   6   9   76.39    6.50
  -4  -6  -9   17.80    5.20
  -4  -6  -9    1.80    4.20
   4   6   9   13.20    4.40
   4   6   9    5.60    3.20
   4   6   9   12.50    6.20
   4   6   9    9.00    3.80
  -5  -6  -9   81.29   11.00
  -5  -6  -9   65.19    7.40
  -5  -6  -9   53.19    7.50
   5   6   9   80.29   10.70
   5   6   9   66.59    9.00
   5   6   9   68.69    7.80
   5   6   9   74.09    9.90
  -6  -6  -9   -2.20    3.50
  -6  -6  -9   -4.00    4.40
   6   6   9    7.80    3.80
   6   6   9    4.20    3.80
   6   6   9    8.00    4.80
  -7  -6  -9   42.50    7.90
  -7  -6  -9   22.00    7.00
  -7  -6  -9   26.90    7.00
   7   6   9   29.50    5.90
   7   6   9   30.00    6.80
   7   6   9   27.30    7.30
   0   7   9   72.69    9.50
   0   7   9   42.40    8.00
   1   7   9   12.90    4.90
   1   7   9   14.80    5.60
   2   7   9   13.90    4.60
   2   7   9    4.80    3.60
  -3  -7  -9    4.80    4.00
   3   7   9    3.60    3.20
   3   7   9    6.70    3.90
  -4  -7  -9   66.99    6.10
  -4  -7  -9   67.59    8.10
   4   7   9   75.99    7.00
   4   7   9   77.29    8.00
   4   7   9   73.39    7.80
   4   7   9   83.79    8.40
  -5  -7  -9   42.20    7.00
  -5  -7  -9   52.19    8.40
  -5  -7  -9   33.90    6.10
   5   7   9   34.60    7.00
   5   7   9   48.80    8.10
   5   7   9   42.00    6.90
  -6  -7  -9   81.99    9.20
  -6  -7  -9   85.29    9.40
  -6  -7  -9   55.49    8.40
   6   7   9   93.19    9.30
   6   7   9  106.89    9.50
   6   7   9  103.69   10.30
  -7  -7  -9    2.90    5.10
  -7  -7  -9    8.80    4.70
   7   7   9    2.70    3.40
   7   7   9   -0.20    4.20
   7   7   9    5.00    5.90
   1   8   9   45.40    8.70
   1   8   9   48.70    8.20
   2   8   9    2.10    3.80
   2   8   9    2.30    3.60
   3   8   9    8.60    3.90
   3   8   9   18.00    5.10
  -4  -8  -9  220.98   16.60
   4   8   9  211.58   13.60
   4   8   9  180.98   13.40
  -5  -8  -9   13.60    6.70
  -5  -8  -9    5.50    3.50
   5   8   9   15.40    4.20
   5   8   9   15.10    5.40
   5   8   9   13.20    4.50
  -6  -8  -9   57.89    8.60
  -6  -8  -9   30.60    6.50
   6   8   9   50.89    7.40
   6   8   9   59.29    9.40
   6   8   9   62.59    9.40
   4   9   9    5.10    3.20
   4   9   9   -4.50    3.20
   0   1 -10   37.10    9.10
   0   1 -10   43.80   11.00
   0   1 -10   38.70    9.40
   0   1 -10   37.80    6.80
   0  -1  10   28.40    8.80
   0  -1  10   35.00    8.10
   0  -1  10   40.50    8.90
  -1   1 -10   12.90    5.90
  -1   1 -10   30.70    9.60
  -1   1 -10   17.90    7.70
  -1   1 -10   23.00    5.50
   1  -1  10   12.00    5.90
   1  -1  10   25.40    9.90
   1  -1  10    0.60    4.00
   1   0 -10  327.37   19.80
   1   0 -10  317.47   18.10
   1   0 -10  288.97   18.70
  -1   0  10  261.47   17.70
  -1   0  10  270.07   17.10
   0   0 -10   18.50    7.30
   0   0 -10   14.30    6.20
   0   0 -10   30.80    6.00
   0   0 -10   28.90    8.30
   0   0  10   34.10    9.60
   0   0  10   19.60    6.20
   0   0  10   19.30    5.80
  -1   0 -10   93.09    8.30
  -1   0 -10   76.19   12.70
  -1   0 -10  108.19   15.70
  -1   0 -10   74.59   12.10
   1   0  10   95.39   10.80
   1   0  10   89.19   12.50
   1   0  10   73.79   13.10
  -2   0 -10   37.00    9.40
  -2   0 -10   78.19   13.90
  -2   0 -10   17.60    8.70
   2   0  10   41.30    7.90
   2   0  10   58.49   11.70
   2   0  10   26.40    7.00
  -3   0 -10    8.80    6.70
  -3   0 -10    8.60    5.90
  -3   0 -10   -6.00    4.30
   3   0  10    1.20    4.00
   3   0  10   13.70    6.90
   3   0  10   -1.30    4.00
   2  -1 -10  129.49   10.40
   2  -1 -10  124.09   12.00
   2  -1 -10  107.29   12.70
   2  -1 -10  131.69   12.80
  -2   1  10  133.79   11.60
  -2   1  10  134.59   12.90
  -2   1  10  138.09   12.80
   1  -1 -10   13.00    6.00
   1  -1 -10   21.70    7.10
   1  -1 -10   11.60    6.30
  -1   1  10   13.30    5.80
  -1   1  10   13.70    7.90
  -1   1  10    8.10    5.10
   0  -1 -10   23.90    5.10
   0  -1 -10   20.80    8.70
   0  -1 -10   23.80    8.20
   0   1  10   37.30    9.30
  -1  -1 -10  100.99   14.30
  -1  -1 -10  103.49    8.90
  -1  -1 -10  121.59   11.90
   1   1  10   93.49   17.40
   1   1  10   92.59   16.50
   1   1  10  125.69   13.00
  -2  -1 -10  153.18   13.90
  -2  -1 -10  242.88   36.50
   2   1  10  207.28   15.10
  -3  -1 -10   70.49   12.70
  -3  -1 -10   55.29    9.90
  -3  -1 -10   80.49   12.50
   3   1  10   62.69   11.60
   3   1  10   51.19    9.30
   3   1  10   63.89   12.00
  -4  -1 -10   43.10    9.90
  -4  -1 -10   19.00    7.10
  -4  -1 -10   35.30    9.00
   4   1  10   24.80    6.10
   4   1  10   38.70    9.80
   4   1  10   30.90    7.50
   2  -2 -10   27.20    5.80
   2  -2 -10   30.60    7.60
  -2   2  10   20.10    5.50
  -2   2  10   31.90    8.20
  -2   2  10   24.30    8.90
   1  -2 -10   72.99   11.70
   1  -2 -10   95.09    9.80
  -1   2  10   67.19   12.40
  -1   2  10   93.89   10.50
  -1   2  10   69.09   10.40
   0  -2 -10   26.60    6.70
   0  -2 -10   17.50    4.70
   0  -2 -10   26.10    6.90
   0  -2 -10   15.40    5.40
   0   2  10   18.60    5.90
   0   2  10   38.80    8.70
   0   2  10   32.50    7.60
  -1  -2 -10   12.70    7.20
  -1  -2 -10   10.40    5.60
  -1  -2 -10   11.50    5.30
  -1  -2 -10   18.00    4.70
   1   2  10   10.40    5.50
   1   2  10   19.60    6.50
   1   2  10   15.80    5.60
  -2  -2 -10  170.38   13.90
  -2  -2 -10  152.68   13.10
  -2  -2 -10  176.48   13.20
   2   2  10  158.68   12.10
   2   2  10  173.08   13.60
   2   2  10  147.39   13.20
   2   2  10  172.08   10.70
  -3  -2 -10   95.19   11.30
  -3  -2 -10   90.09    9.80
  -3  -2 -10   88.59   14.00
   3   2  10   84.79   10.00
   3   2  10   90.49    7.80
   3   2  10   89.89   10.30
  -4  -2 -10   59.09   10.70
  -4  -2 -10   50.69   17.60
  -4  -2 -10   65.79   13.90
   4   2  10   76.49   13.10
   4   2  10   53.79   10.90
  -5  -2 -10   55.39   10.80
  -5  -2 -10   47.20   10.60
  -5  -2 -10   56.09   11.70
   5   2  10   50.19   11.90
   5   2  10   63.89   10.50
   5   2  10   58.99   11.00
   2  -3 -10  148.49   11.60
   2  -3 -10  118.99   10.30
  -2   3  10   92.39   13.80
  -2   3  10  148.99   11.50
  -2   3  10  127.59   10.50
   1  -3 -10    4.20    6.60
   1  -3 -10    5.90    4.50
   1  -3 -10    6.20    3.50
  -1   3  10    6.60    5.80
  -1   3  10   -2.90    3.70
  -1   3  10    0.50    4.30
   0  -3 -10   48.40    8.00
   0  -3 -10   41.70    6.90
   0  -3 -10   50.39    8.20
   0  -3 -10   47.50   10.00
   0   3  10   46.60    9.00
   0   3  10   65.89    7.60
   0   3  10   33.50    9.00
  -1  -3 -10   -0.20    4.70
  -1  -3 -10   -0.30    3.60
  -1  -3 -10   -4.20    3.80
   1   3  10   -5.00    2.40
   1   3  10    6.90    3.80
   1   3  10    3.10    4.60
   1   3  10    3.70    4.00
  -2  -3 -10    2.50    4.20
  -2  -3 -10    2.10    4.20
  -2  -3 -10    5.60    4.00
   2   3  10    7.30    4.10
   2   3  10   -0.60    2.90
   2   3  10    9.60    5.10
   2   3  10    7.00    3.60
  -3  -3 -10    4.90    4.80
  -3  -3 -10   10.00    5.10
  -3  -3 -10   10.70    4.90
   3   3  10    1.30    3.60
   3   3  10    3.40    3.50
   3   3  10    3.40    4.80
   3   3  10    1.10    2.90
  -4  -3 -10   18.70    6.50
  -4  -3 -10   25.00    5.30
  -4  -3 -10   22.40    7.40
   4   3  10   26.70    7.90
   4   3  10   25.30    7.50
   4   3  10   15.90    4.50
   4   3  10   14.30    5.20
  -5  -3 -10   12.50    6.30
  -5  -3 -10    3.30    4.50
   5   3  10    7.10    3.40
   5   3  10    0.10    5.50
   5   3  10    0.40    3.90
   5   3  10   18.20    6.90
  -6  -3 -10  118.89   12.50
  -6  -3 -10  108.79   14.90
  -6  -3 -10  130.59   14.70
   6   3  10  132.79   18.00
   6   3  10  115.89    8.80
   6   3  10  113.39   11.80
   1  -4 -10   26.20    5.80
   1  -4 -10   18.40    5.30
   1  -4 -10   16.70    5.30
  -1   4  10   18.00    6.70
  -1   4  10   28.00    5.50
  -1   4  10   22.40    6.10
   0  -4 -10   27.20    5.80
   0  -4 -10   29.80    7.20
   0  -4 -10   26.00    5.70
   0   4  10   30.50   10.80
   0   4  10   22.70    7.20
   0   4  10   38.40    6.80
   0   4  10   17.30    6.90
  -1  -4 -10   65.89    8.90
  -1  -4 -10   61.89    9.00
  -1  -4 -10   63.39    9.70
   1   4  10   78.79   12.00
   1   4  10   69.49    7.50
   1   4  10   67.79    8.90
   1   4  10   78.09    8.70
  -2  -4 -10   15.80    6.20
  -2  -4 -10   10.30    4.70
  -2  -4 -10   18.10    5.60
   2   4  10   12.60    5.60
   2   4  10    4.70    4.00
   2   4  10   14.40    5.20
   2   4  10   11.60    4.30
  -3  -4 -10    4.00    4.30
  -3  -4 -10   17.80    6.20
  -3  -4 -10    5.70    4.40
   3   4  10    6.40    5.90
   3   4  10    3.20    3.10
   3   4  10    0.90    4.30
   3   4  10   -2.60    2.80
  -4  -4 -10  104.29    9.60
  -4  -4 -10  103.99   11.40
  -4  -4 -10   94.29   10.00
   4   4  10  103.49   11.10
   4   4  10   94.19    9.90
   4   4  10   86.29    8.50
   4   4  10  101.29    9.50
  -5  -4 -10  165.18   14.00
  -5  -4 -10  148.49   13.00
   5   4  10  173.68   14.40
   5   4  10  172.88   10.80
   5   4  10  140.29   11.70
  -6  -4 -10   11.50    6.70
  -6  -4 -10   16.80    5.10
   6   4  10   10.00    4.30
   6   4  10   -2.40    5.50
   6   4  10    5.50    4.30
  -1   5  10   22.50    6.90
  -1   5  10   10.00    5.10
   0   5  10   22.60    4.90
   0   5  10   35.90    7.70
   0   5  10   27.10    5.90
  -1  -5 -10   22.90    4.50
  -1  -5 -10   16.20    6.10
   1   5  10   17.00    5.80
   1   5  10   23.70    5.20
   1   5  10    8.70    4.40
   1   5  10   17.80    6.30
  -2  -5 -10    2.40    3.50
  -2  -5 -10    4.10    3.60
  -2  -5 -10    1.90    3.90
   2   5  10    2.70    3.50
   2   5  10    7.50    4.30
   2   5  10    1.60    3.00
   2   5  10   -3.00    3.10
  -3  -5 -10   62.39    7.50
  -3  -5 -10   55.29    9.90
  -3  -5 -10   42.40    7.40
   3   5  10   57.59    9.30
   3   5  10   59.39    8.40
   3   5  10   51.49    8.40
   3   5  10   56.69    7.80
  -4  -5 -10  177.38   14.00
  -4  -5 -10  172.48   11.90
  -4  -5 -10  183.08   12.10
   4   5  10  181.28   13.10
   4   5  10  152.08   12.00
   4   5  10  170.88   11.30
   4   5  10  178.08   11.70
  -5  -5 -10    8.90    4.90
  -5  -5 -10   10.40    6.90
  -5  -5 -10    7.10    5.50
   5   5  10    2.40    4.70
   5   5  10    2.20    3.70
   5   5  10    8.70    4.80
   5   5  10    5.00    3.90
  -6  -5 -10   46.70    8.70
  -6  -5 -10   52.49   10.30
   6   5  10   52.99    9.20
   6   5  10   60.19    8.50
   6   5  10   61.49   10.60
   0   6  10   37.80    8.20
   0   6  10   54.19    8.50
   1   6  10    4.80    4.00
   1   6  10   -1.30    3.40
  -2  -6 -10   12.20    5.90
   2   6  10   21.80    5.00
   2   6  10   11.50    4.80
  -3  -6 -10   48.00    7.00
  -3  -6 -10   36.90    6.30
  -3  -6 -10   46.70    8.70
   3   6  10   37.10    7.40
   3   6  10   34.10    7.40
   3   6  10   41.90    7.60
   3   6  10   39.80    6.30
  -4  -6 -10   24.10    6.50
  -4  -6 -10   19.30    5.90
   4   6  10   17.30    5.60
   4   6  10    7.60    4.40
   4   6  10   29.30    7.30
   4   6  10   13.60    4.60
  -5  -6 -10  102.79    9.80
  -5  -6 -10   91.79   10.70
   5   6  10   89.49    8.90
   5   6  10  102.69   10.70
   5   6  10   93.29    9.40
   5   6  10   91.29    9.00
  -6  -6 -10   32.40    7.50
  -6  -6 -10   19.60    7.00
  -6  -6 -10    6.10    5.50
   6   6  10   17.10    5.50
   6   6  10   27.40    7.50
   1   7  10    5.70    4.50
   1   7  10    0.10    3.80
   2   7  10  266.47   15.10
   2   7  10  252.17   15.10
  -3  -7 -10    3.10    4.30
   3   7  10    4.10    4.20
   3   7  10    2.50    3.30
  -4  -7 -10   11.00    3.70
  -4  -7 -10   11.80    6.00
   4   7  10    9.40    4.30
   4   7  10   10.90    4.30
   4   7  10   15.50    5.20
   4   7  10   21.50    5.60
  -5  -7 -10  138.39   10.20
  -5  -7 -10  175.58   13.10
   5   7  10  136.29   10.70
   5   7  10  131.29   10.50
   5   7  10  137.69   10.10
   5   7  10  145.09   11.40
  -6  -7 -10   20.00    5.60
  -6  -7 -10   34.70    8.70
  -6  -7 -10   47.90    9.80
   6   7  10   20.60    6.00
   6   7  10   37.70    8.40
   6   7  10   25.10    6.20
  -1  -2 -11   76.49   11.80
  -1  -2 -11   64.39   10.70
  -1  -2 -11   86.59   14.20
   1   2  11   72.49   10.90
   1   2  11   63.29   11.10
  -2  -2 -11   21.00    6.90
  -2  -2 -11   24.50    7.20
  -2  -2 -11   22.90    7.50
   2   2  11   12.20    6.70
   2   2  11    5.60    5.40
   2   2  11   10.90    5.70
  -1  -3 -11   39.90   11.30
  -1  -3 -11   33.20    8.30
  -1  -3 -11   34.20    8.30
   1   3  11   56.09   10.40
   1   3  11   31.20    6.90
   1   3  11   27.60    7.50
  -2  -3 -11    8.30    5.60
  -2  -3 -11   -1.50    5.00
  -2  -3 -11    8.90    5.60
   2   3  11   -2.90    6.10
   2   3  11   -0.10    3.50
   2   3  11   -6.60    6.20
   2   3  11    5.70    4.10
  -3  -3 -11  163.68   13.90
  -3  -3 -11  153.68   12.90
  -3  -3 -11  141.99   14.60
   3   3  11  157.08   10.90
   3   3  11  133.19   12.40
   3   3  11  145.59   12.00
   3   3  11  163.98   16.20
  -1  -4 -11   19.20    5.50
  -1  -4 -11   13.70    6.00
  -1  -4 -11    3.70    6.60
   1   4  11   12.30    6.00
   1   4  11    2.00    4.20
   1   4  11    9.00    5.20
  -2  -4 -11   45.70    8.70
  -2  -4 -11   68.59   12.20
   2   4  11   36.50    9.10
   2   4  11   64.89   10.70
   2   4  11   41.00    8.20
   2   4  11   59.79    8.70
  -3  -4 -11   40.10    8.80
  -3  -4 -11   45.10    8.20
  -3  -4 -11   24.00    7.40
   3   4  11   39.90    8.90
   3   4  11   38.40    8.40
   3   4  11   40.50    8.70
   3   4  11   29.60    7.00
  -4  -4 -11   37.50    7.20
  -4  -4 -11   15.50    8.10
  -4  -4 -11   19.30    6.60
   4   4  11   18.70    7.70
   4   4  11   10.80    5.10
   4   4  11   10.10    5.10
  -2  -5 -11   -3.30    3.70
  -2  -5 -11   -2.40    4.40
   2   5  11    3.50    4.30
   2   5  11   14.60    4.60
   2   5  11    8.30    5.30
   2   5  11    4.90    5.30
  -3  -5 -11  461.35   21.90
  -3  -5 -11  417.66   18.80
   3   5  11  424.36   27.50
   3   5  11  481.35   21.10
   3   5  11  479.75   20.10
  -4  -5 -11   10.70    5.80
  -4  -5 -11   29.60    7.00
  -4  -5 -11   31.10    9.90
   4   5  11   39.60    9.10
   4   5  11   19.90    5.90
   4   5  11   17.90    6.00
   4   5  11   26.70    6.40
   0   0   0    0.00    0.00

_computing_structure_solution     'SHELXT 2014/5 (Sheldrick, 2014)'
;
_shelx_hkl_checksum              86346
loop_
_space_group_symop_operation_xyz
'x, y, z'
'-x, -y, -z'
loop_
_atom_site_type_symbol
_atom_site_label
_atom_site_fract_x
_atom_site_fract_y
_atom_site_fract_z
_atom_site_U_iso_or_equiv
_atom_site_adp_type
_atom_site_calc_flag
_atom_site_refinement_flags_adp
_atom_site_refinement_flags_occupancy
_atom_site_refinement_flags_posn
_atom_site_occupancy
_atom_site_disorder_assembly
_atom_site_disorder_group
Cl Cl1 0.04558(6) 0.68012(6) 0.81080(6) 0.02163(13) Uani d . . . 1 . .
O O1 0.33123(17) 1.11091(17) 0.64164(16) 0.0217(3) Uani d . . . 1 . .
O O2 0.41413(16) 0.80952(16) 0.75093(14) 0.0143(3) Uani d . . . 1 . .
C C1 0.8981(3) 0.3353(3) 0.7320(2) 0.0194(4) Uani d . . . 1 . .
H H1 1.0168 0.3345 0.6969 0.023 Uiso calc U . R 1 . .
C C2 0.8695(3) 0.1723(3) 0.8198(2) 0.0203(4) Uani d . . . 1 . .
H H2 0.9695 0.0612 0.8428 0.024 Uiso calc U . R 1 . .
C C3 0.6975(3) 0.1699(2) 0.8740(2) 0.0182(4) Uani d . . . 1 . .
H H3 0.6795 0.0585 0.9342 0.022 Uiso calc U . R 1 . .
C C4 0.5518(2) 0.3330(2) 0.8388(2) 0.0154(4) Uani d . . . 1 . .
C C5 0.5814(2) 0.4953(2) 0.75041(19) 0.0135(3) Uani d . . . 1 . .
C C6 0.7527(2) 0.4989(2) 0.6959(2) 0.0160(4) Uani d . . . 1 . .
H H6 0.7705 0.6103 0.6355 0.019 Uiso calc U . R 1 . .
C C7 0.3534(2) 0.3686(2) 0.8807(2) 0.0179(4) Uani d . . . 1 . .
H H7A 0.3273 0.3002 0.9946 0.022 Uiso calc U . R 1 . .
H H7B 0.3058 0.3363 0.8073 0.022 Uiso calc U . R 1 . .
C C8 0.2761(2) 0.5753(2) 0.8551(2) 0.0150(4) Uani d . . . 1 . .
H H8 0.2827 0.5956 0.9577 0.018 Uiso calc U . R 1 . .
C C9 0.4052(2) 0.6532(2) 0.7214(2) 0.0130(3) Uani d . . . 1 . .
C C10 0.3556(2) 0.7260(2) 0.5450(2) 0.0156(4) Uani d . . . 1 . .
H H10A 0.4641 0.6964 0.4683 0.019 Uiso calc U . R 1 . .
H H10B 0.2722 0.6737 0.5335 0.019 Uiso calc U . R 1 . .
C C11 0.2657(2) 0.9315(2) 0.5146(2) 0.0183(4) Uani d . . . 1 . .
H H11A 0.2991 0.9983 0.4023 0.022 Uiso calc U . R 1 . .
H H11B 0.1335 0.9679 0.5326 0.022 Uiso calc U . R 1 . .
C C12 0.3363(2) 0.9679(2) 0.6364(2) 0.0154(4) Uani d . . . 1 . .
loop_
_atom_site_aniso_label
_atom_site_aniso_U_11
_atom_site_aniso_U_22
_atom_site_aniso_U_33
_atom_site_aniso_U_12
_atom_site_aniso_U_13
_atom_site_aniso_U_23
Cl1 0.0125(2) 0.0227(2) 0.0275(2) -0.00727(18) -0.00100(16) -0.00459(18)
O1 0.0184(7) 0.0146(7) 0.0319(7) -0.0060(5) 0.0011(6) -0.0086(6)
O2 0.0157(6) 0.0133(6) 0.0161(6) -0.0051(5) -0.0039(5) -0.0057(5)
C1 0.0160(9) 0.0229(10) 0.0201(9) -0.0047(8) -0.0027(7) -0.0097(7)
C2 0.0203(9) 0.0170(9) 0.0195(9) 0.0027(8) -0.0076(7) -0.0082(7)
C3 0.0258(10) 0.0134(9) 0.0147(8) -0.0054(8) -0.0035(7) -0.0041(7)
C4 0.0200(9) 0.0170(9) 0.0121(8) -0.0078(7) -0.0023(7) -0.0057(7)
C5 0.0169(8) 0.0132(9) 0.0120(7) -0.0039(7) -0.0036(6) -0.0058(6)
C6 0.0174(9) 0.0172(9) 0.0158(8) -0.0071(7) -0.0039(7) -0.0051(7)
C7 0.0196(9) 0.0151(9) 0.0197(8) -0.0082(7) -0.0011(7) -0.0042(7)
C8 0.0131(8) 0.0181(9) 0.0151(8) -0.0067(7) -0.0018(6) -0.0050(7)
C9 0.0127(8) 0.0137(8) 0.0153(8) -0.0058(7) -0.0021(6) -0.0058(7)
C10 0.0160(8) 0.0167(9) 0.0146(8) -0.0057(7) -0.0039(7) -0.0041(7)
C11 0.0160(9) 0.0179(9) 0.0183(8) -0.0043(7) -0.0057(7) -0.0020(7)
C12 0.0104(8) 0.0152(9) 0.0184(8) -0.0040(7) 0.0014(6) -0.0050(7)
loop_
_atom_type_symbol
_atom_type_description
_atom_type_scat_dispersion_real
_atom_type_scat_dispersion_imag
_atom_type_scat_source
C C 0.0033 0.0016 'International Tables Vol C Tables 4.2.6.8 and 6.1.1.4'
H H 0.0000 0.0000 'International Tables Vol C Tables 4.2.6.8 and 6.1.1.4'
O O 0.0106 0.0060 'International Tables Vol C Tables 4.2.6.8 and 6.1.1.4'
Cl Cl 0.1484 0.1585 'International Tables Vol C Tables 4.2.6.8 and 6.1.1.4'
loop_
_geom_angle_atom_site_label_1
_geom_angle_atom_site_label_2
_geom_angle_atom_site_label_3
_geom_angle_site_symmetry_1
_geom_angle_site_symmetry_3
_geom_angle
_geom_angle_publ_flag
C12 O2 C9 . . 111.56(13) ?
C6 C1 C2 . . 120.07(17) ?
C6 C1 H1 . . 120.0 ?
C2 C1 H1 . . 120.0 ?
C3 C2 C1 . . 121.11(17) ?
C3 C2 H2 . . 119.4 ?
C1 C2 H2 . . 119.4 ?
C2 C3 C4 . . 119.07(17) ?
C2 C3 H3 . . 120.5 ?
C4 C3 H3 . . 120.5 ?
C3 C4 C5 . . 119.48(17) ?
C3 C4 C7 . . 129.92(16) ?
C5 C4 C7 . . 110.59(15) ?
C6 C5 C4 . . 121.84(16) ?
C6 C5 C9 . . 127.65(16) ?
C4 C5 C9 . . 110.47(15) ?
C5 C6 C1 . . 118.43(17) ?
C5 C6 H6 . . 120.8 ?
C1 C6 H6 . . 120.8 ?
C4 C7 C8 . . 101.87(14) ?
C4 C7 H7A . . 111.4 ?
C8 C7 H7A . . 111.4 ?
C4 C7 H7B . . 111.4 ?
C8 C7 H7B . . 111.4 ?
H7A C7 H7B . . 109.3 ?
C7 C8 C9 . . 105.67(14) ?
C7 C8 Cl1 . . 113.28(12) ?
C9 C8 Cl1 . . 114.04(12) ?
C7 C8 H8 . . 107.9 ?
C9 C8 H8 . . 107.9 ?
Cl1 C8 H8 . . 107.9 ?
O2 C9 C5 . . 109.99(13) ?
O2 C9 C10 . . 104.51(13) ?
C5 C9 C10 . . 114.26(14) ?
O2 C9 C8 . . 109.67(13) ?
C5 C9 C8 . . 101.44(13) ?
C10 C9 C8 . . 116.99(14) ?
C11 C10 C9 . . 103.90(14) ?
C11 C10 H10A . . 111.0 ?
C9 C10 H10A . . 111.0 ?
C11 C10 H10B . . 111.0 ?
C9 C10 H10B . . 111.0 ?
H10A C10 H10B . . 109.0 ?
C12 C11 C10 . . 103.96(14) ?
C12 C11 H11A . . 111.0 ?
C10 C11 H11A . . 111.0 ?
C12 C11 H11B . . 111.0 ?
C10 C11 H11B . . 111.0 ?
H11A C11 H11B . . 109.0 ?
O1 C12 O2 . . 120.72(16) ?
O1 C12 C11 . . 129.04(17) ?
O2 C12 C11 . . 110.25(15) ?
loop_
_geom_bond_atom_site_label_1
_geom_bond_atom_site_label_2
_geom_bond_site_symmetry_2
_geom_bond_distance
_geom_bond_publ_flag
Cl1 C8 . 1.7992(18) ?
O1 C12 . 1.205(2) ?
O2 C12 . 1.358(2) ?
O2 C9 . 1.463(2) ?
C1 C6 . 1.393(3) ?
C1 C2 . 1.398(3) ?
C1 H1 . 0.95 ?
C2 C3 . 1.388(3) ?
C2 H2 . 0.95 ?
C3 C4 . 1.391(3) ?
C3 H3 . 0.95 ?
C4 C5 . 1.397(2) ?
C4 C7 . 1.510(2) ?
C5 C6 . 1.386(2) ?
C5 C9 . 1.510(2) ?
C6 H6 . 0.95 ?
C7 C8 . 1.537(2) ?
C7 H7A . 0.99 ?
C7 H7B . 0.99 ?
C8 C9 . 1.546(2) ?
C8 H8 . 1.0 ?
C9 C10 . 1.544(2) ?
C10 C11 . 1.525(3) ?
C10 H10A . 0.99 ?
C10 H10B . 0.99 ?
C11 C12 . 1.505(2) ?
C11 H11A . 0.99 ?
C11 H11B . 0.99 ?
loop_
_geom_torsion_atom_site_label_1
_geom_torsion_atom_site_label_2
_geom_torsion_atom_site_label_3
_geom_torsion_atom_site_label_4
_geom_torsion_site_symmetry_1
_geom_torsion_site_symmetry_2
_geom_torsion_site_symmetry_3
_geom_torsion_site_symmetry_4
_geom_torsion
_geom_torsion_publ_flag
C6 C1 C2 C3 . . . . -0.7(3) ?
C1 C2 C3 C4 . . . . 0.4(3) ?
C2 C3 C4 C5 . . . . -0.2(2) ?
C2 C3 C4 C7 . . . . 179.26(17) ?
C3 C4 C5 C6 . . . . 0.1(3) ?
C7 C4 C5 C6 . . . . -179.40(15) ?
C3 C4 C5 C9 . . . . 177.99(15) ?
C7 C4 C5 C9 . . . . -1.54(19) ?
C4 C5 C6 C1 . . . . -0.4(3) ?
C9 C5 C6 C1 . . . . -177.82(16) ?
C2 C1 C6 C5 . . . . 0.6(3) ?
C3 C4 C7 C8 . . . . 162.77(17) ?
C5 C4 C7 C8 . . . . -17.75(18) ?
C4 C7 C8 C9 . . . . 29.70(17) ?
C4 C7 C8 Cl1 . . . . 155.24(11) ?
C12 O2 C9 C5 . . . . 137.97(14) ?
C12 O2 C9 C10 . . . . 14.90(17) ?
C12 O2 C9 C8 . . . . -111.28(15) ?
C6 C5 C9 O2 . . . . -46.3(2) ?
C4 C5 C9 O2 . . . . 136.04(14) ?
C6 C5 C9 C10 . . . . 70.9(2) ?
C4 C5 C9 C10 . . . . -106.81(16) ?
C6 C5 C9 C8 . . . . -162.30(17) ?
C4 C5 C9 C8 . . . . 20.00(17) ?
C7 C8 C9 O2 . . . . -146.77(13) ?
Cl1 C8 C9 O2 . . . . 88.16(14) ?
C7 C8 C9 C5 . . . . -30.49(16) ?
Cl1 C8 C9 C5 . . . . -155.56(12) ?
C7 C8 C9 C10 . . . . 94.50(17) ?
Cl1 C8 C9 C10 . . . . -30.57(19) ?
O2 C9 C10 C11 . . . . -23.02(16) ?
C5 C9 C10 C11 . . . . -143.29(15) ?
C8 C9 C10 C11 . . . . 98.44(17) ?
C9 C10 C11 C12 . . . . 22.70(17) ?
C9 O2 C12 O1 . . . . 179.95(15) ?
C9 O2 C12 C11 . . . . -0.15(18) ?
C10 C11 C12 O1 . . . . 165.07(18) ?
C10 C11 C12 O2 . . . . -14.81(18) ?
