#------------------------------------------------------------------------------
#$Date: 2021-05-27 04:02:10 +0300 (Thu, 27 May 2021) $
#$Revision: 265514 $
#$URL: file:///home/coder/svn-repositories/cod/cif/1/56/28/1562896.cif $
#------------------------------------------------------------------------------
#
# This file is available in the Crystallography Open Database (COD),
# http://www.crystallography.net/
#
# All data on this site have been placed in the public domain by the
# contributors.
#
data_1562896
loop_
_publ_author_name
'Nelson, Eryn'
'Formen, Jeffrey S. S. K.'
'Wolf, Christian'
_publ_section_title
;
 Rapid Organocatalytic Chirality Analysis of Amines, Amino Acids,
 Alcohols, Amino Alcohols and Diols with Achiral Iso(thio)cyanate Probes
;
_journal_name_full               'Chemical Science'
_journal_paper_doi               10.1039/D1SC02061G
_journal_year                    2021
_chemical_absolute_configuration syn
_chemical_formula_moiety         'C15 H15 N3 O3'
_chemical_formula_sum            'C15 H15 N3 O3'
_chemical_formula_weight         285.30
_space_group_crystal_system      monoclinic
_space_group_IT_number           4
_space_group_name_Hall           'P 2yb'
_space_group_name_H-M_alt        'P 1 21 1'
_atom_sites_solution_hydrogens   mixed
_atom_sites_solution_primary     intrinsic
_audit_creation_method           SHELXL-2018/3
_audit_update_record
;
2021-04-13 deposited with the CCDC.	2021-05-25 downloaded from the CCDC.
;
_cell_angle_alpha                90
_cell_angle_beta                 96.422(2)
_cell_angle_gamma                90
_cell_formula_units_Z            2
_cell_length_a                   4.64130(10)
_cell_length_b                   11.0456(3)
_cell_length_c                   13.6158(4)
_cell_measurement_reflns_used    5088
_cell_measurement_temperature    100(2)
_cell_measurement_theta_max      68.12
_cell_measurement_theta_min      3.27
_cell_volume                     693.65(3)
_computing_cell_refinement       'SAINT V8.37A (Bruker, 2005)'
_computing_data_collection       'APEX3 V2016.5-0 (Bruker, 2016)'
_computing_data_reduction
; 
SAINT V8.37A, XPREP v2014/2, SADABS V2016/2 (Bruker, 2016) 
;
_computing_molecular_graphics    'SHELXLE v932 (Hubschle, 2011)'
_computing_publication_material  'XCIF V2014-2 (Bruker, 2014)'
_computing_structure_refinement  'SHELX-2018-3 (Sheldrick, 2015)'
_computing_structure_solution    'SHELX-2014-5 (Sheldrick, 2015)'
_diffrn_ambient_temperature      100(2)
_diffrn_measured_fraction_theta_full 0.988
_diffrn_measured_fraction_theta_max 0.987
_diffrn_measurement_device       'Bruker APEX DUO/ApexII CCD'
_diffrn_measurement_method       'profile data from \f and \w scans'
_diffrn_radiation_monochromator  'multilayer mirrors'
_diffrn_radiation_source         'microfocus sealed tube'
_diffrn_radiation_type           CuK\a
_diffrn_radiation_wavelength     1.54178
_diffrn_reflns_av_R_equivalents  0.0614
_diffrn_reflns_av_unetI/netI     0.0588
_diffrn_reflns_Laue_measured_fraction_full 0.988
_diffrn_reflns_Laue_measured_fraction_max 0.987
_diffrn_reflns_limit_h_max       5
_diffrn_reflns_limit_h_min       -5
_diffrn_reflns_limit_k_max       13
_diffrn_reflns_limit_k_min       -13
_diffrn_reflns_limit_l_max       16
_diffrn_reflns_limit_l_min       -16
_diffrn_reflns_number            9430
_diffrn_reflns_point_group_measured_fraction_full 0.981
_diffrn_reflns_point_group_measured_fraction_max 0.978
_diffrn_reflns_theta_full        67.679
_diffrn_reflns_theta_max         68.334
_diffrn_reflns_theta_min         3.266
_exptl_absorpt_coefficient_mu    0.804
_exptl_absorpt_correction_T_max  0.97629
_exptl_absorpt_correction_T_min  0.73996
_exptl_absorpt_correction_type   multi-scan
_exptl_absorpt_process_details   'SADABS V2016/2 (Bruker, 2016)'
_exptl_crystal_colour            yellow
_exptl_crystal_density_diffrn    1.366
_exptl_crystal_density_method    'not measured'
_exptl_crystal_description       needle
_exptl_crystal_F_000             300
_exptl_crystal_size_max          0.529
_exptl_crystal_size_mid          0.082
_exptl_crystal_size_min          0.034
_refine_diff_density_max         0.268
_refine_diff_density_min         -0.227
_refine_diff_density_rms         0.053
_refine_ls_abs_structure_details
;
 Flack x determined using 1069 quotients [(I+)-(I-)]/[(I+)+(I-)]
 (Parsons, Flack and Wagner, Acta Cryst. B69 (2013) 249-259).
;
_refine_ls_abs_structure_Flack   0.2(2)
_refine_ls_extinction_method     none
_refine_ls_goodness_of_fit_ref   1.065
_refine_ls_hydrogen_treatment    mixed
_refine_ls_matrix_type           full
_refine_ls_number_parameters     197
_refine_ls_number_reflns         2503
_refine_ls_number_restraints     1
_refine_ls_restrained_S_all      1.065
_refine_ls_R_factor_all          0.0471
_refine_ls_R_factor_gt           0.0459
_refine_ls_shift/su_max          0.000
_refine_ls_shift/su_mean         0.000
_refine_ls_structure_factor_coef Fsqd
_refine_ls_weighting_details
'w=1/[\s^2^(Fo^2^)+(0.0882P)^2^+0.0660P] where P=(Fo^2^+2Fc^2^)/3'
_refine_ls_weighting_scheme      calc
_refine_ls_wR_factor_gt          0.1259
_refine_ls_wR_factor_ref         0.1272
_reflns_Friedel_coverage         0.878
_reflns_Friedel_fraction_full    0.973
_reflns_Friedel_fraction_max     0.969
_reflns_number_gt                2409
_reflns_number_total             2503
_reflns_threshold_expression     'I > 2\s(I)'
_cod_data_source_file            d1sc02061g2.cif
_cod_data_source_block           20100_a
_cod_original_sg_symbol_H-M      'P 21'
_cod_database_code               1562896
_shelx_shelxl_version_number     2018/3
_shelx_space_group_comment
;
The symmetry employed for this shelxl refinement is uniquely defined
by the following loop, which should always be used as a source of
symmetry information in preference to the above space-group names.
They are only intended as comments.
;
_shelx_estimated_absorpt_t_min   0.676
_shelx_estimated_absorpt_t_max   0.973
_shelx_res_file
;
TITL 20100_a.res in P2(1)
    20100_a.res
    created by SHELXL-2018/3 at 12:51:09 on 07-Dec-2020
REM Old TITL 20100 in P2(1)

REM SHELXT solution in P2(1)
REM R1 0.089,  Rweak 0.025,  Alpha 0.001,  Orientation as input
REM Flack x =  0.352 ( 0.233 ) from Parsons' quotients
REM Formula found by SHELXT:  C16 N3 O2

CELL  1.54178   4.6413  11.0456  13.6158   90.000   96.422   90.000
ZERR    2.000   0.0001   0.0003   0.0004    0.000    0.002    0.000
LATT -1
SYMM -X, 1/2+Y, -Z
SFAC C H N O
UNIT 30 30 6 6
TEMP -173.000
SIZE 0.034 0.082 0.529
L.S. 20
BOND $H
LIST 4
HTAB
EQIV $1 x-1, y, z
HTAB N1 O1_$1
HTAB N1 O2
HTAB N2 O1_$1
CONF
ACTA
FMAP 2
OMIT 0 -8 13
PLAN 20
WGHT    0.088200    0.066000
FVAR       1.16616
O1    4    0.685768    0.554695    0.396011    11.00000    0.00833    0.03734 =
         0.02077    0.00111    0.00192   -0.00053
O2    4   -0.124176    0.370223    0.208376    11.00000    0.01901    0.02321 =
         0.02916    0.00071    0.00471   -0.00270
O3    4   -0.002686    0.290305    0.073723    11.00000    0.05148    0.02316 =
         0.03669   -0.01440    0.00419   -0.00800
N1    3    0.244980    0.524270    0.304856    11.00000    0.00817    0.02381 =
         0.01994    0.00222    0.00265   -0.00016
H1    2    0.064944    0.502341    0.314228    11.00000   -1.50000
N2    3    0.273300    0.553274    0.471645    11.00000    0.00611    0.03097 =
         0.01976    0.00197   -0.00052    0.00159
H2    2    0.088849    0.550734    0.463943    11.00000   -1.50000
N3    3    0.021869    0.370295    0.138531    11.00000    0.02147    0.01731 =
         0.02475   -0.00293    0.00045    0.00139
C1    1    0.419182    0.545716    0.393323    11.00000    0.01006    0.01677 =
         0.02178    0.00161    0.00199    0.00113
C2    1    0.334485    0.538982    0.211389    11.00000    0.01162    0.01831 =
         0.01889    0.00016    0.00323    0.00553
C3    1    0.228096    0.467656    0.129215    11.00000    0.01507    0.01584 =
         0.02202   -0.00067   -0.00021    0.00164
C4    1    0.316248    0.485434    0.036401    11.00000    0.02393    0.02626 =
         0.02065   -0.00194    0.00513    0.00645
AFIX  43
H4    2    0.242205    0.435037   -0.017094    11.00000   -1.20000
AFIX   0
C5    1    0.510825    0.575887    0.021357    11.00000    0.02492    0.03435 =
         0.02096    0.00102    0.00765    0.00618
AFIX  43
H5    2    0.568687    0.589318   -0.042507    11.00000   -1.20000
AFIX   0
C6    1    0.621527    0.647334    0.100929    11.00000    0.01600    0.02497 =
         0.02899    0.00294    0.00553    0.00052
AFIX  43
H6    2    0.758278    0.709045    0.091443    11.00000   -1.20000
AFIX   0
C7    1    0.534322    0.629354    0.193757    11.00000    0.01391    0.02057 =
         0.02350    0.00201    0.00257    0.00023
AFIX  43
H7    2    0.611918    0.679565    0.246896    11.00000   -1.20000
AFIX   0
C8    1    0.416457    0.573866    0.571891    11.00000    0.01204    0.02308 =
         0.01847    0.00051   -0.00025    0.00048
AFIX  13
H8    2    0.605742    0.529732    0.578072    11.00000   -1.20000
AFIX   0
C9    1    0.229784    0.517627    0.644960    11.00000    0.00799    0.01939 =
         0.02175    0.00123   -0.00154    0.00309
C10   1    0.125813    0.399601    0.629531    11.00000    0.01740    0.01631 =
         0.02561   -0.00131    0.00197    0.00321
AFIX  43
H10   2    0.174023    0.355154    0.573912    11.00000   -1.20000
AFIX   0
C11   1   -0.046883    0.346546    0.694407    11.00000    0.01851    0.01852 =
         0.03094    0.00454    0.00089    0.00011
AFIX  43
H11   2   -0.117837    0.266569    0.682696    11.00000   -1.20000
AFIX   0
C12   1   -0.115944    0.410284    0.776374    11.00000    0.01687    0.03101 =
         0.02529    0.00837    0.00489   -0.00173
AFIX  43
H12   2   -0.234888    0.374420    0.820811    11.00000   -1.20000
AFIX   0
C13   1   -0.010602    0.526131    0.792866    11.00000    0.02381    0.02816 =
         0.01977   -0.00278    0.00477    0.00074
AFIX  43
H13   2   -0.056033    0.569724    0.849277    11.00000   -1.20000
AFIX   0
C14   1    0.160860    0.579547    0.727947    11.00000    0.01735    0.01921 =
         0.02260    0.00009    0.00213    0.00006
AFIX  43
H14   2    0.231998    0.659373    0.740351    11.00000   -1.20000
AFIX   0
C15   1    0.481235    0.708137    0.588432    11.00000    0.03214    0.02679 =
         0.02611    0.00228    0.00614   -0.01160
AFIX 137
H15A  2    0.597460    0.737579    0.537546    11.00000   -1.50000
H15B  2    0.589151    0.719711    0.653833    11.00000   -1.50000
H15C  2    0.298723    0.753409    0.584546    11.00000   -1.50000
AFIX   0
HKLF 4




REM  20100_a.res in P2(1)
REM wR2 = 0.127249, GooF = S = 1.06520, Restrained GooF = 1.06497 for all data
REM R1 = 0.045944 for 2409 Fo > 4sig(Fo) and 0.047052 for all 2503 data
REM 197 parameters refined using 1 restraints

END

WGHT      0.0882      0.0660

REM Instructions for potential hydrogen bonds
HTAB N1 O1_$1
HTAB N1 O2
HTAB N2 O1_$1

REM Highest difference peak  0.268,  deepest hole -0.227,  1-sigma level  0.053
Q1    1  -0.2496  0.3637  0.2569  11.00000  0.05    0.27
Q2    1   0.8426  0.5697  0.3590  11.00000  0.05    0.22
Q3    1  -0.2108  0.2961  0.1061  11.00000  0.05    0.22
Q4    1  -0.2949  0.4172  0.2167  11.00000  0.05    0.19
Q5    1   0.1928  0.2981  0.7019  11.00000  0.05    0.18
Q6    1   0.1545  0.2865  0.0241  11.00000  0.05    0.18
Q7    1   0.3417  0.2677  0.1002  11.00000  0.05    0.17
Q8    1   0.3155  0.5592  0.6204  11.00000  0.05    0.16
Q9    1   0.8417  0.6858  0.5963  11.00000  0.05    0.16
Q10   1   0.7990  0.6274 -0.0395  11.00000  0.05    0.16
Q11   1   0.5479  0.5671  0.4205  11.00000  0.05    0.16
Q12   1   0.6685  0.5491 -0.0220  11.00000  0.05    0.16
Q13   1  -0.1174  0.4262  0.3340  11.00000  0.05    0.16
Q14   1   0.4436  0.7438  0.0763  11.00000  0.05    0.15
Q15   1   0.4580  0.5280  0.1767  11.00000  0.05    0.15
Q16   1   0.1098  0.7648  0.6618  11.00000  0.05    0.15
Q17   1   0.3730  0.7811  0.7007  11.00000  0.05    0.15
Q18   1   0.6060  0.5810  0.5218  11.00000  0.05    0.15
Q19   1   0.0410  0.5578  0.3208  11.00000  0.05    0.15
Q20   1   0.2410  0.7635  0.6012  11.00000  0.05    0.15
;
_shelx_res_checksum              63781
_shelx_hkl_file
;
   1   0   0   65.79    5.70
   1   0   0   65.69    5.30
   2   0   0   23.30    4.20
   2   0   0   27.80    2.40
  -2   0   0   26.30    3.00
  -2   0   0   24.40    2.30
   3   0   0   71.89    8.30
   3   0   0   73.69    7.60
   3   0   0   65.99    7.80
   0  -1   0    0.10    0.60
   0   1   0    0.00    0.30
   0   1   0    0.00    0.50
   1  -1   0 3299.77  251.17
   1  -1   0 3163.78  251.57
  -1   1   0 2791.52  220.38
   1   1   0 2711.93  220.38
  -1   1   0 2880.01  219.98
   1   1   0 2940.01  219.98
   2  -1   0  326.57   30.40
   2  -1   0  400.96   29.90
   2  -1   0  378.66   28.90
   2   1   0  318.57   27.40
  -2   1   0  346.37   27.00
  -2   1   0  337.37   26.20
  -3  -1   0  391.66   30.70
   3   1   0  411.66   33.70
   3   1   0  406.16   33.50
   3   1   0  389.56   34.00
  -4  -1   0   55.39    4.90
   4   1   0   54.79    8.60
   4   1   0   50.79    7.20
   0  -2   0 8785.92  683.63
   0   2   0 8270.87  710.33
   0   2   0 9999.00  709.73
   1  -2   0 9132.09  727.93
   1  -2   0 9531.55  725.23
  -1   2   0 9282.87  664.63
  -1   2   0 8127.09  666.03
   1   2   0 8242.88  664.73
  -2  -2   0 1563.54  140.59
   2  -2   0 1973.20  141.99
   2  -2   0 1964.20  140.79
   2  -2   0 1742.73  142.69
   2   2   0 1373.86  119.99
  -2   2   0 1710.43  118.69
   2   2   0 1478.95  119.89
  -2   2   0 1745.73  119.89
   2   2   0 1321.07  119.69
  -3  -2   0   28.70    2.90
   3   2   0   28.90    5.60
   3   2   0   35.50    5.70
   3   2   0   29.70    5.30
  -4  -2   0   58.29    8.60
  -4  -2   0   66.99    5.60
   4   2   0   67.09    9.60
   4   2   0   59.79    8.80
   4   2   0   53.99    8.60
   5   2   0    5.70    3.20
   5   2   0    6.40    4.00
   0  -3   0    0.60    1.40
   0   3   0   -0.30    1.20
   0   3   0   -0.80    0.50
  -1  -3   0 3804.92  295.47
   1  -3   0 3759.22  296.27
   1  -3   0 3813.12  295.67
   1   3   0 3810.72  290.17
  -1   3   0 3816.52  290.17
  -1   3   0 3572.84  290.87
  -2  -3   0   76.29    8.50
   2  -3   0  105.89   10.40
   2  -3   0  103.69    9.50
   2  -3   0   94.89    8.40
  -2  -3   0   93.59    7.60
   2   3   0   70.39    8.20
   2   3   0   91.39    8.80
  -2   3   0   94.99    7.10
   2   3   0   80.89    8.80
  -2   3   0  102.09    8.70
   3  -3   0   11.90    6.10
  -3  -3   0   10.30    1.50
  -3  -3   0   10.90    3.60
   3   3   0   11.00    3.90
   3   3   0   10.10    3.50
   3   3   0   13.70    4.60
  -4  -3   0   33.60    6.00
   4   3   0   38.80    6.40
   4   3   0   30.80    6.80
   4   3   0   43.60    7.20
   4   3   0   38.50    6.90
   4   3   0   24.50    7.10
   5   3   0   42.90    7.60
   5   3   0   51.19    7.10
   0  -4   0 3866.81  295.67
   0  -4   0 3723.33  296.07
   0   4   0 4517.75  312.37
   0   4   0 3523.95  312.87
   1  -4   0  274.67   23.80
  -1  -4   0  279.17   22.60
   1  -4   0  271.77   22.80
  -1   4   0  279.77   21.70
  -1   4   0  263.97   22.70
   1   4   0  283.87   21.70
   2  -4   0  788.92   61.39
  -2  -4   0  736.33   58.09
   2  -4   0  769.72   58.79
   2  -4   0  746.53   59.69
  -2  -4   0  680.13   59.29
   2   4   0  572.44   53.79
   2   4   0  639.24   54.19
   2   4   0  756.02   54.39
  -2   4   0  708.93   52.59
  -2   4   0  682.23   52.39
  -2   4   0  672.33   53.89
  -3  -4   0  553.14   41.50
   3  -4   0  535.55   45.90
  -3  -4   0  490.95   43.20
   3   4   0  450.35   41.20
   3   4   0  538.35   41.50
   3   4   0  489.15   41.60
  -4  -4   0  301.07   27.10
  -4  -4   0  299.37   26.90
  -4  -4   0  324.97   24.70
   4   4   0  335.57   29.30
   4   4   0  377.66   30.20
   4   4   0  319.27   27.50
   4   4   0  313.57   28.90
   4   4   0  295.97   29.50
  -5  -4   0   23.60    3.30
   5   4   0   29.90    5.20
   5   4   0   27.80    5.80
   0  -5   0   -0.50    2.10
   0   5   0    0.00    1.00
   0   5   0   -0.50    1.00
   1  -5   0  556.34   44.20
  -1  -5   0  505.65   44.60
   1  -5   0  548.25   45.80
   1  -5   0  546.75   44.90
  -1  -5   0  625.84   44.70
  -1   5   0  547.25   42.10
   1   5   0  569.94   42.10
  -1   5   0  565.04   42.80
  -1   5   0  499.45   42.10
  -1   5   0  508.35   43.10
  -2  -5   0  308.37   24.90
   2  -5   0  298.07   27.00
   2  -5   0  261.47   25.00
  -2  -5   0  295.27   23.30
   2  -5   0  298.57   24.10
   2   5   0  256.17   21.10
   2   5   0  206.98   20.50
  -2   5   0  232.28   20.70
  -2   5   0  235.88   19.00
  -2   5   0  256.97   19.00
  -3  -5   0   92.29    9.80
   3  -5   0   85.79    8.40
   3  -5   0   82.19   12.70
  -3  -5   0   68.99    7.70
  -3   5   0   80.59    7.20
   3   5   0   88.09   10.80
  -3   5   0   80.59    8.50
   3   5   0  101.59   10.70
   3   5   0   79.89    9.70
  -4  -5   0  110.39    9.10
  -4  -5   0  104.49   11.70
  -4  -5   0  108.39    9.70
  -4  -5   0   99.49   11.10
   4   5   0  124.59   13.80
   4   5   0  109.09   13.60
   4   5   0  108.99   10.80
   4   5   0  104.19   14.70
   4   5   0  110.29   13.10
   4   5   0  116.19   13.30
  -5  -5   0   43.60    4.50
   5   5   0   45.70    6.20
   5   5   0   39.10    7.10
   0  -6   0 2742.83  201.08
   0  -6   0 2389.66  201.48
   0   6   0 2819.22  220.18
   0   6   0 2821.32  219.48
   1  -6   0   75.39    6.60
   1  -6   0   60.29    8.50
  -1  -6   0   61.59    7.00
  -1   6   0   61.29    5.40
  -1   6   0   73.89    6.80
  -1   6   0   57.09    7.00
  -1   6   0   65.69    5.90
  -2  -6   0   48.80    6.20
   2  -6   0   42.00    7.40
  -2  -6   0   35.00    4.00
   2  -6   0   40.60    5.20
  -2  -6   0   32.60    5.40
   2   6   0   27.80    5.40
   2   6   0   39.00    6.00
  -2   6   0   34.60    3.70
  -2   6   0   40.30    5.10
   3  -6   0  194.38   15.60
  -3  -6   0  163.18   16.30
  -3  -6   0  185.88   14.50
  -3  -6   0  171.28   15.20
   3  -6   0  168.78   19.90
   3   6   0  173.68   17.90
  -3   6   0  181.28   16.20
   3   6   0  213.38   18.50
  -3   6   0  176.18   15.10
   4  -6   0  110.39   10.40
  -4  -6   0  111.29   10.20
   4  -6   0  107.09   11.10
   4  -6   0  110.39   10.90
   4   6   0   97.09   12.80
   4   6   0  109.99   11.60
   4   6   0  107.79   13.70
   4   6   0  109.19   10.30
   0  -7   0   -0.40    2.80
   0  -7   0    0.50    1.60
   0   7   0   -0.50    1.20
   0   7   0    0.00    2.50
  -1  -7   0   21.10    4.60
   1  -7   0   22.70    5.30
   1  -7   0   31.70    4.30
  -1  -7   0   30.20    4.80
  -1   7   0   26.40    4.40
  -1   7   0   31.90    3.70
  -2  -7   0   22.90    3.60
   2  -7   0   21.50    4.20
   2  -7   0   22.30    6.50
  -2  -7   0   29.50    4.80
  -2   7   0   24.70    4.40
  -2   7   0   22.90    3.00
  -3  -7   0  319.67   25.20
  -3  -7   0  276.47   27.70
   3  -7   0  248.08   23.30
   3  -7   0  267.67   24.10
   3  -7   0  274.97   23.40
  -3  -7   0  288.67   23.20
   3  -7   0  279.37   24.60
  -3  -7   0  267.07   24.60
   3  -7   0  281.37   24.20
  -3   7   0  238.78   20.70
   3   7   0  259.27   20.80
   3   7   0  281.17   23.20
   3   7   0  207.78   21.80
   3   7   0  231.78   22.20
  -3   7   0  239.48   19.60
   3   7   0  237.58   24.10
   4  -7   0   75.89    7.60
   4  -7   0   89.09    9.00
   4  -7   0   82.09    9.20
   4  -7   0   67.39    7.70
  -4  -7   0   70.09    7.10
   4   7   0   66.69   11.60
   4   7   0   75.99    8.80
   4   7   0   71.19   11.80
   4   7   0   80.29    7.90
   0  -8   0  203.68   18.30
   0  -8   0  203.38   19.10
   0   8   0  274.07   23.30
   1  -8   0  175.68   20.50
  -1  -8   0  231.28   19.10
   1  -8   0  234.78   18.60
  -1   8   0  243.78   19.00
  -1   8   0  193.18   17.60
  -1   8   0  215.78   18.30
  -2  -8   0   44.90    6.00
   2  -8   0   26.10    6.90
   2  -8   0   34.50    5.20
  -2   8   0   38.20    4.40
  -2   8   0   33.50    4.00
  -2   8   0   29.00    5.40
  -3  -8   0  101.79   10.40
   3  -8   0   99.29   11.10
  -3  -8   0   70.79    9.50
   3  -8   0  105.29   10.00
   3  -8   0  104.49   10.90
   3  -8   0   80.29    8.80
  -3  -8   0   97.69    8.90
   3  -8   0   91.59    9.90
   3   8   0   97.39   13.00
  -3   8   0   74.49    7.40
   3   8   0   81.89    8.70
   3   8   0   92.59    9.20
  -3   8   0   74.79    8.30
   4  -8   0    6.30    3.50
   4  -8   0    6.20    2.20
  -4  -8   0    7.10    2.20
  -4  -8   0    4.60    2.80
   4  -8   0    9.90    3.10
   4  -8   0    6.50    2.60
   4   8   0    8.60    6.90
   4   8   0    6.70    2.50
   4   8   0    5.00    2.50
   4   8   0    5.50    5.00
   0  -9   0   -1.60    3.50
   0   9   0   -2.40    2.20
  -1  -9   0    3.10    3.30
   1  -9   0    5.30    4.50
  -1   9   0    4.70    2.50
  -1   9   0    2.30    3.60
   2  -9   0   15.70    5.20
  -2  -9   0   18.60    4.30
   2  -9   0    9.30    4.20
   2  -9   0   16.20    3.40
  -2  -9   0   15.50    4.40
  -2  -9   0   15.00    3.90
   2  -9   0   11.00    4.60
   2  -9   0   20.60    4.40
  -2   9   0    9.40    2.80
   2   9   0   13.40    3.40
  -2   9   0   20.70    3.20
   2   9   0   18.20    8.60
   2   9   0   14.30    3.30
  -2   9   0   18.40    4.40
   2   9   0   30.10   10.10
   3  -9   0   28.80    5.90
   3  -9   0   26.10    5.00
   3  -9   0   38.20    5.40
   3  -9   0   30.90    5.10
  -3  -9   0   31.80    5.10
  -3  -9   0   35.50    5.20
   3  -9   0   36.60    5.30
   3   9   0   35.10    4.70
   3   9   0   24.90    4.30
   3   9   0   34.30    8.40
  -3   9   0   31.50    4.00
   4  -9   0   28.70    3.60
   4  -9   0   35.20    4.30
   4   9   0   51.69    5.60
   4   9   0   55.59    7.60
   0 -10   0  110.59   12.80
   0 -10   0  115.79   12.50
   0  10   0   97.09   13.40
   0  10   0  141.49   14.90
   1 -10   0   92.19   11.40
  -1 -10   0  100.39   10.90
  -1 -10   0   75.89    9.40
   1 -10   0   91.29   10.80
   1 -10   0   96.39   10.80
  -1  10   0  100.89   10.70
   1  10   0   98.99   13.80
  -1  10   0  119.69   10.20
   1  10   0  104.49   14.20
  -2 -10   0   20.50    4.20
   2 -10   0   21.40    4.50
  -2 -10   0   20.30    5.20
   2 -10   0   12.70    3.80
   2 -10   0   15.80    3.80
   2 -10   0   21.10    3.60
   2 -10   0   17.40    4.40
  -2  10   0   17.70    3.00
   2  10   0   18.30    3.40
   2  10   0   15.50    7.00
   2  10   0   18.90    7.00
   3 -10   0   97.99    9.60
   3 -10   0  109.49   10.30
   3 -10   0  111.39   10.70
  -3 -10   0   99.19   10.00
  -3 -10   0  109.99   10.00
   3 -10   0   94.59   10.70
   3 -10   0  115.99   10.50
   3  10   0  112.09   10.00
   3  10   0  109.89   13.20
  -3  10   0   99.59    9.30
   0 -11   0   -1.90    3.40
   0 -11   0    4.00    4.20
   0  11   0   -1.00    4.90
   0  11   0   -2.50    4.00
   1 -11   0    5.20    3.80
   1 -11   0    5.60    3.40
  -1 -11   0   -1.70    3.10
   1 -11   0    2.40    4.00
   1  11   0    0.70    8.00
  -1  11   0   10.40    5.30
   1  11   0    3.20    6.90
  -2 -11   0   32.00    4.30
  -2 -11   0   24.50    5.30
   2 -11   0   19.20    3.80
   2 -11   0   25.10    4.60
   2 -11   0   24.80    4.90
   2 -11   0   18.90    3.90
  -2  11   0   37.00    6.40
   2  11   0   24.60    8.70
   2  11   0   20.50    3.60
   2  11   0   20.60    8.00
  -3 -11   0   29.70    4.00
  -3 -11   0   29.70    3.90
   3 -11   0   30.10    3.90
   3 -11   0   35.20    3.70
  -3  11   0   21.40    3.90
   3  11   0   37.60    6.10
   0 -12   0  192.48   17.10
   0  12   0  162.08   15.90
  -1 -12   0   88.09    8.80
   1 -12   0   84.19    9.20
   1 -12   0   70.49    8.10
   1 -12   0   79.39   10.20
   1  12   0   93.89   11.40
   1  12   0   91.39   11.60
  -1  12   0  101.29   11.10
  -1  12   0  107.99   12.60
   2 -12   0    7.40    3.50
  -2 -12   0    7.50    2.20
  -2 -12   0   15.40    3.00
   2 -12   0   11.80    3.10
   2  12   0   12.30    6.20
   2  12   0    8.80    3.80
  -2  12   0   16.50    4.00
   0 -13   0    0.90    2.40
   0  13   0   -1.20    3.20
  -1 -13   0    7.80    2.80
   1 -13   0   12.70    2.40
  -1  13   0   12.00    4.00
   1  13   0   16.40    4.00
  -1  13   0   15.70    3.00
   1  13   0    9.80    3.50
   4   0  -1  231.68   22.00
   3   0  -1    0.30    2.80
   3   0  -1   -0.30    1.90
   3   0  -1   -0.40    2.50
   2   0  -1  413.06   33.10
  -2   0   1  389.76   31.90
  -1   0   1  391.66   31.70
  -1   0   1  386.46   31.90
   1   0  -1  442.46   31.70
   0   0   1   43.20    3.50
   0   0   1   45.70    3.70
   1   0   1  830.52   65.39
   1   0   1  850.11   65.79
   2   0   1  703.03   51.19
  -2   0  -1  610.54   51.79
   3   0   1  118.29   12.10
   3   0   1  127.59   12.00
   5   1  -1   14.80    4.30
  -4  -1   1   91.59   11.80
  -4  -1   1  119.29    9.00
   4   1  -1  117.99   13.70
   4   1  -1  116.09   12.80
   4   1  -1  123.39   13.50
   3  -1  -1  421.76   35.30
   3  -1  -1  467.85   36.30
  -3  -1   1  432.96   32.80
   3  -1  -1  355.16   34.70
  -3   1   1  350.86   34.20
   3   1  -1  467.45   34.80
   3   1  -1  404.96   34.00
   3   1  -1  414.16   34.60
  -2  -1   1  301.07   26.40
   2  -1  -1  342.67   27.10
   2   1  -1  345.07   28.20
  -2   1   1  314.47   26.50
  -2   1   1  360.06   27.40
  -1  -1   1  499.45   42.30
   1  -1  -1  589.64   42.90
   1   1  -1  472.95   36.60
  -1   1   1  468.35   36.60
  -1   1   1  468.85   37.10
   0  -1   1  637.24   51.59
   0  -1   1  685.73   51.39
   0   1  -1  647.94   50.89
   0   1   1  660.03   50.99
   0   1   1  653.73   50.89
   1  -1   1 3279.47  258.37
   1  -1   1 3355.66  257.87
   1   1   1 3355.46  256.87
   1   1   1 3255.47  257.07
   2  -1   1  362.96   26.70
   2  -1   1  368.06   27.80
   2  -1   1  291.57   28.00
  -2   1  -1  323.17   25.50
   2   1   1  339.67   24.70
   2   1   1  270.07   25.60
  -2   1  -1  325.17   24.70
  -3  -1  -1    5.00    0.90
   3   1   1    5.00    2.50
   3   1   1    6.20    2.40
   3   1   1    3.70    3.10
   4   1   1  250.67   23.50
   4   1   1  269.07   24.10
   5   2  -1   63.39    9.80
   5   2  -1   55.19    8.30
  -4  -2   1   22.20    5.10
  -4  -2   1   25.30    2.70
   4   2  -1   28.60    6.60
   4   2  -1   26.30    5.90
   4   2  -1   28.00    5.80
   3  -2  -1  324.07   26.80
  -3  -2   1  302.17   23.00
   3  -2  -1  248.68   25.00
   3   2  -1  282.27   25.50
   3   2  -1  298.37   25.70
   3   2  -1  305.77   26.10
  -2  -2   1  184.58   16.40
  -2  -2   1  186.98   15.10
   2  -2  -1  205.68   17.50
  -2   2   1  201.68   14.40
   2   2  -1  178.58   15.80
  -2   2   1  215.18   15.60
   2   2  -1  158.68   15.90
   2   2  -1  159.28   15.50
   1  -2  -1  396.06   35.10
   1  -2  -1  475.05   34.80
  -1   2   1  456.45   34.20
   1   2  -1  432.96   34.20
  -1   2   1  427.26   34.80
   0  -2   1 1261.97   98.49
   0   2   1 1423.46  107.89
   0   2   1 1312.07  108.19
   0   2  -1 1427.86  107.89
   1  -2   1  828.72   63.19
   1  -2   1  794.02   63.89
   1   2   1  803.82   62.39
  -1   2  -1  804.02   62.39
   1   2   1  795.72   62.49
   2  -2   1  231.88   16.80
   2  -2   1  239.48   18.20
   2  -2   1  202.48   17.30
  -2  -2  -1  190.08   16.60
   2  -2   1  203.68   18.60
   2   2   1  180.38   16.00
   2   2   1  174.58   16.30
   2   2   1  157.88   15.80
  -2   2  -1  212.88   16.10
  -2   2  -1  215.28   14.90
  -3  -2  -1   90.89    6.90
  -3  -2  -1   74.39    8.50
   3   2   1   84.09    9.00
   3   2   1   86.19    9.80
   3   2   1   86.59    9.20
   4   2   1   40.50    6.60
   4   2   1   47.10    8.00
   4   2   1   47.80    7.30
   4   2   1   38.10    7.80
   5   2   1   54.29    9.10
   5   2   1   64.99    7.90
   5   3  -1   12.90    3.90
   5   3  -1   10.20    5.80
  -4  -3   1   65.59    5.50
  -4  -3   1   50.69    7.60
   4   3  -1   63.09    9.30
   4   3  -1   62.09   10.00
   4   3  -1   66.09    8.70
   4   3  -1   63.59    9.50
   4   3  -1   70.69    9.40
   4   3  -1   53.69    9.60
   3  -3  -1   37.90    7.30
  -3  -3   1   29.40    5.50
  -3  -3   1   36.10    3.60
   3   3  -1   35.60    6.80
   3   3  -1   35.00    6.00
   3   3  -1   35.60    6.40
   2  -3  -1  248.08   19.90
  -2  -3   1  246.18   19.40
  -2  -3   1  249.97   20.70
   2  -3  -1  288.97   22.60
   2  -3  -1  203.58   20.80
  -2   3   1  248.58   18.50
   2   3  -1  249.38   20.00
   2   3  -1  209.58   19.70
   2   3  -1  204.98   19.90
  -2   3   1  258.97   19.80
  -1  -3   1  747.33   57.89
   1  -3  -1  749.42   57.89
   1  -3  -1  697.03   58.39
  -1   3   1  735.53   57.39
  -1   3   1  711.03   58.09
   1   3  -1  762.82   57.39
   0  -3   1  452.85   35.20
   0  -3   1  425.06   34.80
   0   3  -1  485.65   36.20
   0   3   1  475.25   36.20
   0   3   1  430.26   36.50
   1  -3   1 1250.17   92.89
   1  -3   1 1107.19   93.69
   1  -3   1 1219.28   94.39
   1   3   1 1147.09   89.69
  -1   3  -1 1157.98   89.79
   2  -3   1 1015.10   77.79
   2  -3   1  994.90   76.29
  -2  -3  -1  941.21   76.19
   2  -3   1  935.91   76.89
   2  -3   1 1002.70   78.89
   2   3   1  835.02   68.09
  -2   3  -1  892.01   67.89
  -2   3  -1  905.01   66.59
   2   3   1  887.21   67.99
   2   3   1  747.93   67.69
  -3  -3  -1   30.30    4.80
   3   3   1   37.50    6.20
   3   3   1   38.80    6.20
   3   3   1   33.60    6.60
  -4  -3  -1   39.30    7.00
  -4  -3  -1   39.10    4.00
   4   3   1   43.00    8.10
   4   3   1   41.30    7.80
   4   3   1   43.40    7.80
   4   3   1   36.10    5.50
   4   3   1   44.10    7.60
   5   3   1  486.75   42.10
   5   3   1  516.45   41.50
  -5  -4   1   24.30    3.40
   5   4  -1   41.30    5.90
   5   4  -1   33.40    6.50
  -4  -4   1   96.39   10.80
   4   4  -1  103.29   12.50
   4   4  -1  116.89   12.60
   4   4  -1   95.29   11.40
   4   4  -1  110.59   11.90
   4   4  -1   88.29   12.30
   4   4  -1   95.39   12.30
   3  -4  -1  101.79   13.10
  -3  -4   1   83.39    9.60
  -3  -4   1   96.09    7.90
  -3   4   1   81.99    7.20
   3   4  -1   97.99   10.10
   3   4  -1   80.29   10.20
   3   4  -1   93.69   10.90
  -2  -4   1  479.05   37.00
   2  -4  -1  467.25   36.20
  -2  -4   1  399.36   36.70
  -2  -4   1  450.15   35.60
   2  -4  -1  472.95   38.80
   2   4  -1  446.66   33.30
  -2   4   1  412.76   31.40
   2   4  -1  361.06   33.00
  -2   4   1  410.06   32.90
  -2   4   1  419.26   31.50
   2   4  -1  354.36   32.90
   1  -4  -1 1608.04  131.89
  -1  -4   1 1733.93  131.19
  -1   4   1 1678.73  139.99
  -1   4   1 1781.62  139.19
   1   4  -1 1905.81  139.19
   0  -4   1  732.43   58.49
   0  -4  -1  691.93   58.79
   0  -4   1  800.02   59.09
   0   4  -1  685.23   60.89
   0   4  -1  840.42   60.39
   0   4   1  866.51   60.49
   0   4   1  712.63   60.89
   1  -4   1  387.66   30.30
   1  -4   1  371.26   29.30
  -1  -4  -1  321.77   28.80
  -1   4  -1  367.66   31.60
   1   4   1  413.36   30.70
  -1   4  -1  391.56   30.60
  -2  -4  -1 1405.76  113.39
   2  -4   1 1488.85  115.39
   2  -4   1 1429.16  112.89
   2  -4   1 1422.26  113.89
  -2  -4  -1 1451.05  112.19
  -2   4  -1 1300.37  105.39
  -2   4  -1 1297.77  103.89
   2   4   1 1350.26  105.69
  -2   4  -1 1300.47  103.69
   2   4   1 1415.56  105.49
   3  -4   1  151.18   13.50
  -3  -4  -1  156.48   14.70
   3   4   1  167.08   16.20
   3   4   1  170.68   15.60
   3   4   1  139.09   15.30
  -4  -4  -1    5.50    3.10
  -4  -4  -1    4.00    1.60
  -4  -4  -1    7.30    4.40
   4   4   1    0.00    5.70
   4   4   1    6.80    4.70
   4   4   1    6.20    4.70
   4   4   1    8.20    4.10
   4   4   1    7.00    2.80
  -5  -4  -1   41.20    4.70
   5   4   1   52.49    7.00
   5   4   1   45.50    7.80
  -5  -5   1    4.50    1.50
   5   5  -1    2.90    3.60
   5   5  -1    3.20    2.50
   4  -5  -1  224.38   18.90
  -4  -5   1  192.58   16.50
  -4  -5   1  179.38   18.80
  -4  -5   1  215.88   17.30
  -4  -5   1  205.88   18.80
   4   5  -1  212.28   20.70
   4   5  -1  218.68   18.30
   4   5  -1  213.18   20.00
   4   5  -1  218.38   20.90
   4   5  -1  192.68   19.80
   4   5  -1  191.18   20.30
  -3  -5   1   42.20    5.60
  -3  -5   1   66.69    5.30
   3  -5  -1   55.89   10.30
  -3  -5   1   53.89    7.10
   3   5  -1   61.79    7.70
   3   5  -1   53.89    8.40
  -3   5   1   43.80    6.90
   3   5  -1   52.79    7.50
  -3   5   1   53.19    5.00
  -2  -5   1  171.08   15.50
   2  -5  -1  186.68   14.80
  -2  -5   1  166.58   13.90
   2  -5  -1  168.28   17.20
   2   5  -1  146.29   13.80
   2   5  -1  176.68   14.30
  -2   5   1  141.99   11.90
  -2   5   1  161.08   13.00
  -2   5   1  152.38   12.00
   2   5  -1  128.69   13.50
  -2   5   1  134.69   13.40
   1  -5  -1  183.98   18.30
  -1  -5   1  203.68   17.70
   1  -5  -1  221.68   17.00
   1  -5  -1  192.28   18.10
  -1  -5   1  224.18   17.40
  -1   5   1  205.58   15.70
  -1   5   1  187.68   15.80
  -1   5   1  194.78   16.90
  -1   5   1  201.28   16.30
   0  -5  -1   75.39    8.70
   0  -5  -1  102.79    8.80
   0  -5   1   89.19    8.80
   0  -5   1   86.09    8.00
   0   5   1   81.79    8.30
   0   5   1  101.19    7.40
   0   5  -1  102.49    7.40
   0   5   1   87.19    8.00
   0   5  -1   78.49    7.90
   1  -5   1  529.55   40.20
  -1  -5  -1  432.86   38.50
   1  -5   1  480.85   38.30
   1  -5   1  484.05   39.00
  -1   5  -1  487.45   37.20
  -1   5  -1  452.15   37.20
   1   5   1  517.75   37.30
  -1   5  -1  442.16   38.30
   1   5   1  475.55   38.50
   2  -5   1  447.86   34.40
  -2  -5  -1  479.85   35.20
  -2  -5  -1  354.66   34.60
   2  -5   1  463.25   37.30
  -2  -5  -1  392.16   33.40
   2   5   1  304.07   29.50
   2   5   1  407.66   30.50
  -2   5  -1  339.27   28.10
  -2   5  -1  371.66   28.10
  -3  -5  -1  121.29    9.40
  -3  -5  -1   89.89   10.00
   3  -5   1  123.69   10.50
  -3  -5  -1  118.49   11.90
  -3  -5  -1  108.49   11.30
   3   5   1  134.79   12.80
   3   5   1  116.49   12.10
  -3   5  -1  100.49    9.30
  -4  -5  -1   58.09    5.40
  -4  -5  -1   55.79    6.00
  -4  -5  -1   56.09    7.50
   4   5   1   55.39    8.40
   4   5   1   70.99    8.10
   4   5   1   69.89    9.10
   4   5   1   59.99    9.60
   4   5   1   66.19   10.80
   5   5   1  175.38   16.60
   4  -6  -1   44.10    6.30
   4  -6  -1   33.70    6.10
   4  -6  -1   49.90    7.60
   4  -6  -1   37.00    6.00
  -4  -6   1   36.10    5.00
   4   6  -1   38.90    6.30
   4   6  -1   44.60    5.50
   4   6  -1   48.80    8.90
   4   6  -1   36.40    7.20
   3  -6  -1   56.69    6.40
  -3  -6   1   52.09    5.20
   3  -6  -1   37.30    9.00
  -3  -6   1   43.40    6.40
  -3  -6   1   63.99    8.00
  -3  -6   1   51.29    5.80
   3   6  -1   57.49    8.00
   3   6  -1   51.09    8.50
  -3   6   1   55.69    6.80
  -3   6   1   57.09    5.50
  -2  -6   1   72.09    7.40
   2  -6  -1   59.29    6.40
   2  -6  -1   58.79    9.90
   2   6  -1   59.29    7.80
  -2   6   1   65.19    6.00
  -2   6   1   66.69    6.60
   1  -6  -1  109.99   12.30
   1  -6  -1  103.59   12.10
  -1  -6   1  146.49   11.50
   1  -6  -1  132.39   10.90
  -1  -6   1  115.19   11.70
  -1   6   1  111.39    9.50
  -1   6   1  115.39    9.30
  -1   6   1  128.59   10.50
  -1   6   1  101.09   10.60
   0  -6   1 2065.89  165.48
   0  -6   1 2184.08  164.38
   0  -6  -1 2060.79  165.08
   0   6   1 2095.99  162.48
   0   6  -1 2097.79  161.68
   0   6   1 2058.79  161.68
   0   6  -1 2051.29  162.38
   1  -6   1  320.17   24.60
   1  -6   1  282.77   25.20
   1  -6   1  297.87   26.50
  -1   6  -1  299.17   23.40
  -1   6  -1  289.57   23.20
  -1   6  -1  321.97   24.30
  -1   6  -1  266.37   24.50
   2  -6   1  412.86   34.80
  -2  -6  -1  347.37   31.50
   2  -6   1  432.56   31.40
  -2  -6  -1  353.16   30.20
   2   6   1  301.17   30.20
  -2   6  -1  399.06   28.90
   2   6   1  391.96   31.10
   3  -6   1  156.68   14.10
  -3  -6  -1  148.59   15.00
  -3  -6  -1  186.08   15.60
  -3  -6  -1  164.98   13.20
  -3  -6  -1  142.79   13.90
  -3   6  -1  140.09   12.30
  -3   6  -1  145.09   13.50
   3   6   1  136.99   14.70
   3   6   1  182.48   15.90
  -4  -6  -1  119.49   11.20
   4  -6   1  122.29   11.70
   4  -6   1  128.39   12.30
   4   6   1  105.69   12.20
   4   6   1  123.59   11.70
   4   6   1  120.99   15.80
   4  -7  -1   81.79    8.30
   4  -7  -1   84.79    9.00
  -4  -7   1   84.49    8.10
   4  -7  -1   83.99    9.30
   4  -7  -1   85.19    9.10
   4   7  -1   80.29    8.30
   4   7  -1   86.09   10.10
   4   7  -1   96.59   12.30
   4   7  -1   78.39   10.50
   3  -7  -1  286.47   24.10
   3  -7  -1  270.47   24.30
  -3  -7   1  278.47   22.80
   3  -7  -1  276.47   24.50
   3  -7  -1  242.58   23.30
   3  -7  -1  259.87   23.80
  -3  -7   1  322.77   24.70
   3  -7  -1  250.87   23.00
   3   7  -1  269.97   24.70
   3   7  -1  187.98   22.10
  -3   7   1  251.47   18.60
   3   7  -1  260.97   20.00
   3   7  -1  212.98   21.40
  -3   7   1  228.78   19.90
   3   7  -1  199.88   20.20
   2  -7  -1   11.90    4.80
  -2  -7   1   14.90    3.00
   2  -7  -1   16.70    3.30
  -2  -7   1   19.20    3.90
  -2   7   1   15.20    3.30
  -2   7   1   18.10    2.70
   1  -7  -1   52.49    7.00
   1  -7  -1   68.89    6.10
   1  -7  -1   55.29    7.80
  -1  -7   1   50.39    7.20
  -1   7   1   57.09    6.10
  -1   7   1   67.99    6.80
   0  -7  -1  242.68   23.30
   0  -7  -1  290.17   23.20
   0  -7   1  270.47   23.90
   0   7  -1  285.57   23.80
   0   7  -1  309.97   24.80
   0   7   1  312.97   25.00
   0   7   1  290.87   23.80
  -1  -7  -1  407.26   30.70
   1  -7   1  356.96   29.70
   1  -7   1  324.97   31.60
  -1   7  -1  312.97   26.90
  -1   7  -1  362.66   27.80
  -2  -7  -1   69.19    7.90
   2  -7   1   63.79    9.70
   2  -7   1   82.59    7.30
  -2  -7  -1   55.19    6.70
  -2   7  -1   71.39    6.60
   2   7   1   70.79    8.80
  -2   7  -1   66.39    7.40
   3  -7   1  173.08   16.80
   3  -7   1  185.48   17.30
   3  -7   1  186.48   17.10
   3  -7   1  180.18   16.40
  -3  -7  -1  206.58   17.70
  -3  -7  -1  146.79   17.50
   3  -7   1  188.18   16.90
  -3  -7  -1  221.68   18.00
  -3  -7  -1  193.98   16.20
  -3   7  -1  170.28   13.50
   3   7   1  143.19   15.60
  -3   7  -1  170.58   14.70
   3   7   1  175.68   15.10
   3   7   1  131.89   17.90
   3   7   1  169.18   15.30
   3   7   1  190.98   21.00
   4  -7   1   55.99    6.10
  -4  -7  -1   56.09    5.70
   4  -7   1   53.59    6.60
   4  -7   1   57.79    6.90
   4   7   1   58.79    9.10
   4   7   1   65.99    6.90
   4   7   1   55.59    9.30
   4   7   1   48.40    8.40
  -4  -8   1   36.40    4.70
   4  -8  -1   19.10    3.90
  -4  -8   1   28.70    3.30
   4  -8  -1   35.40    4.60
   4  -8  -1   34.40    5.00
   4  -8  -1   22.80    3.60
   4   8  -1   26.70    6.10
   4   8  -1   32.00    4.30
   4   8  -1   35.10    8.50
   4   8  -1   31.70    4.90
  -3  -8   1   44.40    5.20
   3  -8  -1   37.40    6.70
   3  -8  -1   49.30    6.20
  -3  -8   1   43.80    6.40
   3  -8  -1   42.50    6.30
   3  -8  -1   51.09    6.60
   3  -8  -1   38.60    6.70
  -3   8   1   37.90    5.50
   3   8  -1   60.59    9.80
  -3   8   1   32.20    4.10
  -3   8   1   42.60    4.60
   3   8  -1   41.60    5.50
  -2  -8   1  250.07   22.30
  -2   8   1  195.88   17.30
  -2   8   1  198.48   18.50
  -2   8   1  229.18   17.60
  -1  -8   1  124.39   11.10
   1  -8  -1  112.19   13.10
  -1  -8   1   96.39   11.40
  -1   8   1  116.89   11.70
  -1   8   1  148.89   12.00
  -1   8   1  138.09   12.60
   0  -8  -1  200.48   20.20
   0  -8   1  231.08   20.50
   0  -8  -1  221.28   19.40
   0   8   1  279.37   24.10
   0   8  -1  286.57   23.80
   1  -8   1   32.20    6.50
  -1  -8  -1   37.40    5.40
   1  -8   1   38.50    5.20
  -1   8  -1   35.00    4.40
  -1   8  -1   37.10    4.50
  -1   8  -1   35.50    5.40
  -2  -8  -1  236.38   20.40
   2  -8   1  211.68   19.40
  -2   8  -1  179.78   15.50
  -2   8  -1  189.58   15.60
  -2   8  -1  191.38   16.80
   3  -8   1  131.69   12.00
   3  -8   1  109.29   11.00
  -3  -8  -1  112.79   12.50
  -3  -8  -1  120.79   10.90
   3  -8   1  135.69   12.90
  -3  -8  -1  108.49   12.70
   3  -8   1  127.69   11.40
   3  -8   1  121.69   11.80
   3   8   1  125.69   10.50
   3   8   1   89.29   13.50
  -3   8  -1   93.99   10.10
   3   8   1  109.69   14.40
  -3   8  -1   98.79    9.20
   3   8   1  114.79   11.10
   4  -8   1   33.20    4.40
   4  -8   1   28.80    4.00
  -4  -8  -1   21.20    3.20
   4  -8   1   21.60    4.60
   4   8   1   31.00    4.40
   4   8   1   31.30    5.70
   4   8   1   16.30    5.10
   4   8   1   22.60    4.40
   4  -9  -1   11.50    2.50
  -4  -9   1   21.70    3.20
   4  -9  -1   10.10    2.80
   4  -9  -1   14.50    2.40
   4   9  -1   27.10    5.80
   4   9  -1   23.90    3.50
   3  -9  -1    9.80    3.70
  -3  -9   1    6.50    3.80
   3  -9  -1    6.50    3.30
   3  -9  -1    4.20    4.20
   3  -9  -1    6.10    4.20
   3  -9  -1    4.50    4.20
  -3  -9   1    6.20    4.70
   3   9  -1   15.80    6.60
  -3   9   1    6.30    1.80
   3   9  -1    6.00    3.70
   2  -9  -1  165.18   14.90
  -2  -9   1  174.08   15.40
   2  -9  -1  143.29   15.10
   2  -9  -1  162.38   15.60
   2  -9  -1  154.78   15.30
   2  -9  -1  131.29   14.20
  -2  -9   1  155.08   14.90
  -2  -9   1  158.78   14.70
  -2   9   1  147.29   13.60
  -2   9   1  155.48   14.90
   2   9  -1  187.78   20.70
   2   9  -1  162.18   14.70
   2   9  -1  160.18   19.50
  -1  -9   1   85.19    8.70
   1  -9  -1   64.39    9.70
  -1   9   1  112.19   11.80
  -1   9   1  118.79   10.60
   0  -9  -1    5.40    3.20
   0  -9   1    6.40    4.30
   0  -9  -1    6.90    3.00
   0   9   1   10.90    3.60
   1  -9   1  441.56   44.40
  -1  -9  -1  597.04   43.60
  -1   9  -1  674.83   56.09
  -1   9  -1  714.33   55.39
   2  -9   1   -0.60    1.90
   2  -9   1    4.10    3.10
   2  -9   1   -0.10    3.90
   2  -9   1    3.20    2.70
   2  -9   1    1.70    3.00
  -2  -9  -1   -2.70    4.30
  -2  -9  -1    4.30    3.50
   2  -9   1   -0.60    2.80
  -2  -9  -1    4.90    4.30
   2   9   1    1.00    2.10
  -2   9  -1    2.10    2.50
  -2   9  -1    0.00    2.20
   2   9   1   -1.30    7.50
  -2   9  -1    0.80    2.20
   2   9   1   -0.70    3.10
  -3  -9  -1   20.50    4.20
   3  -9   1   15.10    3.40
   3  -9   1   10.10    4.30
  -3  -9  -1   15.00    4.00
   3  -9   1   15.30    4.90
   3  -9   1   18.00    4.00
   3   9   1   11.70    3.20
   3   9   1   16.60    3.40
  -3   9  -1   17.30    2.90
   3   9   1   15.70    6.80
   4  -9   1   11.00    2.40
  -4  -9  -1    8.90    2.50
   4  -9   1   10.70    2.10
   4  -9   1   12.80    2.70
   4   9   1    5.60    3.60
   4   9   1    6.70    2.50
   4   9   1    7.70    2.20
   3 -10  -1   54.59    7.10
   3 -10  -1   61.69    7.80
  -3 -10   1   57.69    6.70
  -3 -10   1   72.79    7.00
   3 -10  -1   69.69    8.10
   3 -10  -1   58.29    8.00
   3 -10  -1   60.39    6.50
   3  10  -1   68.89   11.20
   3  10  -1   59.29    6.60
  -3  10   1   57.59    5.60
   2 -10  -1   28.70    5.00
   2 -10  -1   34.40    5.80
  -2 -10   1   40.00    6.20
   2 -10  -1   24.80    4.80
   2 -10  -1   31.90    5.00
   2 -10  -1   31.00    5.40
  -2 -10   1   38.40    5.20
   2  10  -1   51.49    9.30
   2  10  -1   29.30    4.60
   2  10  -1   24.30    7.40
  -2  10   1   38.10    4.80
  -1 -10   1   12.90    4.50
   1 -10  -1   20.60    5.00
   1 -10  -1   10.00    4.70
   1 -10  -1   13.50    4.00
  -1 -10   1   17.80    4.40
   1  10  -1    7.70    7.10
   1  10  -1   24.50    7.20
  -1  10   1   17.40    5.80
   1  10  -1   13.60    3.70
  -1  10   1   22.30    3.60
  -1  10   1   14.30    4.70
   0 -10   1  124.49   13.20
   0 -10   1  121.39   12.30
   0 -10  -1  114.29   12.00
   0 -10   1  111.59   12.30
   0 -10  -1  131.19   14.60
   0  10  -1  144.09   15.60
   0  10   1  111.29   16.60
   0  10   1  147.19   17.50
   1 -10   1   95.49   10.60
  -1 -10  -1  108.29   10.80
   1 -10   1   94.39   11.20
   1 -10   1  103.99   10.80
  -1  10  -1  125.79   14.00
  -1  10  -1  125.09   10.90
   1  10   1  102.29   14.50
   1  10   1  103.29   16.60
   2 -10   1   21.30    4.80
   2 -10   1   19.20    5.30
   2 -10   1   20.20    5.10
  -2 -10  -1   30.70    5.20
   2 -10   1   17.70    3.40
   2 -10   1   26.40    4.40
  -2 -10  -1   28.50    4.60
   2  10   1   24.20    3.90
  -2  10  -1   18.90    3.60
   2  10   1   34.10    9.80
   3 -10   1   74.39    8.20
  -3 -10  -1   76.79    7.40
   3 -10   1   72.69    7.50
   3 -10   1   67.29    7.70
  -3 -10  -1   64.69    8.30
   3 -10   1   69.79    7.60
   3  10   1   76.39   12.40
  -3  10  -1   62.09    6.50
   3  10   1   73.89    7.10
  -3 -11   1  132.89   11.30
  -3 -11   1  109.19   11.20
   3 -11  -1  135.49   11.70
   3 -11  -1  136.19   11.40
   3 -11  -1  139.39   11.20
   3 -11  -1  138.59   11.70
   3  11  -1  144.19   14.10
   2 -11  -1   56.89    6.20
  -2 -11   1   68.69    6.80
   2 -11  -1   58.29    7.70
   2 -11  -1   47.10    7.30
  -2 -11   1   60.79    7.20
   2 -11  -1   66.69    7.30
  -2  11   1   87.29    9.80
   2  11  -1   67.19   11.20
   2  11  -1   78.09   12.40
  -2  11   1   62.09    6.50
  -1 -11   1   24.60    5.60
  -1 -11   1   20.30    3.80
   1 -11  -1    8.60    4.80
   1 -11  -1   20.70    5.00
   1  11  -1   24.10    7.10
  -1  11   1   14.10    5.30
  -1  11   1   28.80    6.70
   1  11  -1   16.30    6.00
   0 -11   1  498.15   40.40
   0 -11   1  485.25   41.30
   0 -11   1  450.65   40.30
   0 -11  -1  498.85   40.30
   0 -11  -1  516.25   41.80
   0  11   1  516.85   49.10
   0  11  -1  590.14   48.40
   0  11   1  656.03   50.79
   0  11  -1  595.04   49.80
   1 -11   1   66.99    8.20
   1 -11   1   67.89    9.10
   1 -11   1   67.69    8.80
  -1 -11  -1   68.09    8.40
  -1  11  -1   88.49   11.10
   1  11   1   74.39   12.20
   1  11   1   83.79   13.80
   2 -11   1   37.30    6.20
  -2 -11  -1   44.90    6.20
   2 -11   1   41.40    5.20
   2 -11   1   38.00    4.60
  -2 -11  -1   43.60    6.10
   2 -11   1   37.80    6.00
   2 -11   1   44.00    6.60
  -2  11  -1   40.90    4.40
   2  11   1   28.80    4.70
   2  11   1   45.20    8.30
  -2  11  -1   45.70    7.10
  -3 -11  -1   11.10    2.60
  -3 -11  -1   17.00    2.60
   3 -11   1   10.50    2.00
   3 -11   1    9.60    2.60
   3 -11   1   13.60    2.90
   3 -11   1   12.90    2.40
   3  11   1   11.00    2.30
   3  11   1   20.40    5.00
   2 -12  -1    2.20    2.30
  -2 -12   1    2.40    2.00
  -2 -12   1    2.30    2.40
   2 -12  -1    4.10    3.80
  -2  12   1    1.20    4.90
   2  12  -1    3.60    5.30
   2  12  -1    3.10    3.80
  -1 -12   1  197.88   16.60
   1 -12  -1  186.48   17.10
   1 -12  -1  175.58   16.20
  -1  12   1  222.88   20.40
  -1  12   1  211.48   19.00
   1  12  -1  226.68   20.90
   0 -12   1    0.30    3.30
   0 -12   1    3.10    3.10
   0 -12  -1    4.80    3.00
   0  12   1    3.00    6.40
   0  12  -1    4.80    6.70
   0  12   1    6.30    5.20
   1 -12   1   29.90    5.30
  -1 -12  -1   40.70    5.30
   1 -12   1   26.50    5.20
   1 -12   1   31.70    5.00
   1  12   1   34.50    7.00
  -1  12  -1   42.20    6.10
   1  12   1   28.10    7.80
  -1  12  -1   41.70    6.90
   2 -12   1   45.80    5.10
  -2 -12  -1   45.50    5.10
   2 -12   1   35.70    5.30
   2 -12   1   34.20    5.70
  -2  12  -1   44.00    7.20
   2  12   1   44.70    7.30
  -2  12  -1   51.99    5.90
  -1 -13   1   65.29    6.60
   1  13  -1   67.49    7.30
   1  13  -1   55.09    6.30
  -1  13   1   40.90    6.60
   0 -13  -1   73.39    7.10
   0  13   1  128.29   11.30
   0  13   1   89.09   10.40
   0  13  -1  105.89   11.00
   1 -13   1   27.10    3.80
  -1 -13  -1   32.10    4.20
  -1  13  -1   23.20    4.30
   1  13   1   35.50    5.10
   1  13   1   27.80    4.50
  -1  13  -1   21.20    3.70
   4   0  -2  156.78   16.50
   4   0  -2  171.68   16.70
  -4   0   2  160.98   13.10
  -3   0   2   -0.20    0.70
   3   0  -2    0.80    2.30
   3   0  -2    0.40    2.10
  -3   0   2   -0.40    2.00
   3   0  -2    1.00    2.70
   3   0  -2    0.30    2.10
  -2   0   2   41.00    5.70
   2   0  -2   53.39    6.40
  -2   0   2   48.90    4.50
  -1   0   2  613.44   48.90
  -1   0   2  644.84   49.30
   0   0   2  550.34   42.90
   0   0   2  552.84   43.20
   1   0   2 7293.47  526.25
   1   0   2 6219.08  524.75
   2   0   2   16.50    3.00
   2   0   2   17.90    1.90
   2   0   2   17.10    3.30
   3   0   2  361.16   30.30
   5   1  -2   36.40    6.10
  -4  -1   2   17.90    2.30
   4  -1  -2   14.50    4.60
   4   1  -2   18.70    5.60
   4   1  -2   21.60    5.90
   3  -1  -2  393.36   37.40
  -3  -1   2  476.75   35.20
   3  -1  -2  461.65   37.90
  -3  -1   2  393.06   37.20
   3  -1  -2  522.55   39.10
   3   1  -2  488.65   38.30
   3   1  -2  427.96   37.40
   3   1  -2  471.35   38.30
  -3   1   2  424.66   38.10
   2  -1  -2  127.69   12.80
  -2  -1   2  125.59   12.00
   2  -1  -2  148.69   12.80
   2   1  -2  117.59   11.90
   2   1  -2  154.88   12.60
  -2   1   2  150.18   11.50
   2   1  -2  113.59   12.00
  -1  -1   2 1207.28   94.09
  -1   1   2 1262.47   94.39
  -1   1   2 1152.78   93.89
   0  -1   2 2111.39  162.98
   0  -1   2 2082.19  163.28
   0   1   2 2118.19  168.68
   0   1   2 2221.88  168.98
   1  -1   2 5327.47  417.46
   1  -1   2 5416.86  418.06
   1   1   2 5739.53  430.16
   1   1   2 5310.37  429.36
   2  -1   2  634.64   47.90
   2  -1   2  614.04   46.60
   2  -1   2  539.55   47.10
   2   1   2  446.46   37.20
   2   1   2  471.95   37.10
   3  -1   2  202.28   18.30
  -3  -1  -2  211.98   16.40
   3   1   2  209.28   18.60
   3   1   2  205.98   18.80
  -4  -1  -2   40.20    3.80
   4   1   2   47.90    6.80
   4   1   2   39.20    7.30
   5   2  -2  159.08   14.90
   5   2  -2  139.89   13.80
  -4  -2   2   14.70    2.10
  -4  -2   2   12.80    4.90
   4   2  -2   14.10    5.90
   4   2  -2   15.50    4.60
   4   2  -2   14.10    5.30
  -3  -2   2   56.29    8.40
   3  -2  -2   63.29    8.60
  -3  -2   2   58.79    5.10
   3  -2  -2   52.69    7.40
   3   2  -2   54.69    7.30
   3   2  -2   53.89    7.90
   3   2  -2   53.29    7.10
  -2  -2   2   61.39    6.70
  -2  -2   2   58.29    5.00
   2  -2  -2   52.39    7.10
   2  -2  -2   67.79    7.80
  -2   2   2   66.89    6.00
  -2   2   2   58.29    4.60
   2   2  -2   51.99    6.40
   2   2  -2   51.89    5.90
   2   2  -2   49.70    6.10
   1  -2  -2   22.10    3.60
  -1  -2   2   21.90    3.40
  -1  -2   2   24.50    2.20
  -1   2   2   25.20    2.30
  -1   2   2   22.80    3.30
   1   2  -2   25.70    2.00
   0  -2   2 1002.30   74.39
   0  -2   2  909.71   74.79
   0   2  -2  995.50   78.29
   0   2   2 1004.20   78.39
   0   2   2 1020.90   78.69
   1  -2   2 3114.59  244.38
   1  -2   2 3172.88  245.18
  -1   2  -2 2910.11  236.88
   1   2   2 3089.49  236.98
   1   2   2 3142.39  237.28
   2  -2   2   66.69    5.20
  -2  -2  -2   60.29    5.00
   2  -2   2   64.79    5.90
   2  -2   2   71.89    6.80
  -2  -2  -2   50.19    5.90
   2   2   2   63.29    5.10
   2   2   2   52.89    6.00
   2   2   2   69.89    6.60
  -2   2  -2   61.69    5.00
   2   2   2   52.99    6.50
  -3  -2  -2   23.30    2.40
   3   2   2   28.20    5.50
   3   2   2   22.80    4.60
  -4  -2  -2  126.69    9.60
  -4  -2  -2  104.69   11.80
   4   2   2  113.19   14.60
   4   2   2  140.59   13.60
   4   2   2   97.79   14.50
   4   2   2  122.99   12.10
   4   2   2  136.89   13.60
   5   2   2   11.00    3.80
   5   3  -2   23.10    4.70
   5   3  -2   22.80    5.40
   5   3  -2   23.80    5.20
  -4  -3   2    4.20    1.50
  -4  -3   2    5.70    4.30
   4   3  -2    5.00    5.70
   4   3  -2    4.20    4.90
   4   3  -2    7.80    3.50
   4   3  -2    5.80    4.40
   4   3  -2    6.30    5.20
   4   3  -2    7.40    4.70
   3  -3  -2   29.90    6.50
   3  -3  -2   21.30    5.40
  -3  -3   2   25.30    2.90
   3   3  -2   29.00    5.80
   3   3  -2   27.10    5.70
   3   3  -2   26.50    5.20
   2  -3  -2  868.11   64.29
  -2  -3   2  798.02   61.49
   2  -3  -2  707.93   63.29
   2  -3  -2  776.92   61.89
  -2  -3   2  789.12   62.89
  -2   3   2  756.02   56.69
   2   3  -2  637.34   58.19
  -2   3   2  730.03   56.59
  -2   3   2  726.43   57.09
   2   3  -2  694.63   58.09
  -2   3   2  800.82   57.89
   2   3  -2  738.23   58.19
  -1  -3   2  188.58   15.20
   1  -3  -2  167.38   15.50
  -1   3   2  198.68   15.40
  -1   3   2  191.28   16.20
   0  -3   2 3545.55  300.17
   0  -3   2 4166.58  300.67
   0   3  -2 3906.61  295.47
   0   3   2 3794.12  295.47
   0   3   2 3703.43  295.87
   1  -3   2 1282.87   97.29
   1  -3   2 1267.27   98.89
   1  -3   2 1198.48   98.19
  -1   3  -2 1252.07   98.79
   1   3   2 1284.67   98.79
   2  -3   2 1374.26  105.49
  -2  -3  -2 1265.27  104.89
   2  -3   2 1377.16  104.59
   2  -3   2 1326.07  103.89
   2  -3   2 1322.27  106.39
   2   3   2 1258.57   95.39
   2   3   2 1067.29   95.19
   2   3   2 1292.57   95.79
  -3  -3  -2  191.88   14.50
   3  -3   2  180.58   15.70
  -3  -3  -2  167.88   16.10
   3   3   2  177.38   17.20
   3   3   2  194.58   17.80
   3   3   2  181.88   17.00
  -4  -3  -2   17.30    5.30
  -4  -3  -2   17.60    2.30
   4   3   2   15.80    4.20
   4   3   2   16.80    6.70
   4   3   2   21.60    5.10
   4   3   2   15.80    5.10
   4   3   2   14.10    5.20
   5   3   2  178.78   16.20
   5   3   2  150.18   15.50
  -5  -4   2  123.19   10.50
   5   4  -2  119.89   13.30
   5   4  -2  154.58   13.00
   5   4  -2  125.59   13.50
  -4  -4   2   66.89    7.10
  -4  -4   2   79.79    6.60
  -4  -4   2   65.99    9.50
   4   4  -2   66.29   10.00
   4   4  -2   67.59    8.80
   4   4  -2   77.79   10.10
   4   4  -2   78.89   10.10
   4   4  -2   60.29    9.70
   4   4  -2   60.89   10.40
   3  -4  -2   75.29   11.50
  -3  -4   2   69.29    9.00
   3  -4  -2   78.09   10.70
  -3  -4   2   78.79    6.70
   3   4  -2   81.89    9.60
   3   4  -2   77.19    9.80
   3   4  -2   89.09   10.00
  -3   4   2   69.39    6.50
  -2  -4   2   46.70    6.00
  -2  -4   2   49.99    4.60
   2  -4  -2   54.49    5.10
  -2  -4   2   56.89    6.10
   2  -4  -2   55.89    8.10
   2  -4  -2   46.00    6.50
  -2   4   2   52.69    4.90
   2   4  -2   43.30    5.70
  -2   4   2   44.90    5.70
  -2   4   2   47.50    4.20
   2   4  -2   52.29    6.30
  -2   4   2   50.49    4.30
   2   4  -2   45.50    5.80
  -1  -4   2  563.14   41.10
   1  -4  -2  452.35   41.40
  -1   4   2  516.75   41.60
  -1   4   2  524.45   40.70
   0  -4   2  693.93   49.40
   0  -4   2  615.44   48.70
   0  -4  -2  535.35   48.90
   0   4  -2  709.03   54.09
   0   4   2  717.23   54.19
   0   4   2  655.83   54.69
   1  -4   2  149.09   13.90
  -1  -4  -2  185.58   13.90
   1  -4   2  137.49   13.30
   1  -4   2  157.58   14.90
   1   4   2  172.68   12.30
  -1   4  -2  159.78   12.30
  -1   4  -2  135.09   12.20
   2  -4   2  579.54   42.60
  -2  -4  -2  534.65   42.90
   2  -4   2  576.14   45.00
  -2  -4  -2  463.55   42.80
   2  -4   2  519.95   43.50
  -2  -4  -2  524.35   41.60
  -2   4  -2  491.85   41.00
   2   4   2  445.06   40.70
   2   4   2  557.04   41.50
  -2   4  -2  486.65   39.40
  -2   4  -2  527.85   39.30
  -3  -4  -2    3.10    1.40
  -3  -4  -2    1.30    3.30
   3  -4   2    7.30    3.10
  -3  -4  -2    4.20    2.60
   3   4   2    4.90    4.00
   3   4   2    0.70    3.40
  -4  -4  -2   35.80    3.80
  -4  -4  -2   35.40    5.90
   4   4   2   39.70    8.00
   4   4   2   32.60    5.60
   4   4   2   41.40    6.90
   4   4   2   50.29    7.70
   4   4   2   35.30    8.60
   5   4   2   52.49    7.20
   5   4   2   58.69    9.80
   5   4   2   68.19    7.70
  -5  -5   2   20.60    2.70
   5   5  -2   28.40    5.40
   5   5  -2   21.00    5.30
   5   5  -2   15.80    3.60
   4  -5  -2   49.70    7.10
  -4  -5   2   46.00    7.00
   4  -5  -2   60.79    8.00
   4  -5  -2   60.19    7.80
  -4  -5   2   52.69    5.90
   4   5  -2   55.69   10.00
   4   5  -2   47.60    8.00
   4   5  -2   45.80    7.60
   4   5  -2   56.19    7.60
   4   5  -2   55.09    8.60
  -4   5   2   44.00    4.60
  -3  -5   2  128.79   13.00
   3  -5  -2  121.69   15.50
  -3  -5   2  114.59   11.00
  -3  -5   2  136.99   10.70
   3   5  -2  139.19   13.80
   3   5  -2  124.09   13.80
  -3   5   2  118.59   10.40
   3   5  -2  124.99   13.70
   2  -5  -2   33.10    6.20
  -2  -5   2   32.60    4.60
  -2  -5   2   27.60    3.40
   2  -5  -2   39.80    4.10
   2  -5  -2   31.50    5.90
  -2  -5   2   33.90    4.70
   2   5  -2   29.80    5.40
  -2   5   2   34.40    4.00
  -2   5   2   31.70    3.30
   2   5  -2   31.40    5.40
  -2   5   2   31.00    3.10
  -2   5   2   32.40    5.40
   2   5  -2   34.30    4.90
   1  -5  -2  415.26   30.90
   1  -5  -2  364.26   32.10
  -1  -5   2  420.16   31.80
  -1  -5   2  370.96   31.10
   1  -5  -2  348.87   32.10
  -1   5   2  350.66   29.30
  -1   5   2  385.26   29.90
  -1   5   2  370.16   30.30
  -1   5   2  379.36   29.20
   0  -5  -2  149.39   14.80
   0  -5   2  191.58   15.30
   0  -5   2  165.98   14.40
   0   5   2  207.08   15.20
   0   5  -2  212.28   15.10
   0   5   2  184.38   15.90
   0   5  -2  166.98   15.90
   0   5   2  183.58   15.90
   1  -5   2  339.67   30.90
   1  -5   2  409.06   32.40
  -1  -5  -2  396.76   30.70
   1  -5   2  357.76   30.20
  -1   5  -2  350.96   29.10
   1   5   2  403.66   29.10
   1   5   2  413.16   30.60
  -1   5  -2  324.67   30.10
  -1   5  -2  353.76   29.00
   1   5   2  365.36   29.80
   2  -5   2  468.55   37.40
  -2  -5  -2  535.55   38.10
  -2  -5  -2  431.36   36.40
   2  -5   2  450.85   40.00
  -2  -5  -2  429.76   37.80
  -2   5  -2  391.96   30.60
   2   5   2  453.75   33.20
   2   5   2  323.77   32.00
  -3  -5  -2    6.90    2.90
   3  -5   2   10.50    2.70
  -3  -5  -2    3.50    1.70
  -3  -5  -2    3.50    2.30
  -3  -5  -2    5.10    3.80
   3   5   2    7.90    3.50
   3   5   2    4.90    4.30
  -3   5  -2    6.30    1.50
  -4  -5  -2   61.09    6.80
   4   5   2   78.19   13.10
   4   5   2   62.59   10.50
   4   5   2   61.69    8.30
   5   5   2   29.80    5.40
   5   5   2   25.40    3.50
   5   5   2   30.70    4.90
   4  -6  -2  233.28   20.70
   4  -6  -2  249.97   21.30
   4  -6  -2  243.08   20.90
   4  -6  -2  225.28   21.00
  -4  -6   2  231.78   19.70
   4   6  -2  204.18   18.70
   4   6  -2  240.78   23.20
   4   6  -2  244.08   20.30
   4   6  -2  204.18   20.90
  -3  -6   2  227.58   19.30
   3  -6  -2  209.78   23.70
  -3  -6   2  252.57   21.40
  -3   6   2  233.68   18.20
   3   6  -2  209.98   20.90
   3   6  -2  227.78   21.10
   2  -6  -2   72.99   10.60
  -2  -6   2   76.29    8.30
   2  -6  -2   59.69    8.60
   2  -6  -2   81.99    7.50
  -2  -6   2   80.39    8.40
   2   6  -2   54.19    7.90
  -2   6   2   70.19    7.00
  -2   6   2   69.79    6.00
   1  -6  -2  441.66   42.30
  -1  -6   2  532.45   42.00
   1  -6  -2  473.75   42.20
  -1  -6   2  589.74   41.40
  -1   6   2  520.55   38.30
  -1   6   2  453.95   38.60
  -1   6   2  468.45   37.50
  -1   6   2  460.45   37.30
   0  -6   2  518.65   40.30
   0  -6   2  481.85   41.60
   0  -6  -2  516.55   41.20
   0   6   2  481.15   39.10
   0   6   2  498.15   40.00
   0   6  -2  517.65   39.00
   0   6  -2  492.15   39.80
  -1  -6  -2  984.00   71.59
   1  -6   2  850.61   72.99
   1  -6   2  856.71   70.99
  -1   6  -2  820.42   64.09
   1   6   2  900.31   65.09
  -1   6  -2  713.63   65.19
   1   6   2  883.11   63.99
  -1   6  -2  776.52   63.89
  -2  -6  -2   84.39    8.40
  -2  -6  -2   69.99    7.90
  -2  -6  -2   54.79    6.10
   2  -6   2   66.59    9.70
   2  -6   2   71.79    7.50
  -2   6  -2   69.49    6.00
   2   6   2   47.00    6.70
   2   6   2   73.69    8.30
  -3  -6  -2  216.18   20.00
  -3  -6  -2  278.77   21.60
  -3  -6  -2  214.28   19.10
   3  -6   2  220.78   20.20
  -3  -6  -2  263.87   21.90
  -3   6  -2  202.88   16.40
   3   6   2  203.68   19.00
   4  -6   2   91.49    8.60
   4  -6   2   84.69    9.00
  -4  -6  -2   89.59    8.70
   4   6   2   88.69   12.60
   4   6   2  100.69   10.30
   4   6   2   93.29   10.80
   4  -7  -2   25.40    4.00
   4  -7  -2   18.90    4.60
   4  -7  -2   22.20    4.60
   4  -7  -2   26.80    4.50
  -4  -7   2   21.30    3.20
   4  -7  -2   21.80    4.20
  -4  -7   2   21.10    4.10
   4   7  -2   20.20    3.30
   4   7  -2   17.10    6.00
   4   7  -2   16.70    4.40
   4   7  -2   21.30    8.50
   3  -7  -2   92.19   10.20
   3  -7  -2   73.19    9.60
   3  -7  -2   83.29   10.80
  -3  -7   2   95.89   10.00
   3  -7  -2   96.79    9.80
   3  -7  -2   93.29   10.80
  -3  -7   2   86.49    8.60
   3   7  -2   85.89    8.20
   3   7  -2   83.09   12.50
   3   7  -2   74.79    9.70
   3   7  -2   71.29    9.40
   3   7  -2   93.29   14.60
  -3   7   2   70.19    8.00
  -3   7   2   80.59    7.20
   2  -7  -2  160.38   17.60
  -2  -7   2  161.48   13.80
  -2   7   2  186.18   14.90
  -2   7   2  174.28   15.40
  -2   7   2  177.18   15.90
   1  -7  -2   80.99    9.30
   1  -7  -2   73.39   10.10
  -1  -7   2   88.59    9.50
  -1   7   2   88.89    8.60
  -1   7   2  109.69    9.50
   0  -7   2  250.97   24.50
   0  -7  -2  283.17   23.90
   0  -7   2  301.17   23.00
   0   7   2  320.07   26.50
  -1  -7  -2   45.50    6.30
   1  -7   2   45.70    5.40
   1  -7   2   39.20    6.80
  -1   7  -2   42.70    5.70
  -1   7  -2   42.30    4.60
  -2  -7  -2  189.78   15.90
  -2  -7  -2  144.39   14.20
   2  -7   2  152.48   18.10
   2  -7   2  190.28   15.30
  -2   7  -2  189.18   16.40
  -2   7  -2  178.98   15.20
   3  -7   2  135.59   13.20
  -3  -7  -2  147.29   13.40
  -3  -7  -2  148.59   13.70
   3  -7   2  116.09   12.20
   3  -7   2  121.79   12.50
   3  -7   2  138.29   13.50
  -3  -7  -2  123.49   12.00
   3  -7   2  117.49   12.90
   3   7   2  105.09   12.10
   3   7   2  123.59   11.20
   3   7   2  136.29   17.50
   3   7   2  119.39   11.90
   3   7   2  105.29   15.30
  -3   7  -2  108.69   11.40
  -3   7  -2  119.69    9.90
   4  -7   2   78.39    7.70
   4  -7   2   74.19    8.30
   4  -7   2   71.49    7.80
  -4  -7  -2   69.39    6.90
   4   7   2   74.69    8.90
   4   7   2   84.69    8.10
   4   7   2   71.29   12.30
  -4  -8   2   66.19    7.00
   4  -8  -2   74.39    8.30
  -4  -8   2   66.99    6.30
   4  -8  -2   73.49    7.90
   4  -8  -2   69.79    7.30
   4  -8  -2   60.69    7.20
   4  -8  -2   72.59    7.70
   4   8  -2   76.79   10.70
   4   8  -2   79.49    8.10
   4   8  -2   75.89   10.60
   4   8  -2   70.49    7.50
  -3  -8   2    4.40    3.20
   3  -8  -2    3.10    3.10
   3  -8  -2   10.90    4.50
  -3  -8   2    3.80    2.70
   3  -8  -2    3.50    4.10
  -3  -8   2    3.60    2.30
   3  -8  -2    5.00    3.30
   3  -8  -2    0.20    3.40
   3   8  -2    1.80    5.20
  -3   8   2    5.10    3.40
   3   8  -2    1.30    2.20
   3   8  -2    2.10    6.20
  -3   8   2    1.80    1.80
  -3   8   2    0.40    1.80
  -2  -8   2  183.18   16.80
  -2   8   2  167.38   15.40
  -2   8   2  187.28   14.60
  -2   8   2  156.08   14.40
   1  -8  -2   24.50    6.10
  -1  -8   2   30.80    6.00
   1  -8  -2   21.90    5.20
  -1   8   2   42.20    6.40
  -1   8   2   49.99    5.30
   0  -8   2  368.56   32.10
   0  -8  -2  360.56   30.90
   0   8   2  461.85   37.90
   1  -8   2  122.29   15.20
  -1  -8  -2  152.58   13.70
   1  -8   2  143.59   12.90
  -1   8  -2  141.29   13.30
  -1   8  -2  156.58   13.30
  -1   8  -2  166.08   14.30
  -2  -8  -2  188.98   17.30
   2  -8   2  168.48   15.80
  -2   8  -2  168.18   14.60
  -2   8  -2  168.28   13.60
  -2   8  -2  147.79   13.40
   3  -8   2   30.70    5.80
   3  -8   2   40.90    6.00
  -3  -8  -2   47.10    6.40
  -3  -8  -2   37.20    5.10
   3  -8   2   48.20    5.80
   3  -8   2   43.80    6.40
   3   8   2   29.10    7.80
   3   8   2   36.60    8.20
   3   8   2   38.10    5.30
   3   8   2   42.40    5.40
   4  -8   2  142.69   11.40
  -4  -8  -2  120.39   11.80
   4  -8   2  151.98   12.20
  -4  -8  -2  119.39   11.00
   4   8   2  133.69   11.30
   4   8   2  115.69   12.80
   4  -9  -2    4.10    2.40
   4  -9  -2    2.10    2.00
   4  -9  -2    4.00    2.50
  -4  -9   2    6.30    2.20
   4  -9  -2    3.60    2.10
   4   9  -2    3.20    4.00
   4   9  -2    3.20    2.00
   3  -9  -2    8.10    3.50
   3  -9  -2    5.30    3.50
   3  -9  -2   11.80    3.60
  -3  -9   2   11.70    3.60
   3  -9  -2   10.30    3.60
   3  -9  -2    9.10    3.80
  -3   9   2    6.20    2.20
   3   9  -2   11.70    3.00
   3   9  -2   13.60    6.60
   3   9  -2    9.50    6.30
   2  -9  -2   57.69    7.80
   2  -9  -2   57.89    7.20
   2  -9  -2   52.19    7.30
  -2  -9   2   54.59    6.90
  -2  -9   2   59.29    8.00
  -2  -9   2   48.40    6.60
   2  -9  -2   52.09    6.60
   2  -9  -2   49.90    7.00
   2  -9  -2   38.40    7.30
  -2   9   2   56.19    6.80
   2   9  -2   60.29   10.00
   2   9  -2   43.40    6.50
  -2   9   2   47.40    5.60
  -2   9   2   64.89    6.20
   2   9  -2   64.49   10.80
   1  -9  -2    4.10    4.30
  -1  -9   2    4.10    3.10
  -1   9   2   10.30    2.90
  -1   9   2    8.80    3.40
   0  -9   2  294.77   29.00
   0  -9  -2  346.97   28.30
   0   9   2  467.55   38.60
  -1  -9  -2  130.69   13.10
   1  -9   2  149.99   11.90
   1  -9   2   96.29   14.00
  -1   9  -2  155.08   14.00
  -1   9  -2  147.49   13.30
   2  -9   2    2.10    4.40
  -2  -9  -2    7.70    3.20
   2  -9   2    8.70    3.90
   2  -9   2    7.00    3.20
   2  -9   2    5.50    4.30
   2  -9   2    2.20    2.90
   2  -9   2    7.70    3.30
  -2  -9  -2    8.90    3.80
  -2   9  -2    5.10    3.60
   2   9   2    7.50    2.90
   2   9   2    3.50    5.70
  -2   9  -2   11.00    2.90
   2   9   2    6.40    2.50
  -2   9  -2    8.20    2.10
   3  -9   2   17.10    4.00
   3  -9   2   18.40    4.00
  -3  -9  -2   18.50    4.30
   3  -9   2   17.20    4.60
   3  -9   2   19.60    4.10
  -3   9  -2   18.20    3.00
   3   9   2   19.40    3.70
   3   9   2   16.60    3.30
   3   9   2   14.80    6.10
   3 -10  -2  197.48   16.20
  -3 -10   2  190.38   15.90
   3 -10  -2  152.08   16.00
   3 -10  -2  201.38   16.50
   3 -10  -2  182.68   16.90
   3 -10  -2  185.58   16.00
   3  10  -2  172.68   15.80
  -3  10   2  183.58   15.20
   3  10  -2  187.28   19.30
   3  10  -2  201.98   19.80
   2 -10  -2   69.79    8.60
   2 -10  -2   80.59    8.90
  -2 -10   2   85.29    9.60
   2 -10  -2   80.59    9.70
   2 -10  -2   90.19    9.20
  -2 -10   2   84.29    9.90
   2 -10  -2   79.99    8.80
   2  10  -2   79.79    9.20
   2  10  -2   74.49   11.80
  -2  10   2   83.49   10.80
   2  10  -2   92.99   15.00
  -2  10   2   89.29    8.20
   1 -10  -2   38.20    5.80
   1 -10  -2   31.20    7.00
  -1 -10   2   46.60    6.00
  -1 -10   2   49.10    6.70
   1 -10  -2   33.30    5.90
   1  10  -2   21.60    7.90
  -1  10   2   41.10    6.50
  -1  10   2   44.80    5.30
   1  10  -2   49.70    9.00
  -1  10   2   49.50    8.30
   0 -10   2  117.29   12.60
   0 -10  -2  127.59   13.10
   0 -10  -2  117.99   11.60
   0 -10   2  106.39   13.30
   0 -10   2  124.59   12.20
   0 -10  -2   92.39   11.80
   0  10  -2  124.19   16.90
   0  10   2  132.09   17.40
   0  10   2  131.59   14.00
   0  10  -2  158.78   14.90
   0  10   2  153.98   16.40
   1 -10   2  115.09   12.70
   1 -10   2  112.19   12.40
   1 -10   2  117.59   12.80
  -1 -10  -2  139.59   12.20
   1 -10   2  126.19   13.20
  -1 -10  -2   99.39   12.20
   1  10   2  135.49   16.60
  -1  10  -2  138.89   16.60
  -1  10  -2  153.88   12.90
  -1  10  -2  133.49   13.40
   1  10   2  154.78   17.30
   2 -10   2   48.90    7.30
   2 -10   2   52.69    7.60
   2 -10   2   53.39    6.20
   2 -10   2   71.49    8.50
   2 -10   2   52.79    7.40
   2 -10   2   66.69    8.60
  -2 -10  -2   71.29    7.90
  -2 -10  -2   54.49    6.70
   2  10   2   51.39    6.60
  -2  10  -2   68.09    8.80
   2  10   2   61.19    7.30
   2  10   2   79.89   11.50
  -3 -10  -2   35.80    5.20
   3 -10   2   33.90    4.80
  -3 -10  -2   34.70    5.20
   3 -10   2   31.70    4.80
   3 -10   2   34.00    5.10
   3 -10   2   33.10    4.20
   3  10   2   26.30    7.70
   3  10   2   24.80    4.20
  -3  10  -2   32.50    3.80
   3 -11  -2   42.40    4.90
  -3 -11   2   47.20    4.80
   3 -11  -2   47.10    4.90
   3 -11  -2   34.10    5.10
   3 -11  -2   33.60    4.30
   3  11  -2   34.50    5.80
   3  11  -2   45.20    6.70
  -3  11   2   34.00    5.50
   2 -11  -2   21.90    3.60
   2 -11  -2   26.20    5.10
  -2 -11   2   30.00    4.90
  -2 -11   2   22.50    4.20
   2 -11  -2   28.30    4.60
  -2  11   2   24.70    3.80
   2  11  -2   23.30    6.40
   2  11  -2   30.80    7.20
   1 -11  -2   12.70    4.50
  -1 -11   2   13.40    4.30
  -1 -11   2    7.40    4.60
   1 -11  -2    9.40    3.60
   1  11  -2   12.70    5.30
  -1  11   2   11.60    5.90
  -1  11   2   15.50    5.70
   1  11  -2    8.50    6.20
   0 -11   2   74.29    9.30
   0 -11   2   53.89    7.80
   0 -11  -2   57.99    8.70
   0 -11   2   64.29   10.10
   0 -11  -2   61.99    8.90
   0  11  -2   76.49   12.60
   0  11  -2   79.39    9.70
   0  11   2   67.79   10.90
   0  11   2   75.39   11.20
  -1 -11  -2  154.38   13.70
   1 -11   2  135.49   13.90
   1 -11   2  131.99   14.00
   1 -11   2  143.49   14.20
  -1  11  -2  155.78   16.00
   1  11   2  154.28   17.30
   1  11   2  156.48   17.90
   2 -11   2   92.09    8.60
   2 -11   2   96.59    9.40
   2 -11   2   91.19    9.30
  -2 -11  -2  106.89    9.70
   2 -11   2   78.79    9.30
   2 -11   2   81.69    9.80
   2 -11   2  100.59    9.50
  -2  11  -2   99.19    8.80
   2  11   2  101.49   14.30
  -2  11  -2   96.89   10.60
   2 -12  -2    4.90    2.40
   2 -12  -2    3.80    2.70
  -2 -12   2    2.90    2.10
  -2 -12   2    0.60    2.10
  -2  12   2    6.00    3.50
   2  12  -2    2.10    3.70
   2  12  -2    1.90    3.60
   1 -12  -2   34.40    5.70
  -1 -12   2   42.00    5.60
  -1 -12   2   29.80    4.40
  -1  12   2   30.10    5.90
   1  12  -2   41.90    7.30
   1  12  -2   20.70    7.00
  -1  12   2   46.50    7.00
   0 -12  -2  118.39   11.80
   0 -12   2  112.19   11.20
   0 -12   2  124.39   12.20
   0  12   2  132.99   15.50
   0  12  -2  138.59   15.60
   0  12  -2  139.19   13.30
   0  12   2  142.79   14.50
   1 -12   2   50.59    6.80
   1 -12   2   68.29    8.20
  -1 -12  -2   70.39    7.30
  -1  12  -2   65.59    9.00
   1  12   2   64.09    9.50
   1  12   2   62.49    8.70
  -1  12  -2   72.79    9.90
   2 -12   2   19.70    3.30
  -2 -12  -2   23.90    3.70
   2  12   2   12.70    4.60
  -2  12  -2   16.20    3.80
  -2  12  -2   20.30    3.90
  -1  13   2  127.79   12.00
   1  13  -2  123.89   12.10
   0 -13   2    5.30    2.40
   0 -13  -2    2.90    2.00
   0  13   2    4.80    3.50
   0  13   2    8.20    3.70
   0  13  -2    4.70    3.50
   5   0  -3    0.70    2.90
   5   0  -3    1.00    4.30
  -4   0   3   42.80    4.20
   4   0  -3   39.10    7.30
   4   0  -3   42.00    7.30
   3   0  -3   98.69   11.00
   3   0  -3   88.29   10.80
  -3   0   3   86.49   10.60
   3   0  -3  106.09   11.70
  -3   0   3   93.79    7.80
   2   0  -3    9.10    3.30
   2   0  -3    8.50    3.10
  -2   0   3    7.90    2.50
  -2   0   3    8.10    1.90
   2   0  -3    8.10    2.80
   1   0  -3  582.44   49.40
  -1   0   3  658.23   48.30
   0   0   3    0.50    0.70
   0   0   3    0.50    1.40
   1   0   3    9.70    2.30
   1   0   3   12.30    1.30
   2   0   3  415.66   34.40
   2   0   3  374.16   34.70
   2   0   3  488.55   33.40
   2   0   3  426.56   34.10
   3   0   3    6.90    3.30
  -3   0  -3    6.50    1.00
   4   0   3   93.29   11.90
   5   1  -3   72.69    8.80
   5   1  -3   68.29    8.70
   4  -1  -3  235.48   22.60
   4  -1  -3  203.68   21.70
  -4  -1   3  255.77   18.80
  -4   1   3  223.08   19.00
   4   1  -3  247.88   23.10
   4   1  -3  249.68   23.20
  -3  -1   3  130.99   13.50
  -3  -1   3  140.79   11.20
   3  -1  -3  132.59   13.80
   3  -1  -3  126.99   13.60
   3  -1  -3  158.38   15.30
   3   1  -3  144.69   13.70
   3   1  -3  135.39   14.10
   3   1  -3  123.29   12.70
  -3   1   3  124.39   13.80
  -3   1   3  141.69   10.80
   2  -1  -3  685.03   49.50
  -2  -1   3  612.74   47.10
   2  -1  -3  554.34   48.70
   2  -1  -3  579.74   48.90
  -2  -1   3  588.04   48.70
  -2   1   3  643.44   44.30
   2   1  -3  539.65   45.10
   2   1  -3  501.15   44.60
   2   1  -3  538.35   45.00
   1  -1  -3   13.70    2.70
  -1  -1   3   15.30    2.00
  -1  -1   3   13.80    2.80
  -1   1   3   14.10    2.10
  -1   1   3   12.90    1.30
   1   1  -3   13.30    3.00
   0  -1   3 1664.13  125.89
   0  -1   3 1560.24  125.39
   0   1   3 1698.43  130.09
   0   1   3 1636.84  129.69
   1  -1   3  872.91   69.59
   1  -1   3  894.21   68.89
   1   1   3  878.11   69.49
   1   1   3  891.41   68.99
   2  -1   3  811.12   63.29
   2  -1   3  749.23   64.09
   2  -1   3  905.51   64.69
   2  -1   3  775.12   63.89
   2   1   3  739.83   57.79
   2   1   3  821.92   57.19
   2   1   3  671.53   58.19
   2   1   3  699.33   58.29
   3  -1   3  265.37   21.50
  -3  -1  -3  218.78   21.10
  -3  -1  -3  254.27   19.40
   3   1   3  254.17   22.90
   3   1   3  269.37   22.90
  -4  -1  -3  142.69   11.50
   4   1   3  151.68   15.00
   4   1   3  152.18   15.10
   4   1   3  145.89   16.80
   5   2  -3   12.30    5.50
   5   2  -3    8.50    3.00
   5   2  -3    6.50    3.90
  -4  -2   3   45.00    4.50
   4  -2  -3   44.00    8.30
   4   2  -3   35.40    7.50
   4   2  -3   47.10    7.60
   4   2  -3   42.80    7.60
   4   2  -3   57.19    9.10
   4   2  -3   44.90    7.90
  -4   2   3   35.60    4.10
   4   2  -3   43.30    7.40
  -3  -2   3   63.39    8.40
   3  -2  -3   52.79    7.60
   3  -2  -3   63.39    9.00
   3  -2  -3   76.29    9.50
  -3  -2   3   70.89    5.80
   3   2  -3   66.39    7.90
  -3   2   3   66.69    5.70
   3   2  -3   71.19    9.00
   3   2  -3   64.49    8.40
  -2  -2   3  315.27   25.40
   2  -2  -3  256.47   25.30
   2  -2  -3  302.37   25.90
  -2  -2   3  303.87   23.80
   2  -2  -3  335.77   26.50
   2   2  -3  247.08   24.40
   2   2  -3  289.77   24.30
  -2   2   3  303.77   22.80
   2   2  -3  278.07   24.30
  -2   2   3  329.77   23.90
  -1  -2   3  375.06   27.40
   1  -2  -3  304.77   28.30
  -1  -2   3  357.46   28.20
  -1   2   3  384.86   30.30
  -1   2   3  373.26   29.60
   0  -2   3  120.49   10.30
   0  -2   3  121.09    9.60
   0   2   3  124.39   10.50
   0   2   3  125.19    9.90
   1  -2   3  336.77   26.70
   1  -2   3  335.67   25.80
   1  -2   3  313.57   27.40
   1   2   3  321.37   26.70
   1   2   3  346.67   26.20
  -2  -2  -3  409.56   38.00
   2  -2   3  550.64   39.00
  -2  -2  -3  443.76   38.10
   2  -2   3  497.95   37.20
   2  -2   3  490.75   38.00
   2  -2   3  487.75   38.20
  -2  -2  -3  454.35   37.00
   2   2   3  475.45   38.50
   2   2   3  457.65   37.70
  -2   2  -3  464.75   37.00
   2   2   3  437.06   38.20
   2   2   3  525.65   37.10
  -3  -2  -3  108.79   11.10
   3  -2   3  110.59   10.80
  -3  -2  -3  122.59    9.40
   3   2   3  118.39   12.40
   3   2   3  129.49   12.80
  -4  -2  -3   49.50    7.70
  -4  -2  -3   51.19    4.60
   4   2   3   54.19    8.20
   4   2   3   50.99    8.30
   4   2   3   61.09    9.20
   4   2   3   48.50    8.30
   4   2   3   59.69    7.30
   5   2   3   11.50    3.80
  -5  -3   3  309.97   25.00
   5   3  -3  326.27   27.50
   5   3  -3  310.27   28.00
   5   3  -3  339.77   28.80
   4  -3  -3   51.29    7.50
   4  -3  -3   56.99    9.00
  -4  -3   3   47.70    7.50
  -4  -3   3   65.29    5.50
   4  -3  -3   55.79    7.90
   4   3  -3   61.79    8.50
   4   3  -3   44.10    8.20
   4   3  -3   50.49    8.90
   4   3  -3   58.39    8.90
   4   3  -3   60.39    9.10
   4   3  -3   48.20   14.00
  -4   3   3   52.09    5.00
   4   3  -3   58.29    8.70
   3  -3  -3   59.19    9.50
  -3  -3   3   52.79    4.70
   3  -3  -3   42.60    7.20
  -3  -3   3   47.90    7.20
  -3   3   3   45.50    4.30
   3   3  -3   48.20    7.20
   3   3  -3   53.59    7.80
   3   3  -3   44.90    6.70
  -2  -3   3   47.10    5.80
   2  -3  -3   31.20    5.40
   2  -3  -3   40.20    6.50
   2  -3  -3   47.90    6.40
  -2  -3   3   43.60    3.80
   2   3  -3   36.80    4.90
  -2   3   3   38.10    3.30
   2   3  -3   34.50    5.00
  -2   3   3   42.20    4.90
  -2   3   3   38.50    3.50
   2   3  -3   42.40    5.20
  -1  -3   3  565.64   40.00
   1  -3  -3  423.56   40.00
  -1   3   3  534.45   42.70
  -1   3   3  560.34   43.60
   0  -3   3 1093.59   82.89
   0  -3   3 1126.69   83.89
   0  -3   3  971.50   83.49
   0   3  -3 1012.80   79.89
   0   3   3 1034.10   80.49
   0   3   3 1031.90   79.99
   1  -3   3  255.27   19.50
   1  -3   3  230.48   20.50
   1  -3   3  252.77   21.30
   1   3   3  268.57   20.30
  -1   3  -3  246.58   20.30
   2  -3   3    4.80    1.30
  -2  -3  -3    3.60    2.20
  -2  -3  -3    3.80    1.00
  -2  -3  -3    5.40    2.10
   2  -3   3    6.40    1.90
   2  -3   3    4.00    2.60
   2   3   3    4.00    1.30
  -2   3  -3    5.30    0.90
  -2   3  -3    2.70    1.20
   2   3   3    3.90    2.00
   2   3   3    4.10    2.00
  -3  -3  -3  155.58   12.50
  -3  -3  -3  150.08   14.60
   3  -3   3  155.28   13.70
   3   3   3  145.79   14.80
   3   3   3  168.38   15.70
  -4  -3  -3   53.09    4.90
  -4  -3  -3   51.29    7.10
   4   3   3   59.79    8.10
   4   3   3   55.59    8.60
   4   3   3   61.09    9.80
   4   3   3   51.29    9.20
   4   3   3   47.40    7.40
   5   3   3    9.80    3.80
   5   3   3    3.30    2.20
   5   3   3    5.40    3.20
  -5  -4   3    1.50    1.30
   5   4  -3    6.00    2.90
   5   4  -3    4.70    5.20
   5   4  -3    7.10    4.20
   4  -4  -3   20.50    4.80
  -4  -4   3   19.50    5.60
  -4  -4   3   17.10    2.70
   4  -4  -3   23.90    4.80
  -4  -4   3   22.30    3.50
   4  -4  -3   20.80    5.00
   4   4  -3   24.50    6.50
   4   4  -3   22.50    5.60
   4   4  -3   22.40    6.10
   4   4  -3   15.40    7.60
   4   4  -3   19.80    6.70
   4   4  -3   18.90    5.20
   4   4  -3   20.00    7.10
  -4   4   3   22.80    2.80
   3  -4  -3    8.30    4.60
  -3  -4   3    8.60    3.80
  -3  -4   3   11.90    2.00
   3  -4  -3    9.80    5.50
   3   4  -3    8.80    4.20
   3   4  -3   11.40    4.30
   3   4  -3   13.50    4.80
  -3   4   3   12.00    1.80
  -2  -4   3  285.47   27.50
   2  -4  -3  338.77   29.00
  -2  -4   3  341.37   26.40
   2  -4  -3  353.76   29.40
   2  -4  -3  353.36   26.90
   2   4  -3  285.57   27.00
  -2   4   3  336.67   25.30
  -2   4   3  334.87   25.90
  -2   4   3  326.57   26.70
   2   4  -3  335.77   27.20
  -2   4   3  301.57   25.20
   2   4  -3  322.27   27.10
  -1  -4   3  126.39   10.40
   1  -4  -3   86.19   10.30
   1  -4  -3  107.39   10.80
  -1   4   3   98.89    8.90
  -1   4   3  108.59    9.20
  -1   4   3   93.49    8.30
  -1   4   3  114.29    8.20
   1   4  -3   88.29    9.90
   0  -4   3  742.13   58.79
   0   4  -3  857.11   67.29
   0   4   3  840.72   67.99
   0   4   3  892.21   67.39
  -1  -4  -3    5.50    1.80
   1  -4   3    4.40    2.50
   1  -4   3    4.20    3.10
   1  -4   3    6.40    2.10
  -1  -4  -3    4.90    1.20
   1  -4   3    5.30    1.30
  -1  -4  -3    5.60    2.00
  -1   4  -3    3.10    1.10
   1   4   3    2.80    2.20
   1   4   3    4.70    1.00
   1   4   3    4.40    1.90
  -1   4  -3    3.40    1.20
   2  -4   3  141.79   12.00
  -2  -4  -3  117.09   12.10
  -2  -4  -3  158.28   12.30
  -2  -4  -3  132.89   10.80
   2  -4   3  127.79   10.90
   2  -4   3  121.39   12.60
   2   4   3  142.79   12.10
   2   4   3  105.29   11.20
  -2   4  -3  125.19    9.80
  -2   4  -3  110.89    9.90
  -3  -4  -3  278.97   23.90
   3  -4   3  271.47   23.40
  -3  -4  -3  287.07   22.20
  -3  -4  -3  273.97   24.20
   3   4   3  249.18   21.20
  -3   4  -3  217.38   18.20
  -4  -4  -3  103.79    9.60
  -4  -4  -3   98.09    8.40
   4   4   3  102.89   11.90
   4   4   3  111.99   11.90
   4   4   3  120.79   13.30
   4   4   3  118.99   13.10
   4   4   3  115.19   15.60
   5   4   3   33.20    5.50
   5   4   3   26.90    3.80
  -5  -5   3   10.50    2.20
   5   5  -3    8.10    2.90
   5   5  -3   12.30    5.70
   5   5  -3   10.40    3.90
   4  -5  -3  329.27   27.00
  -4  -5   3  292.97   24.90
  -4  -5   3  309.37   25.40
   4  -5  -3  343.07   27.40
  -4  -5   3  251.87   26.90
   4  -5  -3  324.37   26.80
   4  -5  -3  339.67   26.80
   4   5  -3  309.37   25.30
   4   5  -3  297.47   26.70
   4   5  -3  284.37   26.20
   4   5  -3  271.87   26.40
   4   5  -3  262.07   26.10
   4   5  -3  298.57   26.10
  -4   5   3  267.97   22.80
   4   5  -3  299.87   27.60
  -3  -5   3  322.37   27.10
   3  -5  -3  329.27   31.30
  -3  -5   3  386.66   26.80
   3  -5  -3  282.57   29.40
  -3  -5   3  347.77   29.00
   3   5  -3  324.07   30.80
  -3   5   3  348.97   27.80
   3   5  -3  382.06   31.00
   3   5  -3  343.07   31.00
   2  -5  -3  299.07   28.70
  -2  -5   3  315.47   26.20
  -2  -5   3  317.17   27.50
   2  -5  -3  358.96   26.90
   2  -5  -3  321.07   29.50
  -2  -5   3  368.66   28.30
  -2   5   3  327.17   23.70
  -2   5   3  317.27   24.40
  -2   5   3  266.37   23.50
   2   5  -3  274.17   25.30
   2   5  -3  278.77   25.60
   2   5  -3  321.57   25.60
  -1  -5   3  131.19   11.10
   1  -5  -3  123.59   11.50
  -1  -5   3  107.79   10.20
   1  -5  -3   97.09   11.40
  -1   5   3  108.89    8.60
   1   5  -3   85.59    9.80
  -1   5   3  108.99    8.90
  -1   5   3  111.69    9.40
  -1   5   3  113.39   10.00
   0  -5  -3   35.60    4.60
   0  -5   3   29.00    3.80
   0  -5   3   38.20    5.50
   0  -5  -3   27.50    4.40
   0  -5  -3   32.20    4.10
   0   5   3   33.60    4.00
   0   5   3   32.50    4.20
   0   5  -3   37.10    3.20
   0   5   3   31.30    3.30
  -1  -5  -3  168.48   13.50
  -1  -5  -3  171.68   13.50
   1  -5   3  123.89   13.40
   1  -5   3  132.59   12.80
   1  -5   3  144.69   14.40
   1   5   3  143.79   10.90
   1   5   3  130.39   11.70
  -1   5  -3  135.49   10.90
  -1   5  -3  121.59   10.70
  -2  -5  -3  401.16   31.50
  -2  -5  -3  398.66   31.70
   2  -5   3  388.56   31.10
   2  -5   3  345.97   33.60
  -2  -5  -3  358.96   29.90
  -2   5  -3  343.67   27.20
  -3  -5  -3    4.90    4.00
  -3  -5  -3    1.60    2.30
  -3  -5  -3    1.80    2.50
   3  -5   3    3.60    3.00
  -3  -5  -3    2.90    1.20
  -3   5  -3    1.70    1.40
   3   5   3    1.60    3.60
   3   5   3    3.60    4.10
  -4  -5  -3   11.10    2.60
   4   5   3   11.60    3.90
   4   5   3   13.70    4.20
   4   5   3    8.60    7.40
   4   5   3   13.50    4.70
   4  -6  -3   17.90    5.10
  -4  -6   3   16.30    3.00
   4  -6  -3   24.70    4.50
   4  -6  -3   20.30    4.20
   4  -6  -3   23.20    5.30
   4   6  -3   17.80    7.00
   4   6  -3   21.30    4.50
   4   6  -3   21.50    5.30
   4   6  -3   22.90    8.40
  -3  -6   3  119.49   12.30
  -3  -6   3  113.89   10.30
   3  -6  -3   97.19   13.70
  -3  -6   3  117.19    9.70
   3   6  -3  141.89   13.60
   3   6  -3  107.09   13.00
   3   6  -3  103.39   12.60
  -3   6   3  115.09    9.90
  -2  -6   3  143.29   13.20
   2  -6  -3  127.19   14.80
  -2  -6   3  150.48   13.90
   2  -6  -3  131.69   15.10
   2   6  -3  109.39   12.40
  -2   6   3  133.59   11.70
  -2   6   3  140.29   10.90
   1  -6  -3  597.14   56.49
  -1  -6   3  764.22   56.59
   1  -6  -3  721.73   56.69
  -1   6   3  637.14   51.99
  -1   6   3  763.92   52.99
  -1   6   3  644.24   51.89
  -1   6   3  611.84   53.19
   0  -6   3    2.20    2.90
   0  -6  -3    2.70    2.60
   0   6   3    1.70    2.40
   0   6   3    2.40    1.20
   1  -6   3   41.70    7.30
  -1  -6  -3   46.70    5.90
   1  -6   3   37.80    4.70
   1  -6   3   31.60    5.10
  -1  -6  -3   50.09    5.40
   1   6   3   35.60    3.60
  -1   6  -3   33.70    3.50
   1   6   3   41.10    5.40
  -1   6  -3   32.40    4.70
  -1   6  -3   43.90    4.30
   2  -6   3   94.69    9.50
  -2  -6  -3   98.69   10.00
  -2  -6  -3  101.39    8.70
   2  -6   3   96.79   13.20
  -2  -6  -3  101.09   10.00
  -2   6  -3   95.19    8.40
  -3  -6  -3  399.26   30.90
  -3  -6  -3  351.06   29.30
   3  -6   3  333.67   29.90
  -3  -6  -3  405.56   31.20
   3  -6   3  337.67   29.60
  -3  -6  -3  363.86   28.50
   3  -6   3  355.36   29.80
   3  -6   3  303.47   30.30
   3   6   3  316.87   25.30
   3   6   3  298.47   25.10
  -3   6  -3  318.37   23.40
   3   6   3  237.98   25.60
   3   6   3  274.17   28.50
   3   6   3  307.77   26.30
  -4  -6  -3   54.09    5.30
   4  -6   3   46.40    5.50
   4  -6   3   31.70    5.60
   4   6   3   49.70    6.40
   4   6   3   57.89   10.20
   4   6   3   57.79    7.60
   4   6   3   54.19    7.90
   4  -7  -3   35.20    4.90
   4  -7  -3   29.00    5.00
   4  -7  -3   30.10    5.80
   4  -7  -3   28.50    5.50
  -4  -7   3   36.20    4.30
   4  -7  -3   30.90    4.90
  -4  -7   3   31.00    5.30
   4   7  -3   30.00    7.50
   4   7  -3   23.00    5.20
   4   7  -3   39.60    9.30
   4   7  -3   29.30    4.40
   4   7  -3   41.00    6.70
  -3  -7   3  120.09   12.40
   3  -7  -3  113.59   11.70
   3  -7  -3  121.29   12.50
   3  -7  -3  117.99   12.70
  -3  -7   3   90.99   11.00
   3  -7  -3  126.09   12.40
   3  -7  -3  116.79   12.90
  -3  -7   3  123.59   10.50
   3  -7  -3  124.09   12.70
   3   7  -3   96.19   13.30
  -3   7   3  108.89    9.30
   3   7  -3   99.99   11.80
   3   7  -3  107.69   10.90
   3   7  -3  106.09   10.10
   3   7  -3  114.99   14.50
   2  -7  -3  187.68   19.80
  -2  -7   3  205.08   18.90
   2  -7  -3  195.88   20.60
  -2  -7   3  218.18   17.00
  -2   7   3  231.38   19.30
  -2   7   3  226.78   20.30
  -2   7   3  249.97   19.50
  -1  -7   3  732.03   54.39
   1  -7  -3  577.44   54.29
   1  -7  -3  665.93   54.29
  -1   7   3  626.54   55.69
  -1   7   3  799.72   56.79
   0  -7  -3  101.39   10.20
   0  -7   3   93.09   10.90
   0   7   3  118.19   11.10
  -1  -7  -3    8.70    3.90
   1  -7   3    9.90    3.90
  -1  -7  -3    8.70    3.00
   1  -7   3   13.10    2.70
  -1   7  -3    9.00    2.50
  -1   7  -3   11.80    2.80
   1   7   3    9.50    3.00
  -2  -7  -3  395.36   30.10
  -2  -7  -3  376.66   30.30
  -2  -7  -3  280.07   28.50
   2  -7   3  363.46   29.20
  -2   7  -3  331.77   26.60
  -3  -7  -3   31.50    4.80
   3  -7   3   36.00    5.00
   3  -7   3   41.50    5.90
  -3  -7  -3   34.40    6.40
  -3  -7  -3   37.60    6.70
   3  -7   3   38.00    5.20
   3  -7   3   29.30    5.60
   3   7   3   34.50    5.30
   3   7   3   33.00    5.40
  -3   7  -3   36.10    3.80
  -3   7  -3   33.90    5.20
   3   7   3   30.10    7.50
  -4  -7  -3   42.70    5.90
   4  -7   3   47.40    5.10
  -4  -7  -3   41.60    4.70
   4  -7   3   45.80    6.20
   4   7   3   41.00    5.30
   4   7   3   26.80    6.70
   4   7   3   39.10    6.10
   4   7   3   49.70    5.50
   4  -8  -3   28.60    4.30
  -4  -8   3   22.00    3.70
   4  -8  -3   29.70    4.30
   4  -8  -3   19.60    3.70
   4  -8  -3   29.00    3.70
   4  -8  -3   20.70    4.50
  -4  -8   3   18.90    2.80
   4   8  -3   25.60    6.50
   4   8  -3   27.70    4.40
  -4   8   3   20.30    2.50
   4   8  -3   20.70    3.80
   3  -8  -3   49.20    7.40
  -3  -8   3   62.99    8.20
  -3  -8   3   63.19    6.30
  -3  -8   3   64.09    7.40
   3  -8  -3   68.99    8.30
   3  -8  -3   64.69    8.60
   3  -8  -3   63.89    8.20
   3  -8  -3   66.19    8.00
   3  -8  -3   63.79    9.10
  -3   8   3   68.69    6.00
  -3   8   3   39.70    6.20
   3   8  -3   74.69   12.50
   3   8  -3   49.20   10.30
  -3   8   3   48.90    5.80
   3   8  -3   63.79    6.80
   2  -8  -3  393.06   36.10
  -2  -8   3  404.56   34.90
  -2   8   3  622.94   44.10
  -2   8   3  536.95   44.80
  -2   8   3  489.05   43.70
   1  -8  -3  108.69   13.80
  -1  -8   3  136.89   13.40
   1  -8  -3  134.09   13.30
  -1   8   3  205.68   16.40
  -1   8   3  176.68   17.00
   0  -8   3   47.80    8.00
   0  -8  -3   50.49    6.70
   0   8   3   59.29    7.70
  -1  -8  -3  314.87   25.40
   1  -8   3  239.58   26.10
   1  -8   3  312.87   24.20
  -1   8  -3  291.77   24.50
  -1   8  -3  329.87   25.40
  -1   8  -3  285.47   24.50
  -2  -8  -3  132.99   14.10
   2  -8   3  145.39   13.40
  -2  -8  -3  155.88   14.60
   2  -8   3  139.39   15.10
  -2   8  -3  134.99   12.20
  -2   8  -3  141.09   12.30
  -2   8  -3  149.99   13.70
   3  -8   3  110.89   10.30
   3  -8   3  119.89   11.70
  -3  -8  -3   97.59    9.80
   3  -8   3  111.19   10.80
  -3  -8  -3  107.89   11.30
   3   8   3  110.69   13.40
   3   8   3  114.39   10.30
   3   8   3  106.89   10.60
   3   8   3   88.39   12.70
   4  -8   3   40.40    5.80
  -4  -8  -3   50.09    5.70
   4  -8   3   50.99    5.40
   4  -8   3   50.79    5.40
   4   8   3   59.29    5.90
   4   8   3   47.50    5.80
   4   8   3   54.29    7.80
   4  -9  -3   10.70    2.60
   4  -9  -3   12.30    2.60
  -4  -9   3   16.80    2.60
   4  -9  -3    5.20    2.40
   4   9  -3    5.50    4.00
   3  -9  -3   57.39    7.40
  -3  -9   3   57.49    6.90
   3  -9  -3   58.89    7.20
   3  -9  -3   49.10    6.50
   3  -9  -3   60.49    7.70
   3  -9  -3   60.69    8.50
   3   9  -3   50.39    6.50
  -3   9   3   58.99    5.60
   3   9  -3   66.09   10.40
   3   9  -3   50.69   10.30
   2  -9  -3  103.49   12.20
  -2  -9   3   93.59   11.50
   2  -9  -3   98.59   11.70
   2  -9  -3  126.39   11.40
   2  -9  -3  105.39   11.00
   2  -9  -3  124.79   12.90
  -2  -9   3  108.59   11.70
   2  -9  -3  117.39   12.20
  -2   9   3  111.69   11.10
   2   9  -3  104.29   13.40
  -2   9   3   95.79    9.80
   2   9  -3  107.89   10.90
   2   9  -3  120.69   14.50
   1  -9  -3   56.89    8.40
  -1   9   3  109.99   11.40
  -1   9   3  108.89    9.80
   0  -9   3   69.19   10.20
   0  -9  -3   74.29    9.30
   0   9   3  110.09   11.70
   1  -9   3  364.16   30.00
  -1  -9  -3  363.46   31.50
  -1   9  -3  427.46   33.20
  -1   9  -3  385.46   33.70
  -2  -9  -3  182.28   15.70
   2  -9   3  148.19   14.20
   2  -9   3  151.38   15.50
   2  -9   3  166.48   15.70
   2  -9   3  167.18   14.90
   2  -9   3  168.38   15.00
   2  -9   3  185.58   16.20
  -2  -9  -3  154.58   15.60
  -2   9  -3  202.78   15.50
   2   9   3  165.68   15.60
   2   9   3  171.18   16.10
   2   9   3  201.88   20.10
  -2   9  -3  164.28   15.00
   3  -9   3   11.10    4.10
   3  -9   3    9.30    3.10
   3  -9   3   13.40    2.90
   3  -9   3   11.60    3.50
  -3  -9  -3   12.20    3.90
   3   9   3   10.90    3.10
   3   9   3    9.10    3.30
  -3   9  -3    8.80    2.30
   3   9   3   17.40    5.70
   3   9   3    6.80    4.30
  -3 -10   3   17.10    4.00
   3 -10  -3   19.40    4.80
   3 -10  -3   18.80    3.80
   3 -10  -3   13.90    4.40
   3 -10  -3   21.40    4.00
   3 -10  -3   23.60    3.60
   3  10  -3   29.20    6.40
  -3  10   3   16.10    2.70
   3  10  -3   14.50    5.60
   2 -10  -3  386.96   32.10
   2 -10  -3  422.76   32.70
   2 -10  -3  424.26   33.50
   2 -10  -3  360.06   33.30
  -2 -10   3  448.76   32.70
   2 -10  -3  347.67   32.50
  -2 -10   3  356.36   32.20
  -2  10   3  452.65   34.60
   2  10  -3  366.56   37.40
   2  10  -3  384.76   35.10
   2  10  -3  472.55   39.30
  -2  10   3  472.05   36.90
  -1 -10   3   10.80    4.50
   1 -10  -3    6.30    3.50
  -1 -10   3   13.90    4.50
   1 -10  -3    8.60    4.10
  -1 -10   3    9.40    5.50
  -1  10   3    7.20    3.30
   1  10  -3   12.30    6.90
  -1  10   3   15.50    5.90
   1  10  -3   14.40    6.10
   0 -10   3  100.39   11.70
   0 -10  -3   88.49   10.80
   0 -10  -3  107.59   11.70
   0 -10   3  102.69   12.10
   0 -10  -3   82.89   10.20
   0 -10  -3   94.39   10.90
   0 -10   3   98.79   11.40
   0 -10   3   95.09   10.40
   0  10  -3  127.89   14.60
   0  10  -3  116.29   15.60
   0  10   3  114.39   14.80
   0  10   3  145.59   15.30
   0  10   3  121.19   12.90
   1 -10   3  316.67   26.40
   1 -10   3  303.67   26.10
   1 -10   3  280.57   26.40
  -1 -10  -3  251.77   26.00
   1 -10   3  324.17   26.10
  -1 -10  -3  348.27   26.10
  -1  10  -3  396.16   30.70
   1  10   3  406.16   34.60
  -1  10  -3  326.87   32.90
   2 -10   3    8.80    2.50
   2 -10   3    8.50    4.40
   2 -10   3    6.50    4.40
  -2 -10  -3    8.70    3.90
   2 -10   3    9.00    3.00
   2 -10   3    9.70    4.60
   2  10   3   14.60    6.50
  -2  10  -3    9.50    3.00
   2  10   3    9.70    3.10
   3 -10   3    9.90    2.80
  -3 -10  -3   14.40    4.20
   3 -10   3   11.30    3.20
  -3 -10  -3   12.90    2.90
   3 -10   3   10.20    2.20
   3 -10   3    9.30    2.70
   3  10   3   11.30    2.50
  -3  10  -3   11.40    2.40
   3  10   3   23.40    5.50
  -3 -11   3   42.30    4.40
   3 -11  -3   36.70    4.40
   3 -11  -3   31.80    4.40
   3 -11  -3   35.40    4.00
   3 -11  -3   41.10    5.70
   3  11  -3   27.10    5.20
   2 -11  -3   55.79    8.20
   2 -11  -3   47.60    6.10
   2 -11  -3   46.60    6.10
  -2 -11   3   53.39    6.20
  -2  11   3   49.99    8.20
  -2  11   3   48.70    4.90
   2  11  -3   49.20    9.80
   2  11  -3   52.09    7.90
  -1 -11   3   33.50    5.90
  -1 -11   3   39.30    5.50
   1 -11  -3   33.60    5.70
   1 -11  -3   41.30    6.60
  -1  11   3   57.19    8.80
   1  11  -3   39.00    9.60
  -1  11   3   45.80    8.00
   0 -11  -3  149.99   14.90
   0 -11  -3  137.09   13.60
   0 -11   3  149.69   14.10
   0 -11   3  152.68   15.00
   0  11   3  190.78   20.40
   0  11   3  182.28   18.50
   0  11  -3  191.98   18.40
   0  11  -3  170.38   18.20
  -1 -11  -3  103.29    9.80
   1 -11   3   94.99    9.80
   1 -11   3   88.49    9.80
   1 -11   3   83.09    9.70
   1 -11   3   84.79    9.40
   1  11   3  112.79   15.90
  -1  11  -3   96.79   11.90
  -1  11  -3  121.99   11.90
   2 -11   3    4.10    2.20
   2 -11   3   10.40    3.00
  -2 -11  -3   11.00    4.50
   2 -11   3   -0.70    2.40
   2 -11   3    5.00    3.00
   2 -11   3    3.70    2.80
   2  11   3    6.00    7.10
  -2  11  -3    4.90    2.30
  -2 -12   3   33.10    4.20
   2 -12  -3   44.50    5.40
   2 -12  -3   28.90    4.20
  -2 -12   3   32.00    4.10
  -2  12   3   34.40    5.20
  -2  12   3   46.70    6.20
  -1 -12   3    3.60    2.50
  -1 -12   3    7.00    3.00
   1 -12  -3    6.70    3.40
   1  12  -3    6.10    4.90
  -1  12   3    8.40    6.10
  -1  12   3    8.50    4.70
   0 -12  -3  112.69   12.10
   0 -12   3  148.19   12.50
   0 -12   3  137.59   12.50
   0  12   3  170.08   16.30
   0  12  -3  165.58   16.40
   0  12  -3  160.38   15.50
   0  12   3  174.58   16.70
  -1 -12  -3   22.00    3.80
   1 -12   3   18.20    4.00
   1 -12   3   19.40    3.90
  -1  12  -3   19.30    4.60
  -1  12  -3   33.70    5.30
   1  12   3   22.10    6.00
   2 -12   3   16.10    3.10
   2 -12   3   19.60    3.00
   2 -12   3   29.70    3.50
  -2 -12  -3   19.00    3.30
   2  12   3   36.30    5.70
  -2  12  -3   26.30    4.30
   0 -13   3    9.20    2.80
   0  13   3    6.50    3.40
   0  13   3   11.50    3.20
   0  13  -3    5.20    2.50
   0  13  -3    8.40    3.70
   5   0  -4   16.90    4.30
   5   0  -4   21.70    5.50
   4   0  -4    9.40    4.40
   4   0  -4   10.10    5.20
  -4   0   4    9.90    2.00
   3   0  -4   11.50    4.50
   3   0  -4   16.20    5.20
  -3   0   4   11.80    4.40
   3   0  -4   12.50    4.90
  -3   0   4   13.80    1.90
   2   0  -4   14.60    3.60
   2   0  -4   16.90    3.70
   2   0  -4   13.00    3.50
   2   0  -4   12.10    2.60
  -2   0   4   15.50    3.30
  -2   0   4   11.40    1.60
  -1   0   4  144.59   10.70
  -1   0   4  132.79    9.90
   1   0  -4  123.59   11.30
  -1   0   4  104.99   10.90
   0   0   4  281.47   22.70
   0   0   4  283.57   22.10
   1   0   4    4.10    2.20
   1   0   4    4.00    0.90
   2   0   4    3.50    2.80
   2   0   4    3.50    2.50
  -2   0  -4    4.90    0.90
   2   0   4    4.80    1.10
   2   0   4    5.40    2.30
  -3   0  -4  167.08   13.10
   3   0   4  169.08   15.30
   3   0   4  152.58   15.60
   4   0   4    3.60    4.20
   4   0   4    4.40    4.30
   4   0   4    2.70    2.80
  -4   0  -4    2.30    1.10
   5  -1  -4  209.18   19.00
   5   1  -4  226.28   21.10
   5   1  -4  246.28   21.80
   4  -1  -4  126.29   15.00
  -4  -1   4  150.38   11.80
   4  -1  -4  148.89   16.20
   4   1  -4  143.49   16.00
   4   1  -4  159.18   16.70
   4   1  -4  130.49   14.90
  -4   1   4  147.29   12.20
   4   1  -4  184.88   18.60
   4   1  -4  148.09   16.90
   3  -1  -4  301.57   25.70
  -3  -1   4  263.67   24.20
   3  -1  -4  240.18   24.30
   3  -1  -4  263.37   24.70
  -3  -1   4  286.07   21.60
  -3   1   4  256.67   24.10
   3   1  -4  236.38   23.10
   3   1  -4  279.17   24.00
  -3   1   4  276.67   21.10
   3   1  -4  279.67   24.60
  -2  -1   4  896.51   72.99
   2  -1  -4  877.71   73.29
   2  -1  -4 1007.20   73.79
  -2  -1   4  924.61   71.39
   2  -1  -4  868.81   73.19
   2   1  -4  773.42   67.89
   2   1  -4  781.32   67.59
  -2   1   4  915.61   66.09
  -2   1   4  947.71   66.99
   2   1  -4  811.82   67.39
  -1  -1   4  687.93   49.30
   1  -1  -4  579.74   49.90
  -1  -1   4  605.74   49.70
  -1   1   4  748.53   54.39
  -1   1   4  632.04   53.69
   0  -1   4   68.79    5.60
   0  -1   4   67.39    6.20
   0   1   4   68.29    6.20
   0   1   4   68.49    5.60
   1  -1   4  405.36   32.50
   1  -1   4  399.76   31.60
   1   1   4  401.76   31.60
   1   1   4  403.96   32.40
  -2  -1  -4  316.77   27.30
   2  -1   4  333.67   26.30
  -2  -1  -4  306.27   26.10
   2  -1   4  354.36   27.60
   2  -1   4  336.17   27.10
   2  -1   4  359.86   28.00
   2   1   4  322.07   26.40
   2   1   4  290.37   26.60
  -2   1  -4  341.67   25.20
   2   1   4  340.87   25.60
   2   1   4  318.77   26.80
  -3  -1  -4   84.09    9.20
  -3  -1  -4   90.59    7.20
   3  -1   4   83.79    9.50
   3  -1   4   88.89    8.70
  -3   1  -4   82.19    6.90
   3   1   4   92.29    9.30
   3   1   4   82.79    9.40
  -4  -1  -4  195.48   15.60
   4   1   4  247.58   22.00
   4   1   4  231.98   21.20
   4   1   4  223.38   22.10
   4   1   4  232.58   21.30
   5   1   4   16.20    3.90
   5  -2  -4   54.99    6.80
   5   2  -4   66.69    8.70
   5   2  -4   70.29    8.70
   4  -2  -4   33.30    5.70
   4  -2  -4   33.40    6.10
   4  -2  -4   23.90    7.00
   4  -2  -4   35.40    6.20
  -4  -2   4   31.80    3.70
   4   2  -4   37.80    7.40
   4   2  -4   38.10    6.10
   4   2  -4   37.10    8.10
  -4   2   4   33.70    3.80
   4   2  -4   38.30    7.00
   4   2  -4   47.10    8.70
   4   2  -4   36.50    6.90
   4   2  -4   29.70    6.80
   3  -2  -4   31.00    6.40
   3  -2  -4   31.70    7.10
   3  -2  -4   35.20    6.90
  -3  -2   4   32.70    5.60
  -3  -2   4   31.70    3.40
  -3   2   4   30.80    3.30
  -3   2   4   34.00    6.70
   3   2  -4   31.40    5.90
   3   2  -4   33.10    6.20
   3   2  -4   33.00    6.40
   2  -2  -4   55.99    7.30
   2  -2  -4   57.19    7.30
   2  -2  -4   58.69    7.20
  -2  -2   4   60.99    5.20
  -2  -2   4   61.79    7.20
   2   2  -4   52.89    6.50
  -2   2   4   53.09    4.50
   2   2  -4   50.49    6.10
   2   2  -4   49.00    6.70
  -2   2   4   55.49    5.70
   1  -2  -4   23.90    3.80
  -1  -2   4   28.70    3.80
  -1  -2   4   27.30    3.10
  -1   2   4   29.20    3.90
  -1   2   4   30.10    2.60
   0  -2   4  148.09   13.20
   0  -2   4  168.18   13.40
   0  -2   4  151.28   12.40
   0   2   4  153.88   12.50
   0   2   4  160.98   13.20
   1  -2   4  607.14   47.80
   1  -2   4  615.44   48.90
   1   2   4  636.24   48.60
   1   2   4  606.74   49.30
   2  -2   4  447.96   37.00
  -2  -2  -4  494.55   36.80
   2  -2   4  492.55   38.20
  -2  -2  -4  448.46   38.10
   2  -2   4  461.05   38.70
   2  -2   4  471.35   37.90
   2   2   4  426.26   38.10
  -2   2  -4  475.45   38.00
   2   2   4  439.06   37.70
   2   2   4  467.45   38.40
  -2   2  -4  520.05   36.70
   2   2   4  480.45   37.00
  -3  -2  -4   68.19    5.30
   3  -2   4   66.29    7.30
  -3  -2  -4   48.70    6.90
   3   2   4   62.69    7.70
  -3   2  -4   58.59    5.20
   3   2   4   71.79    8.40
  -4  -2  -4  181.18   14.60
   4   2   4  206.38   19.30
   4   2   4  213.18   19.20
   4   2   4  194.98   20.40
   4   2   4  222.88   18.90
   5   2   4   37.30    4.60
   5   2   4   32.90    5.60
  -5  -3   4  224.48   17.80
   5  -3  -4  208.08   19.10
   5   3  -4  200.98   19.70
   5   3  -4  259.87   21.70
   5   3  -4  241.08   20.90
  -4  -3   4  113.19    9.30
  -4  -3   4   91.29   11.30
   4  -3  -4  111.69   12.50
   4  -3  -4  105.29   12.10
   4  -3  -4  118.29   12.90
   4  -3  -4  117.49   11.20
   4  -3  -4   96.39   12.60
   4   3  -4  110.49   12.30
   4   3  -4   93.09   12.00
   4   3  -4   99.39   13.80
   4   3  -4   95.99   12.40
   4   3  -4  105.89   13.60
   4   3  -4   93.09   11.60
  -4   3   4  101.29    8.70
   4   3  -4  108.99   11.70
  -3  -3   4   39.00    4.00
   3  -3  -4   33.40    6.50
   3  -3  -4   33.00    7.20
   3  -3  -4   48.10    7.80
  -3  -3   4   41.50    6.90
   3   3  -4   38.30    7.10
   3   3  -4   36.20    6.50
   3   3  -4   35.80    6.80
  -3   3   4   43.30    4.00
   2  -3  -4   23.60    4.80
  -2  -3   4   23.10    2.60
   2  -3  -4   24.80    5.30
  -2  -3   4   28.60    4.90
   2  -3  -4   19.40    4.30
  -2   3   4   21.90    3.30
  -2   3   4   23.90    2.50
   2   3  -4   22.80    4.20
   2   3  -4   20.00    3.80
   2   3  -4   19.60    4.50
  -1   3   4  289.27   23.70
  -1   3   4  314.67   24.70
   0  -3   4  152.28   13.40
   0  -3   4  156.48   12.50
   0  -3   4  162.88   13.60
   0   3   4  157.48   13.20
   0   3  -4  152.48   12.30
   0   3   4  154.88   12.40
  -1  -3  -4 2713.23  207.38
  -1  -3  -4 2511.15  208.38
   1  -3   4 2821.42  207.48
   1  -3   4 2470.35  207.98
   1  -3   4 2785.42  209.28
   1  -3   4 2699.93  208.68
  -1   3  -4 2701.83  211.58
  -1   3  -4 2743.13  211.68
   1   3   4 2488.35  212.28
   1   3   4 2951.20  211.68
   2  -3   4  872.81   68.29
   2  -3   4  795.22   68.99
  -2  -3  -4  919.61   67.19
   2  -3   4  786.72   67.29
  -2  -3  -4  919.11   68.79
   2   3   4  940.81   66.09
  -2   3  -4  730.13   63.89
   2   3   4  825.42   64.09
   2   3   4  726.53   65.19
   2   3   4  817.22   64.89
  -2   3  -4  863.21   63.79
  -3  -3  -4    3.60    1.40
  -3  -3  -4    7.00    3.10
   3  -3   4    8.80    3.10
   3   3   4    7.70    3.50
  -3   3  -4    7.10    1.30
   3   3   4    9.40    3.40
  -4  -3  -4  241.58   19.90
  -4  -3  -4  258.97   22.70
   4   3   4  252.47   21.70
   4   3   4  266.27   23.90
   4   3   4  265.27   21.80
   4   3   4  219.48   23.40
   4   3   4  244.08   22.70
   5   3   4   21.80    3.40
   5   3   4   26.50    4.80
  -5  -4   4    4.00    1.50
   5   4  -4    2.30    2.60
   5   4  -4    1.00    3.60
   5   4  -4    3.20    4.90
  -4  -4   4   24.60    3.00
   4  -4  -4   19.60    5.50
   4  -4  -4   25.20    5.20
  -4  -4   4   21.10    5.70
   4  -4  -4   31.10    5.50
  -4  -4   4   26.80    3.80
   4  -4  -4   19.50    5.60
   4  -4  -4   28.80    5.00
   4   4  -4   16.80    7.00
   4   4  -4   18.10    7.60
   4   4  -4   22.10    5.90
   4   4  -4   18.30    5.90
   4   4  -4   22.20    4.70
   4   4  -4   24.00    6.40
   4   4  -4   28.80    6.80
  -4   4   4   26.10    3.00
   3  -4  -4   78.49   10.90
  -3  -4   4   72.89    9.10
   3  -4  -4   88.99   11.20
  -3  -4   4   68.99    7.20
  -3  -4   4   82.59    7.00
  -3  -4   4   77.99    9.10
  -3   4   4   84.89    7.10
   3   4  -4   78.09   10.60
   3   4  -4   82.59   10.00
   3   4  -4   79.39   10.30
   2  -4  -4    6.80    3.20
  -2  -4   4    3.30    1.30
  -2  -4   4    4.50    2.50
   2  -4  -4    5.00    3.70
  -2  -4   4    4.00    2.90
   2   4  -4    5.70    2.80
   2   4  -4    2.60    3.00
  -2   4   4    2.70    2.20
   2   4  -4    5.00    3.00
  -2   4   4    3.60    1.40
   1  -4  -4   22.20    4.60
  -1  -4   4   37.70    4.50
   1  -4  -4   28.20    4.50
   1  -4  -4   32.50    5.70
  -1   4   4   32.90    2.70
  -1   4   4   30.20    3.10
  -1   4   4   27.80    3.70
  -1   4   4   26.70    4.20
   1   4  -4   25.90    4.60
   0  -4   4  163.78   14.30
   0  -4  -4  164.48   14.20
   0  -4  -4  158.78   14.20
   0  -4   4  147.29   13.70
   0   4   4  152.48   12.20
   0   4   4  146.39   13.00
   0   4   4  154.58   13.20
   0   4  -4  155.78   12.10
  -1  -4  -4   15.00    3.10
   1  -4   4   12.90    2.90
  -1  -4  -4   13.00    1.70
   1  -4   4   11.50    1.80
  -1  -4  -4   18.10    3.50
   1  -4   4   13.30    2.80
   1  -4   4   11.50    3.80
   1   4   4   16.50    2.80
  -1   4  -4   12.10    1.70
   1   4   4   13.90    2.90
  -1   4  -4   13.80    1.90
   1   4   4   13.30    1.90
  -2  -4  -4  135.79   12.10
   2  -4   4  123.19   11.60
  -2  -4  -4  129.89   11.90
  -2  -4  -4  122.09   10.50
   2   4   4   97.79   10.50
   2   4   4   92.89    9.30
  -2   4  -4  112.79    9.20
   2   4   4  133.79   11.50
   2   4   4  124.39   10.90
  -3  -4  -4  709.03   55.59
   3  -4   4  653.83   56.79
  -3  -4  -4  756.32   57.99
  -3   4  -4  560.64   46.40
   3   4   4  630.14   49.10
  -4  -4  -4   32.30    4.60
   4   4   4   33.30    5.20
   4   4   4   38.40    9.20
   4   4   4   40.80    6.00
   4   4   4   35.10    7.10
   5  -5  -4   52.39    5.10
  -5  -5   4   40.10    5.50
   5   5  -4   66.49    7.80
   5   5  -4   59.09    6.90
   5   5  -4   71.49    8.40
   4  -5  -4   12.30    4.60
  -4  -5   4   11.20    2.00
   4  -5  -4   11.40    4.70
  -4  -5   4   11.60    2.80
   4  -5  -4   10.60    4.40
   4  -5  -4    9.40    3.70
   4  -5  -4    9.70    4.20
  -4  -5   4   13.20    4.20
   4   5  -4    7.90    6.20
   4   5  -4   12.00    7.70
   4   5  -4   14.30    7.00
   4   5  -4   11.20    4.30
   4   5  -4    9.20    4.50
   4   5  -4   12.90    4.50
   4   5  -4    9.60    4.10
   3  -5  -4   50.69   10.20
  -3  -5   4   50.99    8.10
   3  -5  -4   55.19    9.80
  -3  -5   4   58.89    6.00
  -3  -5   4   57.29    8.00
  -3  -5   4   61.19    5.70
   3   5  -4   62.99    8.80
  -3   5   4   60.69    5.50
   3   5  -4   57.79    9.50
   3   5  -4   48.70    8.00
   2  -5  -4   39.60    6.60
  -2  -5   4   29.80    5.40
  -2  -5   4   49.60    6.40
  -2  -5   4   35.70    3.90
   2  -5  -4   39.60    6.80
  -2   5   4   33.60    4.30
   2   5  -4   33.20    5.80
   2   5  -4   39.90    6.50
  -2   5   4   41.30    3.90
   1  -5  -4  535.35   44.20
  -1   5   4  494.65   39.00
  -1   5   4  469.45   37.90
  -1   5   4  500.65   37.70
  -1   5   4  511.75   38.50
   1   5  -4  427.76   39.10
   0  -5  -4 1021.10   82.99
   0  -5  -4 1020.70   82.79
   0  -5   4 1089.59   83.39
   0   5   4  980.30   78.99
   0   5   4 1060.79   79.89
   0   5  -4 1023.40   78.89
   0   5   4  983.70   79.89
   1  -5   4  159.38   15.70
  -1  -5  -4  186.38   14.50
   1  -5   4  134.39   14.20
   1  -5   4  155.68   13.80
   1   5   4  160.78   12.70
  -1   5  -4  144.39   12.60
   1   5   4  167.88   13.90
  -1   5  -4  153.48   12.70
  -2  -5  -4  149.19   13.30
   2  -5   4  155.78   14.30
  -2  -5  -4  188.88   15.20
  -2  -5  -4  158.78   14.70
   2   5   4  123.69   12.80
  -2   5  -4  148.59   11.30
  -3  -5  -4  770.72   58.49
   3  -5   4  731.43   59.79
  -3  -5  -4  624.24   59.09
  -3  -5  -4  858.71   61.09
   3   5   4  642.74   52.39
  -3   5  -4  626.04   49.80
  -4  -5  -4  266.37   22.10
   4   5   4  299.17   27.40
   4   5   4  299.47   25.90
   4   5   4  307.67   28.80
   4   5   4  326.47   26.00
   4  -6  -4    3.60    3.90
   4  -6  -4    3.10    3.00
   4  -6  -4    2.80    3.10
  -4  -6   4    1.60    1.70
   4  -6  -4   -1.80    3.80
   4  -6  -4    0.10    3.70
   4   6  -4    5.80    3.60
   4   6  -4    6.20    5.30
   4   6  -4    3.50    5.70
   4   6  -4    3.80    3.50
  -3  -6   4   44.70    4.80
  -3  -6   4   43.70    6.30
   3  -6  -4   38.20    7.60
   3  -6  -4   40.10    8.50
  -3   6   4   53.39    5.30
   3   6  -4   53.29    7.60
   3   6  -4   49.10    7.90
   2  -6  -4  124.99   15.00
  -2  -6   4  161.08   13.90
  -2  -6   4  128.59   12.80
   2  -6  -4  121.29   14.70
  -2   6   4  128.09   11.60
   2   6  -4  114.19   13.20
  -2   6   4  130.99   10.90
   2   6  -4  140.59   13.20
   1  -6  -4  127.19   12.40
  -1  -6   4  133.99   12.40
   1  -6  -4   99.99   12.20
  -1   6   4   98.89   10.80
  -1   6   4  131.79   10.30
   1   6  -4   93.19   10.20
  -1   6   4  107.79    9.10
   0  -6  -4   41.90    5.50
   0  -6  -4   33.90    5.40
   0  -6   4   42.00    6.40
   0   6   4   41.40    5.00
   0   6   4   38.80    3.90
   1  -6   4   44.50    5.30
  -1  -6  -4   56.09    6.50
  -1  -6  -4   49.20    6.10
   1  -6   4   45.70    7.90
   1   6   4   50.39    5.70
  -1   6  -4   42.40    4.90
   2  -6   4  279.07   26.50
  -2  -6  -4  326.47   27.30
  -2  -6  -4  344.77   27.60
  -2   6  -4  264.77   21.30
   3  -6   4   79.29    9.20
  -3  -6  -4   85.89    7.80
  -3  -6  -4  104.49   10.70
   3  -6   4   85.29    9.10
   3  -6   4   81.99    9.10
  -3  -6  -4   80.89    9.80
  -3  -6  -4   87.69    8.80
   3  -6   4   87.49    9.20
   3  -6   4   83.89   11.80
   3   6   4   70.79   12.20
   3   6   4   91.09    8.80
   3   6   4   61.09   10.70
   3   6   4   81.19    9.90
  -3   6  -4   73.89    7.00
   3   6   4   78.49    8.40
  -4  -6  -4   36.70    4.50
   4  -6   4   37.50    4.70
   4   6   4   30.20    7.80
   4   6   4   52.19    7.30
   4   6   4   42.80    5.80
   4   6   4   52.29    6.90
   4  -7  -4    5.20    2.90
  -4  -7   4    2.90    1.60
   4  -7  -4    2.40    3.30
   4  -7  -4    3.10    3.10
   4  -7  -4    7.50    3.90
   4  -7  -4    4.00    4.00
   4  -7  -4    5.50    2.50
   4   7  -4    5.80    5.30
   4   7  -4    1.10    4.30
   4   7  -4    5.80    2.80
   4   7  -4    7.80    5.80
  -3  -7   4   31.80    4.40
  -3  -7   4   34.20    4.90
   3  -7  -4   32.80    5.60
   3  -7  -4   30.40    5.90
   3  -7  -4   29.50    5.40
   3  -7  -4   35.90    5.00
   3  -7  -4   31.10    6.20
  -3  -7   4   30.40    5.30
   3  -7  -4   30.00    5.50
  -3   7   4   32.80    3.40
   3   7  -4   18.40    4.40
   3   7  -4   25.10    4.00
   3   7  -4   28.60    6.10
   3   7  -4   38.90    8.10
   3   7  -4   32.10    7.40
  -3   7   4   27.40    3.70
   2  -7  -4  337.87   34.20
  -2  -7   4  426.06   34.00
   2  -7  -4  403.56   34.90
  -2   7   4  426.36   34.60
  -2   7   4  442.36   35.50
  -1  -7   4    5.90    3.70
   1  -7  -4    4.70    3.60
   1  -7  -4    2.80    3.60
  -1   7   4    4.70    2.50
   0  -7   4  217.08   19.90
   0  -7  -4  203.48   19.20
   0   7   4  227.18   19.70
  -1  -7  -4  196.68   17.30
  -1  -7  -4  180.68   16.70
   1  -7   4  182.98   16.10
   1  -7   4  176.48   18.40
  -1   7  -4  176.38   15.90
   1   7   4  208.68   17.10
  -2  -7  -4  965.40   72.19
  -2  -7  -4  864.51   71.79
   2  -7   4  838.62   70.99
  -2   7  -4  820.72   58.19
  -2   7  -4  661.53   58.19
   3  -7   4  389.86   32.70
   3  -7   4  421.06   31.90
  -3  -7  -4  385.36   31.70
   3  -7   4  370.46   32.00
  -3  -7  -4  363.06   32.80
   3  -7   4  388.66   33.10
  -3  -7  -4  395.46   33.10
   3  -7   4  402.16   32.50
   3   7   4  428.96   31.70
  -3   7  -4  342.97   29.80
   3   7   4  386.76   31.20
   3   7   4  355.66   33.90
  -3   7  -4  367.66   31.10
  -4  -7  -4   86.29    9.90
  -4  -7  -4  102.99    9.30
   4  -7   4  108.29   10.00
   4  -7   4  115.69    9.30
   4   7   4  118.79   13.10
   4   7   4  102.49   10.40
   4   7   4  119.09   10.40
   4  -8  -4   21.70    3.30
  -4  -8   4   22.00    3.30
   4  -8  -4   12.60    3.20
   4  -8  -4   16.30    3.60
   4  -8  -4   18.70    3.70
   4  -8  -4   26.10    4.70
  -4   8   4   15.30    2.30
   4   8  -4   15.70    2.90
   4   8  -4   23.00    7.40
   4   8  -4   27.20    7.70
   4   8  -4   16.60    3.20
   3  -8  -4   72.89    9.00
  -3  -8   4   55.69    8.30
   3  -8  -4   63.99    8.90
   3  -8  -4   71.39    9.70
   3  -8  -4   63.09    8.20
   3  -8  -4   73.29    7.60
   3  -8  -4   71.69    8.50
  -3   8   4   71.59    6.60
  -3   8   4   64.29    7.10
   3   8  -4   79.29   11.70
   3   8  -4   71.49    8.10
   3   8  -4   71.19   10.90
   2  -8  -4   15.30    5.70
   2  -8  -4   22.80    5.40
  -2  -8   4   19.60    5.60
  -2   8   4   36.80    4.10
  -2   8   4   27.00    5.30
  -2   8   4   37.70    4.30
   1  -8  -4   14.00    4.90
   1  -8  -4   13.70    4.80
  -1  -8   4   20.40    4.80
  -1   8   4   28.40    4.10
  -1   8   4   24.90    4.60
   0  -8  -4   39.10    6.90
   0  -8   4   40.80    7.40
   0   8   4   48.70    6.40
   1  -8   4  198.68   22.70
   1  -8   4  268.17   20.70
  -1  -8  -4  256.77   21.90
   1   8   4  284.17   23.70
  -1   8  -4  281.77   23.30
  -1   8  -4  274.17   22.50
  -1   8  -4  251.47   22.40
  -2  -8  -4   54.09    7.80
   2  -8   4   42.20    6.40
  -2  -8  -4   53.89    7.50
   2  -8   4   52.79    7.10
   2  -8   4   59.89    6.70
   2  -8   4   47.10    7.00
   2  -8   4   38.90    5.70
  -2  -8  -4   49.80    6.80
   2  -8   4   35.00    7.10
   2   8   4   43.80    6.70
   2   8   4   72.79   10.70
  -2   8  -4   61.19    7.40
  -2   8  -4   55.59    5.90
   2   8   4   52.49    7.60
   2   8   4   42.90    9.30
  -2   8  -4   54.69    5.90
   3  -8   4   88.39   11.70
   3  -8   4  108.69   11.10
   3  -8   4  104.19    9.60
   3  -8   4  115.69   10.40
  -3  -8  -4   83.69    9.20
  -3  -8  -4  121.19   11.90
   3   8   4  107.19    9.40
  -3   8  -4   84.79    8.40
   3   8   4  109.99   10.50
   3   8   4   86.39   12.20
   4  -8   4   65.69    6.50
   4   8   4  114.59    9.60
   4   8   4   99.79    9.50
   4  -9  -4   68.59    6.20
   4  -9  -4   59.79    6.00
   4  -9  -4   45.50    5.90
   4  -9  -4   70.09    6.30
  -4  -9   4   58.89    5.60
   4   9  -4   52.29    7.50
   4   9  -4   74.39    8.20
   3  -9  -4   66.89    8.30
   3  -9  -4   82.99    8.90
   3  -9  -4   85.79    9.30
   3  -9  -4   79.49    9.30
   3  -9  -4   76.79    8.80
  -3  -9   4   86.09    8.90
   3  -9  -4   77.59    8.80
   3   9  -4   74.29    8.70
  -3   9   4   83.39    7.50
   3   9  -4   82.19   12.00
   3   9  -4   76.69   11.00
   2  -9  -4   40.70    6.70
   2  -9  -4   27.10    5.90
   2  -9  -4   48.40    7.20
  -2  -9   4   56.09    6.80
   2  -9  -4   40.50    8.70
   2  -9  -4   46.60    6.40
   2  -9  -4   50.49    6.30
   2   9  -4   56.59   10.80
  -2   9   4   43.80    6.20
   2   9  -4   37.50    7.70
  -2   9   4   61.49    5.90
   2   9  -4   48.20    6.90
   1  -9  -4  478.75   40.80
  -1   9   4  738.63   55.09
  -1   9   4  683.73   55.99
   1   9  -4  640.04   59.39
   0  -9   4  108.49   13.40
   0  -9  -4  122.19   12.80
   0   9   4  163.78   15.70
  -1  -9  -4  491.45   39.00
   1  -9   4  461.55   39.50
   1  -9   4  462.85   39.20
  -1  -9  -4  474.75   39.90
   1  -9   4  482.55   38.40
   1  -9   4  453.95   39.40
  -1   9  -4  511.75   45.60
  -1   9  -4  595.14   45.20
   1   9   4  581.94   49.50
   2  -9   4   21.70    4.40
  -2  -9  -4   22.60    5.30
   2  -9   4   32.30    4.70
   2  -9   4   34.20    5.10
   2  -9   4   32.30    4.20
  -2  -9  -4   38.30    6.60
   2  -9   4   32.90    5.30
   2  -9   4   31.50    6.10
  -2   9  -4   21.20    4.90
  -2   9  -4   38.40    4.80
   2   9   4   41.30    9.90
   2   9   4   32.10    5.30
   3  -9   4   81.89    8.70
   3  -9   4   67.59    9.30
   3  -9   4   89.59    8.50
  -3  -9  -4   81.69    8.90
   3  -9   4   87.59    7.90
  -3   9  -4   73.09    7.30
   3   9   4   90.49    7.90
   3   9   4   81.69    8.30
   3   9   4   69.59    9.80
   3 -10  -4   16.20    3.90
   3 -10  -4   16.40    3.40
   3 -10  -4   17.80    3.10
   3 -10  -4   17.60    3.60
   3 -10  -4   19.00    3.70
  -3 -10   4   16.50    3.10
   3 -10  -4   13.40    3.10
   3  10  -4   15.40    5.00
  -3  10   4   19.50    4.50
   3  10  -4   23.20    6.40
  -3  10   4   17.90    2.60
  -2 -10   4   94.59   10.00
   2 -10  -4   83.79    9.50
   2 -10  -4   85.39    9.20
   2 -10  -4   96.99   10.30
   2 -10  -4   79.69    8.60
  -2  10   4   89.19    8.50
  -2  10   4  108.29   11.60
   2  10  -4   71.89   10.90
   2  10  -4  105.49   15.00
   1 -10  -4   15.80    4.50
  -1 -10   4   16.50    4.70
  -1 -10   4   21.00    4.40
   1 -10  -4   25.10    5.20
   1  10  -4   18.00    7.10
  -1  10   4   16.60    4.10
  -1  10   4   21.10    6.60
   1  10  -4   24.40    6.50
   0 -10   4    7.00    3.40
   0 -10   4    8.80    3.20
   0 -10  -4    2.50    2.70
   0 -10   4    7.20    3.90
   0 -10  -4    4.30    3.70
   0  10   4    4.20    5.20
   0  10  -4   12.60    5.20
   0  10   4    0.80    2.80
   0  10  -4    4.80    6.20
   1 -10   4  113.29   11.10
   1 -10   4  108.29   11.30
  -1 -10  -4   85.69   10.80
   1 -10   4  112.39   11.90
  -1 -10  -4  120.99   11.10
   1  10   4  124.09   15.00
  -1  10  -4  112.29   10.30
   2 -10   4   61.09    8.10
   2 -10   4   67.89    7.10
   2 -10   4   67.09    7.70
  -2 -10  -4   80.79    8.30
   2 -10   4   64.29    7.90
   2 -10   4   62.29    7.80
   2  10   4   90.29   13.20
  -2  10  -4   75.49    7.40
   2  10   4   64.09    7.80
  -3 -10  -4  157.38   13.40
  -3 -10  -4  129.29   12.90
   3 -10   4  164.38   13.10
   3 -10   4  158.58   13.40
   3 -10   4  146.59   12.80
  -3  10  -4  146.19   12.70
  -3  10  -4  168.58   13.60
   3  10   4  149.29   13.10
   2 -11  -4   53.29    6.70
   2 -11  -4   69.99    7.70
  -2 -11   4   48.20    6.30
   2 -11  -4   60.69    6.60
  -2 -11   4   67.69    6.70
   2 -11  -4   55.49    6.10
  -2  11   4   71.39    8.50
   2  11  -4   76.49   10.10
   2  11  -4   43.30    9.40
   1 -11  -4   26.30    5.30
  -1 -11   4   26.30    4.40
   1 -11  -4   16.90    4.40
  -1 -11   4   21.20    4.70
  -1  11   4   32.90    7.40
  -1  11   4   42.20    7.60
   1  11  -4   29.20    6.20
   1  11  -4   28.70    7.00
   0 -11   4  153.58   14.00
   0 -11   4  157.28   14.60
   0 -11  -4  141.49   15.10
   0 -11   4  130.79   13.00
   0  11   4  181.98   18.30
   0  11  -4  177.68   16.90
   0  11  -4  146.99   17.20
   0  11   4  217.78   22.10
   1 -11   4   27.20    4.80
   1 -11   4   20.10    4.60
   1 -11   4   17.00    4.60
  -1 -11  -4   32.50    4.80
   1  11   4   27.00    8.90
  -1  11  -4   15.60    6.00
  -1  11  -4   30.80    5.80
  -2 -11  -4   13.00    3.50
   2 -11   4   10.00    3.30
   2 -11   4    8.30    2.90
   2 -11   4    8.50    3.00
   2 -11   4    9.90    2.50
  -2  11  -4    8.90    2.40
   2  11   4   12.20    5.10
  -2  11  -4   12.80    4.90
   2 -12  -4   24.50    4.00
  -2  12   4   18.50    3.90
  -2  12   4   34.70    5.00
   2  12  -4   20.20    4.40
   1 -12  -4    2.30    3.80
  -1 -12   4    1.30    2.40
  -1 -12   4   -3.80    3.10
   1  12  -4    1.30    3.30
  -1  12   4    4.40    4.30
  -1  12   4    0.60    5.40
   1  12  -4   -2.50    4.00
   0 -12   4   58.09    7.20
   0 -12   4   61.29    7.50
   0 -12   4   68.09    7.30
   0  12  -4   86.49    8.90
   0  12   4   83.19   10.10
   0  12  -4   61.49    9.10
  -1 -12  -4    5.00    2.60
   1 -12   4    1.50    2.50
   1 -12   4    4.10    2.20
   1 -12   4    6.60    3.00
  -1  12  -4    4.30    5.50
   1  12   4    3.60    4.40
  -1  12  -4    2.40    3.50
   5   0  -5  295.47   26.00
   5   0  -5  312.27   26.00
   5   0  -5  299.97   26.10
   4   0  -5    4.10    3.70
   4   0  -5   -0.90    4.70
  -4   0   5    3.30    1.50
   4   0  -5    3.60    3.40
   4   0  -5   -0.40    3.00
   4   0  -5   -1.10    4.40
   4   0  -5   -1.10    3.90
   3   0  -5  284.77   27.20
   3   0  -5  287.67   26.70
  -3   0   5  297.57   23.80
   3   0  -5  343.77   28.10
  -3   0   5  287.87   26.70
   2   0  -5  111.39   12.20
   2   0  -5  132.59   13.50
   2   0  -5  166.48   13.80
   2   0  -5  126.39   12.80
  -2   0   5  148.79   11.10
  -2   0   5  137.99   12.90
   1   0  -5  644.54   51.99
  -1   0   5  745.03   51.49
  -1   0   5  560.04   51.59
   0   0   5 1427.66  113.69
   0   0   5 1493.35  114.49
   1   0   5 1928.31  150.68
   1   0   5 1926.61  150.78
  -1   0  -5 1951.40  149.69
  -1   0  -5 1999.30  150.68
   1   0   5 1809.52  149.79
   2   0   5  336.97   28.90
   2   0   5  351.76   29.90
   2   0   5  364.46   30.20
  -2   0  -5  400.66   28.70
  -3   0  -5    0.10    0.80
   3   0   5   -0.70    2.00
   3   0   5    1.70    3.10
  -4   0  -5  304.87   27.40
   4   0   5  356.46   27.80
   4   0   5  347.47   27.90
  -4   0  -5  290.97   25.30
   4   0   5  293.97   28.60
   4   0   5  358.26   27.80
   5  -1  -5   17.70    4.60
   5  -1  -5   33.20    5.00
   5  -1  -5   18.50    5.00
   5   1  -5   37.40    6.20
   5   1  -5   35.80    6.80
   5   1  -5   32.10    5.70
   4  -1  -5   70.69   10.00
  -4  -1   5   79.19    6.50
   4  -1  -5   66.59    9.10
   4  -1  -5   68.89   10.00
   4  -1  -5   69.69   11.00
   4  -1  -5   61.59   10.40
   4  -1  -5   69.69   10.00
  -4   1   5   73.59    6.50
   4   1  -5   73.39   11.00
   4   1  -5   71.79   10.30
   4   1  -5   70.29   10.30
   4   1  -5   71.79    9.80
   4   1  -5   60.09   10.50
  -3  -1   5  112.49   12.60
   3  -1  -5  104.89   12.60
  -3  -1   5  123.99    9.80
   3  -1  -5  107.89   12.60
   3  -1  -5  132.89   13.60
   3   1  -5  105.19   12.10
   3   1  -5   91.99   11.20
   3   1  -5  112.49   12.30
  -3   1   5   97.39   11.50
  -3   1   5  121.09    9.00
  -2  -1   5   43.30    6.00
   2  -1  -5   42.30    6.50
  -2  -1   5   40.30    3.80
   2  -1  -5   36.80    5.50
   2  -1  -5   34.80    6.30
   2   1  -5   40.20    5.60
  -2   1   5   33.90    5.70
  -2   1   5   40.00    4.40
   2   1  -5   31.80    5.90
   2   1  -5   36.20    5.10
   2   1  -5   47.30    6.80
  -2   1   5   46.50    3.90
  -1  -1   5  371.76   26.80
  -1  -1   5  321.17   27.10
   1  -1  -5  301.37   27.30
  -1   1   5  324.67   25.40
   0  -1   5  134.69   10.70
   0  -1   5  135.19   11.70
   0   1   5  145.19   12.10
   0   1   5  133.49   11.10
   1  -1   5  666.93   52.59
  -1  -1  -5  686.93   51.29
   1  -1   5  725.03   52.49
   1  -1   5  560.04   51.89
   1  -1   5  643.34   51.39
  -1   1  -5  679.93   50.79
   1   1   5  608.34   51.69
   1   1   5  556.24   51.29
  -1   1  -5  702.63   51.79
   1   1   5  668.43   50.89
   1   1   5  680.93   51.89
   2  -1   5  724.93   59.79
   2  -1   5  678.93   58.89
  -2  -1  -5  778.22   58.69
   2  -1   5  722.03   60.59
   2  -1   5  784.22   60.19
  -2  -1  -5  810.52   60.09
   2   1   5  757.52   60.39
   2   1   5  702.93   59.09
   2   1   5  726.93   59.99
   2   1   5  753.12   60.39
  -2   1  -5  763.42   60.19
  -2   1  -5  808.92   58.79
   3  -1   5  343.17   29.60
   3  -1   5  357.46   30.10
  -3  -1  -5  360.76   28.00
   3   1   5  343.07   28.50
   3   1   5  357.16   29.20
  -3   1  -5  319.27   28.70
  -3   1  -5  345.27   26.80
   4  -1   5    2.90    4.40
  -4  -1  -5    0.70    1.00
  -4  -1  -5    0.20    2.40
   4  -1   5   -3.00    4.10
   4   1   5    1.90    4.10
  -4   1  -5    0.60    1.00
   4   1   5   -1.90    2.10
   4   1   5   -0.10    5.90
   4   1   5    4.10    4.20
   5   1   5  134.79   12.70
   5   1   5  139.89   11.90
   5  -2  -5   50.29    6.70
   5  -2  -5   59.99    8.00
  -5  -2   5   53.19    5.30
   5   2  -5   50.29    7.60
   5   2  -5   50.09    7.60
   5   2  -5   56.99    7.60
   4  -2  -5  498.15   37.90
   4  -2  -5  430.66   38.00
   4  -2  -5  373.66   39.00
   4  -2  -5  453.65   39.90
   4  -2  -5  482.25   38.70
   4  -2  -5  457.75   38.40
  -4  -2   5  475.35   35.90
   4   2  -5  440.36   38.40
   4   2  -5  509.15   40.10
   4   2  -5  428.26   39.10
  -4   2   5  476.25   35.80
   4   2  -5  458.95   40.10
   4   2  -5  415.36   37.40
   4   2  -5  434.36   38.60
   3  -2  -5  168.08   18.90
  -3  -2   5  209.98   16.10
   3  -2  -5  188.78   19.20
  -3  -2   5  203.08   18.90
   3  -2  -5  216.08   20.40
  -3   2   5  208.68   15.80
  -3   2   5  174.88   18.80
   3   2  -5  193.78   18.40
   3   2  -5  198.18   19.40
   3   2  -5  192.38   18.40
   2  -2  -5  605.14   52.29
  -2  -2   5  628.54   50.09
   2  -2  -5  650.53   52.59
  -2  -2   5  682.43   52.19
   2  -2  -5  629.24   52.49
  -2   2   5  643.04   46.40
   2   2  -5  538.95   48.00
   2   2  -5  634.94   48.30
  -2   2   5  624.24   47.40
   2   2  -5  518.15   48.20
  -1  -2   5  713.33   53.89
   1  -2  -5  596.94   54.39
  -1  -2   5  732.43   54.49
   1   2  -5  713.33   58.39
  -1   2   5  686.83   56.89
  -1   2   5  790.52   57.89
   0  -2   5  989.80   78.49
   0  -2   5 1016.20   79.49
   0  -2   5 1018.10   79.49
   0   2   5 1099.59   83.19
   0   2   5 1012.60   82.29
  -1  -2  -5  624.54   48.60
   1  -2   5  558.04   49.20
   1  -2   5  635.94   48.70
   1  -2   5  645.94   49.99
  -1  -2  -5  641.34   49.70
   1   2   5  558.04   51.29
   1   2   5  675.43   50.69
   1   2   5  660.63   51.59
  -1   2  -5  730.63   51.79
  -1   2  -5  666.43   50.59
   1   2   5  592.64   51.49
  -2  -2  -5 1096.09   79.59
   2  -2   5  964.30   79.19
   2  -2   5  852.21   78.19
  -2  -2  -5 1072.59   78.09
   2  -2   5  914.61   79.89
   2  -2   5 1086.69   79.59
   2   2   5  924.81   78.09
  -2   2  -5 1011.50   78.39
   2   2   5  944.41   78.49
   2   2   5 1094.19   78.99
   2   2   5  909.41   77.19
  -2   2  -5 1024.30   76.89
  -3  -2  -5  759.72   61.89
   3  -2   5  769.42   63.39
  -3  -2  -5  845.42   64.09
  -3   2  -5  743.33   59.49
   3   2   5  781.72   61.89
   4  -2   5  283.37   24.90
   4  -2   5  291.87   25.50
   4   2   5  294.87   26.00
   4   2   5  291.17   27.50
   4   2   5  312.67   25.80
   5   2   5   10.80    2.50
   5   2   5    8.60    3.40
   5  -3  -5    7.30    3.00
  -5  -3   5   11.50    2.40
   5  -3  -5    7.70    3.90
   5  -3  -5   10.20    3.00
   5   3  -5   11.30    5.50
   5   3  -5    9.00    2.80
   5   3  -5    7.60    3.90
   5   3  -5   12.60    3.90
  -4  -3   5  312.37   26.20
  -4  -3   5  319.87   25.90
   4  -3  -5  337.37   28.10
   4  -3  -5  325.87   28.60
   4  -3  -5  293.97   29.40
   4  -3  -5  334.37   27.70
   4  -3  -5  334.47   28.00
   4   3  -5  313.67   27.90
  -4   3   5  303.07   24.70
   4   3  -5  302.37   27.80
   4   3  -5  291.67   28.50
   4   3  -5  308.17   28.80
   4   3  -5  329.17   27.00
   4   3  -5  292.87   28.10
   4   3  -5  322.87   28.30
  -3  -3   5   59.69    5.50
  -3  -3   5   57.09    8.30
   3  -3  -5   60.69    8.90
   3  -3  -5   47.10    7.70
   3  -3  -5   70.79    9.60
   3   3  -5   60.39    8.20
   3   3  -5   56.19    9.30
  -3   3   5   70.19    5.80
   3   3  -5   62.89    8.40
  -2  -3   5   43.40    4.20
  -2  -3   5   50.89    6.60
   2  -3  -5   43.90    7.20
   2  -3  -5   39.00    6.80
   2  -3  -5   42.90    6.70
  -2   3   5   43.60    3.90
   2   3  -5   33.80    6.00
   2   3  -5   44.00    5.80
   2   3  -5   39.60    5.90
  -2   3   5   41.90    5.10
   1  -3  -5  228.58   20.20
   1  -3  -5  236.78   20.60
   1   3  -5  220.58   19.50
  -1   3   5  215.98   18.50
  -1   3   5  264.77   19.10
  -1   3   5  205.98   18.00
  -1   3   5  227.08   17.90
   0  -3   5  182.58   15.30
   0  -3   5  163.78   13.90
   0  -3   5  163.08   15.00
   0  -3  -5  190.08   15.50
   0   3   5  164.98   13.10
   0   3   5  178.58   14.00
   0   3   5  145.69   13.60
   0   3  -5  164.18   14.90
   0   3  -5  163.68   13.00
   1  -3   5  265.47   22.40
   1  -3   5  261.77   23.00
  -1  -3  -5  295.37   21.70
  -1  -3  -5  268.87   22.50
   1  -3   5  273.97   21.70
   1   3   5  265.07   23.20
   1   3   5  273.17   23.10
   1   3   5  287.47   22.30
  -1   3  -5  305.77   22.30
  -1   3  -5  290.77   23.40
  -1   3  -5  262.17   22.20
  -2  -3  -5   51.19    6.10
   2  -3   5   49.30    6.10
  -2  -3  -5   51.89    4.60
  -2   3  -5   51.59    4.30
   2   3   5   45.70    6.10
   2   3   5   41.80    5.50
   3  -3   5  398.36   34.80
  -3  -3  -5  401.86   33.40
  -3  -3  -5  466.35   35.80
  -3   3  -5  369.76   29.90
   3   3   5  392.36   32.60
   4  -3   5   57.19    8.00
   4   3   5   54.39    9.20
   4   3   5   61.99    7.30
   4   3   5   58.59   10.00
   4   3   5   45.10    7.10
  -5  -4   5   89.19    8.00
   5  -4  -5  109.89    9.30
   5  -4  -5   82.29    8.60
   5   4  -5  107.29   12.70
   5   4  -5  152.68   12.10
   5   4  -5  121.39   12.40
  -4  -4   5    8.60    3.70
   4  -4  -5   10.60    3.60
   4  -4  -5    8.90    4.40
   4  -4  -5    8.90    4.40
   4  -4  -5   13.80    4.90
  -4  -4   5   10.60    2.20
  -4  -4   5   12.00    2.80
   4  -4  -5    9.40    4.00
   4   4  -5   11.20    5.60
   4   4  -5   10.40    5.00
   4   4  -5   11.30    4.80
   4   4  -5   10.40    4.20
   4   4  -5    8.90    5.40
  -4   4   5    9.60    2.10
   4   4  -5   15.40    3.80
   4   4  -5   11.70    4.30
  -3  -4   5  219.98   22.10
  -3  -4   5  280.17   20.60
  -3  -4   5  256.87   20.80
   3  -4  -5  245.38   24.50
  -3  -4   5  254.27   23.00
   3  -4  -5  265.27   25.00
  -3   4   5  278.17   21.70
   3   4  -5  286.87   25.20
   3   4  -5  240.08   24.40
   3   4  -5  273.17   24.30
   2  -4  -5   58.69    8.40
  -2  -4   5   71.29    7.50
  -2  -4   5   54.29    5.30
   2  -4  -5   65.79    9.10
   2  -4  -5   46.90    7.00
   2   4  -5   56.89    6.70
  -2   4   5   58.49    5.10
   2   4  -5   49.90    7.10
   2   4  -5   54.69    7.70
   1  -4  -5  496.15   40.90
   1  -4  -5  490.95   40.90
  -1   4   5  477.45   36.80
  -1   4   5  462.95   35.60
  -1   4   5  474.25   36.20
   1   4  -5  419.26   37.10
  -1   4   5  432.36   35.70
   0  -4   5   80.69    6.90
   0  -4   5   91.89    8.90
   0  -4  -5   79.59    8.70
   0  -4  -5   93.49    8.90
   0  -4   5   75.09    8.20
   0   4  -5   78.89    6.70
   0   4  -5   74.09    8.10
   0   4   5   76.99    6.70
   0   4   5   87.69    8.00
   0   4  -5   78.99    8.30
   0   4   5   81.69    7.50
   1  -4   5  811.42   69.19
   1  -4   5  870.01   67.69
  -1  -4  -5  888.91   67.59
   1  -4   5  851.01   68.49
  -1  -4  -5  901.41   68.89
  -1   4  -5  814.12   70.29
   1   4   5  894.71   70.39
  -1   4  -5  948.61   70.39
   1   4   5  941.61   71.39
   2  -4   5   99.99   10.40
  -2  -4  -5  132.69   11.50
  -2  -4  -5   99.39    9.20
  -2   4  -5  101.69    8.00
   2   4   5   94.09    9.70
   2   4   5   85.09    9.30
   3  -4   5  847.32   69.79
  -3  -4  -5  896.21   68.39
   3   4   5  867.51   66.29
  -3   4  -5  765.62   63.59
  -4  -4  -5   81.79    8.40
   4  -4   5  131.99   14.90
   4   4   5   81.19   13.70
   4   4   5   91.99   11.90
   4   4   5  109.09   10.20
   4   4   5   98.49   10.80
   5  -5  -5  143.79   12.70
   5  -5  -5  148.29   12.50
   5   5  -5  166.48   14.40
   5   5  -5  161.48   15.30
   4  -5  -5  135.19   13.50
   4  -5  -5  123.59   13.00
   4  -5  -5  129.49   13.70
  -4  -5   5  128.79   11.30
   4  -5  -5  125.29   12.60
   4  -5  -5  127.59   13.10
   4   5  -5  115.39   14.30
   4   5  -5  124.49   12.20
   4   5  -5  124.69   14.10
   4   5  -5  115.69   13.60
   3  -5  -5  217.48   21.70
  -3  -5   5  195.68   18.90
  -3  -5   5  211.58   17.30
  -3  -5   5  208.08   17.00
  -3  -5   5  198.98   19.70
   3   5  -5  224.78   20.20
   3   5  -5  176.38   19.60
   3   5  -5  222.68   21.10
  -3   5   5  218.18   17.10
  -2  -5   5   34.70    5.70
   2  -5  -5   37.90    6.70
   2  -5  -5   53.49    8.70
  -2  -5   5   52.99    7.10
   2   5  -5   43.20    7.30
  -2   5   5   44.50    4.40
  -2   5   5   36.70    4.70
   2   5  -5   43.60    5.80
   1  -5  -5   92.19    9.10
   1  -5  -5   71.49    8.70
   1  -5  -5   62.89    8.30
  -1   5   5   83.29    8.20
   1   5  -5   72.79    8.70
  -1   5   5   81.79    7.60
  -1   5   5   79.09    7.10
  -1   5   5   80.79    6.70
   0  -5   5  198.68   20.30
   0  -5  -5  253.87   21.00
   0  -5  -5  245.48   21.10
   0  -5   5  269.17   21.50
   0   5   5  255.77   20.20
   0   5   5  260.97   19.90
   0   5  -5  195.08   19.90
   0   5   5  242.08   18.90
   1  -5   5  321.47   29.00
  -1  -5  -5  341.37   27.80
   1  -5   5  273.97   27.90
  -1  -5  -5  391.96   28.20
   1  -5   5  327.97   27.30
  -1   5  -5  290.97   26.60
  -1   5  -5  354.16   26.90
   1   5   5  372.76   28.00
  -2  -5  -5  224.58   18.90
  -2  -5  -5  203.78   17.10
   2  -5   5  209.58   18.30
   2   5   5  177.88   17.90
   2   5   5  215.38   18.20
  -2   5  -5  217.48   16.50
   3  -5   5  182.08   18.10
  -3  -5  -5  169.78   14.50
  -3  -5  -5  198.08   17.00
  -3  -5  -5  175.58   15.50
   3  -5   5  164.28   15.70
   3  -5   5  182.38   16.10
   3  -5   5  164.98   15.60
   3   5   5  138.49   16.90
   3   5   5  151.78   17.90
   3   5   5  170.98   15.20
  -3   5  -5  160.18   13.00
   3   5   5  163.58   15.30
   3   5   5  158.58   15.00
   4  -5   5    9.40    2.50
  -4  -5  -5   12.50    2.60
   4   5   5    8.60    3.90
   4   5   5   12.50    8.60
   4   5   5    9.70    3.90
   4   5   5   13.30    5.70
   4  -6  -5   89.29    9.40
   4  -6  -5   83.29    9.70
   4  -6  -5   82.29    9.20
   4  -6  -5   92.89    9.80
  -4  -6   5   86.29    8.10
   4  -6  -5   83.99   10.00
   4   6  -5   96.79    9.40
   4   6  -5   75.59   10.50
   4   6  -5   78.99   11.70
   4   6  -5   74.79   11.90
   3  -6  -5   18.50    5.40
   3  -6  -5   14.90    5.30
   3  -6  -5   17.20    6.00
   3  -6  -5   21.60    4.50
  -3  -6   5   14.50    4.60
  -3  -6   5   17.10    3.10
   3  -6  -5   12.00    4.10
   3  -6  -5   13.00    5.00
   3  -6  -5   19.40    4.50
   3   6  -5   19.70    6.30
  -3   6   5   21.00    3.40
   3   6  -5   17.40    5.90
  -3   6   5   16.10    2.70
   3   6  -5   16.10    3.80
   3   6  -5   18.90    6.20
   3   6  -5   18.10    5.50
   2  -6  -5  149.49   15.50
  -2  -6   5  167.38   15.10
   2  -6  -5  118.69   14.70
  -2   6   5  133.49   13.10
  -2   6   5  148.59   12.60
  -2   6   5  177.38   13.00
   2   6  -5  131.09   15.00
  -1  -6   5  125.89   12.20
   1  -6  -5  103.69   11.90
   1   6  -5   73.79    8.30
   0  -6  -5  937.91   75.79
   0  -6  -5  892.41   75.39
   0  -6   5 1000.90   76.39
   0   6   5 1072.29   84.89
   1  -6   5   74.29   10.10
   1  -6   5   75.49    7.60
  -1  -6  -5   78.99    8.40
  -1  -6  -5   80.49    8.40
   1   6   5   84.29    8.90
  -1   6  -5   80.09    7.60
  -2  -6  -5   36.20    5.60
  -2  -6  -5   26.60    4.10
  -2  -6  -5   31.00    5.80
   2  -6   5   40.30    5.20
  -2   6  -5   36.10    4.30
  -3  -6  -5  138.69   12.60
   3  -6   5  143.59   12.80
   3  -6   5  130.09   12.70
   3  -6   5  141.89   15.00
  -3  -6  -5  156.18   14.00
  -3  -6  -5  118.59   11.40
   3  -6   5  145.09   13.40
   3   6   5  123.79   12.60
   3   6   5  133.89   16.10
   3   6   5  150.68   13.20
   3   6   5  112.59   14.20
  -3   6  -5  127.79   10.80
   3   6   5  128.79   12.90
   4  -6   5  119.09   10.50
  -4  -6  -5  119.69   10.50
   4   6   5  123.19   16.20
   4   6   5  133.39   11.60
   4   6   5  122.89   11.60
   4   6   5  121.49   13.30
   4  -7  -5  338.67   26.60
   4  -7  -5  284.37   25.80
   4  -7  -5  312.17   25.90
  -4  -7   5  302.37   25.00
   4  -7  -5  334.07   26.40
   4  -7  -5  287.37   25.30
   4  -7  -5  321.67   26.40
   4   7  -5  351.86   29.60
   4   7  -5  330.77   29.70
  -4   7   5  279.27   26.00
   4   7  -5  362.46   27.80
   3  -7  -5  110.39   12.40
  -3  -7   5   96.59   11.00
   3  -7  -5  104.09   11.20
   3  -7  -5  116.19   11.30
  -3  -7   5  104.29   10.40
  -3  -7   5  121.59    9.90
   3  -7  -5  122.19   11.70
   3  -7  -5  114.69   11.80
   3  -7  -5  123.39   12.70
   3  -7  -5   85.79   12.70
   3   7  -5  101.49   10.10
  -3   7   5  119.19    9.70
   3   7  -5   97.89   12.90
   3   7  -5  124.39   14.20
   3   7  -5  113.79   11.40
  -3   7   5  102.49    9.50
   3   7  -5   92.39   12.90
   2  -7  -5   43.10    7.80
   2  -7  -5   53.39    8.30
  -2  -7   5   59.89    7.70
  -2   7   5   71.59    6.30
  -2   7   5   59.49    6.90
  -2   7   5   57.99    6.10
   2   7  -5   49.10    8.70
   1  -7  -5   96.89   12.00
  -1  -7   5  109.49   11.50
  -1   7   5  100.09   10.10
   0  -7   5   19.60    5.20
   0  -7  -5   19.50    4.80
   0   7   5   21.90    4.50
  -1  -7  -5   48.10    6.80
   1  -7   5   42.70    8.10
  -1  -7  -5   42.20    6.80
   1  -7   5   46.20    6.00
   1   7   5   51.39    7.10
  -1   7  -5   59.09    5.70
  -1   7  -5   45.60    5.50
  -2  -7  -5  318.47   29.30
   2  -7   5  386.06   30.10
  -2  -7  -5  350.56   30.80
  -2  -7  -5  395.46   31.30
  -2   7  -5  368.36   25.80
  -2   7  -5  276.87   25.60
  -3  -7  -5   90.79    8.80
   3  -7   5   99.99   10.20
   3  -7   5   89.59   10.30
   3  -7   5   93.39   11.60
   3  -7   5  102.29    9.20
   3   7   5   95.69   10.10
   3   7   5   96.99   15.50
   3   7   5  103.39   10.80
   4  -7   5   35.30    4.60
  -4  -7  -5   37.90    5.40
   4  -7   5   45.20    4.40
  -4  -7  -5   43.30    4.20
   4   7   5   46.20    5.10
   4   7   5   39.50    6.60
   4   7   5   39.80    5.30
   4   7   5   48.60    7.80
   4  -8  -5   79.29    8.30
   4  -8  -5   80.09    7.50
   4  -8  -5   64.39    7.60
   4  -8  -5   87.29    8.00
   4  -8  -5   87.19    8.20
   4  -8  -5   87.29    9.00
   4   8  -5   71.69    7.50
  -4   8   5   67.09    6.40
   4   8  -5   96.49   10.20
   4   8  -5   83.99    9.60
   3  -8  -5   35.80    6.30
   3  -8  -5   42.20    6.80
   3  -8  -5   44.20    6.00
  -3  -8   5   34.00    5.10
   3  -8  -5   40.60    6.70
   3  -8  -5   26.40    5.30
   3  -8  -5   38.40    5.90
   3   8  -5   32.70    8.20
   3   8  -5   29.00    4.40
  -3   8   5   39.90    4.00
   3   8  -5   30.90    6.80
   2  -8  -5   61.79    8.10
   2  -8  -5   58.09    6.90
   2  -8  -5   59.79    7.30
   2  -8  -5   37.30    9.10
   2  -8  -5   62.89    8.00
   2  -8  -5   52.59    7.70
  -2  -8   5   59.99    8.10
  -2   8   5   60.79    6.50
   2   8  -5   55.39    7.70
   2   8  -5   67.19   10.40
  -2   8   5   56.39    7.10
  -2   8   5   70.09    6.30
   2   8  -5   70.09   10.80
  -1  -8   5  524.35   44.60
   1  -8  -5  527.15   44.70
  -1   8   5  650.73   56.19
  -1   8   5  737.33   55.39
   0  -8   5   25.70    6.30
   0  -8  -5   34.10    5.80
   0   8   5   32.90    5.90
  -1  -8  -5   55.49    7.20
   1  -8   5   55.49    6.10
   1  -8   5   46.60    8.00
  -1   8  -5   63.29    6.70
   1   8   5   72.79    8.00
  -1   8  -5   53.69    6.90
   2  -8   5   31.70    5.70
   2  -8   5   28.10    4.40
   2  -8   5   38.90    5.00
  -2  -8  -5   32.60    5.30
   2  -8   5   29.10    6.30
   2  -8   5   26.80    5.00
   2  -8   5   21.80    5.30
   2   8   5   29.20    5.10
  -2   8  -5   24.70    3.90
  -2   8  -5   40.20    5.50
  -2   8  -5   35.80    4.60
   2   8   5   31.10    8.30
  -3  -8  -5   75.99    9.40
   3  -8   5   61.09    8.20
  -3  -8  -5   62.89    7.60
   3  -8   5   60.09    7.80
   3  -8   5   59.59    6.60
   3  -8   5   63.39    7.20
   3   8   5   55.39   10.00
  -3   8  -5   51.39    5.70
   3   8   5   63.99    7.80
   3   8   5   59.89    6.30
  -3  -9   5   59.79    6.80
   3  -9  -5   54.49    6.80
   3  -9  -5   65.09    7.50
   3  -9  -5   69.29    8.00
   3  -9  -5   72.69    9.00
   3  -9  -5   63.69    7.50
   3  -9  -5   58.59    7.30
  -3   9   5   58.39    5.70
   3   9  -5   68.29   10.60
   3   9  -5   59.49    9.00
   2  -9  -5    9.70    3.00
   2  -9  -5   16.80    4.10
   2  -9  -5   13.80    4.70
   2  -9  -5    4.50    3.30
   2  -9  -5    8.50    4.10
   2  -9  -5   11.30    4.00
  -2  -9   5   12.20    3.40
   2   9  -5   13.40    5.90
   2   9  -5    2.50    6.80
  -2   9   5   13.40    2.40
  -2   9   5    8.40    3.10
   1  -9  -5    0.60    4.50
   1  -9  -5   -0.50    4.50
  -1  -9   5   -1.20    3.60
   1  -9  -5    1.00    2.70
  -1  -9   5    0.70    2.90
  -1  -9   5    3.20    3.80
   1  -9  -5    1.20    3.10
  -1   9   5    3.20    3.80
   1   9  -5    5.60    4.70
  -1   9   5   -4.80    6.90
   1   9  -5   10.00    5.20
   0  -9  -5   92.39   10.70
   0  -9   5   94.89   11.20
   0  -9   5   92.49   11.20
   0  -9  -5   97.39   11.20
   0  -9   5   91.09   10.40
   0  -9   5   99.79   10.70
   0   9  -5   83.59   11.90
   0   9  -5  125.49   12.50
   0   9   5  111.09   11.10
   0   9   5  117.19   13.90
  -1  -9  -5   72.79    9.30
  -1  -9  -5   94.39   10.50
   1  -9   5   81.69   10.50
   1  -9   5   78.89    9.80
   1  -9   5   82.09    9.40
   1  -9   5   89.49    9.30
   1   9   5  108.29   11.60
   1   9   5  113.99   13.80
   1   9   5   78.99   10.20
  -1   9  -5  107.09    9.70
   2  -9   5   -1.40    3.10
  -2  -9  -5   10.70    4.90
   2  -9   5    3.20    2.00
   2  -9   5    2.00    2.80
   2  -9   5    1.70    4.00
   2  -9   5    2.40    3.30
   2   9   5    2.20    7.00
   2   9   5    4.90    3.30
  -2   9  -5    1.30    1.70
   2   9   5    0.50    5.70
   3  -9   5  104.49    9.50
   3  -9   5   81.79    9.50
  -3  -9  -5  103.49    9.80
   3  -9   5   96.69    9.60
   3  -9   5  111.39    9.00
   3   9   5   87.79   12.20
   3   9   5   99.69    9.40
   3   9   5  100.89    9.20
   3 -10  -5    9.60    3.20
  -3 -10   5   11.60    2.70
   3 -10  -5   11.30    2.70
   3 -10  -5    6.30    2.60
   3 -10  -5   12.00    3.00
   3 -10  -5    9.40    2.50
   3 -10  -5   12.10    3.00
   3  10  -5    9.00    4.10
  -3  10   5   11.50    1.90
   3  10  -5   15.80    7.00
  -3  10   5    6.50    3.70
   2 -10  -5  114.29   11.70
   2 -10  -5  109.59   11.00
   2 -10  -5  119.49   12.00
  -2 -10   5  122.19   11.40
   2 -10  -5  137.19   12.60
   2  10  -5  117.89   14.10
  -2  10   5  117.79   10.50
   2  10  -5  135.79   14.70
   1 -10  -5  132.59   13.50
  -1 -10   5  114.89   12.50
   1 -10  -5  137.59   14.40
  -1 -10   5  153.98   13.40
   1  10  -5  140.49   17.00
   1  10  -5  165.68   16.60
  -1  10   5  196.78   17.90
   0 -10   5   25.10    5.10
   0 -10  -5   12.70    4.70
   0 -10  -5   24.90    5.30
   0 -10   5   21.20    5.10
   0 -10   5   31.80    4.70
   0  10  -5   21.50    5.80
   0  10   5   20.00    4.70
   0  10   5   33.00    7.70
   0  10  -5   34.50    6.50
   1 -10   5   12.60    4.30
  -1 -10  -5   19.80    5.10
   1 -10   5   16.70    4.30
   1 -10   5    9.20    4.50
   1 -10   5   18.30    5.10
   1  10   5   25.40    7.10
  -1  10  -5   17.80    6.50
  -1  10  -5   15.90    3.40
   2 -10   5   10.80    4.30
   2 -10   5   13.10    4.70
   2 -10   5    8.50    2.20
   2 -10   5   13.50    3.10
   2 -10   5   11.00    3.30
  -2 -10  -5   12.50    4.00
   2  10   5    8.50    2.80
  -2  10  -5   11.10    2.80
  -2  10  -5    8.80    3.70
   2  10   5   13.50    5.50
  -3 -10  -5   13.50    3.00
   3 -10   5   13.20    2.10
   3 -10   5   17.40    2.80
   3  10   5   21.80    4.30
  -2 -11   5   62.69    6.30
   2 -11  -5   60.79    5.90
   2 -11  -5   50.49    6.60
  -2  11   5   65.99    8.50
   2  11  -5   70.69    9.70
  -1 -11   5    6.50    3.80
  -1 -11   5    2.20    3.50
   1 -11  -5    4.00    4.60
   1 -11  -5    3.50    3.20
   1  11  -5    0.00    5.60
   1  11  -5    6.70    4.80
  -1  11   5    3.10    5.20
  -1  11   5    4.80    6.60
   0 -11   5    3.30    2.60
   0 -11   5   -2.90    4.30
   0 -11   5    4.30    3.00
   0  11  -5   12.90    6.30
   0  11   5    7.20    7.70
   0  11  -5    5.10    5.80
   1 -11   5    3.60    2.70
   1 -11   5    6.50    3.20
  -1 -11  -5    6.60    3.10
   1 -11   5    8.20    3.30
  -1  11  -5   10.20    4.20
   1  11   5   12.20    5.70
  -2 -11  -5   38.50    5.40
   2 -11   5   36.40    4.90
   2 -11   5   37.70    5.10
   2 -11   5   40.00    4.50
   2 -11   5   37.00    4.90
   2  11   5   40.10    6.50
  -2  11  -5   35.80    5.00
  -2  11  -5   32.10    3.90
  -1 -12   5   13.70    3.00
  -1 -12   5   22.80    3.30
   1 -12  -5   16.20    3.40
  -1  12   5   33.20    5.80
   1  12  -5   31.60    4.80
  -1  12   5   26.70    5.20
   1  12  -5   24.60    5.50
   0 -12   5   43.80    5.80
   0 -12   5   49.50    5.80
   0  12  -5   61.29    7.20
   0  12  -5   46.70    7.10
   0  12   5   62.89    8.50
   1 -12   5   10.30    2.40
   1 -12   5   13.40    3.00
  -1 -12  -5    6.00    2.40
   1 -12   5   19.00    3.30
  -1  12  -5   19.90    4.00
   1  12   5   19.10    4.70
  -1  12  -5   11.00    3.20
   5   0  -6  347.67   29.90
   5   0  -6  364.46   29.70
   5   0  -6  346.07   29.80
   4   0  -6  125.59   14.00
   4   0  -6  132.89   14.10
   4   0  -6  127.39   14.50
   4   0  -6  131.29   14.10
   4   0  -6  119.29   14.80
  -4   0   6  132.09   11.10
   4   0  -6  143.59   15.10
   3   0  -6   34.30    7.60
   3   0  -6   36.50    6.90
   3   0  -6   29.60    6.10
  -3   0   6   28.80    3.50
  -3   0   6   30.90    5.80
  -2   0   6  840.32   60.99
  -2   0   6  775.52   62.89
   2   0  -6  722.43   62.29
   2   0  -6  726.53   62.79
   2   0  -6  829.02   63.69
  -1   0   6  201.78   15.00
   1   0  -6  167.78   15.70
  -1   0   6  155.88   14.90
   1   0  -6  173.28   15.40
   0   0   6  306.27   24.80
   0   0   6  324.77   25.90
   1   0   6 1047.40   90.29
  -1   0  -6 1283.27   91.49
   1   0   6 1104.79   91.49
   1   0   6 1312.77   91.69
   1   0   6  980.50   90.89
  -1   0  -6 1210.48   90.29
  -2   0  -6  137.19   13.00
   2   0   6  147.49   13.30
   2   0   6  135.79   12.70
  -2   0  -6  140.19   11.30
  -3   0  -6  231.08   18.10
  -3   0  -6  214.18   19.90
   3   0   6  236.58   20.30
   3   0   6  219.78   20.00
   4   0   6  196.18   22.00
   4   0   6  247.48   20.80
   4   0   6  234.48   20.20
  -5  -1   6   59.79    5.50
   5  -1  -6   66.09    8.60
   5  -1  -6   57.29    8.00
   5  -1  -6   58.59    7.50
   5   1  -6   60.49    8.90
   5   1  -6   67.69    8.20
   5   1  -6   60.39    8.00
   4  -1  -6  528.55   49.60
  -4  -1   6  607.24   45.90
   4  -1  -6  574.34   50.09
   4  -1  -6  601.64   48.00
   4  -1  -6  601.04   48.60
   4  -1  -6  560.04   47.70
   4  -1  -6  581.64   48.40
   4   1  -6  580.74   49.60
  -4   1   6  587.94   45.60
   4   1  -6  570.94   48.30
   4   1  -6  556.54   49.99
   4   1  -6  566.84   47.60
   4   1  -6  579.34   48.80
   4   1  -6  595.04   48.10
   3  -1  -6  237.18   21.10
   3  -1  -6  199.48   20.10
  -3  -1   6  199.58   19.80
  -3  -1   6  210.68   17.00
   3  -1  -6  202.38   20.80
  -3   1   6  206.58   15.40
   3   1  -6  194.08   18.40
   3   1  -6  191.38   19.40
  -3   1   6  182.98   18.20
   3   1  -6  167.08   17.60
  -2  -1   6  127.29   12.90
   2  -1  -6  142.19   13.30
  -2  -1   6  133.39   10.80
   2  -1  -6  123.49   12.70
   2  -1  -6  130.19   13.60
  -2   1   6  111.59   11.80
   2   1  -6  128.39   11.80
   2   1  -6  112.29   11.70
   2   1  -6  123.89   12.70
  -2   1   6  133.09   10.10
  -2   1   6  125.49   11.00
  -1  -1   6 2126.29  166.58
   1  -1  -6 1950.70  166.68
   1  -1  -6 2085.69  167.18
  -1  -1   6 2333.57  166.18
   1   1  -6 2321.87  186.58
  -1   1   6 2437.76  186.08
   0  -1   6   10.60    1.40
   0  -1   6   11.20    2.40
   0   1  -6   12.80    2.80
   0   1   6   12.20    2.80
   0   1   6   12.90    1.50
   1  -1   6  194.78   18.30
  -1  -1  -6  231.28   18.20
   1  -1   6  199.38   16.90
   1  -1   6  238.58   18.20
   1  -1   6  181.68   17.50
  -1  -1  -6  217.98   16.90
  -1  -1  -6  213.68   17.90
   1   1   6  201.18   17.40
  -1   1  -6  212.48   16.10
   1   1   6  188.18   16.10
  -1   1  -6  207.38   17.20
   1   1   6  186.78   16.90
   1   1   6  204.98   17.20
   2  -1   6  144.89   13.00
  -2  -1  -6  145.19   12.90
  -2  -1  -6  141.69   11.50
   2  -1   6  128.39   12.80
   2   1   6  133.89   12.70
   2   1   6  127.09   12.30
  -2   1  -6  128.59   12.20
  -2   1  -6  139.99   10.80
   3  -1   6  199.98   18.40
   3  -1   6  216.98   19.20
  -3  -1  -6  210.98   16.80
   3   1   6  228.88   19.20
  -3   1  -6  203.08   16.40
   3   1   6  207.28   18.20
  -3   1  -6  184.28   18.40
   4  -1   6   49.50    6.60
   4  -1   6   33.30    6.40
   4   1   6   49.00    7.10
   4   1   6   46.70    6.80
   4   1   6   42.50    7.90
   5  -2  -6  152.08   14.80
   5  -2  -6  162.78   15.10
   5  -2  -6  184.78   15.00
  -5  -2   6  163.28   13.60
   5   2  -6  193.28   18.50
   5   2  -6  219.18   19.00
   5   2  -6  197.78   18.50
   4  -2  -6  274.27   24.00
   4  -2  -6  281.87   24.60
   4  -2  -6  212.18   24.90
  -4  -2   6  283.27   21.90
   4  -2  -6  290.37   24.40
  -4  -2   6  262.67   21.60
   4  -2  -6  270.07   23.80
   4  -2  -6  241.08   25.80
   4  -2  -6  281.37   24.20
   4   2  -6  264.87   24.50
   4   2  -6  267.67   24.80
   4   2  -6  248.28   25.70
   4   2  -6  274.47   25.40
   4   2  -6  256.57   23.80
   4   2  -6  271.97   23.60
   4   2  -6  285.77   23.40
  -4   2   6  249.88   21.30
   3  -2  -6  397.76   33.60
   3  -2  -6  334.67   33.20
  -3  -2   6  364.16   32.60
  -3  -2   6  391.56   29.80
   3  -2  -6  379.96   33.70
  -3   2   6  350.56   28.20
  -3   2   6  329.97   31.20
   3   2  -6  370.06   31.00
   3   2  -6  375.06   31.30
   3   2  -6  352.16   32.00
  -2  -2   6  226.28   18.80
   2  -2  -6  206.38   19.10
   2  -2  -6  197.08   19.00
   2  -2  -6  186.98   18.60
  -2  -2   6  200.58   16.40
  -2   2   6  169.08   16.90
  -2   2   6  212.38   15.00
  -2   2   6  184.48   16.00
   2   2  -6  179.28   16.80
   2   2  -6  167.78   17.00
   2   2  -6  200.68   17.30
   1  -2  -6  321.17   25.10
   1  -2  -6  255.47   24.30
   1  -2  -6  246.38   24.10
  -1  -2   6  328.87   24.40
  -1  -2   6  291.57   23.60
  -1   2   6  311.77   23.50
   1   2  -6  328.37   24.50
  -1   2   6  267.67   22.30
  -1   2   6  239.78   22.50
   0  -2   6  473.85   38.30
   0  -2   6  446.16   37.20
   0  -2  -6  485.85   38.80
   0  -2   6  494.45   38.40
   0   2   6  432.56   38.40
   0   2  -6  501.95   39.20
   0   2   6  519.45   38.90
   0   2   6  474.35   37.80
   1  -2   6  311.77   28.00
   1  -2   6  313.67   26.60
   1  -2   6  303.27   27.30
  -1  -2  -6  364.16   28.00
  -1  -2  -6  350.96   26.60
  -1  -2  -6  368.46   27.80
  -1   2  -6  376.66   28.80
  -1   2  -6  351.36   27.40
   1   2   6  317.87   27.40
   1   2   6  357.26   28.60
   1   2   6  324.07   28.20
   1   2   6  348.67   28.60
  -2  -2  -6  198.58   16.30
   2  -2   6  190.78   16.20
  -2  -2  -6  165.98   14.50
   2  -2   6  167.38   15.70
  -2   2  -6  176.88   13.80
   2   2   6  174.68   15.70
   2   2   6  163.38   15.30
  -2   2  -6  169.88   15.30
   3  -2   6  738.63   61.19
  -3  -2  -6  753.02   59.59
  -3  -2  -6  789.42   61.69
   3   2   6  781.62   61.09
  -3   2  -6  721.93   58.69
   4  -2   6  137.39   13.30
   4  -2   6  129.09   13.00
   4   2   6  142.49   13.30
   4   2   6  127.79   16.40
   4   2   6  137.59   13.20
   5  -3  -6   75.59    7.70
  -5  -3   6   75.89    6.80
   5  -3  -6   76.19    8.00
   5  -3  -6   77.49    8.90
   5   3  -6   85.29    9.40
   5   3  -6   87.09    9.20
   5   3  -6   83.29    9.40
   5   3  -6   70.09    7.90
   4  -3  -6  408.76   34.30
   4  -3  -6  353.16   35.80
  -4  -3   6  425.96   32.50
   4  -3  -6  422.66   34.60
   4  -3  -6  411.66   34.20
  -4  -3   6  371.76   32.10
   4  -3  -6  430.76   35.00
   4   3  -6  359.16   34.00
   4   3  -6  381.56   33.40
   4   3  -6  393.46   34.70
   4   3  -6  392.26   34.00
   4   3  -6  397.56   34.30
   4   3  -6  368.16   34.90
  -4   3   6  359.06   31.00
   4   3  -6  434.56   35.00
   4   3  -6  433.46   33.10
   3  -3  -6  455.65   38.00
  -3  -3   6  435.66   36.80
  -3  -3   6  432.36   34.10
  -3  -3   6  452.35   33.90
   3  -3  -6  366.16   36.90
   3  -3  -6  411.06   37.70
   3   3  -6  417.16   35.20
   3   3  -6  430.36   35.80
   3   3  -6  391.56   35.80
  -3   3   6  442.56   32.40
  -3   3   6  354.86   35.20
   2  -3  -6  241.78   23.50
   2  -3  -6  275.57   23.90
  -2  -3   6  296.37   23.30
  -2  -3   6  244.48   20.90
   2  -3  -6  251.67   23.80
  -2   3   6  270.67   19.60
   2   3  -6  223.28   21.10
   2   3  -6  209.98   21.50
   2   3  -6  276.07   22.30
  -1  -3   6 1285.17   93.89
   1  -3  -6 1047.00   93.89
   1  -3  -6 1210.08   94.39
  -1   3   6 1111.79   81.39
  -1   3   6  986.30   80.09
  -1   3   6  924.71   80.19
  -1   3   6 1018.00   80.69
   1   3  -6 1101.79   82.09
   0  -3   6  880.21   72.89
   0  -3   6 1021.80   74.39
   0  -3   6  881.61   74.09
   0  -3  -6  823.52   74.09
   0  -3  -6 1062.69   74.79
   0   3   6  888.51   70.69
   0   3   6  962.00   71.89
   0   3   6  833.92   71.39
   0   3  -6  937.81   72.19
  -1  -3  -6  116.69    9.50
  -1  -3  -6  135.39   11.40
   1  -3   6  102.89   10.90
  -1  -3  -6  117.79   10.70
   1  -3   6  109.69    9.50
   1  -3   6  107.79   10.40
   1   3   6  121.19   11.10
  -1   3  -6  124.59    9.90
   1   3   6  109.59    9.90
   1   3   6  110.49   10.90
  -1   3  -6  126.19   11.10
  -2  -3  -6   37.20    3.90
   2  -3   6   35.60    4.90
  -2  -3  -6   45.40    6.10
   2   3   6   39.20    5.00
   2   3   6   34.40    5.50
  -2   3  -6   32.00    4.90
  -2   3  -6   39.60    3.90
  -3  -3  -6  278.57   23.70
  -3  -3  -6  265.87   21.20
   3  -3   6  247.58   22.80
  -3   3  -6  243.28   20.10
   3   3   6  262.67   22.80
   4  -3   6  133.69   12.90
  -4  -3  -6  108.29   10.60
   4  -3   6  112.69   11.60
   4   3   6  132.99   13.00
   4   3   6  144.29   13.70
   4   3   6  133.19   15.00
   5  -4  -6   85.39    8.60
   5  -4  -6   85.69    8.40
  -5  -4   6   95.19    7.80
   5   4  -6   77.69    9.00
   5   4  -6   94.69    9.60
   5   4  -6   78.49    8.20
   5   4  -6   94.29    9.60
   4  -4  -6   28.40    5.30
  -4  -4   6   24.80    3.60
   4  -4  -6   20.10    4.70
   4  -4  -6   23.30    5.60
   4  -4  -6   17.90    5.40
   4  -4  -6   24.20    5.10
   4   4  -6   21.90    7.60
   4   4  -6   24.40    7.70
   4   4  -6   24.60    4.50
   4   4  -6   19.50    7.00
   4   4  -6   22.50    5.20
   3  -4  -6  192.58   19.40
  -3  -4   6  144.89   15.90
  -3  -4   6  178.48   17.50
  -3  -4   6  183.08   14.60
   3  -4  -6  170.08   19.40
  -3  -4   6  194.28   14.80
   3  -4  -6  162.98   18.20
   3   4  -6  169.78   18.60
   3   4  -6  206.18   19.30
   3   4  -6  193.68   18.40
  -3   4   6  199.48   15.80
   2  -4  -6  128.99   14.90
  -2  -4   6  172.08   14.90
   2  -4  -6  131.09   14.90
   2  -4  -6  159.48   15.90
   2   4  -6  154.38   14.80
  -2   4   6  144.29   12.30
   1  -4  -6  107.59   11.50
   1  -4  -6  111.99   11.60
  -1   4   6   99.79    8.40
   1   4  -6  108.49   10.50
  -1   4   6  109.39    9.80
  -1   4   6  102.49    9.40
  -1   4   6   93.59    8.70
   0  -4  -6   15.30    3.70
   0  -4   6   20.00    3.90
   0  -4   6   16.00    3.40
   0  -4  -6   19.40    4.20
   0   4   6   18.10    3.20
   0   4  -6   17.30    3.90
   0   4   6   14.90    1.90
   0   4   6   17.00    3.30
   1  -4   6   13.10    3.20
  -1  -4  -6   10.50    3.00
   1  -4   6    9.80    2.80
  -1  -4  -6   13.50    3.60
   1  -4   6   10.80    1.70
   1   4   6   11.10    3.20
  -1   4  -6   17.50    2.30
   1   4   6    7.40    1.60
  -1   4  -6    9.90    1.70
  -1   4  -6   10.90    3.20
   2  -4   6  335.07   30.10
  -2  -4  -6  352.16   28.90
  -2  -4  -6  405.36   31.20
  -2   4  -6  346.57   27.20
   2   4   6  355.16   28.70
   2   4   6  325.77   28.80
   3  -4   6  476.35   38.30
  -3  -4  -6  504.05   36.70
   3  -4   6  425.96   39.10
   3  -4   6  465.95   37.50
   3  -4   6  448.76   39.00
  -3  -4  -6  448.76   37.50
   3   4   6  404.86   35.40
   3   4   6  400.76   38.30
  -3   4  -6  447.46   33.90
   3   4   6  501.55   36.80
   3   4   6  446.16   35.60
   3   4   6  360.96   36.90
  -4  -4  -6  305.27   26.20
   4  -4   6  337.07   27.50
   4   4   6  342.17   28.10
   4   4   6  348.27   28.30
   4   4   6  313.17   30.50
   4   4   6  336.97   29.70
   4  -5  -6  578.14   46.90
   4  -5  -6  595.94   46.90
   4  -5  -6  576.54   46.50
  -4  -5   6  524.75   45.30
   4  -5  -6  610.94   47.40
   4  -5  -6  543.05   46.50
   4   5  -6  642.74   46.80
   4   5  -6  516.45   47.00
   4   5  -6  571.54   48.60
   4   5  -6  540.65   48.10
  -3  -5   6  245.08   21.80
  -3  -5   6  208.88   20.40
   3  -5  -6  205.78   22.30
   3  -5  -6  254.67   23.60
   3   5  -6  250.17   24.00
   3   5  -6  267.77   25.30
  -3   5   6  276.67   21.30
  -3   5   6  256.87   21.20
   2  -5  -6   28.90    6.20
   2  -5  -6   23.00    5.80
   2  -5  -6   27.40    5.80
  -2  -5   6   36.30    5.70
   2   5  -6   25.80    6.10
  -2   5   6   28.50    3.20
   1  -5  -6   50.09    7.20
  -1  -5   6   64.29    7.50
   1  -5  -6   45.50    7.30
   1   5  -6   42.40    6.00
  -1   5   6   46.10    5.00
   0  -5  -6  231.58   21.30
   0  -5  -6  249.48   21.50
   0  -5   6  256.17   21.90
   0   5   6  259.47   19.60
   0   5  -6  210.78   19.80
   0   5   6  222.48   18.30
   0   5   6  226.58   19.70
   1  -5   6  169.18   14.90
  -1  -5  -6  153.88   15.40
  -1  -5  -6  189.58   16.10
  -1   5  -6  179.18   15.30
   1   5   6  196.88   16.70
  -2  -5  -6    3.10    2.40
   2  -5   6    4.70    3.10
  -2  -5  -6    6.10    3.10
  -2  -5  -6    5.80    1.80
   2   5   6   10.20    4.10
   2   5   6    6.90    3.30
  -2   5  -6    7.60    2.10
   3  -5   6  208.08   17.60
   3  -5   6  200.48   17.80
  -3  -5  -6  208.88   16.40
   3  -5   6  197.18   18.60
   3  -5   6  194.98   17.90
   3  -5   6  190.08   19.50
  -3  -5  -6  213.18   18.70
  -3  -5  -6  193.28   17.40
   3   5   6  152.08   17.60
   3   5   6  198.68   16.70
   3   5   6  161.98   21.00
  -3   5  -6  184.78   14.90
   3   5   6  198.08   17.20
   3   5   6  187.48   16.70
   4  -5   6  188.28   17.00
   4  -5   6  186.08   16.10
  -4  -5  -6  205.18   16.50
   4   5   6  216.68   17.70
   4   5   6  208.78   17.80
   4   5   6  195.68   19.80
   4   5   6  195.68   19.00
   4  -6  -6   53.19    6.60
  -4  -6   6   42.60    4.50
   4  -6  -6   44.00    6.30
   4  -6  -6   50.39    6.80
   4  -6  -6   32.00    5.90
   4  -6  -6   40.10    6.50
  -4   6   6   35.70    3.90
   4   6  -6   57.99    8.90
   4   6  -6   50.89    8.20
   4   6  -6   31.70    5.90
   4   6  -6   49.70    7.10
  -3  -6   6  126.69   10.10
   3  -6  -6   96.99   10.70
   3  -6  -6   90.89   13.00
   3  -6  -6  126.09   12.80
   3  -6  -6  109.49   11.40
   3  -6  -6  108.99   12.70
   3  -6  -6  104.39   12.50
   3  -6  -6  121.19   12.90
   3   6  -6  109.39   14.00
  -3   6   6  113.99    9.20
  -3   6   6   93.19    9.10
   3   6  -6  101.79   11.80
   3   6  -6   78.09   13.40
   3   6  -6   88.69   14.30
   3   6  -6   97.99   12.30
   3   6  -6  117.89   10.90
   2  -6  -6  245.78   24.70
  -2  -6   6  270.77   23.70
  -2   6   6  236.18   19.20
  -2   6   6  225.78   20.00
   2   6  -6  242.28   22.00
   1  -6  -6   41.50    7.40
   1  -6  -6   27.90    5.90
  -1  -6   6   43.00    6.70
   1   6  -6   33.40    6.20
  -1   6   6   43.10    5.00
   0  -6  -6  114.99   12.20
   0  -6   6  124.19   12.60
   0  -6  -6  115.39   12.00
   0   6   6  127.49   11.80
  -1  -6  -6  836.62   63.19
   1  -6   6  739.93   61.89
  -1  -6  -6  752.12   62.79
  -1   6  -6  767.92   64.49
   1   6   6  879.91   65.99
  -2  -6  -6   89.79    9.50
   2  -6   6  111.09   10.10
  -2  -6  -6  113.19   11.10
  -2  -6  -6   92.19   11.10
   2   6   6  113.19   10.90
  -2   6  -6  109.79    9.20
  -2   6  -6   91.69    9.10
   3  -6   6    7.20    3.50
   3  -6   6   10.10    3.30
   3  -6   6   13.70    4.20
   3  -6   6    9.70    7.80
  -3  -6  -6    9.50    3.60
   3  -6   6    5.20    3.20
  -3  -6  -6    8.70    3.10
   3   6   6    8.40    4.00
   3   6   6    7.20    3.70
   3   6   6    7.60    3.30
  -3   6  -6    6.90    1.90
   3   6   6    7.90    8.10
   4  -6   6  151.98   13.20
  -4  -6  -6  148.79   12.60
   4  -6   6  147.89   12.60
   4   6   6  154.78   16.50
   4   6   6  197.28   15.60
   4   6   6  196.68   15.80
   4   6   6  162.48   17.10
   4  -7  -6   79.49    7.90
   4  -7  -6   82.99    8.90
   4  -7  -6   85.79    9.60
   4  -7  -6   77.19    8.40
   4  -7  -6   89.19    9.10
   4  -7  -6   83.69    9.50
   4   7  -6   92.39   10.80
  -4   7   6   67.99    6.60
   4   7  -6   83.49   11.10
  -3  -7   6  109.59   10.60
   3  -7  -6  121.79   12.60
   3  -7  -6  103.09   11.50
   3  -7  -6   98.19   10.50
   3  -7  -6  113.79   12.40
   3  -7  -6  112.79   11.20
   3  -7  -6  112.89   12.50
   3   7  -6  115.89   13.40
  -3   7   6  106.79    8.90
  -3   7   6   78.59    8.60
   3   7  -6  103.79   13.50
   3   7  -6   85.19   11.70
   3   7  -6   86.59   11.40
   3   7  -6  108.69   10.30
  -2  -7   6   48.60    7.40
   2  -7  -6   49.40    9.00
   2   7  -6   46.50    7.70
  -2   7   6   64.39    5.80
  -2   7   6   51.19    5.30
  -2   7   6   40.70    6.40
  -1  -7   6  401.86   33.40
   1  -7  -6  361.96   33.20
  -1   7   6  404.56   36.00
  -1   7   6  466.65   35.30
   0  -7  -6  129.19   13.90
   0  -7  -6  148.49   14.70
   0  -7   6  156.18   15.30
   0   7  -6  166.88   15.20
   0   7   6  166.48   15.50
  -1  -7  -6   48.50    6.60
   1  -7   6   51.99    6.40
  -1  -7  -6   53.29    7.30
   1  -7   6   42.30    8.50
  -1   7  -6   53.59    6.40
   1   7   6   63.69    8.10
  -1   7  -6   53.99    6.10
   2  -7   6   14.60    5.50
   2  -7   6   24.70    5.40
   2  -7   6   30.40    4.90
  -2  -7  -6   29.80    5.30
   2  -7   6   27.80    4.30
   2  -7   6   33.00    5.20
  -2  -7  -6   30.90    4.50
   2  -7   6   26.90    4.50
  -2  -7  -6   20.90    5.10
  -2   7  -6   35.50    3.90
   2   7   6   21.20    8.40
   2   7   6   23.90    4.90
  -2   7  -6   34.60    4.40
   3  -7   6    1.90    2.20
  -3  -7  -6    1.20    2.50
   3  -7   6    1.90    3.30
   3  -7   6    3.60    3.40
   3  -7   6    3.90    2.80
   3   7   6    3.60    5.60
   3   7   6    5.10    3.50
  -3   7  -6    1.80    1.90
   3   7   6    5.70    2.30
   4  -7   6  129.59   10.70
  -4  -7  -6  125.49   11.30
   4   7   6  145.39   12.20
   4   7   6  128.79   12.30
   4   7   6  149.99   12.00
   4  -8  -6   76.59    8.10
   4  -8  -6   88.39    7.90
   4  -8  -6   93.19    8.00
   4  -8  -6   66.39    7.90
   4   8  -6   75.99    7.70
  -4   8   6   70.49    7.20
   4   8  -6   98.99   10.10
   3  -8  -6   76.29    8.80
   3  -8  -6   81.49    8.40
   3  -8  -6   80.59    9.10
   3  -8  -6   84.99   10.10
   3  -8  -6   78.19    8.80
  -3  -8   6   61.89    7.60
   3  -8  -6   68.09    8.70
   3   8  -6   77.49    8.20
  -3   8   6   76.89    7.10
   3   8  -6   80.19   12.40
   3   8  -6   62.79    9.80
   2  -8  -6   95.79   11.00
   2  -8  -6   73.79   10.80
  -2  -8   6  102.89   10.30
   2  -8  -6  107.19   11.70
   2  -8  -6   87.99    9.40
   2  -8  -6  111.29   11.80
  -2   8   6  135.79   10.40
  -2   8   6   93.29   10.70
   2   8  -6   92.19   13.40
   2   8  -6  123.99   14.60
   1  -8  -6   49.99    7.70
  -1  -8   6   52.69    7.80
  -1   8   6   65.59    6.70
  -1   8   6   63.69    8.20
   0  -8   6  177.58   18.60
   0  -8  -6  192.58   17.90
   0   8   6  254.07   22.20
   1  -8   6   18.10    4.40
  -1  -8  -6   10.80    3.70
  -1  -8  -6   14.40    3.90
   1  -8   6   13.20    4.50
   1  -8   6   11.70    5.00
   1  -8   6   14.20    4.20
  -1   8  -6   19.40    3.60
   1   8   6   16.60    5.00
  -1   8  -6    1.60    5.80
   2  -8   6  113.99   11.30
   2  -8   6  127.49   12.00
   2  -8   6  123.49   12.80
  -2  -8  -6  103.09   11.20
   2  -8   6  104.79   11.00
   2  -8   6  124.09   10.40
  -2  -8  -6   88.29   10.90
  -2   8  -6  111.79   10.40
  -2   8  -6  129.69   10.90
   2   8   6  110.59   14.20
   2   8   6  121.59   12.00
   3  -8   6  313.47   24.90
   3  -8   6  280.87   25.30
   3  -8   6  318.37   24.40
  -3  -8  -6  309.27   25.30
   3  -8   6  274.27   24.90
   3   8   6  318.37   25.00
   3   8   6  304.17   27.00
  -3   8  -6  283.67   23.90
   3   8   6  280.87   24.20
   3  -9  -6   21.10    4.70
   3  -9  -6   39.00    5.20
   3  -9  -6   31.10    5.10
  -3  -9   6   30.80    4.30
   3  -9  -6   30.90    4.70
   3  -9  -6   37.80    5.70
   3  -9  -6   29.00    4.90
   3   9  -6   42.90    7.80
  -3   9   6   31.10    3.60
   3   9  -6   32.10    6.10
   2  -9  -6   50.59    7.50
   2  -9  -6   67.19    9.20
  -2  -9   6   60.59    7.90
   2  -9  -6   66.09    9.30
   2  -9  -6   53.89    6.80
  -2   9   6   67.39    6.50
   2   9  -6   67.39   10.30
   2   9  -6   50.99   10.10
   1  -9  -6  185.38   17.30
   1  -9  -6  163.98   19.10
   1  -9  -6  240.88   19.90
  -1  -9   6  235.58   18.50
   1   9  -6  206.48   22.50
   1   9  -6  254.37   21.80
  -1   9   6  229.88   20.50
   0  -9   6  168.48   16.30
   0  -9  -6  148.19   16.00
   0  -9   6  161.58   15.10
   0  -9   6  178.88   15.80
   0  -9  -6  176.38   17.20
   0  -9   6  165.58   16.00
   0   9   6  210.68   19.60
   0   9   6  237.68   23.20
   0   9  -6  206.08   20.10
  -1  -9  -6    1.80    3.50
  -1  -9  -6    5.90    3.40
   1  -9   6    2.20    3.90
   1  -9   6    3.70    3.40
   1  -9   6    1.80    4.10
   1  -9   6    3.00    2.90
   1  -9   6    4.70    3.30
   1   9   6    1.30    4.20
   1   9   6    0.60    2.90
  -1   9  -6    4.20    2.80
  -1   9  -6    4.70    5.30
   1   9   6    5.80    7.40
   2  -9   6   31.40    5.40
  -2  -9  -6   33.40    5.90
   2  -9   6   19.90    4.40
   2  -9   6   21.50    3.70
   2  -9   6   16.00    3.80
   2  -9   6   23.60    5.20
   2   9   6   16.30    4.00
   2   9   6   20.90    5.80
  -2   9  -6   21.30    4.60
   3  -9   6   25.70    4.10
  -3  -9  -6   36.00    5.00
   3  -9   6   33.40    3.70
   3  -9   6   31.80    4.40
  -3   9  -6   26.60    3.20
   3   9   6   24.10    5.50
   3   9   6   32.00    4.40
   3 -10  -6   15.80    2.70
   3 -10  -6   12.50    2.90
  -3 -10   6   13.90    2.60
   3 -10  -6   19.00    2.90
   3 -10  -6    8.90    2.50
   3 -10  -6   14.70    3.00
   3 -10  -6    7.30    2.80
  -3  10   6   11.30    2.00
   3  10  -6   16.30    4.90
  -3  10   6   14.80    3.90
   2 -10  -6    5.20    4.30
   2 -10  -6    6.10    2.60
   2 -10  -6    6.20    3.30
  -2 -10   6    5.20    2.60
   2  10  -6    2.80    6.00
   2  10  -6    5.30    5.20
  -2  10   6    3.60    6.70
   1 -10  -6   13.00    8.00
  -1 -10   6   14.40    3.60
   1 -10  -6   22.50    5.80
  -1 -10   6   17.30    3.90
   1  10  -6   18.90    7.20
  -1  10   6   24.60    8.50
   1  10  -6   24.20    6.10
   0 -10   6   29.50    4.80
   0 -10   6   24.90    4.90
   0 -10   6   29.30    5.00
   0 -10   6   34.50    5.70
   0  10   6   47.90   10.00
   0  10  -6   42.80    7.40
   0  10  -6   42.20    6.90
  -1 -10  -6   81.99    8.60
   1 -10   6   73.69    8.40
   1 -10   6   79.49    8.80
   1 -10   6   82.49   10.20
   1 -10   6   82.99    9.00
  -1  10  -6   96.89   10.70
   1  10   6  105.39   12.60
   2 -10   6   98.19    8.80
  -2 -10  -6  113.69   10.10
   2 -10   6  108.39   10.10
   2 -10   6   87.79    9.50
   2 -10   6   97.49   10.10
   2 -10   6  105.69    9.60
   2  10   6  105.99    9.80
  -2  10  -6  105.79   10.10
  -2  10  -6  101.59    9.30
   2 -11  -6    2.80    1.90
  -2 -11   6    4.90    3.00
   2 -11  -6    5.30    3.50
   2 -11  -6    6.60    2.80
   2  11  -6    5.20    3.50
  -2  11   6    7.80    4.10
   2  11  -6   11.70    4.70
  -1 -11   6    7.00    2.60
   1 -11  -6    4.70    3.20
  -1 -11   6    6.70    3.30
   1  11  -6   11.20    4.60
   1  11  -6    4.40    4.30
  -1  11   6   15.00    5.30
   0 -11   6   31.00    4.90
   0 -11   6   27.10    5.20
   0  11  -6   48.60    8.20
   0  11   6   48.40    8.30
   1 -11   6    6.80    3.90
   1 -11   6    0.30    2.50
   1 -11   6    2.70    2.40
   1 -11   6   -0.50    2.10
   1  11   6    2.90    4.40
  -1  11  -6    2.80    3.30
  -1  11  -6    1.90    3.40
   2 -11   6    1.10    1.60
   2 -11   6   -0.80    1.90
   2 -11   6    7.90    2.50
   2 -11   6    6.10    1.90
  -2 -11  -6    2.60    2.20
  -2  11  -6    1.00    2.10
  -1 -12   6   14.00    2.70
   1  12  -6   15.10    5.10
   1  12  -6   12.20    3.40
  -1  12   6   23.90    4.60
   0 -12   6   22.00    3.40
   0  12  -6   39.70    5.90
   0  12   6   52.89    7.00
   1 -12   6   22.00    3.10
  -1  12  -6   23.60    3.50
  -1  12  -6   25.40    4.00
   5   0  -7    5.60    3.20
   5   0  -7   12.30    3.60
   5   0  -7    6.30    4.20
   5   0  -7    8.70    4.60
  -5   0   7    5.80    1.50
  -4   0   7  645.94   45.90
   4   0  -7  575.04   48.10
   4   0  -7  517.35   49.70
   4   0  -7  603.44   47.80
   4   0  -7  588.64   47.50
   4   0  -7  563.44   47.90
   4   0  -7  546.05   49.10
  -4   0   7  550.94   45.50
  -3   0   7  176.68   18.30
   3   0  -7  177.08   18.60
  -3   0   7  207.68   15.80
   3   0  -7  196.28   20.10
  -3   0   7  196.88   16.00
   2   0  -7   80.79    9.30
   2   0  -7   63.49    7.90
   2   0  -7   61.69    7.80
  -2   0   7   65.89    8.30
   2   0  -7   71.79    9.30
  -2   0   7   68.69    6.10
   1   0  -7  171.78   16.80
  -1   0   7  172.48   16.00
   1   0  -7  206.08   16.70
  -1   0   7  192.58   16.00
   0   0  -7   84.39    9.30
   0   0  -7  112.99    9.60
   0   0   7   87.39    8.50
   0   0   7   93.09    7.70
   0   0   7   93.99    8.90
  -1   0  -7 2556.44  169.98
   1   0   7 2058.19  169.18
   1   0   7 2001.30  168.38
   1   0   7 2004.20  169.88
  -1   0  -7 2187.18  168.38
  -2   0  -7   60.29    5.50
   2   0   7   59.59    7.40
  -2   0  -7   61.59    7.60
   2   0   7   64.89    7.70
  -3   0  -7   19.30    2.50
   3   0   7   24.70    4.90
  -3   0  -7   20.10    4.50
   3   0   7   25.60    4.70
   4   0   7   34.80    5.90
   4   0   7   25.60    6.70
   4   0   7   28.50    5.80
   5  -1  -7  177.68   17.10
  -5  -1   7  211.08   16.30
   5  -1  -7  185.98   17.10
   5  -1  -7  209.28   17.80
   5  -1  -7  209.88   17.70
   5   1  -7  211.88   19.10
  -5   1   7  172.78   16.60
   5   1  -7  242.68   18.60
   5   1  -7  214.58   19.00
  -4  -1   7  393.56   32.00
  -4  -1   7  420.26   32.20
   4  -1  -7  400.66   34.50
   4  -1  -7  375.76   36.10
   4  -1  -7  398.76   34.80
   4  -1  -7  358.16   35.80
   4  -1  -7  417.66   34.30
   4  -1  -7  420.16   34.20
   4  -1  -7  415.36   34.70
  -4   1   7  377.16   32.00
   4   1  -7  411.56   34.90
   4   1  -7  401.46   34.10
   4   1  -7  462.85   35.00
   4   1  -7  376.26   35.70
   4   1  -7  405.06   35.00
   4   1  -7  384.66   36.30
  -3  -1   7  388.76   35.60
  -3  -1   7  404.46   33.10
   3  -1  -7  405.96   36.30
  -3  -1   7  431.26   33.00
   3  -1  -7  427.16   36.80
   3  -1  -7  428.96   37.20
  -3   1   7  359.46   33.90
   3   1  -7  392.36   34.40
  -3   1   7  402.06   31.90
   3   1  -7  357.56   33.50
  -3   1   7  421.86   31.30
   3   1  -7  418.16   35.60
   2  -1  -7  372.26   35.40
   2  -1  -7  432.66   36.50
  -2  -1   7  413.96   33.40
  -2  -1   7  452.15   35.70
   2  -1  -7  443.06   36.20
  -2   1   7  423.86   31.40
   2   1  -7  441.56   33.70
   2   1  -7  349.77   33.10
  -2   1   7  387.96   33.40
   2   1  -7  381.56   34.00
   1  -1  -7   52.19    7.10
  -1  -1   7   70.79    6.70
   1  -1  -7   75.79    7.80
   1  -1  -7   64.79    7.50
  -1  -1   7   67.79    7.30
   1  -1  -7   67.19    8.20
   1   1  -7   79.59    7.70
   1   1  -7   56.89    7.50
  -1   1   7   72.69    6.90
  -1   1   7   55.49    6.90
   0  -1  -7  149.29   12.80
   0  -1   7  123.49   11.70
   0  -1   7  128.59   11.00
   0  -1   7  146.89   12.60
   0   1   7  140.39   11.60
   0   1   7  155.48   13.10
   0   1   7  137.99   12.30
   1  -1   7   59.79    5.90
   1  -1   7   65.69    7.00
  -1  -1  -7   78.19    7.20
  -1  -1  -7   71.29    7.50
  -1  -1  -7   66.69    5.90
   1  -1   7   57.29    7.50
   1   1   7   67.49    6.40
   1   1   7   73.09    7.30
   1   1   7   69.29    8.10
  -1   1  -7   73.39    6.40
  -1   1  -7   78.39    8.10
   1   1   7   79.59    7.70
  -2  -1  -7   14.60    2.00
   2  -1   7   13.80    3.30
  -2  -1  -7   13.90    3.50
   2  -1   7    8.80    3.40
   2   1   7   13.50    3.50
  -2   1  -7   14.10    3.50
   2   1   7   14.00    3.20
  -2   1  -7   13.40    2.00
   3  -1   7   17.20    4.40
   3  -1   7   18.80    4.10
  -3  -1  -7   15.60    2.30
  -3  -1  -7   14.60    4.80
  -3   1  -7   11.20    1.90
  -3   1  -7   13.00    3.80
   3   1   7   19.30    4.80
   3   1   7   13.50    4.40
   4  -1   7   42.20    6.30
   4  -1   7   42.90    6.20
   4   1   7   45.90    6.10
   4   1   7   35.20    5.60
   4   1   7   35.10    8.60
   5  -2  -7  108.59   11.00
   5  -2  -7  126.29   10.90
   5  -2  -7  122.09   11.30
  -5  -2   7  112.99    9.80
   5   2  -7  136.19   12.50
   5   2  -7  133.99   12.70
   5   2  -7  113.99   12.30
   4  -2  -7  232.28   20.10
   4  -2  -7  227.18   20.80
  -4  -2   7  193.98   17.90
   4  -2  -7  189.98   22.00
   4  -2  -7  221.48   20.40
  -4  -2   7  240.88   18.30
   4  -2  -7  234.88   20.90
   4  -2  -7  208.58   20.80
   4   2  -7  208.08   21.20
   4   2  -7  219.38   19.80
  -4   2   7  195.48   17.30
   4   2  -7  205.58   20.80
   4   2  -7  246.18   19.50
   4   2  -7  221.78   20.60
   4   2  -7  187.68   21.20
   4   2  -7  226.58   20.50
  -3  -2   7  640.04   57.09
  -3  -2   7  726.73   54.39
   3  -2  -7  678.93   58.49
   3  -2  -7  699.13   58.39
   3  -2  -7  661.53   58.19
  -3  -2   7  728.03   54.69
   3   2  -7  664.93   54.89
   3   2  -7  676.53   53.89
  -3   2   7  563.14   53.59
  -3   2   7  700.33   50.89
   3   2  -7  622.04   53.59
   2  -2  -7   12.40    4.40
  -2  -2   7   11.50    2.00
   2  -2  -7   12.70    4.40
   2  -2  -7   12.00    5.10
  -2  -2   7   15.60    4.20
  -2   2   7   10.50    1.80
   2   2  -7   12.80    3.80
   2   2  -7   11.10    3.70
  -2   2   7    9.60    3.60
   2   2  -7   12.50    3.70
   1  -2  -7  512.45   48.00
  -1  -2   7  568.34   47.50
   1  -2  -7  640.14   49.10
  -1  -2   7  649.83   48.20
   1   2  -7  677.03   52.39
  -1   2   7  609.74   51.49
   0  -2  -7  176.88   15.10
   0  -2   7  164.98   15.30
   0  -2  -7  181.98   15.90
   0   2  -7  192.38   15.30
   0   2   7  156.88   13.50
   0   2   7  162.38   14.80
   0   2   7  158.48   14.10
   1  -2   7  310.67   26.30
   1  -2   7  294.67   26.90
  -1  -2  -7  323.97   26.80
   1  -2   7  298.67   25.40
  -1  -2  -7  334.37   25.40
  -1  -2  -7  349.57   26.70
  -1   2  -7  347.97   27.00
   1   2   7  361.36   28.30
   1   2   7  329.17   28.50
   1   2   7  299.97   27.00
  -1   2  -7  363.56   28.60
   1   2   7  334.47   28.00
  -2  -2  -7   12.00    3.80
  -2  -2  -7   11.80    3.20
   2  -2   7   13.20    3.60
   2  -2   7   11.30    3.50
  -2  -2  -7   10.80    1.80
  -2   2  -7   11.10    2.00
   2   2   7   20.50    4.50
   2   2   7    9.00    3.60
  -2   2  -7   12.60    3.90
  -3  -2  -7  107.69   11.60
  -3  -2  -7   91.09   10.10
  -3  -2  -7  123.39    9.30
   3  -2   7  116.99   11.00
   3  -2   7  109.49   11.90
   3  -2   7  107.39   11.80
   3  -2   7  111.39   11.10
   3   2   7   93.89   11.30
   3   2   7  112.99   11.40
   3   2   7   99.39   14.50
  -3   2  -7  112.49    8.80
   3   2   7  123.09   11.80
   3   2   7   82.59   11.60
  -3   2  -7   94.59   10.50
   4  -2   7  312.67   26.20
   4  -2   7  317.27   26.10
  -4  -2  -7  281.27   24.60
   4   2   7  316.47   26.80
   4   2   7  335.97   26.90
   4   2   7  298.47   29.20
   5  -3  -7    9.20    2.80
   5  -3  -7    6.40    2.80
   5  -3  -7   11.10    2.80
  -5  -3   7    8.50    1.70
   5   3  -7    4.80    2.60
   5   3  -7    9.90    3.20
   5   3  -7    4.80    3.20
   5   3  -7    5.50    3.10
   4  -3  -7  313.47   33.00
   4  -3  -7  332.87   28.90
   4  -3  -7  325.67   28.40
  -4  -3   7  344.97   27.00
   4  -3  -7  347.27   28.90
   4  -3  -7  311.07   28.60
   4  -3  -7  345.87   28.80
   4   3  -7  323.57   29.00
   4   3  -7  378.16   28.90
   4   3  -7  308.67   29.40
   4   3  -7  322.47   29.90
   4   3  -7  321.87   29.60
  -4   3   7  384.66   27.50
  -4   3   7  302.47   27.00
   3  -3  -7  245.88   25.10
  -3  -3   7  298.67   22.00
   3  -3  -7  282.47   26.10
  -3  -3   7  258.07   24.50
  -3  -3   7  266.27   21.60
   3  -3  -7  242.28   25.00
  -3   3   7  281.07   21.70
   3   3  -7  250.37   25.30
   3   3  -7  278.37   25.00
   3   3  -7  262.17   24.60
   2  -3  -7   77.09   10.40
   2  -3  -7   82.89   11.30
  -2  -3   7  105.09   10.50
   2  -3  -7   86.79   10.40
  -2   3   7   63.49    8.80
  -2   3   7   80.09    6.70
   2   3  -7   67.69    9.00
   2   3  -7   90.99    9.60
   1  -3  -7  208.38   18.70
   1  -3  -7  170.78   17.90
  -1  -3   7  215.38   17.90
  -1   3   7  180.28   16.30
   1   3  -7  200.78   17.20
  -1   3   7  178.58   15.60
   0  -3   7   39.80    5.30
   0  -3  -7   43.00    6.10
   0  -3  -7   28.20    5.70
   0   3   7   37.90    3.80
   0   3  -7   44.50    5.60
   0   3   7   38.30    4.60
   0   3   7   41.80    5.40
  -1  -3  -7   54.49    6.40
  -1  -3  -7   60.69    6.50
   1  -3   7   50.69    6.00
   1  -3   7   40.10    4.70
   1   3   7   63.39    7.00
   1   3   7   63.39    6.60
  -1   3  -7   59.99    5.70
  -1   3  -7   55.49    6.70
  -2  -3  -7   49.80    4.70
   2  -3   7   53.79    6.10
  -2  -3  -7   39.50    5.60
  -2  -3  -7   56.79    7.00
  -2  -3  -7   47.20    6.10
   2   3   7   52.09    6.20
  -2   3  -7   41.00    5.90
   2   3   7   48.60    6.20
  -2   3  -7   53.99    4.80
  -3  -3  -7   30.50    6.00
  -3  -3  -7   29.80    5.20
   3  -3   7   36.30    6.70
   3  -3   7   29.30    4.70
   3  -3   7   35.50    6.10
  -3  -3  -7   28.70    4.40
  -3  -3  -7   29.70    3.60
   3  -3   7   33.90    5.10
   3   3   7   35.60    6.00
   3   3   7   35.90    5.50
   3   3   7   31.50    8.50
  -3   3  -7   38.30    4.10
   3   3   7   25.50    8.20
   3   3   7   32.50    5.70
  -4  -3  -7    6.50    2.10
   4  -3   7   10.10    3.60
   4  -3   7    4.80    4.30
   4   3   7    7.70    4.70
   4   3   7    9.30    3.20
   4   3   7    6.70    3.00
   5  -4  -7   30.10    4.50
  -5  -4   7   38.80    4.30
   5  -4  -7   26.10    4.20
   5  -4  -7   34.00    4.10
   5   4  -7   37.70    5.70
   5   4  -7   38.90    4.50
   5   4  -7   39.40    5.70
   5   4  -7   27.60    5.00
   4  -4  -7   41.00    7.20
   4  -4  -7   41.70    6.90
   4  -4  -7   57.89    7.30
   4  -4  -7   42.90    7.30
   4  -4  -7   41.90    6.90
  -4  -4   7   44.20    5.10
   4   4  -7   41.30    8.00
  -4   4   7   32.90    4.10
   4   4  -7   38.70    8.10
   4   4  -7   54.69    8.20
   4   4  -7   44.90    6.80
   3  -4  -7  660.93   59.59
  -3  -4   7  766.22   59.39
   3  -4  -7  841.92   61.29
  -3  -4   7  765.22   56.39
  -3  -4   7  610.54   57.89
   3  -4  -7  657.43   60.19
  -3   4   7  802.52   61.09
   3   4  -7  733.43   63.59
   3   4  -7  866.11   65.09
   3   4  -7  648.94   63.69
  -3   4   7  834.52   61.19
   2  -4  -7  107.49   13.60
   2  -4  -7  132.19   14.70
   2  -4  -7  127.39   14.60
  -2  -4   7  159.08   14.10
  -2   4   7  114.99   10.10
   2   4  -7  127.69   13.60
   1  -4  -7   89.59   11.20
   1  -4  -7  103.69   11.40
  -1  -4   7  125.39   11.30
   1   4  -7  107.39   10.50
  -1   4   7   86.89    8.40
  -1   4   7   74.69    7.30
   0  -4   7    4.70    2.70
   0  -4   7    6.10    2.80
   0  -4  -7    6.60    3.00
   0  -4  -7    8.00    3.50
   0   4  -7    4.50    3.10
   0   4   7    4.80    1.40
   0   4   7    5.30    2.70
   0   4   7    8.00    2.80
   1  -4   7  410.36   37.40
  -1  -4  -7  512.05   38.70
  -1   4  -7  393.96   36.30
   1   4   7  470.05   36.20
  -1   4  -7  465.25   35.00
  -2  -4  -7   39.60    5.60
   2  -4   7   34.00    5.20
  -2  -4  -7   27.30    4.40
  -2  -4  -7   32.80    3.90
  -2  -4  -7   37.20    5.10
   2   4   7   31.20    5.70
   2   4   7   33.00    5.20
  -2   4  -7   39.10    4.20
   3  -4   7   96.39   12.30
   3  -4   7  108.99   10.80
  -3  -4  -7   93.49   10.40
   3  -4   7  112.49    9.80
   3  -4   7  109.79   12.50
  -3  -4  -7  116.89   10.20
  -3  -4  -7   98.99    8.80
  -3  -4  -7   95.99   10.70
   3   4   7   97.59   13.80
   3   4   7  112.79   10.90
   3   4   7  100.79   10.30
  -3   4  -7  100.09    8.80
   3   4   7   97.39   11.00
   3   4   7   87.49   13.80
   4  -4   7  309.77   25.00
  -4  -4  -7  294.67   24.30
   4  -4   7  284.67   24.70
   4   4   7  268.87   28.20
   4   4   7  334.57   28.80
   4   4   7  364.06   27.50
   4   4   7  354.16   27.30
   4  -5  -7   31.50    5.40
   4  -5  -7   26.30    6.00
   4  -5  -7   36.90    5.40
   4  -5  -7   32.00    5.50
  -4  -5   7   26.00    3.50
   4  -5  -7   30.70    5.30
   4   5  -7   34.60    5.40
   4   5  -7   29.50    6.30
  -4   5   7   25.10    3.40
   4   5  -7   44.80    7.10
   4   5  -7   29.20    6.70
   4   5  -7   22.60    4.70
   3  -5  -7  283.87   25.80
   3  -5  -7  277.27   26.40
   3  -5  -7  339.57   26.70
   3  -5  -7  263.67   25.40
   3  -5  -7  274.47   28.00
   3  -5  -7  310.97   27.00
   3  -5  -7  281.17   26.60
  -3  -5   7  350.76   24.70
   3   5  -7  279.47   23.60
   3   5  -7  316.67   26.20
  -3   5   7  266.67   21.80
   3   5  -7  223.38   24.70
   3   5  -7  263.47   25.30
   3   5  -7  277.47   24.50
   2  -5  -7  233.78   22.40
  -2  -5   7  263.17   19.20
   2  -5  -7  192.28   21.90
  -2   5   7  224.28   21.00
   2   5  -7  252.97   24.20
  -2   5   7  296.67   21.30
   1  -5  -7   26.10    5.80
   1  -5  -7   25.00    5.80
  -1  -5   7   33.60    5.70
   1   5  -7   23.50    5.50
  -1   5   7   24.10    4.10
   0  -5  -7   16.60    4.00
   0  -5  -7   13.30    3.50
   0  -5   7   17.60    4.30
   0   5   7   18.80    3.90
   0   5  -7   14.60    4.10
  -1  -5  -7   87.69   10.50
  -1  -5  -7  126.29   11.60
   1  -5   7  111.19   10.00
  -1   5  -7  120.39   10.70
   1   5   7  128.49   12.20
   2  -5   7   53.99    6.40
  -2  -5  -7   45.40    6.10
  -2  -5  -7   56.89    7.20
  -2   5  -7   54.49    5.20
  -2   5  -7   38.90    5.10
   2   5   7   53.29    7.20
   3  -5   7    6.60    4.80
  -3  -5  -7    2.60    3.70
   3  -5   7    5.30    2.80
   3  -5   7    3.20    2.40
   3  -5   7    6.60    4.90
  -3  -5  -7    7.00    3.10
   3  -5   7    5.10    2.60
  -3  -5  -7    6.10    3.30
  -3  -5  -7    2.80    2.00
   3   5   7    3.80    3.80
   3   5   7    4.30    5.10
   3   5   7    2.00    2.30
   3   5   7    3.50    7.10
   3   5   7    3.50    3.50
  -3   5  -7    5.50    1.50
  -4  -5  -7   18.10    3.10
   4  -5   7   17.00    2.90
   4  -5   7   15.50    3.50
   4   5   7   17.20    3.80
   4   5   7   26.80    4.30
   4   5   7   20.70    7.10
   4   5   7   18.50    5.50
   4  -6  -7  131.59   12.80
   4  -6  -7  132.19   12.90
   4  -6  -7  143.69   13.10
   4  -6  -7  147.89   13.60
   4  -6  -7  144.99   12.90
  -4  -6   7  120.59   11.20
   4   6  -7  134.79   14.50
   4   6  -7  137.29   14.60
   4   6  -7  159.38   13.20
  -4   6   7  112.59   10.90
   3  -6  -7   59.49    8.10
   3  -6  -7   55.99    8.00
   3  -6  -7   67.79    9.30
   3  -6  -7   38.50    8.70
   3  -6  -7   64.69    9.10
  -3  -6   7   56.29    5.60
   3  -6  -7   61.89    7.40
   3  -6  -7   57.29    6.90
  -3   6   7   62.59    5.80
   3   6  -7   58.99    9.20
   3   6  -7   68.19    7.60
   3   6  -7   51.39    8.70
  -3   6   7   51.99    6.00
   3   6  -7   65.89    9.50
   3   6  -7   64.49    9.90
  -2  -6   7  335.17   28.80
   2  -6  -7  301.97   29.40
   2   6  -7  299.87   26.50
  -2   6   7  280.47   23.40
   1  -6  -7  105.69   12.40
   1  -6  -7  107.09   12.90
  -1  -6   7  132.09   12.50
   1   6  -7  106.79   12.30
  -1   6   7  116.69   10.90
   0  -6  -7   15.90    4.10
   0  -6   7   22.10    4.80
   0  -6  -7   16.30    4.10
   0   6   7   18.50    3.90
  -1  -6  -7  164.38   16.70
   1  -6   7  193.78   16.20
  -1  -6  -7  199.98   17.40
  -1   6  -7  208.88   17.30
  -1   6  -7  189.58   17.40
   1   6   7  235.48   18.70
   2  -6   7  193.48   17.60
   2  -6   7  199.68   19.60
  -2  -6  -7  221.48   19.40
  -2  -6  -7  208.78   17.60
   2  -6   7  227.38   18.20
   2  -6   7  200.68   19.40
   2  -6   7  185.38   18.50
   2  -6   7  199.18   18.20
  -2   6  -7  220.98   17.30
   2   6   7  238.48   19.20
   2   6   7  197.68   22.60
   2   6   7  189.68   18.40
  -2   6  -7  200.48   17.50
   3  -6   7  118.09   11.50
  -3  -6  -7  118.49   11.20
   3  -6   7  139.19   11.50
   3  -6   7  116.09   12.50
   3  -6   7  119.89   12.80
   3   6   7  115.79   10.70
  -3   6  -7   99.29    9.80
   3   6   7   97.39   11.90
   3   6   7  142.49   11.40
   3   6   7  134.49   17.00
   4  -6   7   12.70    2.60
   4  -6   7   13.90    2.00
   4   6   7    9.60    2.20
   4   6   7   14.70    4.60
   4   6   7   11.00    2.60
   4  -7  -7   37.90    5.00
   4  -7  -7   31.10    4.90
   4  -7  -7   22.10    4.60
   4  -7  -7   30.20    4.70
   4  -7  -7   31.40    4.80
   4   7  -7   30.30    5.50
   4   7  -7   34.10    7.50
  -4   7   7   25.50    3.00
   4   7  -7   34.30    4.70
   3  -7  -7  105.69   11.30
   3  -7  -7  103.79   12.20
   3  -7  -7   95.59   11.00
   3  -7  -7  111.49   10.80
   3  -7  -7  106.59   10.60
   3  -7  -7  108.19   12.10
  -3   7   7  106.79    9.10
   3   7  -7  112.49   10.50
   3   7  -7   73.99   11.20
   3   7  -7  110.19   13.50
   3   7  -7  100.29   12.90
  -2  -7   7  146.09   14.30
   2  -7  -7  151.58   14.10
   2  -7  -7  139.49   16.70
   2  -7  -7  178.98   15.60
   2  -7  -7  183.88   16.40
   2  -7  -7  143.19   15.50
   2   7  -7  148.39   15.80
   2   7  -7  153.78   16.40
   2   7  -7  137.69   15.00
  -1  -7   7  196.38   19.30
   1  -7  -7  197.68   19.40
  -1   7   7  228.78   19.80
   0  -7  -7    6.80    3.20
   0  -7   7    8.60    3.70
   0  -7  -7    8.60    3.40
   0   7   7    8.60    4.10
  -1  -7  -7    6.50    3.00
  -1  -7  -7   13.30    4.40
   1   7   7   16.00    4.10
  -1   7  -7   11.00    3.00
   2  -7   7   22.50    4.30
   2  -7   7   24.20    3.50
   2  -7   7   20.40    4.00
  -2  -7  -7   16.30    5.00
   2  -7   7   18.90    4.60
   2  -7   7   19.30    5.70
   2  -7   7   24.70    4.10
  -2   7  -7   20.30    3.60
   2   7   7   16.60    4.10
   2   7   7   21.20    8.20
  -2   7  -7   23.30    3.10
   3  -7   7    5.10    2.60
   3  -7   7    7.40    2.90
  -3  -7  -7    4.40    2.40
   3  -7   7    6.50    3.40
   3  -7   7    6.60    2.30
   3   7   7    6.80    5.60
   3   7   7    3.00    2.70
  -3   7  -7    3.50    2.10
   3   7   7    7.80    2.80
   4  -8  -7    2.90    2.20
   4  -8  -7    0.40    1.70
   4  -8  -7    3.00    2.30
   4  -8  -7    1.20    2.20
  -4  -8   7    3.20    2.10
   4  -8  -7    0.70    1.90
   4  -8  -7    1.40    1.60
   4   8  -7    1.40    2.80
   4   8  -7    3.20    1.90
   4   8  -7    4.30    3.80
   3  -8  -7  300.27   25.10
   3  -8  -7  282.17   23.90
  -3  -8   7  302.07   24.30
   3  -8  -7  265.07   24.50
   3  -8  -7  303.37   25.20
   3  -8  -7  277.47   24.50
   3  -8  -7  279.87   24.50
   3   8  -7  270.87   24.00
   3   8  -7  292.97   25.20
   3   8  -7  294.77   26.40
   2  -8  -7   67.89    7.80
   2  -8  -7   71.09    9.30
   2  -8  -7   56.89    6.60
   2  -8  -7   37.00    7.50
   2  -8  -7   49.99    7.40
  -2  -8   7   53.19    6.70
   2   8  -7   64.09    9.70
  -2   8   7   63.69    6.50
   2   8  -7   67.69    9.60
  -1  -8   7   22.70    5.90
   1  -8  -7   18.20    5.50
   1  -8  -7   22.90    5.30
  -1  -8   7   22.60    4.20
   1  -8  -7   14.70    4.20
   1   8  -7   30.60    7.10
  -1   8   7   30.60    4.90
   1   8  -7   19.40    7.20
   0  -8   7  619.14   52.79
   0  -8   7  662.93   53.19
   0  -8   7  729.83   54.69
   0  -8   7  662.33   52.99
   0  -8  -7  593.44   53.59
   0   8  -7  745.83   65.29
   0   8   7  868.41   65.09
   1  -8   7  196.18   17.10
  -1  -8  -7  186.78   17.60
   1  -8   7  202.58   17.20
  -1  -8  -7  168.58   17.40
   1  -8   7  188.88   17.50
   1  -8   7  201.58   17.90
   1  -8   7  186.98   17.00
  -1   8  -7  238.88   18.20
  -1   8  -7  203.58   19.20
   1   8   7  191.38   21.80
   2  -8   7   16.70    5.40
  -2  -8  -7   29.20    5.00
   2  -8   7   27.70    3.60
   2  -8   7   17.50    4.90
   2  -8   7   14.30    4.20
   2  -8   7   20.30    4.80
   2   8   7   21.80    3.80
   2   8   7   22.20    6.60
  -2   8  -7   19.70    3.50
   3  -8   7   88.79    7.30
   3  -8   7   76.89    8.30
   3  -8   7   66.99    8.00
  -3  -8  -7   75.99    8.30
   3  -8   7   76.19    7.80
   3   8   7   84.89    8.10
  -3   8  -7   73.39    7.10
   3   8   7   84.69   12.20
   3  -9  -7    1.10    2.00
   3  -9  -7    2.00    2.40
   3  -9  -7    2.10    2.50
   3  -9  -7    1.10    2.70
   3  -9  -7    5.80    2.30
   3  -9  -7    4.70    2.80
  -3  -9   7    5.20    2.30
   3   9  -7    4.70    5.70
   3   9  -7    0.70    4.40
  -3   9   7    4.00    1.40
   2  -9  -7   15.10    4.20
  -2  -9   7   14.50    3.90
   2  -9  -7   17.40    4.00
   2  -9  -7    9.60    4.80
   2  -9  -7    5.40    3.70
   2   9  -7   21.90    5.80
   2   9  -7   10.80    5.30
  -2   9   7   15.30    2.80
  -1  -9   7  236.38   18.90
   1  -9  -7  198.58   18.50
   1  -9  -7  253.07   20.70
   1  -9  -7  180.98   19.80
   1   9  -7  195.98   19.30
  -1   9   7  209.28   18.10
   0  -9  -7  115.09   12.40
   0  -9   7   92.19   10.90
   0  -9   7  102.79   10.70
   0  -9   7  111.29   11.50
   0  -9   7  109.59   10.30
   0  -9  -7   81.09   10.70
   0   9   7  132.19   16.60
   0   9  -7  137.99   13.50
   0   9   7  118.79   12.50
   0   9  -7  129.19   14.30
   1  -9   7   11.00    4.60
   1  -9   7   16.60    4.50
   1  -9   7   14.40    4.10
   1  -9   7   20.40    4.30
   1  -9   7   15.70    3.70
   1   9   7   15.20    5.30
  -1   9  -7   19.10    5.60
  -1   9  -7   15.80    3.40
  -2  -9  -7   22.90    4.20
   2  -9   7   16.30    4.00
   2  -9   7   18.30    4.50
   2  -9   7   23.50    5.30
   2  -9   7   16.80    2.80
   2  -9   7   17.70    3.60
   2   9   7   15.90    5.40
  -2   9  -7   17.90    2.80
   2   9   7   13.30    3.00
   3  -9   7    2.40    1.60
  -3  -9  -7   10.40    2.70
   3  -9   7    5.20    2.30
   3  -9   7    5.50    2.00
   3  -9   7    3.10    2.00
   3   9   7    5.30    2.10
   3   9   7    6.40    3.30
  -3   9  -7    6.20    2.30
   3 -10  -7    5.40    2.00
   3 -10  -7   10.10    2.40
   3 -10  -7    8.70    3.10
  -3 -10   7    3.00    1.60
   3 -10  -7    5.10    2.10
   3 -10  -7    5.40    2.20
  -3  10   7    4.20    3.00
   3  10  -7    7.90    3.80
   2 -10  -7   -0.60    2.10
  -2 -10   7    0.40    2.30
   2 -10  -7   -0.80    2.50
   2 -10  -7    2.80    2.80
   2  10  -7   -3.50    3.70
  -2  10   7    0.10    4.40
   2  10  -7   -2.60    4.10
  -1 -10   7  152.88   13.60
   1 -10  -7  152.98   14.40
   1 -10  -7  141.29   13.10
  -1  10   7  213.18   20.00
   1  10  -7  197.98   20.00
   0 -10   7  181.28   16.10
   0 -10   7  162.58   15.30
   0 -10   7  155.18   15.10
   0 -10   7  171.18   15.00
   0  10  -7  219.08   20.40
   0  10  -7  210.58   19.50
   0  10   7  223.68   21.90
   1 -10   7   43.80    6.10
   1 -10   7   48.00    7.40
   1 -10   7   46.90    6.60
   1 -10   7   50.69    6.10
   1  10   7   50.59    8.90
  -1  10  -7   57.79    7.20
   2 -10   7   29.10    4.40
   2 -10   7   22.10    3.60
   2 -10   7   24.80    3.10
  -2 -10  -7   30.90    4.20
   2 -10   7   31.70    4.30
   2  10   7   27.40    4.80
  -2  10  -7   20.50    2.80
   2  10   7   22.00    3.30
   2 -11  -7   12.70    2.30
   2 -11  -7   14.60    2.90
  -2 -11   7    9.20    2.40
   2 -11  -7   12.20    2.80
   2  11  -7    6.70    3.00
  -2  11   7   18.70    4.30
  -2  11   7   15.20    3.50
   2  11  -7   12.40    3.90
  -1 -11   7    0.20    2.20
   1 -11  -7    1.10    2.70
  -1  11   7    3.60    4.30
   1  11  -7    3.30    3.80
   1  11  -7    2.80    3.60
   0 -11   7   52.59    7.00
   0 -11   7   61.89    6.20
   0 -11   7   48.20    6.10
   0  11   7   77.49    9.40
   0  11  -7   61.79    7.80
   0  11  -7   77.79    8.50
   1 -11   7   72.39    7.20
   1 -11   7   75.39    7.80
   1  11   7   87.09    8.90
  -1  11  -7   73.69    7.70
  -1  11  -7   64.39    7.70
   0 -12   7   31.30    3.80
   0 -12   7   25.10    3.50
   0  12   7   13.70    3.70
   5   0  -8   11.50    3.20
  -5   0   8   14.50    2.10
   5   0  -8    6.90    3.10
   5   0  -8   10.30    3.30
   5   0  -8   13.10    3.50
   4   0  -8  102.99   12.80
   4   0  -8   97.49   11.30
   4   0  -8  116.79   11.70
   4   0  -8  108.09   11.90
   4   0  -8   86.59   12.60
   4   0  -8  102.09   11.60
  -4   0   8  123.89    9.60
  -4   0   8   87.49    8.90
  -3   0   8    0.30    2.50
  -3   0   8    1.00    1.50
   3   0  -8   -0.40    2.80
   3   0  -8    2.00    3.90
  -3   0   8    1.30    1.70
  -2   0   8   74.09    7.90
   2   0  -8   53.79    7.50
  -2   0   8   58.69    5.80
   2   0  -8   65.69    9.40
   1   0  -8   21.50    5.00
   1   0  -8   21.00    4.60
  -1   0   8   22.70    3.60
   0   0   8   41.00    5.10
   0   0  -8   47.20    6.00
   0   0   8   36.40    3.70
   0   0   8   39.10    4.80
   0   0  -8   35.00    5.70
  -1   0  -8    3.00    2.30
   1   0   8    3.40    2.50
  -1   0  -8    2.90    1.20
  -2   0  -8  263.67   21.50
  -2   0  -8  252.67   23.30
   2   0   8  294.67   23.70
   2   0   8  266.57   23.00
   3   0   8   59.19    7.20
  -3   0  -8   50.79    7.00
   3   0   8   63.59    7.80
   3   0   8   48.50    7.60
   3   0   8   55.49    8.10
  -3   0  -8   58.99    5.30
   3   0   8   59.89    9.80
   4   0   8    3.40    2.80
   4   0   8    2.50    5.20
   4   0   8    2.20    4.10
  -4   0  -8    2.20    2.20
   5  -1  -8   13.90    3.50
  -5  -1   8   12.10    3.40
   5  -1  -8   11.40    3.00
   5  -1  -8   15.10    3.40
   5   1  -8    9.10    3.00
   5   1  -8    5.20    2.60
   5   1  -8   11.90    3.50
   5   1  -8    6.90    3.20
  -4  -1   8  246.68   18.20
   4  -1  -8  232.68   20.50
   4  -1  -8  189.18   20.60
   4  -1  -8  198.38   20.00
   4  -1  -8  216.08   20.60
   4  -1  -8  206.18   19.70
   4   1  -8  209.38   20.70
   4   1  -8  214.28   19.90
  -4   1   8  225.28   18.00
   4   1  -8  206.48   21.00
   4   1  -8  220.58   20.40
  -3  -1   8   50.19    5.10
   3  -1  -8   40.90    7.50
  -3  -1   8   42.40    4.70
  -3  -1   8   37.70    6.70
   3  -1  -8   45.80    9.40
  -3   1   8   43.00    4.70
   3   1  -8   46.10    9.30
  -3   1   8   35.10    6.60
   3   1  -8   41.30    7.20
  -3   1   8   53.79    5.30
  -2  -1   8  118.09   11.40
  -2  -1   8  158.98   14.10
   2  -1  -8  146.99   14.60
   2  -1  -8  123.79   13.50
   2  -1  -8  144.19   14.90
   2   1  -8  155.08   14.00
   2   1  -8  127.39   14.30
  -2   1   8  134.39   13.60
  -2   1   8  129.79   11.30
  -1  -1   8  250.17   21.70
   1  -1  -8  254.77   23.00
  -1  -1   8  260.17   22.00
   1   1  -8  212.78   21.00
  -1   1   8  264.77   20.50
   0  -1   8   93.29   10.00
   0  -1  -8   95.89   10.20
   0  -1  -8  115.69   10.10
   0   1   8   91.89    9.00
   0   1  -8  112.29   10.00
   0   1   8   95.69    9.40
   0   1   8   85.39    8.00
  -1  -1  -8   17.10    3.90
  -1  -1  -8   18.50    2.40
   1  -1   8   13.90    3.30
  -1  -1  -8   16.10    3.90
  -1   1  -8   18.40    2.60
   1   1   8   19.50    4.00
  -1   1  -8   21.00    4.00
   1   1   8   17.80    3.40
   2  -1   8  252.77   21.00
  -2  -1  -8  217.08   18.70
   2  -1   8  221.58   20.30
  -2  -1  -8  244.08   20.60
  -2   1  -8  216.58   20.70
   2   1   8  227.18   20.60
   2   1   8  256.67   21.00
  -2   1  -8  240.78   19.00
  -3  -1  -8   52.89    6.40
   3  -1   8   59.99    8.10
  -3  -1  -8   57.39    5.20
   3  -1   8   56.79   10.40
   3  -1   8   65.79    7.40
  -3  -1  -8   60.79    8.10
   3  -1   8   56.79    8.00
   3  -1   8   56.09    7.10
   3   1   8   65.59    8.20
   3   1   8   48.70    7.50
  -3   1  -8   57.99    5.50
   3   1   8   68.39   10.10
   3   1   8   65.89    7.40
  -3   1  -8   53.79    7.20
   3   1   8   59.39    7.80
   4  -1   8   19.20    4.60
  -4  -1  -8   17.30    3.30
   4  -1   8   19.10    4.00
   4   1   8   13.00    4.70
   4   1   8   17.40    4.60
   4   1   8   19.60    3.90
   5  -2  -8   11.60    3.10
   5  -2  -8   17.60    3.40
   5  -2  -8   10.00    2.80
   5  -2  -8   15.80    2.70
   5   2  -8   25.00    4.50
   5   2  -8   21.50    4.00
   5   2  -8   14.20    3.70
   4  -2  -8  104.89   11.50
   4  -2  -8   99.59   11.30
   4  -2  -8  111.59   11.30
   4  -2  -8  102.39   12.10
  -4  -2   8  100.89    9.20
   4  -2  -8  106.59   12.60
   4   2  -8   94.59   12.40
   4   2  -8   99.09   11.90
   4   2  -8   97.49   11.10
   4   2  -8  104.49   10.20
  -4   2   8  100.59    8.90
   4   2  -8   95.99   11.70
  -3  -2   8   58.19    6.20
   3  -2  -8   57.79    9.90
  -3  -2   8   52.29    8.20
   3  -2  -8   69.59   10.30
  -3  -2   8   74.89    6.50
   3  -2  -8   67.69   10.60
  -3   2   8   67.89    5.80
   3   2  -8   57.69    9.00
   3   2  -8   58.39    8.60
  -3   2   8   48.40    8.50
   3   2  -8   58.79    8.20
   2  -2  -8   59.89    9.00
   2  -2  -8   63.29    8.50
  -2  -2   8   75.29    8.40
   2  -2  -8   76.69   10.50
  -2   2   8   56.89    5.40
   2   2  -8   70.79    9.10
   2   2  -8   51.19    8.30
  -2   2   8   52.69    7.60
  -1  -2   8   71.59    7.60
   1  -2  -8   55.39    7.40
   1  -2  -8   63.09    8.70
  -1  -2   8   60.19    6.70
   1   2  -8   79.09    8.50
  -1   2   8   61.39    7.10
   0  -2   8  103.49   11.30
   0  -2  -8  128.89   11.40
   0  -2  -8  121.19   12.10
   0   2   8  104.39   10.00
   0   2   8   98.19    9.20
   0   2   8  108.19   10.80
   0   2  -8  137.49   11.80
  -1  -2  -8  367.06   27.70
   1  -2   8  320.07   27.00
  -1  -2  -8  305.17   27.70
  -1  -2  -8  320.27   26.10
  -1   2  -8  368.66   30.80
   1   2   8  383.96   30.60
  -1   2  -8  362.96   29.10
   1   2   8  346.47   30.20
  -2  -2  -8    5.50    2.90
  -2  -2  -8    1.80    1.60
  -2  -2  -8    3.50    2.50
   2  -2   8    5.80    2.70
  -2  -2  -8    4.40    1.90
  -2   2  -8    5.00    3.50
  -2   2  -8    6.20    1.90
  -2   2  -8    3.30    2.10
   2   2   8    5.50    3.80
   2   2   8    5.40    2.70
  -3  -2  -8    6.40    1.80
  -3  -2  -8    1.30    3.60
   3  -2   8    5.00    2.20
   3  -2   8    6.40    4.50
   3  -2   8    5.10    3.40
   3  -2   8   11.10    4.00
  -3  -2  -8    5.80    2.80
   3   2   8   10.20    3.50
   3   2   8    5.00    6.40
   3   2   8    4.40    3.50
   3   2   8    7.00    4.00
   3   2   8    8.50    3.30
  -3   2  -8    6.70    4.00
  -3   2  -8    2.30    1.70
   4  -2   8   86.69    8.70
   4  -2   8   76.79    9.40
  -4  -2  -8   75.59    7.70
   4   2   8   89.59    8.90
   4   2   8   83.49    8.80
   4   2   8   81.59   10.20
   4  -3  -8  157.78   15.90
   4  -3  -8  168.18   15.30
  -4  -3   8  165.78   13.80
   4  -3  -8  155.88   15.60
   4  -3  -8  167.88   15.60
   4  -3  -8  150.68   16.30
  -4   3   8  130.69   12.50
   4   3  -8  164.18   15.20
   4   3  -8  147.79   16.70
   4   3  -8  138.59   15.00
   4   3  -8  151.48   14.70
   4   3  -8  185.18   14.80
  -3  -3   8   19.00    5.60
  -3  -3   8   11.60    3.00
   3  -3  -8   21.70    6.00
  -3  -3   8   31.30    3.80
   3  -3  -8   22.00    7.20
   3   3  -8   19.60    6.50
  -3   3   8   18.90    5.60
   3   3  -8   22.50    6.20
  -3   3   8   22.60    3.00
   3   3  -8   21.30    5.10
   2  -3  -8   60.59    9.20
  -2  -3   8   70.59    8.00
   2  -3  -8   57.69    9.80
   2  -3  -8   54.09    7.90
  -2   3   8   55.59    5.20
  -2   3   8   43.70    6.70
   2   3  -8   70.29    9.30
   1  -3  -8    9.40    3.20
   1  -3  -8   14.80    5.00
  -1  -3   8   13.20    3.70
   1   3  -8   14.50    4.00
   0  -3  -8  750.42   61.09
   0   3   8  706.43   57.79
   0   3   8  658.23   57.09
   0   3  -8  809.12   59.09
  -1  -3  -8  420.16   33.60
  -1  -3  -8  389.16   32.80
   1  -3   8  385.56   32.60
  -1   3  -8  428.36   34.20
  -1   3  -8  405.56   35.80
   1   3   8  449.16   35.40
   1   3   8  442.96   35.50
   2  -3   8    6.90    3.50
  -2  -3  -8    5.10    3.60
  -2  -3  -8    5.10    1.80
  -2  -3  -8    6.70    3.80
  -2  -3  -8    4.60    2.60
  -2   3  -8    8.50    2.20
   2   3   8   10.00    4.10
   2   3   8   10.50    3.90
  -2   3  -8    6.50    2.30
  -2   3  -8    8.80    3.90
  -3  -3  -8   29.40    4.60
   3  -3   8   26.50    5.20
  -3  -3  -8   32.20    5.30
   3  -3   8   45.80    6.40
   3  -3   8   34.90    4.70
  -3  -3  -8   36.80    3.80
   3  -3   8   33.30    6.60
   3   3   8   43.30    6.00
   3   3   8   22.70    5.60
   3   3   8   35.40    5.90
   3   3   8   41.40    8.00
  -3   3  -8   31.80    4.00
   3   3   8   44.00    5.80
   4  -3   8   13.40    4.30
   4  -3   8   11.30    4.20
  -4  -3  -8   11.70    2.30
   4   3   8   20.70    3.60
   4   3   8   17.70    3.60
   4   3   8   16.90    5.10
   4  -4  -8   62.99    8.30
  -4  -4   8   80.49    6.80
   4  -4  -8   62.79    9.40
   4  -4  -8   67.89    8.40
   4  -4  -8   65.39    8.70
   4  -4  -8   63.49    8.10
   4   4  -8   80.99    7.90
   4   4  -8   64.79    9.70
   4   4  -8   62.79    8.80
   4   4  -8   61.99    9.00
  -4   4   8   55.09    5.70
   4   4  -8   67.39    8.90
   3  -4  -8  256.37   24.20
  -3  -4   8  296.77   22.20
   3  -4  -8  230.98   26.00
   3  -4  -8  288.57   24.20
   3  -4  -8  311.67   24.80
   3  -4  -8  278.97   24.60
   3  -4  -8  257.27   24.50
   3  -4  -8  245.58   23.90
   3  -4  -8  250.37   25.70
   3   4  -8  294.37   24.00
   3   4  -8  284.67   26.20
  -3   4   8  310.97   22.20
   3   4  -8  262.77   24.60
  -3   4   8  246.88   21.90
   3   4  -8  214.28   24.30
   2  -4  -8   53.09    8.90
  -2  -4   8   49.00    7.60
   2  -4  -8   34.30    6.60
  -2  -4   8   57.99    5.30
   2  -4  -8   46.70    8.10
  -2   4   8   34.30    6.10
   2   4  -8   48.50    7.50
  -2   4   8   37.70    4.40
   1  -4  -8  672.63   51.69
   1  -4  -8  560.64   50.59
   1   4  -8  759.92   57.29
  -1   4   8  629.34   55.09
   0  -4  -8  204.48   19.00
   0   4  -8  191.48   17.70
   0   4   8  196.98   16.80
   1  -4   8   93.19    9.80
  -1  -4  -8  105.69   10.90
   1   4   8  110.89   10.60
  -1   4  -8  102.19    9.00
  -1   4  -8   92.59   10.10
  -2  -4  -8  103.89    9.80
  -2  -4  -8  104.09   10.90
   2  -4   8  118.49   10.80
  -2  -4  -8   92.19   10.10
   2   4   8  115.79   11.40
  -2   4  -8   88.89    9.30
   2   4   8  119.59   11.10
  -2   4  -8  113.29    9.40
  -3  -4  -8   65.39    7.30
   3  -4   8   79.89   10.40
   3  -4   8   85.09    8.80
   3  -4   8   71.89    7.40
   3  -4   8   76.49   10.30
   3   4   8   73.79    8.80
   3   4   8   64.89   10.80
  -3   4  -8   80.89    7.60
  -3   4  -8   61.29    6.60
   3   4   8   71.19   11.70
   3   4   8   64.79    7.70
   4  -4   8   33.90    5.00
  -4  -4  -8   41.90    4.70
   4  -4   8   36.40    5.10
   4   4   8   36.40    6.20
   4   4   8   45.40    5.30
   4   4   8   46.00    5.40
   4  -5  -8    2.00    2.80
   4  -5  -8    3.00    2.90
   4  -5  -8    0.90    2.80
   4  -5  -8    2.60    3.10
   4  -5  -8    1.90    3.30
  -4  -5   8    2.40    2.00
   4   5  -8    2.60    3.80
   4   5  -8    3.40    2.50
   4   5  -8    4.00    5.90
   4   5  -8    1.20    3.10
   4   5  -8    4.60    4.40
  -4   5   8    1.70    1.20
  -3  -5   8   14.80    2.90
   3  -5  -8   16.00    4.60
   3  -5  -8   17.60    4.50
   3  -5  -8   16.40    4.60
   3  -5  -8   17.20    4.20
   3  -5  -8   13.20    4.10
   3  -5  -8   13.40    4.20
   3  -5  -8    8.80    4.70
   3   5  -8   18.30    6.50
   3   5  -8   12.50    5.90
   3   5  -8   13.60    5.20
  -3   5   8   12.10    2.50
   3   5  -8   11.20    4.00
  -3   5   8   17.70    2.50
  -2  -5   8   64.79    8.90
   2  -5  -8   59.59    9.80
   2  -5  -8   55.19    9.70
  -2   5   8   74.89    7.00
   2   5  -8   68.19    9.80
   1  -5  -8   35.80    7.10
   1  -5  -8   32.00    6.10
  -1  -5   8   42.10    6.60
  -1   5   8   34.80    5.20
   1   5  -8   38.30    6.40
   0  -5  -8   16.50    4.20
   0  -5  -8   11.40    3.40
   0   5   8   15.20    3.90
   0   5  -8   11.20    4.20
  -1  -5  -8   97.79   10.50
   1  -5   8   95.99    9.70
   1   5   8  110.89   10.20
  -1   5  -8   89.39    9.10
  -1   5  -8  101.89    9.00
   2  -5   8  382.26   31.90
   2  -5   8  441.26   32.80
   2  -5   8  365.66   33.00
   2  -5   8  362.36   33.10
   2  -5   8  363.76   32.40
  -2  -5  -8  397.26   31.90
  -2  -5  -8  422.16   33.50
   2   5   8  473.45   33.40
  -2   5  -8  397.76   31.80
  -2   5  -8  433.86   31.40
   2   5   8  325.87   35.70
   2   5   8  336.87   32.20
  -3  -5  -8  111.19   10.60
   3  -5   8  128.99   12.40
   3  -5   8  107.99   11.80
   3  -5   8  133.19   11.10
   3  -5   8  115.19   11.50
   3   5   8  103.49   10.10
  -3   5  -8   94.69    9.20
   3   5   8   98.39   12.90
   3   5   8  119.49   10.60
   3   5   8  110.69   13.60
   4  -5   8   41.90    4.30
   4  -5   8   32.80    3.70
   4   5   8   42.10    6.40
   4   5   8   66.39    5.90
   4   5   8   45.40    6.50
   4   5   8   58.69    5.50
   4  -6  -8   49.20    6.30
   4  -6  -8   52.49    6.00
   4  -6  -8   47.30    6.30
   4  -6  -8   45.80    6.60
   4   6  -8   52.39    6.60
  -4   6   8   35.60    3.80
   4   6  -8   39.00    6.40
   4   6  -8   49.00    7.80
   4   6  -8   36.30    6.20
   3  -6  -8   59.39    7.90
   3  -6  -8   51.39    6.60
   3  -6  -8   28.70    8.00
   3  -6  -8   50.99    7.30
   3  -6  -8   45.40    6.40
   3  -6  -8   51.09    7.10
   3  -6  -8   51.49    7.30
   3   6  -8   31.60    8.30
   3   6  -8   61.49    8.70
   3   6  -8   56.69    8.80
  -3   6   8   49.60    6.00
  -3   6   8   49.80    5.40
   3   6  -8   57.59    6.90
   2  -6  -8  324.47   29.90
   2   6  -8  522.25   50.89
  -2   6   8  676.93   48.30
   1  -6  -8  124.59   14.10
  -1  -6   8  144.49   14.00
   1  -6  -8  130.29   14.40
  -1   6   8  139.69   12.20
   1   6  -8  120.89   13.40
   0  -6  -8  100.19   10.60
   0  -6  -8   87.09   10.20
   0   6  -8   85.29   10.70
   0   6   8  109.39   10.00
  -1  -6  -8  627.04   51.89
   1   6   8  711.43   54.19
  -1   6  -8  625.44   52.79
  -2  -6  -8    5.70    4.10
   2  -6   8    3.70    2.70
   2  -6   8    3.40    3.10
   2  -6   8    0.80    4.40
   2  -6   8    5.70    2.80
   2  -6   8    4.00    3.60
  -2  -6  -8    5.60    2.80
   2  -6   8    4.30    3.30
   2   6   8    9.40    4.20
   2   6   8    5.60    5.40
   2   6   8    3.10    3.00
  -2   6  -8    7.10    2.40
  -2   6  -8    1.70    2.30
   3  -6   8    3.00    3.30
   3  -6   8    3.10    3.20
  -3  -6  -8    1.90    1.70
   3  -6   8    5.60    3.20
   3  -6   8    4.00    2.00
   3   6   8    4.60    5.60
   3   6   8    3.20    2.40
  -3   6  -8    2.60    2.10
   3   6   8    4.20    3.40
   3   6   8    3.10    2.10
   4  -7  -8   91.29    8.30
   4  -7  -8   79.59    8.20
   4  -7  -8   88.49    8.10
   4  -7  -8   79.89    7.90
   4  -7  -8   67.29    7.90
   4   7  -8   88.69    8.00
  -4   7   8   71.19    6.70
   4   7  -8   77.59    8.40
   4   7  -8   92.99    9.80
   3  -7  -8   59.69    8.40
  -3  -7   8   81.39    8.10
   3  -7  -8   63.39    8.20
   3  -7  -8   72.99    9.40
   3  -7  -8   65.39    8.40
   3  -7  -8   64.29    8.20
   3  -7  -8   62.69    7.40
   3   7  -8   75.29   10.70
  -3   7   8   69.39    6.50
   3   7  -8   65.59    7.70
   3   7  -8   61.09    9.90
   2  -7  -8   10.70    3.80
  -2  -7   8    5.20    2.90
   2  -7  -8    3.60    3.70
   2  -7  -8    5.00    3.50
   2  -7  -8   12.70    3.90
  -2  -7   8   13.70    5.20
   2   7  -8    4.70    4.60
   2   7  -8    8.30    4.20
  -2   7   8    9.90    2.60
   2   7  -8    6.00    5.90
   2   7  -8    6.40    3.50
  -1  -7   8   68.89   11.10
   1  -7  -8   72.69    9.80
   1  -7  -8   86.89   10.70
  -1   7   8  104.39    9.40
   1   7  -8   74.09   10.70
   0  -7  -8   24.20    5.70
   0  -7   8   35.60    6.20
   0  -7  -8   26.70    5.80
   0   7   8   41.60    6.10
  -1  -7  -8   24.00    5.20
   1  -7   8   31.40    4.80
  -1  -7  -8   33.60    5.60
   1  -7   8   41.50    5.60
   1  -7   8   37.60    5.50
   1  -7   8   26.10    5.90
   1   7   8   31.50    6.10
  -1   7  -8   41.50    4.80
   1   7   8   38.10    8.00
   2  -7   8   50.49    5.50
   2  -7   8   52.09    7.40
   2  -7   8   41.40    6.90
   2  -7   8   49.60    6.90
   2  -7   8   51.09    7.10
  -2   7  -8   53.99    5.90
   2   7   8   38.40    5.80
   2   7   8   51.89   10.10
   3  -7   8   75.69    7.50
   3  -7   8   59.39    8.00
   3  -7   8   77.19    8.10
   3  -7   8   74.99    7.00
   3   7   8   74.99   10.40
  -3   7  -8   70.39    7.10
   3   7   8   83.79    7.80
   3  -8  -8   12.90    4.60
   3  -8  -8   14.20    3.40
   3  -8  -8   10.90    4.30
   3  -8  -8   14.40    3.90
   3  -8  -8   10.00    3.20
  -3  -8   8   18.70    3.40
   3  -8  -8   12.60    4.60
  -3   8   8   10.70    2.30
   3   8  -8   18.80    5.30
   3   8  -8   12.70    5.30
   3   8  -8   10.60    2.80
   2  -8  -8   12.80    3.70
   2  -8  -8    8.50    3.90
  -2  -8   8    5.40    3.50
   2  -8  -8    4.10    4.70
   2   8  -8   13.40    6.70
   2   8  -8    8.50    6.20
  -2   8   8    7.90    2.40
  -1  -8   8  411.56   35.10
   1  -8  -8  455.65   35.70
  -1  -8   8  414.16   34.20
   1  -8  -8  381.16   34.00
   1   8  -8  514.35   40.90
  -1   8   8  451.45   39.20
   1   8  -8  471.95   40.60
   0  -8   8   14.50    3.60
   0  -8   8   11.00    4.70
   0  -8  -8    7.00    4.20
   0  -8  -8    9.80    3.60
   0  -8   8    7.90    3.30
   0  -8   8   11.00    3.60
   0   8  -8   16.80    4.80
   0   8  -8   13.50    5.70
   0   8   8   15.40    4.00
   0   8   8   12.60    6.40
  -1  -8  -8   63.59    9.10
   1  -8   8   75.29    8.90
   1  -8   8   91.29    9.00
   1  -8   8   81.99    9.10
   1  -8   8   87.99   10.10
  -1   8  -8   94.39    8.70
   1   8   8   80.39   13.20
   1   8   8   88.19    9.70
   2  -8   8   22.40    4.40
   2  -8   8   26.20    4.70
   2  -8   8   23.20    3.80
   2  -8   8   28.90    5.10
   2  -8   8   30.20    5.40
  -2  -8  -8   37.80    5.20
  -2   8  -8   32.10    3.90
   2   8   8   26.10    4.10
   2   8   8   31.30    7.30
   3  -8   8   34.70    3.70
   3  -8   8   31.70    4.50
  -3  -8  -8   33.70    4.50
   3  -8   8   31.20    4.10
   3   8   8   22.40    3.40
   3   8   8   37.40    6.00
  -3   8  -8   23.80    3.10
   3  -9  -8  206.38   17.30
   3  -9  -8  210.38   17.30
   3  -9  -8  195.68   16.60
   3  -9  -8  187.38   17.00
   3   9  -8  187.18   17.30
   3   9  -8  210.58   16.60
  -3   9   8  162.28   15.30
   2  -9  -8   58.99    7.00
   2  -9  -8   66.39    8.00
  -2  -9   8   60.99    7.60
   2  -9  -8   90.49   11.30
   2   9  -8   64.59   10.90
   2   9  -8   77.59   10.90
  -1  -9   8  149.49   13.40
   1  -9  -8  149.88   14.40
   1  -9  -8  138.39   12.90
   1   9  -8  148.19   16.80
   1   9  -8  174.28   16.10
   0  -9   8   29.60    4.80
   0  -9   8   32.60    5.30
   0  -9   8   33.60    5.60
   0  -9  -8   37.60    6.00
   0   9   8   47.50    8.30
   0   9  -8   46.50    7.00
   0   9  -8   44.70    7.10
   1  -9   8   26.40    4.40
   1  -9   8   29.30    4.80
   1  -9   8   25.40    4.70
   1  -9   8   18.70    5.00
   1  -9   8   29.70    4.60
  -1   9  -8   44.10    6.30
  -1   9  -8   32.40    5.40
   1   9   8   20.20    5.80
   2  -9   8   67.89    7.40
  -2  -9  -8   79.89    8.20
   2  -9   8   69.79    7.80
   2  -9   8   66.99    6.70
   2  -9   8   59.39    7.10
   2  -9   8   73.19    7.10
  -2   9  -8   67.59    6.70
   2   9   8   59.89    9.20
   2   9   8   69.39    7.40
  -2   9  -8   77.79    7.90
   2 -10  -8   13.10    4.20
   2 -10  -8   15.90    2.90
  -2 -10   8   14.00    2.90
   2  10  -8   15.00    4.80
  -2  10   8   26.40    6.50
   2  10  -8   15.00    4.70
   1 -10  -8   49.30    6.30
   1 -10  -8   57.99    8.10
  -1 -10   8   52.59    6.30
   1  10  -8   59.79    9.20
  -1  10   8   74.99   10.80
   0 -10   8   45.90    6.90
   0 -10   8   51.19    7.30
   0 -10   8   54.69    7.20
   0  10  -8   63.99    9.10
   0  10   8   71.29    9.30
   0  10  -8   63.39    8.20
   1 -10   8    1.90    2.50
   1 -10   8    0.90    2.40
   1 -10   8    2.30    2.60
  -1  10  -8    2.70    3.30
  -1  10  -8    0.50    2.90
   2 -10   8    8.20    2.00
   2 -10   8   11.50    2.70
  -2 -10  -8   12.00    2.30
   2 -10   8    7.50    2.00
   2 -10   8    5.00    2.30
  -2  10  -8    6.20    2.70
   2  10   8    3.00    2.40
  -1 -11   8   54.59    5.80
   1  11  -8   71.79    7.40
  -1  11   8   52.19    7.40
   0 -11   8   36.50    4.90
   0 -11   8   44.50    5.10
   0 -11   8   52.69    5.30
   0  11  -8   49.99    6.00
   0  11   8   48.80    7.00
   0  11  -8   52.79    7.30
   1 -11   8    4.20    2.30
   1 -11   8    6.90    2.10
   1 -11   8    4.70    2.20
  -1  11  -8    8.80    2.60
  -1  11  -8    5.90    2.80
   4   0  -9    7.40    4.80
   4   0  -9    5.10    3.90
  -4   0   9    7.70    2.60
   4   0  -9    8.20    5.10
   4   0  -9    6.70    3.60
   4   0  -9    7.00    5.90
  -3   0   9    5.30    3.40
   3   0  -9    2.80    3.40
  -3   0   9    7.30    2.20
  -3   0   9   11.70    2.80
   3   0  -9    9.10    4.90
   2   0  -9   67.79   10.10
  -2   0   9   63.99    8.30
   1   0  -9   91.89   11.30
   1   0  -9  112.09   10.80
   0   0  -9   27.20    4.70
   1   0   9    4.70    2.30
  -1   0  -9    2.50    1.80
  -1   0  -9    2.70    3.20
  -2   0  -9  134.09   13.60
   2   0   9  164.38   15.00
   2   0   9  183.48   15.50
  -2   0  -9  153.58   15.00
  -2   0  -9  159.68   13.00
   3   0   9   22.30    5.30
  -3   0  -9   17.00    2.60
  -3   0  -9   20.50    3.70
   3   0   9   22.20    4.50
  -3   0  -9   21.50    4.40
   3   0   9   19.20    6.00
   3   0   9   14.10    3.60
   4   0   9    7.80    3.50
   4   0   9    2.70    2.60
  -4   0  -9    3.20    1.60
   4   0   9    6.80    3.60
   4  -1  -9   42.20    7.00
   4  -1  -9   32.90    6.90
   4  -1  -9   33.60    6.20
  -4  -1   9   40.40    4.60
   4  -1  -9   31.10    6.40
   4  -1  -9   31.00    6.40
   4   1  -9   41.40    6.80
   4   1  -9   44.90    7.40
   4   1  -9   41.80    6.70
   4   1  -9   32.60    6.70
  -4   1   9   41.10    4.80
   4   1  -9   36.60    6.40
  -3  -1   9  350.86   28.30
   3  -1  -9  339.57   31.40
   3  -1  -9  368.66   33.50
  -3   1   9  343.07   26.80
   3   1  -9  366.26   31.80
   3   1  -9  295.47   29.20
  -2  -1   9  471.65   39.70
   2  -1  -9  472.65   41.40
   2   1  -9  431.26   37.60
  -2   1   9  393.16   36.20
   2   1  -9  475.25   37.70
   1  -1  -9    6.40    4.10
   1   1  -9    3.20    3.50
   1   1  -9    7.60    3.20
   0  -1  -9    7.10    2.70
   0  -1  -9    7.60    3.70
   0   1   9    7.70    2.80
   0   1  -9    8.20    3.90
  -1  -1  -9    5.90    2.70
   1  -1   9    6.60    2.50
   1   1   9    7.50    3.30
  -1   1  -9   11.60    3.90
  -1   1  -9    2.20    1.90
  -2  -1  -9   46.10    5.80
  -2  -1  -9   47.00    6.50
   2  -1   9   59.99    7.40
  -2  -1  -9   47.60    4.90
  -2   1  -9   50.19    7.40
  -2   1  -9   48.20    5.10
  -2   1  -9   42.20    5.70
   2   1   9   59.09    7.00
   2   1   9   58.19    7.40
   3  -1   9   19.50    4.30
  -3  -1  -9   10.30    4.10
   3  -1   9   16.60    4.20
   3  -1   9   14.90    4.30
  -3  -1  -9   16.80    2.40
  -3  -1  -9   19.20    3.60
   3  -1   9   21.90    5.90
  -3   1  -9   15.20    3.90
   3   1   9   13.10    4.10
   3   1   9   23.60    4.50
   3   1   9   19.00    4.10
   3   1   9   16.20    3.90
  -3   1  -9   17.80    3.40
  -3   1  -9   17.30    2.50
   3   1   9   22.60    6.40
   4  -1   9  157.38   13.60
   4  -1   9  146.19   13.00
  -4  -1  -9  134.99   12.40
  -4   1  -9  119.59   11.60
   4   1   9  128.99   14.10
   4   1   9  158.48   12.60
   4   1   9  151.68   12.50
   4  -2  -9  159.98   15.60
   4  -2  -9  147.39   15.20
   4  -2  -9  155.28   15.30
   4  -2  -9  150.58   14.90
  -4  -2   9  169.78   13.50
   4  -2  -9  156.58   15.10
   4   2  -9  158.78   14.40
   4   2  -9  137.99   14.20
   4   2  -9  145.09   13.90
   4   2  -9  114.89   12.30
   4   2  -9  129.99   13.60
   3  -2  -9  144.49   14.90
   3  -2  -9  156.68   15.30
   3  -2  -9  142.19   14.50
   3  -2  -9  129.19   15.00
   3  -2  -9  168.58   15.50
   3  -2  -9  144.59   15.40
   3  -2  -9  144.59   16.70
   3  -2  -9  133.59   16.00
   3   2  -9  130.19   13.90
   3   2  -9  127.19   13.50
   3   2  -9  136.89   15.20
   3   2  -9  134.99   15.70
   3   2  -9  159.38   13.90
   3   2  -9  121.09   14.70
  -3   2   9  124.69   11.40
   3   2  -9  130.79   13.30
  -2  -2   9   13.50    2.80
   2  -2  -9   10.10    4.70
   2  -2  -9   11.30    4.50
   2  -2  -9    7.30    4.30
  -2  -2   9   14.00    4.30
  -2   2   9   12.50    2.30
   2   2  -9   11.50    5.20
   2   2  -9    8.80    4.00
   1  -2  -9   58.29    8.10
   1   2  -9   65.79    9.10
   0  -2  -9   48.20    6.60
   0  -2  -9   47.70    6.50
   0   2  -9   52.49    7.60
   0   2   9   49.10    6.10
   1  -2   9  101.49    9.60
  -1  -2  -9  113.29   10.50
  -1  -2  -9   86.39   10.40
  -1   2  -9  100.09    9.40
  -1   2  -9  114.09   11.50
   1   2   9  112.99   10.60
  -2  -2  -9  175.88   16.30
  -2  -2  -9  207.88   17.80
  -2  -2  -9  190.28   15.70
   2  -2   9  202.28   17.60
   2   2   9  229.18   18.70
  -2   2  -9  175.08   16.90
  -2   2  -9  200.98   16.40
   2   2   9  219.98   18.50
  -2   2  -9  189.68   18.00
   3  -2   9    2.70    4.60
   3  -2   9    2.20    6.00
   3  -2   9    3.30    4.30
   3  -2   9    3.30    2.10
  -3  -2  -9    4.60    2.80
   3   2   9    1.60    6.50
  -3   2  -9    1.80    1.70
   3   2   9    3.40    2.80
   3   2   9    2.00    2.70
  -4  -2  -9    3.20    2.20
   4  -2   9    8.30    2.90
   4  -2   9    9.10    2.80
  -4   2  -9    8.70    2.30
   4   2   9    5.10    4.80
   4   2   9    6.60    3.40
   4   2   9    8.30    3.30
   4  -3  -9  239.38   21.80
  -4  -3   9  268.27   21.70
   4  -3  -9  256.77   22.10
  -4  -3   9  236.48   20.50
   4  -3  -9  261.87   22.80
   4  -3  -9  249.68   22.20
   4  -3  -9  255.47   21.90
   4   3  -9  244.78   22.20
   4   3  -9  254.97   20.80
   4   3  -9  223.98   21.40
   4   3  -9  253.37   22.40
   4   3  -9  268.07   21.90
  -4   3   9  211.88   19.30
   3  -3  -9   89.09    9.80
   3  -3  -9   72.49   11.90
   3  -3  -9   91.59   10.20
   3  -3  -9   79.99   10.00
   3  -3  -9   98.79   10.10
   3  -3  -9   87.09   11.00
   3  -3  -9   75.99   12.60
   3  -3  -9   81.19   11.30
   3   3  -9   84.69   10.90
   3   3  -9   95.29   12.60
   3   3  -9   71.39   10.80
   3   3  -9  101.59   11.90
   3   3  -9   83.29    9.90
   3   3  -9   84.79   11.50
  -3   3   9   78.19    8.00
   3   3  -9   97.89   10.40
  -3   3   9  105.69    8.30
   2  -3  -9    1.90    3.10
  -2  -3   9    8.30    2.40
  -2  -3   9    6.10    3.00
   2  -3  -9    5.60    4.00
  -2   3   9    5.80    1.60
   2   3  -9   13.90    5.60
   1  -3  -9  223.28   21.10
   1   3  -9  232.88   21.50
   0  -3  -9   58.79    7.60
   0   3   9   52.49    6.30
   0   3  -9   63.69    7.60
  -1  -3  -9   68.19    7.70
  -1  -3  -9   82.99    9.00
  -1  -3  -9   82.39    8.40
   1  -3   9   84.39    8.50
  -1   3  -9   70.99    7.70
  -1   3  -9   80.89    7.60
   1   3   9   90.19    9.20
  -1   3  -9   87.19    9.60
  -2  -3  -9    3.80    2.60
  -2  -3  -9    3.50    1.90
  -2  -3  -9    4.10    2.10
   2  -3   9    7.90    3.50
  -2  -3  -9    4.70    3.80
  -2   3  -9    3.00    2.30
  -2   3  -9    1.80    3.80
  -2   3  -9    4.10    2.10
   2   3   9    2.70    2.40
   2   3   9    2.40    3.70
  -3  -3  -9   12.70    3.40
   3  -3   9   18.80    4.40
   3  -3   9    9.40    3.80
   3  -3   9   12.50    3.30
  -3   3  -9    9.60    2.30
   3   3   9   12.30    4.00
   3   3   9   13.00    6.50
   3   3   9    4.90    3.70
   4  -3   9    7.20    2.50
   4  -3   9    1.80    2.30
   4   3   9    4.50    3.00
   4   3   9    7.30    3.50
   4   3   9    5.80    2.30
   4  -4  -9  127.69   13.10
   4  -4  -9  115.29   12.20
   4  -4  -9  128.99   12.40
  -4  -4   9  115.49   10.70
   4  -4  -9  136.59   12.80
   4  -4  -9  144.79   12.70
   4  -4  -9  144.19   12.90
  -4  -4   9  127.49   12.00
   4   4  -9  130.89   12.00
  -4   4   9  121.69   10.60
   4   4  -9  128.29   12.20
   4   4  -9  138.79   13.00
   4   4  -9  112.49   12.40
   4   4  -9  133.49   13.60
   3  -4  -9    6.10    4.10
   3  -4  -9    4.60    5.30
   3  -4  -9    7.00    3.40
   3  -4  -9    3.30    4.30
   3  -4  -9    8.20    3.90
   3  -4  -9    1.30    4.70
   3  -4  -9    6.90    3.30
   3  -4  -9    4.40    3.10
  -3  -4   9    7.40    2.50
   3   4  -9   10.00    4.30
   3   4  -9    7.90    4.40
  -3   4   9    3.40    2.10
  -3   4   9    6.20    2.20
   3   4  -9    3.20    3.40
   3   4  -9    6.40    4.00
   2  -4  -9   26.00    6.60
   2  -4  -9   24.30    7.20
  -2  -4   9   23.10    5.60
  -2   4   9   26.80    3.80
   2   4  -9   36.80    7.20
   1  -4  -9   20.00    6.00
  -1  -4   9   21.30    4.80
   1  -4  -9   15.20    4.70
   1   4  -9   21.20    5.90
   0  -4  -9  118.39   12.80
   0   4  -9  108.69   11.80
   0   4   9  121.79   11.00
   1  -4   9   45.90    5.40
  -1  -4  -9   29.60    4.70
  -1  -4  -9   50.89    6.50
   1   4   9   59.09    6.80
  -1   4  -9   48.70    5.80
  -1   4  -9   51.89    5.80
  -1   4  -9   50.19    7.50
  -2  -4  -9   21.30    5.20
   2  -4   9   19.70    3.60
   2  -4   9   21.50    4.60
   2  -4   9   18.60    5.40
  -2  -4  -9   19.70    3.80
   2  -4   9   30.50    4.70
   2  -4   9   25.70    5.70
  -2  -4  -9   21.00    4.80
   2   4   9   19.00    6.70
   2   4   9   21.30    4.40
   2   4   9   25.90    4.90
  -2   4  -9   23.70    3.50
  -2   4  -9   29.50    3.30
   2   4   9   28.30    6.90
   2   4   9   22.80    4.90
  -3  -4  -9    3.60    2.20
   3  -4   9    5.00    4.80
   3  -4   9    1.60    3.20
   3  -4   9    1.20    2.50
   3   4   9    4.10    2.40
   3   4   9    4.30    2.70
   3   4   9    6.40    6.50
  -3   4  -9    3.80    1.80
   3   4   9    5.50    4.20
   4  -5  -9   41.50    6.10
   4  -5  -9   45.90    5.60
   4  -5  -9   37.80    5.60
  -4  -5   9   45.90    5.50
   4  -5  -9   42.30    6.00
   4  -5  -9   36.00    5.80
  -4  -5   9   38.70    5.30
   4   5  -9   31.80    6.00
  -4   5   9   31.00    3.40
   4   5  -9   46.30    7.20
   4   5  -9   40.70    5.30
   4   5  -9   34.40    6.00
   3  -5  -9   67.19    8.40
   3  -5  -9   79.09    9.90
   3  -5  -9   94.69    9.40
   3  -5  -9   73.39   10.20
   3  -5  -9   77.89    9.40
   3  -5  -9   77.69    9.30
   3  -5  -9   75.49    8.40
   3  -5  -9   54.09    9.60
   3   5  -9   67.09   11.40
   3   5  -9   79.89   10.00
  -3   5   9   79.49    7.30
   3   5  -9   69.69   10.10
   3   5  -9   86.29    9.60
  -2  -5   9  843.02   64.59
   2  -5  -9  748.43   64.69
   2  -5  -9  739.83   64.49
  -2   5   9  966.90   72.39
   2   5  -9  863.11   75.49
  -1  -5   9   93.99   10.20
   1  -5  -9   93.79   10.70
   1  -5  -9   72.29    9.90
  -1   5   9   73.09    8.30
   1   5  -9   96.09   10.60
   0  -5  -9   52.89    7.50
   0   5  -9   48.70    7.90
   0   5   9   56.19    6.50
  -1  -5  -9   28.80    5.40
  -1   5  -9   34.50    4.10
  -1   5  -9   21.70    5.40
   1   5   9   30.00    5.50
   2  -5   9  193.88   15.60
  -2  -5  -9  175.58   17.00
   2  -5   9  179.08   17.50
   2  -5   9  173.08   16.10
   2  -5   9  190.08   17.60
  -2  -5  -9  176.88   15.70
   2  -5   9  187.68   16.20
   2   5   9  170.78   17.10
  -2   5  -9  200.68   16.50
   2   5   9  190.48   20.20
   2   5   9  218.78   18.00
   3  -5   9   13.50    3.10
   3  -5   9   15.80    4.90
   3  -5   9   14.10    5.00
  -3  -5  -9   13.60    3.30
   3  -5   9   22.00    3.10
   3   5   9   13.10    3.90
   3   5   9   19.90    4.90
   3   5   9   16.00    3.00
   3   5   9   15.20    6.00
  -3   5  -9   17.80    3.10
   4  -6  -9   16.10    3.50
   4  -6  -9   17.30    3.90
  -4  -6   9   12.70    3.00
   4  -6  -9   17.60    3.40
   4  -6  -9   21.10    3.50
   4  -6  -9   15.60    3.30
  -4   6   9   11.70    2.00
   4   6  -9   19.00    4.70
   4   6  -9   13.80    2.80
   4   6  -9   21.40    4.40
   3  -6  -9   23.80    5.60
   3  -6  -9   31.20    6.20
   3  -6  -9   44.70    5.40
  -3  -6   9   46.50    6.10
   3  -6  -9   37.00    5.40
   3  -6  -9   36.00    7.00
   3  -6  -9   44.80    6.30
   3   6  -9   34.80    7.90
  -3   6   9   33.00    3.80
   3   6  -9   38.00    7.80
   3   6  -9   40.10    5.80
   2  -6  -9   34.10    6.20
   2  -6  -9   25.80    6.80
  -2  -6   9   51.29    7.80
   2  -6  -9   47.90    6.60
   2  -6  -9   39.80    5.30
   2  -6  -9   29.80    7.30
   2  -6  -9   47.20    6.80
   2   6  -9   41.50    8.50
   2   6  -9   47.00    7.50
  -2   6   9   51.39    5.10
   2   6  -9   36.20    7.40
  -2   6   9   39.60    7.90
   1  -6  -9    8.60    4.50
   1  -6  -9    9.70    4.80
  -1  -6   9   10.70    4.50
  -1   6   9   10.50    3.80
   1   6  -9   14.20    4.60
   0  -6  -9   13.90    3.90
   0  -6  -9   21.60    5.00
   0   6   9   22.50    4.30
   0   6  -9   15.60    4.30
   1  -6   9  174.58   15.80
   1  -6   9  162.18   14.80
   1  -6   9  172.68   16.20
  -1  -6  -9  184.68   16.70
   1  -6   9  151.58   15.70
   1  -6   9  182.18   16.60
  -1   6  -9  211.28   17.30
   1   6   9  184.38   20.50
  -1   6  -9  180.68   19.00
   1   6   9  244.28   18.80
   2  -6   9   28.20    4.40
   2  -6   9   27.90    5.00
   2  -6   9   26.60    5.70
   2  -6   9   25.70    3.70
   2   6   9   21.10    4.20
  -2   6  -9   30.00    4.50
   2   6   9   30.30    8.80
  -2   6  -9   29.40    4.20
  -3  -6  -9    3.60    2.20
   3  -6   9    8.40    2.50
   3  -6   9    9.00    3.30
   3  -6   9    4.30    3.90
   3  -6   9   11.20    2.30
   3   6   9    1.50    2.90
   3   6   9    4.20    5.00
  -3   6  -9    6.10    2.20
   3   6   9    4.70    4.00
   3  -7  -9  327.57   26.90
   3  -7  -9  316.17   26.70
   3  -7  -9  321.67   26.80
   3  -7  -9  282.97   26.30
   3  -7  -9  300.97   26.20
  -3  -7   9  364.76   26.70
   3  -7  -9  295.37   26.70
   3   7  -9  300.07   27.50
   3   7  -9  304.87   26.20
   3   7  -9  340.67   27.40
  -3   7   9  307.57   25.00
   2  -7  -9  342.27   28.20
   2  -7  -9  290.17   27.30
   2  -7  -9  287.47   26.60
  -2  -7   9  363.06   27.70
   2   7  -9  325.67   25.30
   2   7  -9  277.97   24.10
   2   7  -9  238.08   25.00
  -2   7   9  304.47   22.60
   2   7  -9  238.08   24.60
   1  -7  -9  261.27   25.60
   1  -7  -9  305.47   24.30
   1  -7  -9  267.57   25.80
  -1  -7   9  318.57   25.30
  -1  -7   9  291.57   24.40
   1   7  -9  375.06   28.90
   1   7  -9  261.47   28.40
  -1   7   9  332.47   28.80
   1   7  -9  342.57   28.80
   0  -7  -9   74.89    8.20
   0  -7   9   83.09    8.90
   0  -7   9   75.09    8.30
   0  -7  -9   81.09    9.90
   0  -7  -9   60.89    8.80
   0  -7   9   80.59    8.60
   0   7   9   97.89    9.80
   0   7  -9   99.79   10.70
   0   7   9   89.59   13.30
   0   7  -9   77.39    9.90
   1  -7   9  174.48   14.70
   1  -7   9  172.48   15.80
   1  -7   9  171.18   15.10
  -1  -7  -9  140.49   15.60
   1  -7   9  153.78   15.50
   1   7   9  209.68   18.00
   1   7   9  179.18   21.20
  -1   7  -9  200.38   16.80
  -1   7  -9  192.18   18.00
   2  -7   9  114.39   11.90
   2  -7   9  126.59   13.20
   2  -7   9  131.29   11.50
   2  -7   9  132.29   13.40
   2  -7   9  142.69   12.60
   2   7   9  137.19   15.50
  -2   7  -9  128.79   12.50
   2   7   9  116.99   11.80
  -2   7  -9  144.39   11.80
   3  -7   9  113.09   10.00
   3  -7   9  120.19    9.70
   3  -7   9  102.49   10.50
   3  -7   9  112.09   10.90
  -3  -7  -9  110.59   10.30
   3   7   9  108.89    9.60
   3   7   9  110.59   11.70
  -3   7  -9  104.19    9.20
   3  -8  -9   94.89    9.30
   3  -8  -9   93.99    9.20
  -3  -8   9   94.29    8.90
   3  -8  -9  101.79   10.10
   3  -8  -9   92.39    8.90
   3  -8  -9   84.29    9.10
   3   8  -9   83.99    8.20
   3   8  -9   87.59    9.80
  -3   8   9   75.29    7.20
   3   8  -9  106.69   10.80
   2  -8  -9    2.10    3.10
  -2  -8   9    2.00    2.30
   2  -8  -9    4.20    3.10
   2  -8  -9    0.50    2.50
   2   8  -9    4.90    5.50
   2   8  -9    3.50    4.50
   1  -8  -9   61.09    7.70
  -1  -8   9   62.09    7.10
   1  -8  -9   62.29    8.00
  -1   8   9   89.29   10.70
   1   8  -9   71.79    9.60
   1   8  -9   68.19    9.50
   0  -8  -9   34.10    6.20
   0  -8   9   53.39    6.70
   0  -8   9   54.29    6.40
   0   8  -9   66.49    8.30
   0   8   9   55.69    7.00
   0   8  -9   51.49    7.60
   0   8   9   46.70    8.60
   1  -8   9  136.59   13.30
   1  -8   9  148.49   13.40
   1  -8   9  130.89   13.10
   1  -8   9  145.39   13.30
   1   8   9  140.09   15.90
  -1   8  -9  140.19   12.90
  -1   8  -9  169.18   14.50
   2  -8   9    4.30    2.90
   2  -8   9    5.30    1.80
   2  -8   9    0.40    2.70
   2  -8   9    3.60    3.30
  -2  -8  -9    0.30    3.70
   2  -8   9   -0.10    2.10
  -2   8  -9    0.90    1.50
   2   8   9    4.80    4.80
  -2   8  -9    3.40    3.70
   2   8   9    1.30    1.90
   3  -9  -9   34.60    4.00
   3  -9  -9   31.40    4.30
  -3   9   9   24.00    4.20
   3   9  -9   24.30    4.60
   2  -9  -9   19.20    3.30
   2  -9  -9   11.20    3.30
  -2  -9   9   11.70    2.90
   2   9  -9   20.30    6.20
   2   9  -9    6.60    5.20
  -2   9   9   24.10    5.40
  -1  -9   9   24.30    4.00
   1  -9  -9   29.70    4.10
   1  -9  -9   25.90    5.50
   1   9  -9   32.20    6.10
  -1   9   9   34.20    7.60
   1   9  -9   27.80    6.60
   0  -9   9  443.56   36.90
   0  -9   9  446.86   36.40
   0   9   9  404.26   40.80
   0   9  -9  476.75   39.10
   0   9  -9  544.15   39.90
   1  -9   9  105.29   10.30
   1  -9   9  108.49   10.40
   1  -9   9  121.89   11.10
   1  -9   9   91.09   10.10
   1   9   9   99.59   13.20
  -1   9  -9  123.39   11.40
   2  -9   9    3.40    1.40
   2  -9   9   -1.00    2.00
   2  -9   9    2.20    2.40
   2  -9   9    1.50    1.90
   2  -9   9    1.10    2.10
   2   9   9    1.00    3.40
  -2   9  -9    3.20    2.50
   2 -10  -9   13.60    2.70
  -2 -10   9   18.50    2.80
   2 -10  -9   21.40    3.50
  -2  10   9   27.70    4.70
   2  10  -9   12.60    4.10
   2  10  -9   14.40    3.60
  -1 -10   9   80.59    7.50
   1 -10  -9   69.99    7.00
   1 -10  -9   73.49    8.00
   1  10  -9   98.39   10.00
  -1  10   9   91.59   10.30
   0 -10   9   14.30    3.20
   0 -10   9   15.80    3.50
   0  10  -9   17.10    4.10
   0  10  -9   19.30    4.30
   1 -10   9  152.18   12.10
   1 -10   9  140.89   12.20
   1 -10   9  107.99   11.50
  -1  10  -9  190.68   15.20
  -1  10  -9  152.58   14.60
  -1 -11   9   33.60    4.00
  -1  11   9   35.30    5.00
   1  11  -9   33.90    4.90
   0 -11   9    8.90    2.30
   0  11  -9    6.70    2.50
   0  11  -9    5.70    2.30
   4   0 -10   21.40    4.90
   4   0 -10   13.10    4.90
   4   0 -10   18.10    4.50
   4   0 -10   11.50    3.80
   4   0 -10   18.90    6.10
   3   0 -10    4.20    4.80
   3   0 -10    2.50    3.50
   3   0 -10    1.00    3.10
  -3   0  10   -0.10    2.50
   3   0 -10   -0.60    4.00
   3   0 -10   -0.30    5.10
   2   0 -10  287.97   27.10
   1   0 -10    5.30    3.90
   1   0 -10    6.10    4.20
   0   0 -10  658.73   53.79
  -1   0 -10  425.96   32.40
  -1   0 -10  328.37   30.80
   1   0  10  398.86   31.70
   2   0  10   15.90    3.80
   2   0  10    9.40    6.30
   2   0  10    9.70    4.10
  -2   0 -10   10.40    4.20
   2   0  10   11.70    3.20
  -2   0 -10   12.90    3.20
   2   0  10   11.30    4.20
  -2   0 -10   12.90    2.50
   3   0  10   23.00    4.40
   3   0  10   20.60    6.00
  -3   0 -10   20.30    3.70
   3   0  10   18.50    4.00
   4   0  10   26.50    4.60
   4   0  10   40.60    4.40
   4   0  10   38.50    4.40
   4  -1 -10   30.50    5.50
   4  -1 -10   31.60    5.50
  -4  -1  10   32.80    3.80
   4  -1 -10   34.00    5.90
   4  -1 -10   34.80    5.50
   4  -1 -10   36.20    6.10
   4   1 -10   32.90    6.30
   4   1 -10   26.60    5.40
   4   1 -10   28.30    5.10
   4   1 -10   27.60    5.80
  -4   1  10   29.70    3.50
   4   1 -10   32.40    5.90
   3  -1 -10   13.70    5.60
   3  -1 -10   18.10    6.00
   3  -1 -10   18.30    5.40
   3  -1 -10   17.10    4.30
   3  -1 -10   14.00    4.40
   3  -1 -10   15.80    4.80
  -3  -1  10   19.10    4.20
   3  -1 -10   18.50    6.20
  -3  -1  10   20.80    3.50
   3   1 -10   25.50    5.60
   3   1 -10   19.60    4.90
   3   1 -10    9.50    5.70
   3   1 -10   14.40    5.00
   3   1 -10   16.20    4.80
   3   1 -10   13.50    3.60
   2  -1 -10   51.79    9.50
  -2  -1  10   42.80    7.10
   2   1 -10   46.80    7.30
   2   1 -10   39.80    7.50
  -2   1  10   46.90    4.60
   1  -1 -10  230.08   21.60
   1   1 -10  260.47   23.40
   0  -1 -10   36.40    6.20
   0  -1 -10   30.30    5.40
   0   1  10   36.40    6.70
   0   1 -10   32.80    6.20
  -1  -1 -10   78.19    8.30
   1  -1  10  101.19    9.80
  -1  -1 -10   99.99    9.70
   1   1  10  109.39   10.10
  -1   1 -10   87.49    9.20
  -1   1 -10  106.99   10.60
   2  -1  10  167.48   14.40
   2  -1  10  131.99   13.70
  -2  -1 -10  155.78   14.40
   2  -1  10  141.49   12.80
   2  -1  10  134.19   16.60
   2  -1  10  127.69   13.90
  -2  -1 -10  161.48   13.30
   2   1  10  172.88   14.60
  -2   1 -10  151.98   14.10
  -2   1 -10  168.58   13.20
   2   1  10  144.49   15.90
   2   1  10  141.89   13.00
   2   1  10  122.39   13.40
   2   1  10  123.19   13.30
  -3  -1 -10   53.39    5.70
   3  -1  10   43.10    8.20
   3  -1  10   51.09    7.00
   3  -1  10   53.29    6.90
   3   1  10   49.20    6.60
   3   1  10   59.49    7.90
   3   1  10   54.89    9.30
  -3   1 -10   50.69    6.10
   4  -1  10   16.90    3.10
   4  -1  10   20.90    3.10
   4   1  10   17.50    2.90
   4   1  10   15.10    2.80
   4  -2 -10   15.50    3.80
   4  -2 -10   21.60    4.50
   4  -2 -10   11.50    3.70
   4  -2 -10   17.40    4.60
   4  -2 -10   14.70    5.70
  -4  -2  10   15.40    3.40
  -4  -2  10   17.90    2.60
   4   2 -10   13.40    3.80
   4   2 -10    9.80    2.70
  -4   2  10   12.50    2.00
   4   2 -10   16.60    4.40
   4   2 -10   12.20    3.60
   4   2 -10   18.80    4.70
   3  -2 -10   19.30    5.50
   3  -2 -10   31.80    5.80
   3  -2 -10   12.90    6.70
   3  -2 -10   23.90    4.90
   3  -2 -10   17.30    5.20
  -3  -2  10   30.80    4.00
   3  -2 -10   25.40    5.90
   3  -2 -10   17.20    6.00
   3  -2 -10   17.00    5.20
  -3  -2  10   32.20    5.40
   3   2 -10   13.00    4.90
   3   2 -10   20.90    6.10
   3   2 -10   15.00    5.50
  -3   2  10   24.80    3.40
   3   2 -10   17.70    6.40
   3   2 -10   16.30    6.50
   3   2 -10   19.00    4.00
   3   2 -10   23.10    6.50
  -2  -2  10   20.60    5.40
   2  -2 -10   36.60    7.60
   2   2 -10   26.10    6.50
  -2   2  10   34.50    4.00
   1  -2 -10  315.07   28.60
   1   2 -10  386.66   33.50
   0  -2 -10  155.68   15.60
   0   2 -10  188.48   16.90
   0   2  10  155.18   15.20
  -1  -2 -10  131.99   12.20
   1  -2  10  144.39   13.20
  -1  -2 -10  123.99   13.30
  -1  -2 -10  160.58   13.80
  -1   2 -10  167.88   15.20
   1   2  10  175.18   14.70
  -1   2 -10  138.99   13.60
  -2  -2 -10   16.40    3.60
   2  -2  10   16.50    6.50
   2  -2  10   16.30    3.00
  -2  -2 -10   14.40    4.40
   2  -2  10   22.20    4.30
   2  -2  10   22.70    5.50
   2  -2  10   14.50    4.00
   2   2  10   11.40    3.70
  -2   2 -10   17.90    2.50
   2   2  10   13.70    3.90
  -2   2 -10   13.60    4.60
  -2   2 -10   22.40    3.70
   2   2  10   21.20    5.80
   3  -2  10  181.88   15.00
   3  -2  10  185.88   16.00
   3  -2  10  194.18   16.20
   3  -2  10  141.19   16.20
  -3  -2 -10  174.28   15.00
   3   2  10  161.28   15.40
   3   2  10  163.58   18.30
  -3   2 -10  158.48   14.20
   3   2  10  185.38   15.20
   4  -3 -10   38.80    5.60
  -4  -3  10   32.30    5.10
   4  -3 -10   39.20    5.90
   4  -3 -10   33.50    5.90
   4  -3 -10   43.50    6.40
   4  -3 -10   45.20    5.80
  -4  -3  10   40.20    4.00
   4   3 -10   32.90    5.90
   4   3 -10   42.40    7.00
   4   3 -10   44.40    5.90
   4   3 -10   40.20    5.90
   4   3 -10   49.10    6.90
  -4   3  10   40.50    4.20
   3  -3 -10  227.68   21.10
   3  -3 -10  244.18   20.90
   3  -3 -10  222.58   20.70
   3  -3 -10  209.38   20.30
   3  -3 -10  185.58   21.90
   3  -3 -10  249.08   21.00
   3  -3 -10  207.58   20.40
  -3  -3  10  252.17   18.80
   3   3 -10  242.28   20.20
   3   3 -10  243.08   21.10
   3   3 -10  209.38   20.10
  -3   3  10  229.98   18.20
   3   3 -10  191.48   20.80
   3   3 -10  205.48   21.50
  -2  -3  10   51.59    7.20
   2  -3 -10   56.09    8.90
   2  -3 -10   45.30    7.40
   2   3 -10   63.59   10.60
  -2   3  10   70.39    6.60
   1  -3 -10   70.79   10.20
   1   3 -10   83.59   10.20
   0  -3 -10  133.99   14.20
   0   3 -10  149.09   15.00
   0   3  10  142.59   13.30
  -1  -3 -10    8.70    2.80
   1  -3  10   13.20    3.70
  -1  -3 -10   17.90    4.40
   1   3  10   20.30    4.10
  -1   3 -10   15.30    3.20
  -1   3 -10   15.90    4.90
   2  -3  10   14.60    6.10
   2  -3  10   26.30    4.90
  -2  -3 -10   14.70    4.40
   2  -3  10   24.80    3.80
   2  -3  10   24.60    4.60
   2  -3  10   21.00    3.90
  -2  -3 -10   13.90    4.10
   2  -3  10   21.00    4.50
  -2  -3 -10   22.60    3.60
  -2   3 -10   20.20    3.20
   2   3  10   21.50    3.80
   2   3  10   22.00    6.00
   2   3  10   23.20    5.10
  -2   3 -10   22.40    4.70
  -2   3 -10   23.80    4.00
   3  -3  10  101.79    8.80
  -3  -3 -10   92.79    9.10
   3  -3  10   93.39   10.90
   3  -3  10   89.59   10.00
   3   3  10   95.99    9.20
  -3   3 -10   92.59    8.60
   3   3  10   88.99   11.10
   3   3  10   84.69    8.90
   4  -4 -10   39.70    6.40
   4  -4 -10   51.39    6.90
   4  -4 -10   42.90    6.20
  -4  -4  10   52.99    6.40
   4  -4 -10   39.50    6.00
   4  -4 -10   40.10    6.70
   4  -4 -10   42.20    5.50
   4   4 -10   45.70    6.80
  -4   4  10   30.90    3.60
   4   4 -10   40.30    5.80
  -4   4  10   45.90    5.70
   3  -4 -10   35.00    6.50
   3  -4 -10   41.40    6.60
   3  -4 -10   42.90    6.10
  -3  -4  10   44.60    6.30
   3  -4 -10   24.40    5.90
   3  -4 -10   41.80    6.30
   3  -4 -10   49.60    6.80
   3   4 -10   34.10    7.30
  -3   4  10   38.90    4.40
   3   4 -10   39.70    6.00
   3   4 -10   34.80    6.40
   3   4 -10   43.20    8.20
   2  -4 -10   12.70    5.40
  -2  -4  10   28.10    6.10
   2  -4 -10   18.00    5.20
   2  -4 -10   16.70    3.80
   2  -4 -10   17.30    4.70
   2  -4 -10   11.90    5.80
   2  -4 -10   16.50    4.50
  -2   4  10   19.90    7.00
   2   4 -10   20.40    6.70
   2   4 -10    9.20    4.20
  -2   4  10   18.60    2.90
   2   4 -10   18.60    5.60
   2   4 -10   15.90    6.50
   1  -4 -10   94.09   11.40
   1   4 -10  111.49   12.50
   0  -4 -10  100.29   11.30
   0   4  10  117.89   11.10
   0   4 -10  102.19   11.60
  -1  -4 -10   24.20    5.20
  -1   4 -10   28.30    4.20
   1   4  10   33.40    5.80
  -1   4 -10   18.30    5.30
   2  -4  10   49.70    7.60
  -2  -4 -10   52.59    5.90
   2  -4  10   66.59    6.60
   2  -4  10   57.19    6.70
  -2  -4 -10   46.20    7.00
   2  -4  10   63.79    6.80
   2  -4  10   60.99    7.80
   2   4  10   66.89    7.70
   2   4  10   56.99    8.70
   2   4  10   59.19    6.90
   2   4  10   57.59   10.10
  -2   4 -10   65.99    6.90
   3  -4  10  158.68   14.90
   3  -4  10  172.88   15.00
   3  -4  10  177.58   14.00
  -3  -4 -10  150.98   13.90
   3   4  10  160.28   15.60
   3   4  10  150.58   15.80
   3   4  10  144.39   13.60
  -3   4 -10  158.58   13.40
   3   4  10  176.98   14.40
  -4  -5  10   32.30    4.90
   4  -5 -10   26.80    4.20
   4  -5 -10   29.80    4.50
   4  -5 -10   25.60    4.20
   4  -5 -10   18.00    3.70
   4   5 -10   35.10    5.20
  -4   5  10   22.30    2.40
   4   5 -10   16.40    4.10
   4   5 -10   16.60    3.60
   3  -5 -10   31.10    5.70
   3  -5 -10   28.90    5.40
   3  -5 -10   32.70    5.20
   3  -5 -10   34.60    6.40
   3  -5 -10   38.10    6.80
   3  -5 -10   24.90    5.60
   3  -5 -10   41.70    6.10
  -3  -5  10   49.30    7.20
   3   5 -10   23.30    6.40
  -3   5  10   29.70    3.80
   3   5 -10   43.70    7.70
  -3   5  10   43.60    7.30
   3   5 -10   28.70    5.20
   2  -5 -10  321.77   31.90
   2  -5 -10  402.46   30.70
   2  -5 -10  382.36   30.60
   2  -5 -10  377.66   29.60
   2  -5 -10  299.67   31.10
   2   5 -10  402.36   36.10
   2   5 -10  386.66   34.40
   2   5 -10  381.06   34.90
   2   5 -10  455.85   35.60
  -2   5  10  419.66   32.70
   1  -5 -10  134.89   13.80
   1  -5 -10   94.39   11.60
   1   5 -10  155.58   16.50
   0  -5 -10   27.40    6.40
   0   5 -10   28.80    5.90
   0   5  10   41.40    5.60
  -1  -5 -10   45.50    7.30
   1  -5  10   40.40    5.90
   1  -5  10   39.90    5.10
   1  -5  10   45.30    6.70
   1  -5  10   42.60    6.00
  -1   5 -10   57.19    6.00
  -1   5 -10   35.20    6.50
  -1   5 -10   42.30    6.80
   1   5  10   52.09    6.60
   1   5  10   57.29    9.10
   2  -5  10   87.89   10.00
   2  -5  10  102.39   11.30
   2  -5  10   92.79   10.10
   2  -5  10   99.79    8.90
   2   5  10   78.19    8.60
  -2   5 -10   86.49    8.20
   2   5  10  101.29   12.40
   3  -5  10   35.80    5.20
   3  -5  10   47.00    5.90
   3  -5  10   53.89    5.20
   3  -5  10   40.70    6.00
  -3  -5 -10   35.70    4.20
  -3   5 -10   49.00    5.30
   3   5  10   41.60    7.50
   3   5  10   50.09    6.80
   3   5  10   46.60    5.60
   4  -6 -10   18.30    2.70
   4  -6 -10    7.90    2.60
   4  -6 -10   10.60    2.30
   4  -6 -10   17.40    3.00
  -4  -6  10   16.80    2.80
   4   6 -10   20.30    3.80
   4   6 -10   12.40    3.40
   3  -6 -10   17.20    5.30
   3  -6 -10   21.80    6.40
   3  -6 -10   28.20    5.50
   3  -6 -10   30.40    5.40
   3  -6 -10   36.00    6.40
  -3  -6  10   38.10    5.30
   3  -6 -10   30.70    5.00
   3   6 -10   31.20    6.00
  -3   6  10   31.70    3.80
   3   6 -10   34.70    5.30
  -3   6  10   29.20    6.20
   3   6 -10   39.00    6.50
   2  -6 -10   25.00    6.70
  -2  -6  10   57.39    7.70
   2  -6 -10   41.40    5.30
   2  -6 -10   33.30    6.10
   2  -6 -10   48.10    6.50
   2  -6 -10   41.40    6.30
   2   6 -10   28.60    5.70
   2   6 -10   44.50    7.10
   2   6 -10   55.99    8.00
  -2   6  10   44.70    7.10
   2   6 -10   35.30    7.00
   1  -6 -10   37.60    6.50
   1  -6 -10   30.40    5.20
   1  -6 -10   24.80    6.10
  -1  -6  10   52.49    7.60
  -1   6  10   50.29    7.80
   1   6 -10   45.30    8.00
   1   6 -10   41.00    7.80
   1   6 -10   39.00    7.30
  -1   6  10   31.50    5.30
   0  -6  10  122.09   11.50
   0  -6 -10  114.39   11.20
   0  -6  10  118.49   12.30
   0  -6  10  111.29   11.40
   0  -6 -10  118.19   12.60
   0   6  10  159.38   17.30
   0   6 -10  135.29   15.00
   0   6  10  143.99   14.10
   1  -6  10    7.60    3.20
   1  -6  10    8.00    3.70
   1  -6  10    9.80    2.90
   1  -6  10    7.10    3.10
   1  -6  10   10.10    3.60
  -1  -6 -10    6.30    4.10
  -1   6 -10   10.70    3.10
   1   6  10    8.30    5.50
   1   6  10    8.40    4.00
  -1   6 -10    8.60    4.00
   2  -6  10  203.38   17.00
   2  -6  10  201.78   17.70
   2  -6  10  189.48   18.20
   2  -6  10  206.58   18.50
   2   6  10  215.78   22.00
  -2   6 -10  196.88   17.00
   3  -6  10    4.40    1.70
   3  -6  10    8.90    2.70
   3  -6  10    7.50    2.20
   3  -6  10   10.30    2.80
   3   6  10   10.10    5.70
  -3   6 -10    7.80    1.80
   3   6  10    8.30    2.60
   3  -7 -10  213.08   18.50
  -3  -7  10  214.88   18.80
   3  -7 -10  236.98   19.30
   3  -7 -10  236.88   19.20
   3  -7 -10  206.38   18.80
   3   7 -10  192.08   17.10
  -3   7  10  161.98   14.90
   3   7 -10  205.98   16.30
   2  -7 -10   65.19    8.40
   2  -7 -10   74.49    7.90
  -2  -7  10   76.79    8.90
   2  -7 -10   79.39    9.70
   2   7 -10   71.79    9.40
   2   7 -10   71.39    8.70
  -2   7  10   67.79    8.90
   2   7 -10   85.99   11.20
   1  -7 -10   19.70    5.50
   1  -7 -10   19.60    5.50
  -1  -7  10   31.20    4.70
  -1   7  10   39.90    6.90
   1   7 -10   34.20    7.00
  -1   7  10   31.40    5.30
   1   7 -10   51.89    7.30
   0  -7  10  123.19   11.70
   0  -7  10  117.79   11.50
   0  -7 -10  106.69   10.50
   0  -7  10  109.49   11.10
   0   7  10  122.69   12.90
   0   7  10  122.49   15.80
   0   7 -10  132.29   12.80
   0   7 -10  139.99   13.40
   1  -7  10   15.40    3.40
   1  -7  10   14.40    4.30
   1  -7  10   16.10    3.90
   1  -7  10    9.30    3.20
  -1   7 -10   12.60    5.10
   1   7  10   18.60    6.10
  -1   7 -10   17.70    3.00
   2  -7  10    0.90    3.60
   2  -7  10    2.30    2.70
   2  -7  10    0.40    2.10
   2  -7  10   -0.60    2.20
   2  -7  10    2.50    1.70
  -2   7 -10    2.90    2.60
   2   7  10    1.30    4.90
  -2   7 -10    0.20    2.20
  -3  -8  10  161.78   14.90
   3  -8 -10  162.58   15.00
   3  -8 -10  187.58   14.70
   3  -8 -10  194.78   15.20
   3   8 -10  200.68   17.10
   3   8 -10  175.88   16.50
   2  -8 -10   11.00    4.20
   2  -8 -10    9.60    3.60
   2  -8 -10   13.10    3.50
   2   8 -10    8.90    5.80
  -1  -8  10   25.00    4.50
  -1   8  10   35.40    6.50
   1   8 -10   42.00    6.50
   1   8 -10   49.50    7.30
   0  -8  10   60.39    7.50
   0  -8  10   60.79    7.10
   0   8 -10   53.79    7.60
   0   8  10   62.79    9.40
   0   8 -10   84.89    8.80
   1  -8  10   11.00    3.10
   1  -8  10   15.10    4.10
   1  -8  10   13.90    3.70
   1  -8  10   14.80    3.40
   1   8  10   13.60    5.40
  -1   8 -10   18.30    5.10
   2  -8  10   51.19    6.10
   2  -8  10   59.89    6.50
   2  -8  10   55.99    6.20
   2  -8  10   53.39    5.10
  -2   8 -10   41.10    5.50
  -2   8 -10   47.80    4.70
   2   8  10   61.99    8.00
   2  -9 -10   15.20    3.00
   2  -9 -10   23.70    3.70
  -2  -9  10   22.40    3.40
   2   9 -10   36.30    5.70
  -2   9  10   41.40    6.00
  -1  -9  10   97.19    9.10
   1  -9 -10   95.89    8.90
   1   9 -10  112.79   11.10
   1   9 -10  106.89   11.20
   0  -9  10   90.89    9.70
   0  -9  10   87.69    8.80
   0   9  10   75.19    9.30
   0   9 -10   74.79    9.20
   0   9 -10  100.09   10.30
   1  -9  10    3.30    2.50
   1  -9  10    1.90    1.90
   1  -9  10    5.10    3.00
   1  -9  10    3.70    2.50
  -1   9 -10    5.30    3.10
  -1   9 -10    4.10    2.70
   1   9  10    0.90    3.40
  -1 -10  10   20.50    3.50
   1  10 -10   32.10    4.70
  -1  10  10   38.60    5.40
   1  10 -10   22.40    4.10
   0 -10  10  140.49   12.20
   0  10 -10   90.99    8.60
   1 -10  10    8.20    1.90
   1 -10  10    6.60    2.10
   1 -10  10    4.70    2.10
  -1  10 -10    9.30    2.80
   1  10  10    3.80    2.10
   4   0 -11    6.20    3.00
   4   0 -11   12.50    3.90
   4   0 -11   10.70    4.20
  -4   0  11   10.90    1.90
   4   0 -11   12.40    3.30
   4   0 -11    9.90    3.10
   3   0 -11  206.18   20.10
   3   0 -11  239.98   19.80
   3   0 -11  181.58   18.60
  -3   0  11  204.98   17.00
   2   0 -11   69.09   10.70
   1   0 -11  105.89   11.40
   1   0 -11   88.79   11.60
   0   0 -11  168.98   16.40
  -1   0 -11  115.09   11.40
   1   0  11  104.89   10.70
  -1   0 -11  105.79   10.10
   2   0  11    4.20    2.90
  -2   0 -11   11.40    2.70
   2   0  11    6.60    4.00
  -2   0 -11    6.50    3.80
   2   0  11    8.10    5.90
   2   0  11   10.00    2.90
   2   0  11    5.90    2.80
  -3   0 -11    9.90    2.40
   3   0  11   10.60    3.20
   3   0  11   12.30    4.50
   3   0  11   13.10    3.70
   4  -1 -11    5.70    2.80
   4  -1 -11    5.10    2.90
   4  -1 -11    7.70    3.80
   4  -1 -11    6.00    3.00
   4  -1 -11    7.80    3.40
  -4  -1  11    4.10    1.20
   4   1 -11    8.00    3.70
   4   1 -11    1.80    4.00
   4   1 -11    8.70    3.10
   4   1 -11    8.80    4.10
   4   1 -11    0.70    2.70
  -4   1  11    4.60    1.20
   3  -1 -11  152.58   14.00
   3  -1 -11  154.38   13.80
   3  -1 -11  141.99   14.10
  -3  -1  11  130.39   13.40
   3  -1 -11  105.29   15.50
   3  -1 -11  134.09   13.30
   3   1 -11  133.69   14.20
   3   1 -11  147.49   14.40
   3   1 -11  159.58   14.40
   3   1 -11  111.39   13.00
  -3   1  11  135.29   11.50
   2  -1 -11  546.35   47.40
   2   1 -11  422.96   41.30
   2   1 -11  553.54   41.90
   1  -1 -11  436.86   37.90
   1   1 -11  547.25   45.90
   0  -1 -11  755.82   62.49
   0   1 -11 1135.49   91.29
  -1  -1 -11  313.07   25.60
  -1  -1 -11  267.87   24.10
   1  -1  11  308.07   25.20
  -1   1 -11  313.17   26.90
   1   1  11  323.97   26.10
  -1   1 -11  290.07   25.30
  -2  -1 -11   37.60    5.30
   2  -1  11   29.90    5.20
  -2  -1 -11   38.60    4.60
   2  -1  11   30.40    5.50
   2  -1  11   44.10    7.30
   2  -1  11   38.00    4.50
   2  -1  11   32.60    5.30
  -2  -1 -11   24.50    5.40
   2   1  11   33.60    7.10
  -2   1 -11   38.70    4.60
  -2   1 -11   31.40    4.10
   2   1  11   30.50    5.10
   2   1  11   34.60    4.40
  -2   1 -11   30.70    5.30
   3  -1  11    6.50    3.70
   3  -1  11    9.50    3.60
  -3  -1 -11    8.60    2.80
   3  -1  11    9.20    3.10
   3  -1  11    4.60    1.90
   3   1  11   10.20    4.50
   3   1  11    8.20    2.70
  -3   1 -11    9.00    2.50
  -3   1 -11    6.50    2.60
   3   1  11    7.30    2.70
   4  -2 -11    5.10    3.40
   4  -2 -11    7.30    2.90
   4  -2 -11    6.90    4.00
   4  -2 -11    5.20    3.40
   4  -2 -11    4.90    2.80
  -4  -2  11    4.20    1.40
  -4  -2  11    2.90    2.20
   4   2 -11    3.40    2.50
   4   2 -11    3.50    3.50
   4   2 -11    3.50    4.80
  -4   2  11    5.00    1.30
   4   2 -11    4.00    4.10
   4   2 -11    7.20    4.00
   3  -2 -11  130.39   14.80
   3  -2 -11  155.48   14.00
  -3  -2  11  159.28   14.00
   3  -2 -11  122.59   13.20
   3  -2 -11  124.29   13.70
   3   2 -11  144.79   13.80
   3   2 -11  139.79   14.20
   3   2 -11  131.19   13.40
  -3   2  11  131.09   11.40
   3   2 -11  125.99   13.10
  -2  -2  11   40.90    6.10
   2  -2 -11   27.10    6.60
   2  -2 -11   29.10    6.30
   2  -2 -11   38.80    6.10
   2  -2 -11   30.40    7.30
   2   2 -11   25.90    4.90
   2   2 -11   34.00    6.70
   2   2 -11   29.90    5.50
   2   2 -11   31.40    6.10
   2   2 -11   39.00    7.10
   1  -2 -11  355.86   32.00
   1   2 -11  444.46   38.40
   0  -2 -11  133.99   13.90
   0   2 -11  179.78   17.20
  -1  -2 -11  117.69   11.90
   1  -2  11  110.79   11.00
  -1   2 -11  121.59   12.90
  -1   2 -11  134.69   11.80
   1   2  11  134.29   12.90
   2  -2  11   56.19    7.30
  -2  -2 -11   61.69    6.70
   2  -2  11   54.29    7.00
  -2  -2 -11   52.69    6.80
   2  -2  11   66.09    6.20
   2  -2  11   40.30    8.20
   2  -2  11   59.99    7.50
  -2   2 -11   46.50    6.90
  -2   2 -11   65.79    6.40
   2   2  11   64.29    7.30
   2   2  11   61.29    9.40
   3  -2  11   26.70    4.10
   3  -2  11   13.20    4.00
  -3  -2 -11   21.50    3.10
   3  -2  11   14.80    2.50
   3  -2  11   17.40    4.10
   3   2  11   20.30    3.50
   3   2  11   21.30    6.20
  -3   2 -11   16.50    3.20
   3   2  11   21.10    3.50
   4  -3 -11   57.49    6.90
   4  -3 -11   58.99    7.10
   4  -3 -11   54.89    6.30
   4  -3 -11   61.79    6.80
  -4  -3  11   51.19    6.00
   4  -3 -11   58.89    6.50
   4  -3 -11   52.99    6.20
   4   3 -11   62.89    6.10
  -4   3  11   41.90    4.40
   4   3 -11   49.80    5.60
   4   3 -11   56.29    6.80
   3  -3 -11   89.59    9.90
  -3  -3  11   87.39    9.20
   3  -3 -11   76.09    9.00
   3  -3 -11   72.39   10.80
   3  -3 -11   94.59    9.80
   3   3 -11   89.89   10.40
  -3   3  11   74.79    7.10
   3   3 -11   71.69   10.50
   3   3 -11   80.59    8.70
   2  -3 -11   29.80    6.20
  -2  -3  11   40.90    6.70
   2  -3 -11   27.80    7.10
   2  -3 -11   35.60    6.10
   2  -3 -11   33.70    6.40
   2  -3 -11   33.80    5.40
   2   3 -11   33.10    6.80
   2   3 -11   29.50    6.90
   2   3 -11   24.10    5.30
   2   3 -11   30.60    6.40
  -2   3  11   49.50    8.50
   1  -3 -11  313.97   28.90
   1   3 -11  357.66   31.60
   0  -3 -11  383.76   33.40
   0   3 -11  460.85   36.80
   0   3  11  394.26   35.20
  -1  -3 -11  108.39   12.90
   1  -3  11  126.59   11.70
   1  -3  11  117.29   12.50
  -1  -3 -11  121.59   11.50
   1  -3  11  132.49   11.00
   1  -3  11  125.69   13.30
  -1   3 -11  145.29   12.00
  -1   3 -11  129.69   12.90
   1   3  11  129.29   12.30
   1   3  11  112.19   13.90
   1   3  11  141.49   16.00
   1   3  11  156.08   13.60
  -1   3 -11  135.09   13.90
  -2  -3 -11  112.29   10.30
   2  -3  11  129.49   10.30
   2  -3  11  121.99   11.50
   2  -3  11  101.69   10.90
   2  -3  11  108.09   11.00
   2  -3  11   95.49   11.80
  -2   3 -11  117.19   12.00
   2   3  11  107.79   13.20
  -2   3 -11  125.59   11.00
   3  -3  11   91.09    8.40
   3  -3  11   99.79    9.30
  -3  -3 -11   90.59    8.70
   3  -3  11   96.89    9.40
   3   3  11   94.49   11.60
   3   3  11   98.79    9.40
  -3   3 -11   92.79    8.70
   4  -4 -11    2.90    2.10
  -4  -4  11   -0.40    1.90
   4  -4 -11    1.70    2.00
   4  -4 -11    2.30    2.50
   4  -4 -11    0.30    1.90
   4  -4 -11    2.80    2.20
   4  -4 -11   -0.10    3.40
  -4   4  11    0.90    1.10
   4   4 -11   -0.80    1.60
   4   4 -11    1.80    2.90
   4   4 -11    4.20    3.10
  -4   4  11    1.70    2.40
   3  -4 -11   41.50    7.30
   3  -4 -11   50.79    6.90
  -3  -4  11   34.90    5.80
   3  -4 -11   46.80    6.60
  -3   4  11   40.80    7.30
   3   4 -11   43.40    6.40
   3   4 -11   40.10    7.70
  -3   4  11   29.60    3.60
   3   4 -11   37.70    5.60
   2  -4 -11   51.79    9.80
   2  -4 -11   57.59    7.90
   2  -4 -11   53.79    6.90
  -2  -4  11   76.79    9.10
   2  -4 -11   53.59    7.90
   2   4 -11   70.09    8.90
   2   4 -11   53.19    7.20
  -2   4  11   74.89    9.30
   2   4 -11   37.20    8.30
   2   4 -11   57.09    7.80
   1  -4 -11  592.44   48.00
   1  -4 -11  601.14   50.59
   1  -4 -11  543.75   48.50
  -1  -4  11  596.14   48.80
   1  -4 -11  634.04   49.80
  -1  -4  11  611.34   49.10
   1   4 -11  661.53   54.29
   1   4 -11  654.13   53.49
   1   4 -11  624.84   54.19
   0  -4 -11   32.50    4.50
   0  -4  11   30.90    5.60
   0  -4  11   31.10    6.60
   0  -4 -11   18.30    5.90
   0  -4  11   31.10    4.80
   0   4 -11   31.30    5.50
   0   4  11   30.80    6.60
   0   4 -11   27.90    6.80
   0   4 -11   20.90    5.80
   0   4  11   25.10    5.10
  -1  -4 -11   16.10    4.50
   1  -4  11   14.20    2.90
   1  -4  11   18.80    4.00
   1  -4  11   17.00    5.60
  -1  -4 -11   18.30    3.40
   1  -4  11   17.60    3.70
  -1   4 -11   22.90    3.70
   1   4  11   15.40    5.70
   1   4  11   17.70    4.10
  -1   4 -11   15.50    5.10
   2  -4  11   34.90    4.20
   2  -4  11   27.20    4.80
   2  -4  11   30.20    5.10
   2  -4  11   29.70    5.30
   2   4  11   29.50    6.10
  -2   4 -11   37.30    5.00
   2   4  11   33.20    8.10
   3  -4  11  118.89    9.90
   3  -4  11  109.19    9.20
   3  -4  11  109.19    9.70
  -3  -4 -11   85.09    8.90
   3   4  11   95.09   10.60
   3   4  11  116.39    9.60
  -3   4 -11  102.29    9.10
   3  -5 -11    4.10    3.60
   3  -5 -11    3.10    2.70
   3  -5 -11    7.90    4.20
   3  -5 -11    6.60    2.80
   3  -5 -11    3.90    3.50
  -3  -5  11    4.70    3.00
   3   5 -11    8.30    5.60
  -3   5  11    3.50    1.70
   3   5 -11    0.50    5.70
  -3   5  11    2.30    3.70
   3   5 -11    5.00    2.50
   2  -5 -11  125.59   12.80
   2  -5 -11  121.19   12.60
   2  -5 -11  121.39   11.70
  -2  -5  11  139.39   13.40
   2   5 -11  132.39   12.90
   2   5 -11   95.79   13.20
   2   5 -11   99.79   11.60
   2   5 -11  113.39   11.80
   1  -5 -11  194.18   20.40
   1  -5 -11  208.08   18.60
  -1  -5  11  248.98   19.80
   1  -5 -11  233.78   20.10
   1  -5 -11  201.48   19.00
  -1  -5  11  202.08   19.30
   1   5 -11  219.78   22.60
  -1   5  11  282.87   23.40
   1   5 -11  234.98   22.30
   0  -5 -11  187.18   15.40
   0  -5  11  163.98   16.10
   0  -5  11  153.18   16.40
   0  -5  11  185.38   17.00
   0  -5 -11  164.88   17.20
   0  -5  11  178.58   16.10
   0   5 -11  188.18   18.50
   0   5 -11  199.08   18.20
   0   5  11  184.38   17.10
   0   5 -11  177.98   18.50
   0   5  11  218.58   19.70
   1  -5  11   63.29    8.70
   1  -5  11   81.29    7.30
   1  -5  11   85.09    9.00
  -1  -5 -11   70.79    9.50
   1  -5  11   77.79    8.60
  -1   5 -11   73.49    9.90
   1   5  11   91.79   13.50
   1   5  11   93.59    9.30
  -1   5 -11   81.29    7.90
   2  -5  11  296.67   23.10
   2  -5  11  277.47   24.00
   2  -5  11  270.67   23.80
   2  -5  11  276.67   23.50
   2   5  11  265.57   26.60
  -2   5 -11  296.27   23.40
   3  -5  11    6.00    2.50
   3  -5  11   10.40    2.00
   3  -5  11   15.10    2.90
   3   5  11    9.50    2.90
   3   5  11   12.60    2.30
   3   5  11    8.80    3.30
  -3  -6  11   30.90    4.90
   3  -6 -11   34.50    4.10
   3  -6 -11   43.50    5.50
   3  -6 -11   18.40    3.70
   3  -6 -11   21.40    4.00
   3  -6 -11   31.80    4.60
   3   6 -11   28.10    5.10
  -3   6  11   22.30    4.20
   3   6 -11   20.70    4.00
   2  -6 -11  368.66   31.10
   2  -6 -11  348.47   31.80
   2  -6 -11  368.66   32.10
  -2  -6  11  435.26   32.00
  -2   6  11  420.86   34.50
   2   6 -11  447.96   34.90
   2   6 -11  371.36   33.50
   2   6 -11  386.16   34.30
  -1  -6  11   44.10    6.60
   1  -6 -11   51.39    5.90
  -1   6  11   48.30    8.50
   1   6 -11   42.80    6.90
   1   6 -11   32.60    6.80
   1   6 -11   56.39    7.90
   0  -6  11  113.69   11.70
   0  -6 -11  121.29   10.80
   0  -6  11  113.29   10.80
   0  -6  11  105.99   10.60
   0  -6 -11   98.29   12.10
   0   6  11  144.79   15.30
   0   6 -11  137.39   13.30
   0   6 -11  126.89   14.20
   1  -6  11   59.39    7.70
   1  -6  11   58.59    6.00
   1  -6  11   62.39    8.40
   1  -6  11   60.49    7.00
  -1   6 -11   75.69    8.60
   1   6  11   65.59   10.50
  -1   6 -11   53.09    8.60
   2  -6  11   17.40    2.60
   2  -6  11   16.00    3.40
   2  -6  11   15.80    3.20
   2  -6  11   13.40    3.40
   2   6  11   15.00    5.50
  -2   6 -11   15.00    3.00
   3  -7 -11   27.00    3.90
   3  -7 -11   25.60    3.50
   3  -7 -11   28.80    4.20
  -3  -7  11   21.60    3.70
   3   7 -11   32.10    5.20
   2  -7 -11  105.19   10.80
  -2  -7  11   97.09    9.80
   2  -7 -11  100.79    9.50
   2   7 -11  119.09   12.30
  -2   7  11   84.79   10.20
   2   7 -11   98.19   11.50
   1  -7 -11  251.57   21.30
   1   7 -11  225.38   22.50
   1   7 -11  303.97   24.00
  -1   7  11  249.97   23.20
   0  -7  11   55.69    6.90
   0  -7 -11   57.99    7.00
   0  -7  11   64.69    7.50
   0  -7  11   56.49    7.50
   0   7  11   68.19   10.00
   0   7 -11   64.59    8.80
   0   7 -11   68.89    8.50
   1  -7  11    4.80    2.80
   1  -7  11    6.60    3.10
   1  -7  11    3.40    3.40
  -1   7 -11    7.30    3.30
   1   7  11    8.50    7.20
   2  -7  11   12.70    3.30
   2  -7  11   19.20    2.50
   2  -7  11   17.60    3.20
   2  -7  11   19.30    3.10
  -2   7 -11   14.70    2.40
   2   7  11   20.30    5.30
  -2   7 -11   27.70    4.00
   2  -8 -11    5.10    2.30
   2  -8 -11    6.00    3.60
   2  -8 -11    3.70    2.20
  -2   8  11    8.90    3.90
   2   8 -11    6.40    3.60
   2   8 -11    6.10    3.60
   1  -8 -11  103.69    9.20
  -1  -8  11   81.39    9.00
   1   8 -11  116.19   12.40
  -1   8  11   92.69   11.00
   1   8 -11  116.49   10.80
   0  -8  11   32.20    5.30
   0  -8  11   37.60    5.10
   0   8  11   39.60    6.80
   0   8 -11   43.90    6.50
   1  -8  11   19.40    3.40
   1  -8  11    9.60    2.90
   1  -8  11   17.60    3.10
  -1   8 -11   16.60    3.80
   1   8  11   18.50    6.60
  -1   8 -11   20.90    3.90
   2  -9 -11   42.80    4.60
  -2   9  11   41.00    6.20
   2   9 -11   50.09    5.60
  -1  -9  11   43.60    5.00
   1  -9 -11   48.00    4.90
   1   9 -11   47.10    5.90
   0  -9  11   49.10    6.10
   0   9 -11   59.89    7.50
   0   9  11   43.10    6.60
   1  -9  11   15.30    2.70
   1  -9  11   11.30    2.20
  -1   9 -11   23.60    3.60
   1   9  11   17.90    4.20
  -1   9 -11   17.70    3.10
   4   0 -12   92.99    8.80
   4   0 -12   94.29    9.90
   4   0 -12   84.69    8.40
   4   0 -12   78.89    8.50
   3   0 -12   73.59    9.90
   3   0 -12   92.89   10.80
   3   0 -12   85.39    9.10
   3   0 -12   70.99    8.80
   2   0 -12    6.30    4.10
   2   0 -12    7.90    5.10
   2   0 -12    8.10    3.50
   2   0 -12    6.70    3.70
   1   0 -12  798.92   64.89
   1   0  12   37.50    6.10
   1   0  12   48.90    5.40
  -1   0 -12   47.30    5.70
   1   0  12   49.00    7.70
  -1   0 -12   43.80    7.00
   2   0  12  121.99   12.90
  -2   0 -12  103.39   10.10
   2   0  12  114.89   10.00
  -2   0 -12  104.29   10.20
   3   0  12    6.00    3.40
  -3   0 -12    4.80    2.20
   3   0  12    4.40    2.00
   3   0  12    3.50    2.10
   4  -1 -12   39.40    4.80
   4  -1 -12   25.10    4.50
   4  -1 -12   43.60    5.70
   4   1 -12   38.50    4.90
   4   1 -12   36.10    4.80
   4   1 -12   38.70    5.40
   3  -1 -12  213.68   17.10
   3  -1 -12  167.38   16.40
  -3  -1  12  151.38   16.00
   3  -1 -12  198.48   17.50
   3  -1 -12  194.78   17.10
   3   1 -12  173.88   17.30
   3   1 -12  198.98   17.90
   3   1 -12  183.88   17.10
   2  -1 -12  201.88   17.40
   2  -1 -12  179.18   17.90
  -2  -1  12  187.08   17.50
   2  -1 -12  155.08   18.20
   2  -1 -12  201.08   17.90
   2   1 -12  196.58   18.50
   2   1 -12  186.98   18.70
  -1  -1  12   65.09    8.30
   1  -1 -12   54.19    7.00
   1  -1 -12   62.69    8.30
   1  -1 -12   68.79    9.50
   1  -1 -12   51.49    8.30
   1   1 -12   57.09    8.50
  -1   1  12   87.49   11.50
   1   1 -12   71.19    9.70
   1   1 -12   56.19    8.70
   0  -1 -12  213.98   21.90
   0  -1  12  245.88   22.20
   0  -1 -12  242.18   20.30
   0  -1  12  240.88   20.20
   0  -1 -12  258.67   21.80
   0   1  12  236.28   23.90
   0   1 -12  273.67   22.80
   0   1  12  248.38   21.10
   0   1 -12  255.67   21.30
   1  -1  12  162.08   15.90
  -1  -1 -12  154.58   14.50
  -1  -1 -12  158.98   13.90
   1  -1  12  137.09   14.20
   1  -1  12  150.68   13.30
  -1   1 -12  150.98   15.00
   1   1  12  157.78   17.20
  -1   1 -12  161.08   13.80
  -1   1 -12  160.38   15.20
   1   1  12  155.18   14.90
   1   1  12  161.48   14.10
   2  -1  12  278.17   20.80
   2  -1  12  258.67   23.80
   2  -1  12  221.98   21.40
  -2  -1 -12  237.88   20.60
  -2  -1 -12  256.87   20.70
  -2   1 -12  255.77   21.80
   2   1  12  273.57   25.00
   2   1  12  260.87   21.60
   3  -1  12   16.90    3.60
   3  -1  12   10.70    2.70
   3  -1  12   15.90    3.20
  -3  -1 -12   12.90    2.60
   3  -1  12    9.20    3.30
   3   1  12   12.90    3.10
   3   1  12    8.60    2.30
  -3   1 -12    9.70    2.70
  -3   1 -12   18.20    2.60
   4  -2 -12   14.10    3.10
   4  -2 -12    9.40    3.20
   4  -2 -12   15.30    2.90
   4   2 -12   28.60    4.40
   4   2 -12   22.20    3.60
   4   2 -12   22.20    3.80
   4   2 -12   21.50    4.10
   3  -2 -12   45.60    6.80
   3  -2 -12   43.70    7.00
   3  -2 -12   33.90    6.10
   3  -2 -12   37.60    6.20
  -3  -2  12   41.00    5.70
   3   2 -12   46.20    7.90
   3   2 -12   33.40    5.10
   3   2 -12   34.10    6.50
  -3   2  12   31.80    4.50
   2  -2 -12  114.49   11.90
  -2  -2  12   99.79   10.60
   2  -2 -12   92.19   11.70
   2  -2 -12   84.39   12.70
   2  -2 -12  109.29   11.00
  -2   2  12  136.89   13.60
   2   2 -12  114.59   11.60
   2   2 -12   96.49   12.10
   2   2 -12   84.29   12.60
  -1  -2  12  124.89   12.50
   1  -2 -12  124.89   13.50
   1  -2 -12  115.89   12.80
   1  -2 -12  124.29   11.50
   1  -2 -12  108.19   13.60
   1   2 -12  124.09   13.00
   1   2 -12  115.09   13.20
   1   2 -12  129.99   14.50
  -1   2  12  164.58   15.60
   0  -2 -12  381.66   34.30
   0  -2  12  415.96   34.40
   0  -2  12  456.45   36.10
   0  -2  12  397.06   33.70
   0  -2 -12  435.56   34.00
   0   2  12  485.75   40.00
   0   2  12  425.56   37.10
   0   2 -12  459.05   37.20
   0   2 -12  479.95   39.10
   0   2 -12  445.86   37.90
   1  -2  12  129.89   12.60
  -1  -2 -12  127.59   11.60
   1  -2  12  131.59   13.90
   1  -2  12  124.89   11.40
  -1   2 -12  102.69   12.40
  -1   2 -12  133.29   12.50
  -1   2 -12  122.89   10.90
   1   2  12  131.59   11.80
   1   2  12  111.49   13.10
   1   2  12  121.59   10.90
   2  -2  12   46.00    6.60
   2  -2  12   50.29    7.80
  -2  -2 -12   49.50    5.80
  -2  -2 -12   48.40    5.50
   2  -2  12   60.29    6.30
   2   2  12   56.19    5.80
  -2   2 -12   54.69    6.20
   2   2  12   52.49    8.60
  -3  -2 -12   42.00    4.60
   3  -2  12   35.50    5.30
   3  -2  12   40.40    4.80
   3  -2  12   39.20    4.50
   3  -2  12   39.30    4.60
   3   2  12   39.50    4.50
  -3   2 -12   40.00    4.60
  -3   2 -12   40.90    4.80
   3   2  12   49.60    6.40
   4  -3 -12   39.50    4.80
   4  -3 -12   35.90    4.10
   4  -3 -12   21.00    3.80
   4  -3 -12   34.80    4.20
   4  -3 -12   27.80    3.70
   4   3 -12   22.00    4.10
  -4   3  12   37.90    4.50
   4   3 -12   31.40    4.20
   3  -3 -12   24.20    4.80
   3  -3 -12   22.70    5.80
   3  -3 -12   20.50    4.20
  -3  -3  12   21.70    4.90
  -3   3  12   32.10    5.90
   3   3 -12   24.60    5.00
   3   3 -12   26.30    7.10
  -2  -3  12  102.39   10.10
   2  -3 -12   89.19    9.60
   2  -3 -12   78.49   10.70
   2  -3 -12   94.19   11.00
   2  -3 -12   94.69   11.00
   2  -3 -12   76.49   11.80
   2   3 -12   81.39   10.50
   2   3 -12   73.09   10.00
   2   3 -12   97.79   10.70
   1  -3 -12  310.07   26.40
  -1  -3  12  352.66   27.90
   1  -3 -12  282.57   28.80
   1  -3 -12  344.37   28.10
   1  -3 -12  307.37   27.50
   1   3 -12  323.27   31.10
  -1   3  12  415.46   31.90
   1   3 -12  343.17   31.60
   1   3 -12  357.36   30.80
   0  -3 -12  344.67   27.00
   0  -3  12  331.07   27.60
   0  -3  12  307.47   26.60
   0  -3 -12  290.17   28.60
   0  -3  12  357.16   28.60
   0   3 -12  345.87   31.20
   0   3 -12  310.77   30.30
   0   3 -12  382.86   30.80
   0   3  12  412.86   32.70
   1  -3  12   25.80    3.60
   1  -3  12   25.00    5.30
  -1  -3 -12   22.80    4.30
   1  -3  12   22.10    4.10
  -1   3 -12   19.00    4.50
   1   3  12   20.50    4.20
   1   3  12   23.00    3.90
   1   3  12   22.30    6.10
   1   3  12   18.60    5.50
  -1   3 -12   24.80    4.70
  -1   3 -12   23.80    3.70
   2  -3  12  109.49   12.50
   2  -3  12  102.69   10.50
   2  -3  12  105.29   11.10
   2  -3  12  139.79   10.40
   2  -3  12  119.89   11.70
  -2   3 -12  129.89   10.80
  -2   3 -12  111.79   11.10
   2   3  12  110.19   13.60
   3  -3  12   17.80    2.40
   3  -3  12   14.00    2.80
   3   3  12   15.80    3.70
   3   3  12   17.20    2.40
  -3   3 -12    9.30    2.10
   3  -4 -12   27.90    4.60
   3  -4 -12   18.30    4.00
  -3  -4  12   21.10    3.90
   3  -4 -12   27.20    5.00
   3   4 -12   21.20    5.70
  -3   4  12   26.90    5.30
   3   4 -12   30.60    5.70
   3   4 -12   15.40    3.40
   2  -4 -12   77.49   10.40
  -2  -4  12   88.59    9.50
   2  -4 -12   73.99    9.10
   2  -4 -12   92.29   10.60
  -2   4  12   94.39   11.60
   2   4 -12   55.29    8.40
   2   4 -12   85.69   10.10
   1  -4 -12   45.00    5.60
   1  -4 -12   46.60    6.30
  -1  -4  12   55.39    7.00
   1  -4 -12   36.20    6.90
   1  -4 -12   35.40    6.90
  -1   4  12   59.99   10.20
   1   4 -12   51.29    7.10
   1   4 -12   41.20    7.30
   1   4 -12   41.60    7.50
   0  -4  12    6.30    2.90
   0  -4 -12    8.10    3.60
   0  -4 -12    3.70    3.20
   0  -4  12    2.00    4.30
   0   4  12    1.10    3.50
   0   4 -12    7.60    5.10
   0   4 -12    6.30    3.60
   0   4  12    7.10    4.60
   0   4 -12    9.70    3.80
   1  -4  12   66.49    8.10
   1  -4  12   82.79    8.30
   1  -4  12   76.09    7.70
  -1  -4 -12   71.39    7.50
   1  -4  12   79.29   10.20
   1   4  12   85.99   11.40
  -1   4 -12   93.39    9.60
   2  -4  12   78.99    7.30
   2  -4  12   70.09    7.30
   2  -4  12   63.09    7.30
   2  -4  12   77.09    8.70
   2   4  12   63.59   10.20
  -2   4 -12   74.09    7.10
  -2   4 -12   72.99    7.60
   3  -5 -12   54.29    6.50
   3  -5 -12   48.50    7.20
  -3  -5  12   63.89    7.20
   3  -5 -12   63.29    7.20
   3   5 -12   61.49    7.50
   3   5 -12   63.39    9.10
  -3   5  12   57.69    8.00
   2  -5 -12   17.40    4.10
   2  -5 -12   15.60    3.40
   2  -5 -12   14.10    4.00
  -2  -5  12   19.00    5.00
   2   5 -12   12.40    4.20
   2   5 -12   25.30    5.60
  -2   5  12   25.20    5.50
   1  -5 -12   62.79    7.70
   1  -5 -12   71.19    7.80
  -1  -5  12   77.19    8.30
   1  -5 -12   50.29    8.30
   1   5 -12   80.89   11.10
  -1   5  12   94.09   11.00
   1   5 -12   74.49    9.20
   0  -5  12  346.47   27.70
   0  -5 -12  329.27   26.90
   0  -5  12  308.87   27.90
   0   5 -12  403.56   32.70
   0   5 -12  349.67   32.80
   0   5  12  412.96   34.70
  -1  -5 -12   49.70    5.80
   1  -5  12   57.29    6.10
   1  -5  12   56.09    6.60
   1  -5  12   53.89    6.70
   1   5  12   65.09    9.90
  -1   5 -12   60.89    7.50
   2  -5  12   75.79    7.00
   2  -5  12   70.39    7.50
   2  -5  12   80.09    7.90
   2  -5  12   76.29    7.80
  -2   5 -12   84.99    8.30
  -2   5 -12   64.89    6.70
   2   5  12   84.59   10.70
   3  -6 -12   43.10    5.50
  -3  -6  12   38.20    4.90
   3  -6 -12   39.80    5.00
  -3   6  12   26.40    4.40
   2  -6 -12   28.90    4.70
   2  -6 -12   26.90    5.50
  -2  -6  12   29.60    4.90
  -2   6  12   28.90    6.80
   2   6 -12   26.40    5.10
   2   6 -12   40.20    6.40
  -1  -6  12  216.68   20.00
   1  -6 -12  248.48   19.50
   1   6 -12  298.27   25.50
  -1   6  12  270.47   25.90
   0  -6  12  110.39   10.10
   0  -6 -12  105.49    9.50
   0  -6  12   87.19   10.30
   0   6 -12  125.99   13.20
   0   6  12  122.79   14.00
   0   6 -12  124.29   12.10
   1  -6  12   29.50    4.30
   1  -6  12   24.00    3.90
   1  -6  12   19.80    2.90
   1   6  12   37.50    7.30
  -1   6 -12   28.90    4.90
  -1   6 -12   36.50    5.30
   2  -6  12    7.80    1.80
   2  -6  12    8.90    2.40
   2  -6  12    5.30    2.40
   2  -6  12    6.30    2.10
   2   6  12    7.40    4.10
  -2   6 -12   11.20    3.00
   2  -7 -12   35.90    4.90
   2  -7 -12   37.40    4.50
  -2  -7  12   27.70    4.50
  -2   7  12   29.30    5.30
   2   7 -12   28.50    5.60
   2   7 -12   41.50    5.80
   1  -7 -12   32.00    4.70
   1   7 -12   32.30    5.20
  -1   7  12   40.50    6.80
   1   7 -12   49.60    6.70
   0  -7  12  141.99   12.20
   0  -7  12  123.69   11.90
   0  -7 -12  138.79   11.80
   0   7 -12  156.38   14.30
   0   7  12  170.08   17.00
   0   7 -12  156.38   14.90
   1  -7  12   14.60    3.00
   1  -7  12   15.20    3.20
  -1   7 -12    8.60    2.90
  -1   7 -12   20.80    3.70
   1   7  12   11.10    4.80
   2  -8 -12   10.30    2.20
   2   8 -12   23.90    4.00
   1  -8 -12    7.80    3.00
   1   8 -12    9.30    3.50
  -1   8  12    6.60    3.20
   1   8 -12    3.50    2.50
   0  -8  12   50.49    5.70
   0  -8  12   57.69    5.70
   0   8  12   61.89    8.50
   0   8 -12   70.79    7.20
   0   8 -12   85.09    8.10
   1  -8  12   48.10    5.20
   1  -8  12   45.70    4.90
  -1   8 -12   56.89    5.80
  -1   8 -12   53.79    6.00
   0   9 -12   12.40    2.90
   3   0 -13   70.49    9.60
   3   0 -13   71.69    8.20
   3   0 -13   55.79    7.20
   3   0 -13   72.39    8.20
   2   0 -13   46.50    7.60
   2   0 -13   43.70    7.60
  -2   0  13   54.69    8.50
   2   0 -13   50.39    7.70
   1   0 -13  100.09   10.10
   1   0 -13   79.49    8.60
  -1   0  13   92.09   11.10
   0   0 -13   -1.20    2.20
   0   0  13    2.00    2.10
   0   0 -13   -0.20    4.00
   0   0  13    1.60    3.60
   0   0 -13    1.50    2.60
   1   0  13  145.19   15.30
  -1   0 -13  140.69   13.50
   1   0  13  164.38   13.50
  -2   0 -13   42.60    4.70
  -2   0 -13   32.10    4.60
   2   0  13   35.70    4.40
   2   0  13   44.50    7.00
   3  -1 -13    8.30    3.70
   3  -1 -13    4.90    3.50
   3  -1 -13    6.80    3.90
   3   1 -13    4.90    3.10
  -3   1  13    7.20    5.20
   3   1 -13    7.00    2.80
   3   1 -13    8.40    4.00
   2  -1 -13    5.00    4.90
   2  -1 -13   10.10    4.60
   2  -1 -13   16.00    4.50
  -2  -1  13    7.90    4.40
   2   1 -13    9.70    5.30
  -2   1  13   22.50    6.10
   2   1 -13   14.80    4.50
  -1  -1  13    2.90    3.40
   1  -1 -13    6.00    6.10
   1  -1 -13    3.40    3.40
   1  -1 -13   -0.40    4.00
   1   1 -13    2.30    3.30
   1   1 -13   -0.20    3.90
   1   1 -13    6.90    4.70
   0  -1 -13  149.59   12.80
   0  -1  13  138.39   12.90
   0  -1 -13  142.29   13.50
   0  -1  13  142.59   15.30
   0   1  13  126.09   13.80
   0   1 -13  127.59   13.50
   0   1  13  142.99   12.20
   0   1 -13  139.49   13.10
   0   1 -13  146.69   12.70
  -1  -1 -13   68.89    7.00
   1  -1  13   66.29    9.40
   1  -1  13   66.99    6.90
  -1   1 -13   61.39    6.70
   1   1  13   63.69   10.40
   1   1  13   69.59    6.60
  -1   1 -13   55.79    7.20
   2  -1  13   -1.00    3.40
  -2  -1 -13   -1.40    1.80
   2  -1  13    1.40    1.80
  -2   1 -13   -1.30    2.00
   2   1  13   -1.90    1.60
  -2   1 -13    0.60    2.10
   2   1  13    0.30    3.50
   3  -2 -13    4.40    3.30
   3  -2 -13    2.20    2.60
   3  -2 -13    1.30    4.10
  -3  -2  13    4.40    2.40
   3   2 -13    0.50    5.00
  -3   2  13    7.50    3.70
   3   2 -13    4.20    3.00
   2  -2 -13  102.29   12.20
  -2  -2  13  108.89   11.70
   2  -2 -13  102.79   11.80
   2  -2 -13  113.89   12.00
  -2   2  13  136.89   13.90
   2   2 -13  119.09   12.40
   2   2 -13  108.69   13.50
  -1  -2  13   76.89    9.40
   1  -2 -13   73.39    9.00
   1  -2 -13   88.49    8.70
   1  -2 -13   81.69    9.40
  -1   2  13   85.39   10.30
   1   2 -13   75.69    9.60
   1   2 -13   93.69    9.80
   0  -2 -13  107.99   11.50
   0  -2  13  113.39   12.10
   0  -2  13  100.39    9.90
   0  -2 -13  124.39   10.90
   0   2 -13   91.99   11.00
   0   2 -13  113.59   11.70
   0   2  13  101.79   12.20
   0   2 -13  112.69    9.80
  -1  -2 -13   11.90    3.70
   1  -2  13   15.40    3.30
   1  -2  13   17.80    3.40
   1  -2  13   10.40    4.40
  -1   2 -13   18.10    4.10
   1   2  13   13.20    3.50
   1   2  13   15.90    5.70
  -1   2 -13   13.40    4.00
   2  -2  13   93.49    7.80
  -2  -2 -13   80.29    7.70
   2  -2  13   80.49    9.30
   2  -2  13   80.39    8.60
   2   2  13   92.59   10.40
  -2   2 -13   97.09    8.50
  -2   2 -13   88.89    8.40
  -3  -3  13    0.00    2.20
   3  -3 -13   -1.60    3.10
   3  -3 -13    0.90    2.50
   3  -3 -13    3.60    3.80
   3   3 -13   -2.20    4.80
   3   3 -13    0.20    3.80
  -3   3  13    0.90    3.40
   2  -3 -13   22.90    4.80
   2  -3 -13   28.50    4.10
   2  -3 -13   30.90    5.30
  -2  -3  13   30.40    5.10
   2   3 -13   24.60    5.50
  -2   3  13   34.30    6.20
   2   3 -13   17.30    5.60
   1  -3 -13   79.69    8.30
   1  -3 -13   65.59    9.90
  -1  -3  13   78.99    9.00
   1  -3 -13   70.59    8.40
  -1   3  13   82.59   11.40
   1   3 -13   86.89    9.40
   1   3 -13   74.39    9.40
   0  -3  13  195.28   19.00
   0  -3 -13  234.48   19.40
   0  -3  13  241.68   20.30
   0  -3  13  250.77   21.60
   0   3  13  236.98   22.30
   0   3 -13  234.28   20.40
   0   3 -13  260.17   21.80
   1  -3  13   13.10    3.80
   1  -3  13   11.10    4.00
   1  -3  13   13.60    3.20
  -1  -3 -13   17.60    3.70
   1   3  13   11.10    5.20
  -1   3 -13   21.50    5.00
   2  -3  13   55.79    6.00
   2  -3  13   63.19    5.50
   2  -3  13   43.60    6.50
  -2   3 -13   45.10    4.70
  -2   3 -13   59.49    5.30
  -2   3 -13   56.79    5.70
   2   3  13   35.20    6.40
  -3  -4  13   77.29    7.70
   3  -4 -13   71.79    7.40
   3  -4 -13   85.89    8.10
   3  -4 -13   54.09    7.30
   3   4 -13   50.89    6.70
  -3   4  13   57.29    7.00
   3   4 -13   77.49    7.90
  -2  -4  13    5.70    3.20
   2  -4 -13    7.80    3.50
   2  -4 -13    7.20    4.30
   2  -4 -13    9.70    2.80
   2   4 -13   10.30    5.70
   2   4 -13    7.20    3.30
  -2   4  13    9.50    6.00
   1  -4 -13   76.59    7.40
   1  -4 -13   61.49    7.90
  -1  -4  13   72.59    8.60
   1   4 -13   69.39    9.00
  -1   4  13   77.99   10.00
   1   4 -13   80.19    9.70
   0  -4  13   45.90    6.80
   0  -4 -13   47.20    5.50
   0  -4  13   40.80    6.20
   0   4 -13   63.99    8.40
   0   4  13   44.70    7.60
   0   4 -13   47.40    6.80
   1  -4  13   20.60    5.30
   1  -4  13   17.80    4.10
   1  -4  13   19.70    3.00
  -1  -4 -13   18.90    3.30
   1  -4  13   22.90    4.60
   1   4  13   21.70    5.60
  -1   4 -13   23.30    5.30
   2  -4  13   28.40    3.20
   2  -4  13   22.30    3.40
   2  -4  13   18.00    3.10
  -2   4 -13   28.90    4.10
   2   4  13   25.10    4.40
  -3  -5  13    8.90    2.40
   3  -5 -13   12.40    3.10
   3  -5 -13    8.90    2.70
   3   5 -13   22.90    3.90
   3   5 -13   20.60    4.00
   2  -5 -13   27.00    4.60
   2  -5 -13   19.10    3.40
  -2  -5  13   19.50    4.00
  -2   5  13   18.50    4.80
   2   5 -13   15.60    3.80
   2   5 -13   20.80    4.90
  -1  -5  13   41.60    6.30
   1  -5 -13   50.09    5.40
   1  -5 -13   34.50    5.40
  -1   5  13   47.60    7.80
   1   5 -13   45.60    6.30
   1   5 -13   40.10    7.10
   0  -5  13   30.70    5.10
   0  -5  13   26.30    4.80
   0  -5 -13   34.20    4.70
   0   5  13   45.30    7.50
   0   5 -13   34.20    6.30
   0   5 -13   35.90    5.70
   1  -5  13   28.30    3.20
  -1  -5 -13   27.20    3.40
   1  -5  13   18.20    3.40
   1  -5  13   17.70    3.30
  -1   5 -13   25.30    5.30
   1   5  13   29.20    7.30
   2  -5  13    4.10    2.10
   2  -5  13    5.10    1.90
   2  -5  13    2.70    1.50
  -2   5 -13    7.90    2.50
   2   5  13    1.70    3.10
   2  -6 -13   22.90    3.40
   2  -6 -13   18.30    3.80
  -2   6  13   17.70    4.10
   2   6 -13   15.30    5.20
   2   6 -13    9.10    3.10
  -1  -6  13    0.80    3.30
   1  -6 -13    3.40    2.20
  -1   6  13    2.10    3.80
   1   6 -13    5.30    4.50
   0  -6 -13   56.49    6.60
   0  -6  13   57.89    6.40
   0   6 -13   63.39    7.00
   0   6  13   55.59    8.60
   0   6 -13   60.69    7.30
   1  -6  13   54.29    5.20
   1  -6  13   51.69    6.40
   1  -6  13   60.99    6.00
  -1   6 -13   70.19    6.90
  -1   6 -13   57.99    5.70
   1   6  13   57.59    8.10
   2  -7 -13    5.10    2.10
   2  -7 -13   -0.80    1.80
  -2  -7  13    0.40    1.70
  -2   7  13    3.80    2.60
   2   7 -13    2.30    2.50
   2   7 -13    4.30    2.40
   1  -7 -13   30.20    3.90
   1   7 -13   23.20    4.30
  -1   7  13   22.00    4.70
   0  -7  13   51.19    5.90
   0  -7 -13   70.39    5.90
   0   7  13   78.39    9.00
   0   7 -13   73.99    8.70
   1  -7  13   41.20    4.50
   1  -7  13   38.80    4.40
  -1   7 -13   49.80    5.20
   1   7  13   42.90    6.30
  -1   8  13   11.40    3.00
   1   8 -13    9.90    2.80
   0  -8  13    8.00    1.90
   0   8 -13  108.89   10.00
   3   0 -14    2.20    2.00
   3   0 -14    1.60    2.70
   3   0 -14    1.70    2.90
  -3   0  14    1.50    2.40
   2   0 -14  126.29   12.20
   2   0 -14  118.29   12.00
  -1   0  14  294.27   27.10
   1   0 -14  326.67   26.10
   1   0 -14  339.77   27.60
   0   0  14   44.40    5.30
   0   0 -14   49.00    5.60
   0   0 -14   51.59    6.60
   0   0  14   46.70    7.50
  -1   0 -14  144.29   12.50
   1   0  14  143.29   12.40
   1   0  14  130.59   13.90
  -2   0 -14    6.30    1.90
   2   0  14    4.50    1.70
   2   0  14    5.80    4.30
   3  -1 -14   36.10    5.80
   3  -1 -14   47.20    5.90
   3  -1 -14   46.50    5.80
   3   1 -14   49.40    6.40
  -3   1  14   46.00    6.50
   2  -1 -14   66.99    7.70
   2  -1 -14   52.49    6.70
   2  -1 -14   55.49    7.00
  -2  -1  14   54.39    6.70
  -2   1  14   64.99    7.80
   2   1 -14   58.99    8.00
   2   1 -14   76.49    8.30
   1  -1 -14   42.80    6.90
   1  -1 -14   56.09    6.40
  -1  -1  14   44.30    6.90
   1   1 -14   44.50    6.60
   1   1 -14   56.59    7.70
   0  -1  14  101.49   11.90
   0  -1 -14   89.39    9.80
   0  -1 -14  110.59    9.70
   0  -1  14   88.49    9.20
   0   1 -14   95.99   10.00
   0   1  14   92.79   11.40
   0   1 -14  100.89    9.60
   1  -1  14   43.60    7.20
  -1  -1 -14   45.60    5.20
   1  -1  14   46.00    5.10
  -1   1 -14   44.20    5.10
   1   1  14   48.00    7.20
   1   1  14   43.30    5.00
  -1   1 -14   41.10    5.70
   2  -1  14    2.50    2.80
   2  -1  14    5.00    1.70
  -2  -1 -14    1.90    1.70
  -2   1 -14    4.80    1.90
   2   1  14    2.00    2.80
   3  -2 -14   30.40    4.60
  -3  -2  14   26.70    4.00
   3  -2 -14   35.00    4.80
   3  -2 -14   33.00    4.40
  -3   2  14   35.40    4.80
   3   2 -14   30.30    4.20
   3   2 -14   36.50    5.30
   2  -2 -14   -0.40    2.60
   2  -2 -14   -0.10    3.20
  -2  -2  14    3.00    2.80
   2  -2 -14    0.90    2.60
   2   2 -14    3.50    3.40
   2   2 -14    5.30    3.50
  -2   2  14    0.20    3.40
   1  -2 -14   21.60    4.40
   1  -2 -14   16.60    4.00
  -1  -2  14   14.10    4.20
   1   2 -14   15.30    4.10
  -1   2  14   17.20    5.90
   1   2 -14   24.10    5.80
   0  -2  14  118.19   12.70
   0  -2  14  100.59    9.80
   0  -2 -14  105.39   10.80
   0  -2 -14  123.59   10.30
   0   2 -14  130.89   12.00
   0   2 -14  135.49   13.30
  -1  -2 -14   27.70    3.80
   1  -2  14   28.20    4.10
   1  -2  14   38.30    6.20
   1   2  14   32.90    5.70
  -1   2 -14   36.80    4.80
  -1   2 -14   37.50    5.60
  -2  -2 -14    2.20    1.40
   2  -2  14    4.10    1.60
   2  -2  14    3.30    2.50
   2   2  14    1.90    2.60
  -2   2 -14    5.20    1.70
   3  -3 -14   44.30    5.00
  -3  -3  14   36.50    4.50
  -3   3  14   49.60    6.00
   3   3 -14   63.69    6.00
  -2  -3  14    5.50    2.80
   2  -3 -14    9.80    4.50
   2  -3 -14    5.40    2.30
   2  -3 -14    8.50    4.00
   2   3 -14    6.70    3.70
  -2   3  14    8.50    5.10
   2   3 -14    9.50    3.50
   1  -3 -14   34.50    5.20
   1  -3 -14   30.90    4.90
  -1  -3  14   35.10    6.00
   1   3 -14   40.10    5.90
  -1   3  14   38.30    7.40
   1   3 -14   40.20    6.60
   0  -3  14  105.39   11.80
   0  -3  14   96.49    9.00
   0  -3 -14  111.09   10.00
   0   3 -14  109.49   11.10
   0   3 -14   94.69    9.00
   0   3  14   99.29   10.90
   1  -3  14  202.08   15.40
   1  -3  14  165.58   16.50
  -1  -3 -14  185.78   15.40
  -1   3 -14  209.28   16.50
  -1   3 -14  206.48   15.80
   1   3  14  156.88   16.70
   2  -3  14   34.40    4.70
   2  -3  14   48.90    4.10
   2   3  14   19.00    3.30
   2  -4 -14   78.49    8.70
  -2  -4  14   72.69    7.70
   2  -4 -14   69.99    7.00
  -2   4  14   80.89    9.80
   2   4 -14   86.89    9.20
   1  -4 -14   55.89    5.70
   1  -4 -14   48.20    6.20
  -1  -4  14   47.80    6.70
  -1   4  14   59.19    8.00
   1   4 -14   56.79    7.10
   1   4 -14   53.89    7.20
   0  -4 -14    5.60    3.20
   0  -4  14   10.20    3.60
   0   4 -14    4.70    3.80
   0   4  14    9.40    4.40
   0   4 -14    7.20    3.50
   1  -4  14    6.80    2.30
  -1  -4 -14    7.20    2.00
   1  -4  14    4.50    2.70
   1  -4  14    3.60    1.50
   1   4  14    2.90    3.60
  -1   4 -14   10.40    3.20
  -1   4 -14    7.80    2.10
   2  -5 -14    7.30    3.00
   2  -5 -14    4.20    2.10
  -2  -5  14    3.70    2.30
  -2   5  14    4.60    3.10
   2   5 -14    7.10    3.20
   1  -5 -14   40.40    4.50
  -1  -5  14   29.90    5.00
   1   5 -14   37.00    4.90
  -1   5  14   29.70    5.60
   1   5 -14   26.80    5.60
   0  -5  14   46.60    6.00
   0  -5 -14   51.29    5.30
   0   5 -14   53.79    6.30
   0   5 -14   53.09    6.30
   0   5  14   50.29    7.30
  -1  -5 -14    6.90    1.80
   1  -5  14    3.20    1.30
   1  -5  14    5.30    2.10
  -1   5 -14    5.50    1.70
   1   5  14    8.90    4.70
  -1   5 -14    6.60    2.70
   2  -6 -14   10.90    3.10
  -1  -6  14   40.00    4.90
  -1   6  14   46.80    6.20
   1   6 -14   44.10    5.80
   0  -6 -14   14.30    2.40
   0   6 -14   18.00    3.30
   0   6 -14   17.20    3.40
   0   6  14   18.10    4.30
   2   0 -15    0.80    4.20
   2   0 -15    0.40    2.50
  -1   0  15    1.60    2.50
   1   0 -15   -0.70    1.90
   1   0 -15    2.60    3.00
   0   0 -15   50.99    6.20
   0   0  15   45.60    6.60
   0   0 -15   50.69    5.30
  -1   0 -15   28.60    3.50
   1   0  15   26.70    4.80
   2  -1 -15   36.20    5.10
   2  -1 -15   24.60    4.10
   2   1 -15   21.60    3.70
  -2   1  15   14.10    3.40
   2   1 -15   19.80    3.90
   1  -1 -15   15.60    3.00
  -1  -1  15   16.50    4.50
   1  -1 -15   27.70    4.50
   1   1 -15   18.80    5.10
   0  -1  15   66.59    9.40
   0  -1 -15   78.29    7.50
   0  -1 -15   74.29    7.60
   0   1 -15   75.69    7.70
   0   1 -15   82.89    8.40
   1  -1  15    2.40    2.20
  -1  -1 -15    2.00    1.80
   1  -1  15    3.70    3.00
  -1   1 -15   -1.70    2.40
  -1   1 -15    1.50    2.40
   1   1  15    1.00    2.70
   2  -2 -15   17.60    3.80
  -2  -2  15   13.50    3.00
   2   2 -15   20.20    4.00
  -2   2  15   18.30    3.70
   2   2 -15   20.70    4.00
   1  -2 -15   -0.40    1.90
  -1  -2  15    1.20    2.50
   1  -2 -15    1.90    2.70
  -1   2  15    2.70    3.20
   1   2 -15    1.70    2.60
   1   2 -15   -1.30    3.10
   0  -2 -15   17.30    3.50
   0  -2  15   13.20    3.70
   0   2 -15   15.50    2.70
   0   2 -15   17.10    3.70
   1  -2  15    1.70    1.50
   1  -2  15    4.20    2.60
  -1  -2 -15    1.60    2.40
   1   2  15    2.70    2.60
  -1   2 -15    4.60    1.80
  -1   2 -15    1.60    3.10
  -2  -3  15    2.30    2.10
   2  -3 -15    8.20    2.90
  -2   3  15    3.90    2.70
   2   3 -15    7.10    2.80
   2   3 -15    4.90    2.90
   1  -3 -15   38.50    3.90
   1  -3 -15   27.50    4.20
  -1  -3  15   16.10    4.50
  -1   3  15   24.90    4.60
   1   3 -15   33.50    5.40
   1   3 -15   19.30    3.80
   0  -3  15   35.40    5.70
   0  -3 -15   49.70    4.80
   0   3 -15   41.90    5.40
   1  -3  15   75.39    6.20
   1  -3  15   63.59    7.20
  -1   3 -15   77.79    6.80
  -1   3 -15   73.59    7.30
   2  -4 -15   21.40    3.10
  -2  -4  15   35.40    4.00
  -2   4  15   36.70    4.90
   1  -4 -15    7.60    2.80
  -1  -4  15    8.40    2.70
   1  -4 -15    4.00    2.40
  -1   4  15    8.30    4.50
   1   4 -15    7.40    2.90
   1   4 -15    9.40    2.80
   0  -4  15   44.30    5.90
   0  -4 -15   58.29    5.20
   0   4  15   29.80    4.80
  -1  -5  15   18.20    3.10
   1   5 -15    8.50    2.80
  -1   5  15   12.30    3.00
   1   5 -15   14.60    3.50
   0  -5  15   16.40    2.90
   0  -5 -15   15.60    2.40
   0   5 -15   24.50    3.30
   0   5  15   13.90    3.30
   1   0 -16   11.20    3.00
  -1   0  16    0.60    2.00
   0   0 -16   42.80    4.80
   0   0 -16   44.20    5.00
  -1  -1  16   62.09    6.40
   1   1 -16   99.29    9.30
   0  -1  16  102.69   10.40
   0  -1 -16  130.29    9.80
   0  -1 -16  109.59   10.00
   0   1  16   61.29    6.30
  -1  -2  16    0.60    1.90
   1  -2 -16    2.10    2.30
   1  -2 -16   -0.60    1.50
   1   2 -16    2.20    2.40
   0  -2 -16   63.59    5.90
   0   2 -16   47.10    5.30
   0   2 -16   49.90    4.60
   0   0   0    0.00    0.00

_computing_structure_solution     'SHELXT 2014/5 (Sheldrick, 2014)'
;
_shelx_hkl_checksum              19124
loop_
_space_group_symop_operation_xyz
'x, y, z'
'-x, y+1/2, -z'
loop_
_atom_site_label
_atom_site_type_symbol
_atom_site_fract_x
_atom_site_fract_y
_atom_site_fract_z
_atom_site_U_iso_or_equiv
_atom_site_adp_type
_atom_site_occupancy
_atom_site_site_symmetry_order
_atom_site_calc_flag
_atom_site_refinement_flags_posn
_atom_site_refinement_flags_adp
_atom_site_refinement_flags_occupancy
_atom_site_disorder_assembly
_atom_site_disorder_group
O1 O 0.6858(4) 0.5547(2) 0.39601(16) 0.0221(5) Uani 1 1 d . . . . .
O2 O -0.1242(5) 0.3702(2) 0.20838(17) 0.0236(5) Uani 1 1 d . . . . .
O3 O -0.0027(6) 0.2903(2) 0.0737(2) 0.0372(7) Uani 1 1 d . . . . .
N1 N 0.2450(6) 0.5243(2) 0.30486(19) 0.0172(6) Uani 1 1 d . . . . .
H1 H 0.065(10) 0.502(4) 0.314(3) 0.026 Uiso 1 1 d . U . . .
N2 N 0.2733(6) 0.5533(3) 0.47164(19) 0.0191(6) Uani 1 1 d . . . . .
H2 H 0.089(10) 0.551(4) 0.464(3) 0.029 Uiso 1 1 d . U . . .
N3 N 0.0219(6) 0.3703(2) 0.13853(19) 0.0213(6) Uani 1 1 d . . . . .
C1 C 0.4192(6) 0.5457(3) 0.3933(2) 0.0162(6) Uani 1 1 d . . . . .
C2 C 0.3345(6) 0.5390(3) 0.2114(2) 0.0162(6) Uani 1 1 d . . . . .
C3 C 0.2281(6) 0.4677(3) 0.1292(2) 0.0178(6) Uani 1 1 d . . . . .
C4 C 0.3162(7) 0.4854(3) 0.0364(2) 0.0234(7) Uani 1 1 d . . . . .
H4 H 0.242205 0.435037 -0.017094 0.028 Uiso 1 1 calc R U . . .
C5 C 0.5108(7) 0.5759(4) 0.0214(2) 0.0264(7) Uani 1 1 d . . . . .
H5 H 0.568687 0.589318 -0.042507 0.032 Uiso 1 1 calc R U . . .
C6 C 0.6215(7) 0.6473(3) 0.1009(3) 0.0231(7) Uani 1 1 d . . . . .
H6 H 0.758278 0.709045 0.091443 0.028 Uiso 1 1 calc R U . . .
C7 C 0.5343(6) 0.6294(3) 0.1938(2) 0.0193(6) Uani 1 1 d . . . . .
H7 H 0.611918 0.679565 0.246896 0.023 Uiso 1 1 calc R U . . .
C8 C 0.4165(6) 0.5739(3) 0.5719(2) 0.0180(6) Uani 1 1 d . . . . .
H8 H 0.605742 0.529732 0.578072 0.022 Uiso 1 1 calc R U . . .
C9 C 0.2298(6) 0.5176(3) 0.6450(2) 0.0166(6) Uani 1 1 d . . . . .
C10 C 0.1258(7) 0.3996(3) 0.6295(2) 0.0198(7) Uani 1 1 d . . . . .
H10 H 0.174023 0.355154 0.573912 0.024 Uiso 1 1 calc R U . . .
C11 C -0.0469(7) 0.3465(3) 0.6944(2) 0.0228(7) Uani 1 1 d . . . . .
H11 H -0.117837 0.266569 0.682696 0.027 Uiso 1 1 calc R U . . .
C12 C -0.1159(7) 0.4103(3) 0.7764(2) 0.0242(7) Uani 1 1 d . . . . .
H12 H -0.234888 0.374420 0.820811 0.029 Uiso 1 1 calc R U . . .
C13 C -0.0106(7) 0.5261(3) 0.7929(2) 0.0237(7) Uani 1 1 d . . . . .
H13 H -0.056033 0.569724 0.849277 0.028 Uiso 1 1 calc R U . . .
C14 C 0.1609(6) 0.5795(3) 0.7279(2) 0.0197(6) Uani 1 1 d . . . . .
H14 H 0.231998 0.659373 0.740351 0.024 Uiso 1 1 calc R U . . .
C15 C 0.4812(8) 0.7081(3) 0.5884(2) 0.0281(8) Uani 1 1 d . . . . .
H15A H 0.597460 0.737579 0.537546 0.042 Uiso 1 1 calc R U . . .
H15B H 0.589151 0.719711 0.653833 0.042 Uiso 1 1 calc R U . . .
H15C H 0.298723 0.753409 0.584546 0.042 Uiso 1 1 calc R U . . .
loop_
_atom_site_aniso_label
_atom_site_aniso_U_11
_atom_site_aniso_U_22
_atom_site_aniso_U_33
_atom_site_aniso_U_23
_atom_site_aniso_U_13
_atom_site_aniso_U_12
O1 0.0083(11) 0.0373(14) 0.0208(11) 0.0011(10) 0.0019(7) -0.0005(9)
O2 0.0190(12) 0.0232(12) 0.0292(12) 0.0007(9) 0.0047(9) -0.0027(8)
O3 0.0515(18) 0.0232(13) 0.0367(15) -0.0144(11) 0.0042(12) -0.0080(11)
N1 0.0082(12) 0.0238(14) 0.0199(13) 0.0022(10) 0.0027(9) -0.0002(9)
N2 0.0061(13) 0.0310(15) 0.0198(13) 0.0020(11) -0.0005(9) 0.0016(10)
N3 0.0215(14) 0.0173(13) 0.0247(14) -0.0029(11) 0.0005(10) 0.0014(10)
C1 0.0101(15) 0.0168(15) 0.0218(15) 0.0016(11) 0.0020(10) 0.0011(10)
C2 0.0116(14) 0.0183(14) 0.0189(14) 0.0002(12) 0.0032(10) 0.0055(10)
C3 0.0151(16) 0.0158(14) 0.0220(15) -0.0007(12) -0.0002(11) 0.0016(11)
C4 0.0239(17) 0.0263(18) 0.0206(16) -0.0019(13) 0.0051(12) 0.0064(13)
C5 0.0249(17) 0.0343(19) 0.0210(16) 0.0010(14) 0.0076(13) 0.0062(14)
C6 0.0160(17) 0.0250(17) 0.0290(17) 0.0029(13) 0.0055(12) 0.0005(11)
C7 0.0139(15) 0.0206(15) 0.0235(16) 0.0020(12) 0.0026(11) 0.0002(12)
C8 0.0120(14) 0.0231(16) 0.0185(14) 0.0005(12) -0.0003(10) 0.0005(11)
C9 0.0080(14) 0.0194(15) 0.0217(15) 0.0012(12) -0.0015(10) 0.0031(10)
C10 0.0174(16) 0.0163(15) 0.0256(16) -0.0013(12) 0.0020(12) 0.0032(11)
C11 0.0185(16) 0.0185(16) 0.0309(17) 0.0045(13) 0.0009(12) 0.0001(12)
C12 0.0169(16) 0.0310(18) 0.0253(17) 0.0084(14) 0.0049(12) -0.0017(12)
C13 0.0238(17) 0.0282(17) 0.0198(16) -0.0028(13) 0.0048(12) 0.0007(13)
C14 0.0174(15) 0.0192(14) 0.0226(15) 0.0001(12) 0.0021(11) 0.0001(11)
C15 0.032(2) 0.0268(19) 0.0261(17) 0.0023(14) 0.0061(14) -0.0116(14)
loop_
_atom_type_symbol
_atom_type_description
_atom_type_scat_dispersion_real
_atom_type_scat_dispersion_imag
_atom_type_scat_source
C C 0.0181 0.0091 'International Tables Vol C Tables 4.2.6.8 and 6.1.1.4'
H H 0.0000 0.0000 'International Tables Vol C Tables 4.2.6.8 and 6.1.1.4'
N N 0.0311 0.0180 'International Tables Vol C Tables 4.2.6.8 and 6.1.1.4'
O O 0.0492 0.0322 'International Tables Vol C Tables 4.2.6.8 and 6.1.1.4'
loop_
_exptl_crystal_face_index_h
_exptl_crystal_face_index_k
_exptl_crystal_face_index_l
_exptl_crystal_face_perp_dist
0.00 1.00 1.00 0.0170
0.00 1.00 0.00 0.0170
0.00 -1.00 0.00 0.0410
1.00 0.00 0.00 0.3220
-1.00 0.00 0.00 0.5100
0.00 0.00 1.00 0.0130
0.00 0.00 -1.00 0.0170
loop_
_geom_angle_atom_site_label_1
_geom_angle_atom_site_label_2
_geom_angle_atom_site_label_3
_geom_angle
_geom_angle_site_symmetry_1
_geom_angle_site_symmetry_3
_geom_angle_publ_flag
C2 N1 C1 124.5(2) . . ?
C2 N1 H1 123(3) . . ?
C1 N1 H1 113(3) . . ?
C1 N2 C8 122.6(3) . . ?
C1 N2 H2 120(3) . . ?
C8 N2 H2 118(3) . . ?
O2 N3 O3 122.3(3) . . ?
O2 N3 C3 119.6(2) . . ?
O3 N3 C3 118.2(3) . . ?
O1 C1 N2 124.7(3) . . ?
O1 C1 N1 121.4(3) . . ?
N2 C1 N1 114.0(3) . . ?
N1 C2 C7 120.7(3) . . ?
N1 C2 C3 123.1(3) . . ?
C7 C2 C3 116.2(3) . . ?
C4 C3 C2 122.1(3) . . ?
C4 C3 N3 116.7(3) . . ?
C2 C3 N3 121.2(3) . . ?
C5 C4 C3 120.3(3) . . ?
C5 C4 H4 119.9 . . ?
C3 C4 H4 119.9 . . ?
C4 C5 C6 119.1(3) . . ?
C4 C5 H5 120.4 . . ?
C6 C5 H5 120.4 . . ?
C7 C6 C5 120.6(3) . . ?
C7 C6 H6 119.7 . . ?
C5 C6 H6 119.7 . . ?
C6 C7 C2 121.7(3) . . ?
C6 C7 H7 119.2 . . ?
C2 C7 H7 119.2 . . ?
N2 C8 C9 108.2(2) . . ?
N2 C8 C15 110.4(3) . . ?
C9 C8 C15 114.7(3) . . ?
N2 C8 H8 107.7 . . ?
C9 C8 H8 107.7 . . ?
C15 C8 H8 107.7 . . ?
C14 C9 C10 118.3(3) . . ?
C14 C9 C8 122.0(3) . . ?
C10 C9 C8 119.6(3) . . ?
C11 C10 C9 120.8(3) . . ?
C11 C10 H10 119.6 . . ?
C9 C10 H10 119.6 . . ?
C12 C11 C10 120.0(3) . . ?
C12 C11 H11 120.0 . . ?
C10 C11 H11 120.0 . . ?
C13 C12 C11 119.5(3) . . ?
C13 C12 H12 120.3 . . ?
C11 C12 H12 120.3 . . ?
C12 C13 C14 120.6(3) . . ?
C12 C13 H13 119.7 . . ?
C14 C13 H13 119.7 . . ?
C13 C14 C9 120.7(3) . . ?
C13 C14 H14 119.7 . . ?
C9 C14 H14 119.7 . . ?
C8 C15 H15A 109.5 . . ?
C8 C15 H15B 109.5 . . ?
H15A C15 H15B 109.5 . . ?
C8 C15 H15C 109.5 . . ?
H15A C15 H15C 109.5 . . ?
H15B C15 H15C 109.5 . . ?
loop_
_geom_bond_atom_site_label_1
_geom_bond_atom_site_label_2
_geom_bond_distance
_geom_bond_site_symmetry_2
_geom_bond_publ_flag
O1 C1 1.238(4) . ?
O2 N3 1.228(4) . ?
O3 N3 1.245(4) . ?
N1 C2 1.392(4) . ?
N1 C1 1.394(4) . ?
N1 H1 0.89(5) . ?
N2 C1 1.328(4) . ?
N2 C8 1.467(4) . ?
N2 H2 0.85(5) . ?
N3 C3 1.455(4) . ?
C2 C7 1.401(4) . ?
C2 C3 1.412(4) . ?
C3 C4 1.385(4) . ?
C4 C5 1.377(5) . ?
C4 H4 0.9500 . ?
C5 C6 1.391(5) . ?
C5 H5 0.9500 . ?
C6 C7 1.384(4) . ?
C6 H6 0.9500 . ?
C7 H7 0.9500 . ?
C8 C9 1.523(4) . ?
C8 C15 1.525(5) . ?
C8 H8 1.0000 . ?
C9 C14 1.388(4) . ?
C9 C10 1.398(4) . ?
C10 C11 1.387(5) . ?
C10 H10 0.9500 . ?
C11 C12 1.387(5) . ?
C11 H11 0.9500 . ?
C12 C13 1.379(5) . ?
C12 H12 0.9500 . ?
C13 C14 1.386(5) . ?
C13 H13 0.9500 . ?
C14 H14 0.9500 . ?
C15 H15A 0.9800 . ?
C15 H15B 0.9800 . ?
C15 H15C 0.9800 . ?
loop_
_geom_hbond_atom_site_label_D
_geom_hbond_atom_site_label_H
_geom_hbond_atom_site_label_A
_geom_hbond_distance_DH
_geom_hbond_distance_HA
_geom_hbond_distance_DA
_geom_hbond_angle_DHA
_geom_hbond_site_symmetry_A
_geom_hbond_publ_flag
N1 H1 O1 0.89(5) 2.26(4) 3.018(3) 143(4) 1_455 yes
N1 H1 O2 0.89(5) 2.17(4) 2.656(4) 114(3) . yes
N2 H2 O1 0.85(5) 1.99(5) 2.805(3) 159(4) 1_455 yes
loop_
_geom_torsion_atom_site_label_1
_geom_torsion_atom_site_label_2
_geom_torsion_atom_site_label_3
_geom_torsion_atom_site_label_4
_geom_torsion
_geom_torsion_site_symmetry_1
_geom_torsion_site_symmetry_2
_geom_torsion_site_symmetry_3
_geom_torsion_site_symmetry_4
_geom_torsion_publ_flag
C8 N2 C1 O1 0.2(5) . . . . ?
C8 N2 C1 N1 179.2(3) . . . . ?
C2 N1 C1 O1 -15.8(5) . . . . ?
C2 N1 C1 N2 165.2(3) . . . . ?
C1 N1 C2 C7 -33.1(4) . . . . ?
C1 N1 C2 C3 148.4(3) . . . . ?
N1 C2 C3 C4 178.8(3) . . . . ?
C7 C2 C3 C4 0.2(4) . . . . ?
N1 C2 C3 N3 -2.0(4) . . . . ?
C7 C2 C3 N3 179.4(3) . . . . ?
O2 N3 C3 C4 -159.9(3) . . . . ?
O3 N3 C3 C4 19.0(4) . . . . ?
O2 N3 C3 C2 20.8(4) . . . . ?
O3 N3 C3 C2 -160.2(3) . . . . ?
C2 C3 C4 C5 -0.9(5) . . . . ?
N3 C3 C4 C5 179.9(3) . . . . ?
C3 C4 C5 C6 1.3(5) . . . . ?
C4 C5 C6 C7 -1.0(5) . . . . ?
C5 C6 C7 C2 0.4(5) . . . . ?
N1 C2 C7 C6 -178.6(3) . . . . ?
C3 C2 C7 C6 0.0(4) . . . . ?
C1 N2 C8 C9 -152.3(3) . . . . ?
C1 N2 C8 C15 81.4(4) . . . . ?
N2 C8 C9 C14 -132.7(3) . . . . ?
C15 C8 C9 C14 -8.9(4) . . . . ?
N2 C8 C9 C10 48.1(4) . . . . ?
C15 C8 C9 C10 171.8(3) . . . . ?
C14 C9 C10 C11 1.3(4) . . . . ?
C8 C9 C10 C11 -179.4(3) . . . . ?
C9 C10 C11 C12 -0.7(5) . . . . ?
C10 C11 C12 C13 -0.3(5) . . . . ?
C11 C12 C13 C14 0.6(5) . . . . ?
C12 C13 C14 C9 0.1(5) . . . . ?
C10 C9 C14 C13 -1.0(4) . . . . ?
C8 C9 C14 C13 179.7(3) . . . . ?
