#------------------------------------------------------------------------------
#$Date: 2021-04-30 12:13:07 +0300 (Fri, 30 Apr 2021) $
#$Revision: 264724 $
#$URL: file:///home/coder/svn-repositories/cod/cif/1/56/23/1562323.cif $
#------------------------------------------------------------------------------
#
# This file is available in the Crystallography Open Database (COD),
# http://www.crystallography.net/
#
# All data on this site have been placed in the public domain by the
# contributors.
#
data_1562323
loop_
_publ_author_name
'Oh, George N.'
'Burns, Peter C.'
_publ_section_title
;
 Solid-state actinide acid phosphites from phosphorous acid melts
;
_journal_name_full               'Journal of Solid State Chemistry'
_journal_page_first              50
_journal_page_last               56
_journal_paper_doi               10.1016/j.jssc.2014.03.029
_journal_volume                  215
_journal_year                    2014
_chemical_formula_sum            'H8 O12 P4 Th'
_chemical_formula_weight         555.98
_chemical_name_systematic
; 
Alpha-Thorium (IV) tetra(hydrogenphosphanate)  
;
_space_group_crystal_system      monoclinic
_space_group_IT_number           14
_space_group_name_Hall           '-P 2yn'
_space_group_name_H-M_alt        'P 1 21/n 1'
_atom_sites_solution_hydrogens   .
_atom_sites_solution_primary     direct
_atom_sites_solution_secondary   difmap
_audit_creation_method           SHELXL-97
_cell_angle_alpha                90.00
_cell_angle_beta                 99.466(5)
_cell_angle_gamma                90.00
_cell_formula_units_Z            4
_cell_length_a                   6.896(3)
_cell_length_b                   13.631(5)
_cell_length_c                   12.518(5)
_cell_measurement_temperature    296(2)
_cell_volume                     1160.7(8)
_computing_cell_refinement       SAINT
_computing_data_collection       APEX2
_computing_data_reduction        SAINT
_computing_molecular_graphics    'CrystalMaker(R) (Palmer, 2011)'
_computing_publication_material  .
_computing_structure_refinement  'SHELXL-97 (Sheldrick, 2008)'
_computing_structure_solution    'SHELXS-97 (Sheldrick, 2008)'
_diffrn_ambient_temperature      296(2)
_diffrn_measured_fraction_theta_full 0.988
_diffrn_measured_fraction_theta_max 0.988
_diffrn_measurement_device_type  'Bruker QUAZAR'
_diffrn_measurement_method       sphere
_diffrn_radiation_monochromator  graphite
_diffrn_radiation_source         'fine-focus sealed tube'
_diffrn_radiation_type           MoK\a
_diffrn_radiation_wavelength     0.71073
_diffrn_reflns_av_R_equivalents  0.1001
_diffrn_reflns_av_sigmaI/netI    0.0805
_diffrn_reflns_limit_h_max       8
_diffrn_reflns_limit_h_min       -9
_diffrn_reflns_limit_k_max       17
_diffrn_reflns_limit_k_min       -17
_diffrn_reflns_limit_l_max       16
_diffrn_reflns_limit_l_min       -16
_diffrn_reflns_number            13388
_diffrn_reflns_theta_full        27.90
_diffrn_reflns_theta_max         27.90
_diffrn_reflns_theta_min         2.23
_exptl_absorpt_coefficient_mu    13.454
_exptl_absorpt_correction_T_max  0.562
_exptl_absorpt_correction_T_min  0.551
_exptl_absorpt_correction_type   numerical
_exptl_absorpt_process_details   SADABS
_exptl_crystal_colour            colorless
_exptl_crystal_density_diffrn    3.182
_exptl_crystal_density_method    'not measured'
_exptl_crystal_description       needle
_exptl_crystal_F_000             1016
_refine_diff_density_max         1.886
_refine_diff_density_min         -1.589
_refine_diff_density_rms         0.322
_refine_ls_extinction_method     none
_refine_ls_goodness_of_fit_ref   1.000
_refine_ls_hydrogen_treatment    .
_refine_ls_matrix_type           full
_refine_ls_number_parameters     154
_refine_ls_number_reflns         2735
_refine_ls_number_restraints     0
_refine_ls_restrained_S_all      1.000
_refine_ls_R_factor_all          0.0712
_refine_ls_R_factor_gt           0.0410
_refine_ls_shift/su_max          0.001
_refine_ls_shift/su_mean         0.000
_refine_ls_structure_factor_coef Fsqd
_refine_ls_weighting_details
; calc 
 [1.00000+0.00000exp(0.00(sin\q/\l)^2^)]/ 
   [\s^2^(Fo^2^)+0.0000+0.0000*P+(0.0395P)^2^+0.0000sin\q/\l] 
 where P = 1.00000Fo^2^ + 0.00000Fc^2^ 
;
_refine_ls_weighting_scheme      calc
_refine_ls_wR_factor_gt          0.0845
_refine_ls_wR_factor_ref         0.0960
_reflns_number_gt                1944
_reflns_number_total             2735
_reflns_threshold_expression     >2sigma(I)
_cod_data_source_file            JSSC-2014-215-50.cif
_cod_data_source_block           thhp
_cod_original_cell_volume        1160.6(8)
_cod_original_sg_symbol_Hall     '-P 2yac'
_cod_original_sg_symbol_H-M      'P 21/n'
_cod_database_code               1562323
_shelx_res_file
;
TITL Alpha-Th(H2PO3)4 in P2(1)/n
CELL 0.71073   6.8956  13.6308  12.5178  90.000  99.466  90.000
ZERR    4.00   0.0027   0.0054   0.0050   0.000   0.005   0.000
LATT  1
SYMM 0.5-X, 0.5+Y, 0.5-Z
SFAC O H P TH
UNIT 48 32 16 4
TEMP 23.000
 
L.S. 4
BOND
FMAP 2
ACTA
PLAN 20
 
WGHT    0.039500    0.000000    0.000000    0.000000    0.000000    1.000000
FVAR       0.30461
TH1   4    0.636275    0.653028    0.180218    11.00000    0.01367    0.01236 =
         0.01419   -0.00148    0.00012    0.00000
P1    3    0.178130    0.660102    0.294334    11.00000    0.01715    0.02902 =
         0.02110   -0.00308    0.00475   -0.00237
P2    3    0.278719    0.449371    0.087337    11.00000    0.02503    0.01618 =
         0.01994   -0.00650    0.00409   -0.00487
P3    3    0.748944    0.420982    0.339267    11.00000    0.03331    0.01532 =
         0.02305    0.00122   -0.00069    0.00086
P4    3    0.750614    0.751256    0.459535    11.00000    0.01842    0.03196 =
         0.01875   -0.00801   -0.00192    0.00395
O1    1    0.071506    0.453728    0.119418    11.00000    0.03843    0.04198 =
         0.05916   -0.02131    0.02461   -0.01315
O2    1    0.238796    0.563824    0.357281    11.00000    0.05922    0.05272 =
         0.05546    0.03123   -0.00561   -0.00113
O3    1    0.356125    0.699706    0.255374    11.00000    0.01646    0.03621 =
         0.02979   -0.00860    0.00574   -0.00918
O4    1    0.371236    0.549219    0.097106    11.00000    0.02690    0.01568 =
         0.02850   -0.00233    0.00197   -0.00361
O5    1    0.437060    0.754547    0.039148    11.00000    0.01718    0.02900 =
         0.02952    0.00733   -0.00378   -0.00305
O6    1    0.497384    0.141610    0.292200    11.00000    0.01271    0.03766 =
         0.02499    0.00712   -0.00193   -0.00146
O7    1    0.536994    0.935988    0.100823    11.00000    0.06778    0.05022 =
         0.04576   -0.00966   -0.01841    0.01371
O8    1    0.567439    0.740936    0.515117    11.00000    0.02169    0.07358 =
         0.04462   -0.02090    0.00707   -0.00449
O9    1    0.706868    0.493805    0.249340    11.00000    0.03300    0.01427 =
         0.02835   -0.00015   -0.00348    0.00483
O10   1    0.731292    0.315181    0.306727    11.00000    0.03584    0.00922 =
         0.04273    0.00435   -0.00107    0.00696
O11   1    0.739817    0.599359    0.020562    11.00000    0.03742    0.02843 =
         0.03001   -0.01790    0.01410   -0.01118
O12   1    0.742660    0.676541    0.372126    11.00000    0.02207    0.02640 =
         0.01924   -0.00735    0.00043    0.00076
HKLF 4
 
REM  Alpha-Th(H2PO3)4 in P2(1)/n
REM R1 =  0.0410 for   1944 Fo > 4sig(Fo)  and  0.0712 for all   2735 data
REM    154 parameters refined using      0 restraints
 
END  
     
WGHT      0.0395      0.0000 
REM Highest difference peak  1.886,  deepest hole -1.589,  1-sigma level  0.322
Q1    1   0.5883  0.4485  0.4171  11.00000  0.05    1.89
Q2    1   0.8689  0.5415  0.3197  11.00000  0.05    1.64
Q3    1   0.7246  0.8190  0.4062  11.00000  0.05    1.32
Q4    1   0.4753  0.6528  0.1726  11.00000  0.05    1.23
Q5    1   0.6816  0.7116  0.2391  11.00000  0.05    1.22
Q6    1   0.7728  0.7523  0.3013  11.00000  0.05    1.16
Q7    1   0.2774  0.7762  0.3043  11.00000  0.05    1.13
Q8    1   0.4629  0.5526  0.2648  11.00000  0.05    1.10
Q9    1   0.5891  0.7199  0.2746  11.00000  0.05    1.10
Q10   1   0.7996  0.4965  0.1822  11.00000  0.05    1.09
Q11   1   0.5873  0.7276  0.1196  11.00000  0.05    1.07
Q12   1   0.6901  0.5974  0.2315  11.00000  0.05    1.06
Q13   1   0.4091  0.9779  0.1531  11.00000  0.05    1.03
Q14   1   0.4210  0.5188  0.1205  11.00000  0.05    1.02
Q15   1   0.8064  0.8438  0.4425  11.00000  0.05    1.01
Q16   1   0.5792  0.8230  0.3761  11.00000  0.05    1.01
Q17   1   0.7573  0.6998  0.5038  11.00000  0.05    1.00
Q18   1   0.6096  0.5899  0.1206  11.00000  0.05    0.99
Q19   1   0.7876  0.5834  0.1587  11.00000  0.05    0.99
Q20   1   0.3785  0.3516  0.1630  11.00000  0.05    0.98
;
_shelx_hkl_file
;
  -1   0   0 41.7985 17.9078   4
  -1   0   0 23.4393 29.9859   2
   1   0   0 14.2558 15.8604   1
  -1   0   0 -1.7600 20.5013   3
  -2   0   0 5066.11  323.38   2
  -2   0   0 5023.61  312.23   3
   2   0   0 5457.71  300.51   1
  -2   0   0 5007.89  299.48   4
  -3   0   0 22.5760 24.9925   4
  -3   0   0 78.7364 47.6986   2
   3   0   0 -61.006  15.371   1
  -3   0   0 13.9927 32.7579   3
  -4   0   0 884.919  78.063   4
   4   0   0 884.692  85.630   1
  -4   0   0 870.776 106.130   3
  -4   0   0 797.512 112.854   2
  -5   0   0  5.0374 56.7079   2
  -5   0   0  8.2795 47.9315   3
   5   0   0 21.4921 27.6436   1
  -6   0   0 119.415  67.167   3
   6   0   0 44.1667 35.3569   1
  -6   0   0 79.9193 67.9603   2
   7   0   0 -25.363  34.533   1
  -7   0   0 46.0237 70.0523   2
  -7   0   0 -59.310  60.043   3
  -8   0   0 1212.09  199.63   2
  -8   0   0 1392.84  192.40   3
   0  -1   0 -3.0013 15.3404   3
   0   1   0 6.14725 8.00640   1
   0   1   0 18.4416 13.4060   4
  -1  -1   0 675.406  66.223   2
  -1  -1   0 656.871  53.870   3
  -1   1   0 766.898  59.958   4
  -1   1   0 732.748  60.639   3
   1   1   0 638.062  49.474   1
  -1   1   0 641.955  61.230   2
  -1   1   0 654.120  50.886   1
  -2  -1   0 5045.77  311.57   3
  -2  -1   0 5224.67  325.33   2
   2   1   0 5318.88  294.72   4
  -2   1   0 4951.27  314.49   3
  -2   1   0 5061.27  306.87   4
  -2   1   0 5183.58  300.71   1
   2   1   0 5207.01  301.95   1
  -2   1   0 5165.03  322.75   2
   3  -1   0 3210.55  199.32   1
  -3  -1   0 3400.92  233.07   2
  -3  -1   0 3304.52  216.68   3
  -3   1   0 3201.20  205.63   4
   3   1   0 3099.47  201.11   1
  -3   1   0 2978.65  225.78   2
   3   1   0 3154.83  192.07   4
  -3   1   0 3304.54  220.41   3
   4  -1   0 549.649  64.654   1
  -4  -1   0 518.233  82.177   3
  -4  -1   0 519.283  92.479   2
  -4   1   0 537.849  86.527   3
   4   1   0 629.826  58.429   4
   4   1   0 579.655  68.376   1
  -4   1   0 538.643  69.249   4
  -4   1   0 608.802  93.830   2
   5  -1   0 152.978  40.047   1
  -5  -1   0 85.2802 64.9075   2
  -5  -1   0 196.327  65.087   3
  -5   1   0 147.387  64.005   3
  -5   1   0 105.212  63.118   2
   5   1   0 149.932  44.244   1
  -6  -1   0 989.245 153.130   2
  -6  -1   0 1263.42  150.97   3
   6  -1   0 887.633 103.699   1
   6   1   0 1077.98  113.25   1
  -6   1   0 1015.18  141.91   3
  -6   1   0 1019.42  148.06   2
   7  -1   0 587.157  83.427   1
  -7  -1   0 372.396 100.402   3
  -7  -1   0 390.282 114.846   2
  -7   1   0 264.162  96.455   2
  -7   1   0 372.651 104.015   3
   7   1   0 461.932  77.014   1
   8  -1   0 197.752 102.072   2
  -8  -1   0 311.338 117.937   2
  -8  -1   0 332.652 108.640   3
  -8   1   0 348.372 108.891   3
   0  -2   0 1131.12   73.98   2
   0  -2   0 1018.53   80.74   3
   0   2   0 1212.07   79.41   4
   0   2   0 1010.05   70.22   1
  -1  -2   0 1717.24  130.63   2
  -1  -2   0 1759.44  118.68   3
   1  -2   0 1908.22  122.76   2
  -1   2   0 1838.17  129.60   4
  -1   2   0 1780.96  116.27   1
  -1   2   0 1664.20  129.32   3
   1   2   0 2053.12  112.27   4
   1   2   0 2155.23  118.68   1
  -2  -2   0 31.1764 42.1083   2
  -2  -2   0 -4.5350 25.3811   3
   2   2   0  7.5129 21.4963   1
  -2   2   0 17.0364 33.3556   4
  -2   2   0 -2.0326 34.8574   2
  -2   2   0 -14.064  29.138   3
  -2   2   0 -42.890  19.014   1
  -3  -2   0 1440.92  123.62   3
  -3  -2   0 1799.28  146.93   2
  -3   2   0 1615.79  136.98   2
  -3   2   0 1551.57  125.15   4
   3   2   0 1553.07  114.43   1
  -3   2   0 1625.72  112.05   1
  -3   2   0 1519.36  134.26   3
  -4  -2   0 606.127 103.190   2
  -4  -2   0 639.092  87.162   3
   4  -2   0 556.018  65.751   1
  -4   2   0 571.103  77.971   4
   4   2   0 642.286  73.519   1
  -4   2   0 512.279  87.530   3
   4   2   0 547.982  41.426   4
  -4   2   0 548.155  94.439   2
  -5  -2   0 2169.46  168.42   3
   5  -2   0 1607.72  130.44   1
  -5  -2   0 1951.73  198.90   2
   5   2   0 1801.78  138.77   1
  -5   2   0 1626.59  180.19   2
  -5   2   0 1833.84  181.94   3
  -5   2   0 1672.71  146.19   4
  -6  -2   0  3.1503 53.8950   3
  -6  -2   0 162.879  79.848   2
   6  -2   0  2.5320 35.0234   1
   6   2   0 14.9637 34.3259   1
  -6   2   0 -38.676  56.954   2
  -6   2   0 81.6464 62.0572   3
  -7  -2   0 68.2499 75.1573   3
  -7  -2   0 186.140  96.468   2
   7  -2   0 248.743  94.333   2
  -7   2   0 199.466  84.116   3
   7   2   0 300.473  66.538   1
  -7   2   0 170.654  83.288   2
  -8  -2   0  0.9767 74.8142   3
   8  -2   0 109.503  96.558   2
  -8  -2   0 160.906  97.686   2
   8   2   0 101.243  56.892   1
  -8   2   0 31.7343 82.8913   3
   0  -3   0 -12.048  21.537   2
   0  -3   0  5.2265 28.6550   3
   0   3   0 -2.5209 27.9557   4
   0   3   0 -26.272  17.074   1
  -1  -3   0 2120.25  146.62   3
   1  -3   0 2404.10  146.59   2
   1  -3   0 2459.79  165.90   3
  -1  -3   0 2309.43  159.96   2
   1   3   0 2513.42  146.00   1
  -1   3   0 2419.23  161.33   3
  -1   3   0 2189.39  143.69   1
  -1   3   0 2065.70  158.75   4
   1   3   0 2545.45  144.91   4
  -2  -3   0 429.373  72.297   2
  -2  -3   0 504.228  57.022   3
   2  -3   0 481.154  62.956   2
   2   3   0 464.135  39.005   4
  -2   3   0 726.531  79.524   3
   2   3   0 504.110  53.562   1
  -2   3   0 546.083  52.882   1
  -2   3   0 475.428  68.593   4
   3  -3   0 2745.86  188.78   2
  -3  -3   0 2641.08  176.49   3
  -3  -3   0 2689.48  199.27   2
  -3   3   0 2485.45  186.02   3
   3   3   0 2308.20  164.21   1
  -3   3   0 2187.69  175.95   4
  -3   3   0 2570.60  161.89   1
  -4  -3   0 203.140  54.302   3
   4  -3   0 173.188  38.467   1
  -4  -3   0 129.043  62.620   2
  -4   3   0 250.955  66.905   3
   4   3   0 212.861  43.662   1
  -4   3   0 202.969  55.608   4
  -4   3   0 248.123  66.267   2
   5  -3   0 1133.71   99.76   1
  -5  -3   0 1326.28  141.66   3
  -5  -3   0 973.977 147.627   2
   5  -3   0 995.116 141.048   2
  -5   3   0 1322.39  134.52   4
   5   3   0 1340.08  109.04   1
  -5   3   0 1155.18  144.65   2
  -5   3   0 1315.92  149.01   3
   6  -3   0 10.4224 34.7807   1
  -6  -3   0 -22.947  51.921   3
   6  -3   0 -59.586  59.638   2
  -6  -3   0  7.5382 66.0585   2
   6   3   0 -8.8241 35.2569   1
  -6   3   0 52.0670 53.0685   3
  -7  -3   0 1784.47  199.04   3
  -7  -3   0 1383.51  201.05   2
   7  -3   0 1624.58  205.17   2
  -7   3   0 1345.75  184.68   3
   7   3   0 1693.84  162.43   1
  -8  -3   0 122.341  99.367   2
   8  -3   0 51.8605 83.6309   2
   8   3   0 -1.1916 51.4077   1
  -8   3   0 -66.928  73.452   3
   0  -4   0 2414.38  151.75   2
   0   4   0 2226.21  148.10   1
   0   4   0 2569.59  162.05   4
   1  -4   0 1161.20   84.37   2
  -1  -4   0 1275.39  103.61   2
  -1  -4   0 1162.38   92.06   3
   1  -4   0 1235.63  115.52   3
   1   4   0 1350.06   92.08   4
  -1   4   0 1279.85   89.92   1
  -1   4   0 1091.60  107.76   4
   1   4   0 1121.40   86.39   1
  -2  -4   0 69.7260 47.7528   2
   2  -4   0 20.2025 28.7826   2
  -2  -4   0 66.0805 27.9018   3
  -2   4   0 44.1615 43.2819   4
   2   4   0 24.7851 22.8573   1
  -2   4   0 134.975  47.832   3
  -2   4   0 63.8447 28.8961   1
   2   4   0 84.9790 23.1727   4
  -3  -4   0 545.881  92.952   2
  -3  -4   0 659.344  75.688   3
   3  -4   0 671.384  83.727   2
  -3   4   0 584.661  87.307   3
  -3   4   0 583.247  84.264   4
  -3   4   0 659.319  66.250   1
   3   4   0 625.083  69.756   1
  -4  -4   0 1950.24  156.70   3
  -4  -4   0 2013.65  198.36   2
   4  -4   0 1993.51  165.99   2
  -4   4   0 1856.13  137.46   1
   4   4   0 1876.18  143.31   1
  -4   4   0 2036.33  164.44   4
  -4   4   0 2095.96  174.73   3
  -5  -4   0 390.092  97.823   2
   5  -4   0 782.922  82.538   1
   5  -4   0 606.334 104.220   2
  -5  -4   0 682.258 100.577   3
  -5   4   0 899.920 124.447   3
   5   4   0 679.156  86.420   1
  -5   4   0 658.048 102.450   4
  -6  -4   0 808.645 139.403   2
  -6  -4   0 578.548 106.704   3
   6  -4   0 963.036 135.803   2
   6   4   0 640.857  90.927   1
  -6   4   0 576.165 113.934   3
  -7  -4   0 362.277  96.854   3
   7  -4   0 78.4128 76.5725   2
  -7  -4   0 75.9377 90.8364   2
  -7   4   0 359.026 103.493   3
   7   4   0 180.564  61.340   1
   8  -4   0 564.567 129.381   2
  -8  -4   0 600.790 152.892   2
   8   4   0 489.839  95.652   1
  -8   4   0 398.051 114.759   3
   0  -5   0  8.5679 33.1099   3
   0  -5   0  8.2238 25.7335   2
   0   5   0 39.8797 35.3326   4
   0   5   0  6.6404 23.4233   1
  -1  -5   0 183.337  38.305   3
  -1  -5   0 187.115  43.927   2
   1  -5   0 107.186  26.837   2
   1  -5   0 250.353  57.044   3
   1   5   0 137.492  38.972   4
  -1   5   0 63.7673 44.9969   4
   1   5   0 198.010  36.055   1
  -1   5   0 287.157  40.908   1
   2  -5   0 8045.12  477.26   3
  -2  -5   0 7638.79  451.68   3
   2  -5   0 7350.00  450.05   2
  -2  -5   0 8039.43  473.63   2
  -2   5   0 7035.85  463.70   4
  -2   5   0 7526.20  440.76   1
  -2   5   0 7882.69  471.18   3
   2   5   0 7254.07  442.99   1
   2   5   0 7517.62  439.57   4
   3  -5   0 76.2614 37.0652   2
  -3  -5   0 11.9963 49.4571   2
  -3  -5   0 35.7296 33.7841   3
   3   5   0 103.299  34.690   1
  -3   5   0 61.6389 30.4603   1
  -3   5   0 34.1652 45.7283   4
  -3   5   0 26.8274 43.5818   3
   3   5   0 99.3460 24.3603   4
  -4  -5   0 327.900  63.986   3
  -4  -5   0 402.712  89.721   2
   4  -5   0 254.887  65.893   2
  -4   5   0 311.251  52.371   1
  -4   5   0 384.452  82.491   4
   4   5   0 310.016  55.549   1
  -4   5   0 370.149  81.340   3
  -5  -5   0 -24.065  42.594   3
  -5  -5   0 50.5088 67.9134   2
   5  -5   0 -38.622  45.102   2
  -5   5   0 29.7929 56.4030   3
   5   5   0 32.7986 34.1274   1
  -5   5   0 20.1859 56.6872   4
  -6  -5   0 1969.45  201.30   3
  -6  -5   0 1900.43  229.45   2
   6  -5   0 2326.17  222.00   2
   6   5   0 2251.54  172.26   1
  -6   5   0 1687.15  207.54   3
   7  -5   0 76.0972 69.7641   2
  -7  -5   0 -90.807  72.946   2
  -7  -5   0 70.0396 73.0800   3
  -7   5   0  3.4845 70.4735   3
   7   5   0 -2.7746 43.8975   1
   8  -5   0 625.649 138.118   2
  -8  -5   0 309.193 133.797   2
  -8   5   0 366.916 118.720   3
   8   5   0 476.085  93.802   1
   0  -6   0 2360.64  172.04   3
   0  -6   0 2442.13  157.85   2
   0   6   0 2364.13  171.49   4
   0   6   0 2255.40  153.59   1
  -1  -6   0 1124.78  112.65   2
  -1  -6   0 1149.10  101.58   3
   1  -6   0 1223.16  127.62   3
   1  -6   0 1227.58   91.59   2
   1   6   0 1378.89  108.26   4
  -1   6   0 1111.99  121.10   4
  -1   6   0 1347.24   98.95   1
   1   6   0 1306.64   96.59   1
  -2  -6   0 26.5673 31.6247   3
   2  -6   0 21.1667 46.4099   3
  -2  -6   0 -25.472  39.233   2
   2  -6   0 10.7793 25.2358   2
   2   6   0 -15.090  28.505   4
  -2   6   0  1.6839 45.5840   4
   2   6   0 16.1169 22.4283   1
  -2   6   0 26.1924 28.4388   1
  -3  -6   0 255.493  50.773   3
   3  -6   0 349.314  58.924   2
  -3  -6   0 410.772  86.107   2
  -3   6   0 315.158  51.082   1
   3   6   0 378.749  46.983   4
  -3   6   0 349.903  75.884   3
  -3   6   0 352.873  76.500   4
   3   6   0 353.621  56.769   1
  -4  -6   0 3733.57  260.21   3
   4  -6   0 3853.88  265.59   2
  -4  -6   0 3561.78  289.04   2
  -4   6   0 3920.14  287.26   3
  -4   6   0 3725.41  281.50   4
   4   6   0 3674.28  251.32   1
  -4   6   0 4075.98  244.65   1
  -5  -6   0 869.885 110.680   3
   5  -6   0 862.944 113.999   2
  -5  -6   0 828.509 141.590   2
  -5   6   0 668.464 116.599   4
  -5   6   0 642.655 119.805   3
   5   6   0 882.903 102.083   1
  -6  -6   0 1058.54  142.09   3
   6  -6   0 1247.63  157.13   2
  -6  -6   0 1011.45  167.32   2
   6   6   0 1327.06  138.06   1
  -6   6   0 1308.79  170.35   3
  -6   6   0 1407.16  165.76   4
  -7  -6   0 37.2624 86.3126   2
  -7  -6   0 72.9156 72.5300   3
   7  -6   0 23.7054 64.5122   2
   7   6   0 84.2778 50.9904   1
  -7   6   0 -9.1233 70.3727   3
   8  -6   0 331.789 114.101   2
  -8  -6   0 235.970 131.750   2
  -8   6   0 437.443 126.829   3
   8   6   0 420.255  91.326   1
   0  -7   0 24.1378 36.8758   3
   0  -7   0 -46.036  24.414   2
   0   7   0  1.5671 39.0522   4
   0   7   0 -11.210  22.473   1
   1  -7   0 1334.61  140.52   3
  -1  -7   0 1128.53  115.21   2
   1  -7   0 1395.40   97.46   2
  -1  -7   0 1112.12  113.83   3
   1   7   0 961.422 108.853   4
   1   7   0 1150.37   96.81   1
  -1   7   0 1349.92  101.69   1
  -1   7   0 1197.15  129.47   4
   2  -7   0 750.122 107.962   3
  -2  -7   0 611.238  78.700   3
   2  -7   0 785.834  73.937   2
  -2  -7   0 810.367 104.407   2
   2   7   0 713.825  80.822   1
  -2   7   0 749.520 104.804   4
   2   7   0 692.750  80.149   4
  -2   7   0 860.999  86.774   1
  -3  -7   0 1759.25  170.56   2
   3  -7   0 1473.75  118.97   2
   3  -7   0 1685.09  175.10   3
  -3  -7   0 1558.48  128.30   3
   3   7   0 1402.68  116.46   1
  -3   7   0 1466.54  117.91   1
  -3   7   0 1132.45  147.04   4
   4  -7   0 166.236  51.742   2
  -4  -7   0 139.102  73.453   2
  -4  -7   0 261.464  59.020   3
  -4   7   0 247.115  75.361   3
  -4   7   0 140.063  70.565   4
   4   7   0 122.667  41.180   1
  -5  -7   0 675.088 103.525   3
   5  -7   0 713.732 104.492   2
  -5  -7   0 639.614 129.266   2
  -5   7   0 534.063 112.087   3
   5   7   0 782.696  97.913   1
  -5   7   0 643.680 114.412   4
   6  -7   0 138.863  66.828   2
  -6  -7   0 36.4358 53.7970   3
  -6  -7   0 71.3296 85.5665   2
   6   7   0 128.986  53.960   1
  -6   7   0 172.107  79.543   4
  -6   7   0 57.6249 72.0584   3
  -7  -7   0 1243.61  161.64   3
  -7  -7   0 1187.06  191.49   2
   7  -7   0 1067.37  155.38   2
  -7   7   0 683.767 143.197   3
   7   7   0 892.027 124.465   1
  -8  -7   0 -34.737  98.234   2
  -8   7   0 26.3916 89.3862   3
   8   7   0 60.9088 63.2184   1
   0  -8   0 11.8050 35.5434   3
   0  -8   0 120.298  38.243   2
   0   8   0 30.2377 30.2876   1
   0   8   0  7.6278 42.5461   4
   1  -8   0 2436.58  192.85   3
   1  -8   0 2478.87  167.69   2
  -1  -8   0 2322.75  176.45   2
  -1  -8   0 1884.69  172.06   3
   1   8   0 2399.94  165.88   1
   1   8   0 2512.66  181.63   4
  -1   8   0 2615.24  195.41   4
  -1   8   0 2407.96  166.42   1
   2  -8   0 191.898  63.438   3
  -2  -8   0 189.089  52.103   3
  -2  -8   0 183.921  59.658   2
   2  -8   0 137.443  36.685   2
  -2   8   0 184.816  65.183   4
   2   8   0 124.214  46.374   4
  -2   8   0 185.154  50.075   1
   2   8   0 249.492  49.217   1
   3  -8   0 411.853  98.435   3
   3  -8   0 680.318  76.821   2
  -3  -8   0 601.017  84.186   3
  -3  -8   0 535.936  97.922   2
   3   8   0 650.360  81.405   1
  -3   8   0 520.049  97.782   4
  -4  -8   0 17.4364 62.0381   2
  -4  -8   0 125.101  48.397   3
   4  -8   0 61.2185 66.7494   3
   4  -8   0 104.985  45.878   2
   4   8   0 98.1396 43.4529   1
  -4   8   0 35.1971 63.9211   4
   5  -8   0 1253.59  139.20   2
  -5  -8   0 1226.75  140.84   3
  -5  -8   0 1106.29  166.89   2
   5   8   0 1194.72  129.42   1
  -5   8   0 1086.85  160.03   3
  -5   8   0 1121.03  158.53   4
  -6  -8   0 68.7000 61.4373   3
  -6  -8   0 20.8331 82.0673   2
   6   8   0 -26.205  39.526   1
  -6   8   0 -9.1446 79.3652   4
  -6   8   0 -56.139  60.695   3
  -7  -8   0 313.906 119.797   2
   7   8   0 190.114  68.367   1
  -7   8   0 183.251 101.183   3
  -8   8   0 49.0245 93.8300   3
   0  -9   0 -5.3452 37.4405   3
   0  -9   0 -26.369  33.180   2
   0   9   0  5.5757 45.7505   4
   0   9   0 -32.790  24.090   1
   1  -9   0 667.899  73.385   2
   1  -9   0 620.308  99.953   3
  -1  -9   0 553.763  83.357   2
  -1  -9   0 614.121  87.849   3
   1   9   0 491.421  70.973   1
  -1   9   0 444.278  90.450   4
  -1   9   0 512.391  71.663   1
   1   9   0 528.413  84.884   4
   2  -9   0 1903.50  140.28   2
  -2  -9   0 1895.10  169.80   2
   2  -9   0 2317.53  212.47   3
  -2  -9   0 2046.32  160.53   3
  -2   9   0 2276.37  160.04   1
  -2   9   0 1579.71  180.21   4
   2   9   0 1999.11  148.48   1
   2   9   0 1706.86  156.05   4
  -3  -9   0 1016.73  119.69   3
   3  -9   0 967.134 145.661   3
  -3  -9   0 1112.30  144.40   2
  -3   9   0 973.186 135.174   4
   3   9   0 1055.32  113.73   1
  -4  -9   0 306.945  70.477   3
  -4  -9   0 217.800  82.682   2
   4  -9   0 205.711  84.984   3
  -4   9   0 272.513  91.841   4
   4   9   0 312.381  65.333   1
  -5  -9   0 250.543  96.822   2
   5  -9   0 267.990 105.870   3
  -5  -9   0 144.021  67.331   3
  -5   9   0 245.101  88.426   4
   5   9   0 224.987  62.239   1
  -6  -9   0 572.845 111.474   3
  -6  -9   0 503.319 133.624   2
   6  -9   0 654.455 150.451   3
   6   9   0 665.267 102.211   1
  -6   9   0 345.907 115.238   4
  -7  -9   0 548.494 151.314   2
   7  -9   0 455.513 144.079   3
  -7   9   0 440.918 125.731   3
   7   9   0 425.640  95.435   1
   0 -10   0 6391.34  411.13   3
   0  10   0 6021.31  411.96   4
   0  10   0 6371.34  386.95   1
   1 -10   0 65.8593 51.3781   3
  -1 -10   0 36.2199 48.6280   2
  -1 -10   0 43.9034 46.0118   3
   1  10   0 23.0101 37.4735   1
  -1  10   0 59.9622 40.9536   1
   1  10   0 16.9411 49.9915   4
  -1  10   0 107.345  60.821   4
   2 -10   0 -55.387  45.762   3
  -2 -10   0 59.0495 60.4184   2
  -2 -10   0 73.6619 44.6122   3
   2  10   0 116.226  46.480   1
  -2  10   0 96.7608 61.8245   4
   2  10   0 41.8623 47.5063   4
   3 -10   0 39.8388 62.7285   3
  -3 -10   0 197.848  78.326   2
  -3 -10   0 50.9779 44.4433   3
   3  10   0 84.3969 42.2600   1
  -3  10   0 47.8802 63.7080   4
  -4 -10   0 1497.64  189.75   2
   4 -10   0 1810.61  219.08   3
  -4 -10   0 2003.93  165.25   3
   4  10   0 1350.07  150.84   1
  -4  10   0 1625.39  196.06   4
  -5 -10   0 157.340  85.996   2
  -5 -10   0 145.534  65.528   3
   5 -10   0 138.542  91.167   3
  -5  10   0 81.9014 85.6275   4
   5  10   0 60.1484 51.4205   1
  -6 -10   0 215.551 109.787   2
  -6 -10   0 149.551  78.311   3
   6 -10   0 163.495 102.254   3
   6  10   0 68.0803 57.6286   1
  -6  10   0 128.237  91.923   4
   7 -10   0   1.057 107.449   3
  -7 -10   0   9.763 101.811   2
   7  10   0 -19.273  47.697   1
   0 -11   0 -19.757  37.689   3
   0  11   0 -53.752  46.426   4
   0  11   0 11.2437 34.9729   1
  -1 -11   0 169.227  57.266   3
   1 -11   0 265.677  73.236   3
   1  11   0 210.552  53.489   1
  -1  11   0 204.194  56.067   1
   1  11   0 25.5280 61.6023   4
  -1  11   0 71.5602 61.3459   4
  -2 -11   0 2451.66  219.75   3
   2 -11   0 2901.01  248.06   3
   2  11   0 3043.22  216.55   1
  -2  11   0 3388.57  253.64   4
   2  11   0 3134.80  226.99   4
   3 -11   0 484.350 111.196   3
  -3 -11   0 462.278 106.896   2
  -3 -11   0 479.860  92.325   3
  -3  11   0 428.762 101.525   4
   3  11   0 369.291  74.846   1
  -4 -11   0 310.778 100.479   2
  -4 -11   0 280.272  82.744   3
   4 -11   0 566.342 128.101   3
  -4  11   0 419.304 107.889   4
   4  11   0 433.138  79.447   1
   5 -11   0 45.2410 85.4827   3
  -5 -11   0 -31.679  85.576   2
  -5 -11   0 35.7432 60.9855   3
  -5  11   0 -22.574  72.303   4
   5  11   0 175.161  57.707   1
  -6 -11   0 728.300 131.653   3
  -6 -11   0 985.179 175.663   2
   6 -11   0 848.256 176.769   3
  -6  11   0 704.624 147.527   4
   6  11   0 837.079 123.595   1
  -7 -11   0  82.678 124.494   2
  -7  11   0 156.901 106.391   4
   0 -12   0 1897.83  164.26   3
   0  12   0 1778.06  189.68   4
   0  12   0 1676.66  147.18   1
   1 -12   0 930.103 128.295   3
  -1 -12   0 1103.53  132.24   3
  -1  12   0 789.377 127.961   4
   1  12   0 868.476 105.051   1
   1  12   0 797.205 122.376   4
  -2 -12   0 273.900  69.722   3
   2 -12   0 230.374  78.810   3
  -2  12   0 410.529  99.118   4
   2  12   0 237.385  62.648   1
  -3 -12   0 669.599 112.882   3
   3 -12   0 293.313 102.469   3
  -3  12   0 632.210 122.759   4
   3  12   0 658.108  96.736   1
  -4 -12   0 122.595  70.843   3
   4 -12   0 10.6551 79.5009   3
  -4  12   0 92.9861 88.5192   4
   4  12   0 171.780  56.591   1
   5 -12   0 884.972 172.926   3
  -5 -12   0 985.925 144.776   3
  -5  12   0 775.094 153.857   4
   5  12   0 757.534 113.575   1
   6 -12   0 169.174 116.031   3
  -6  12   0 18.7537 91.2010   4
   6  12   0 67.2889 59.8723   1
   0 -13   0 42.4472 50.0550   3
   0  13   0 -12.337  42.872   1
   0  13   0  9.1951 61.5000   4
  -1 -13   0 813.671 120.907   3
   1 -13   0 865.535 128.764   3
   1  13   0 819.387 105.430   1
  -1  13   0 912.742 137.981   4
   1  13   0 531.103 108.009   4
  -2 -13   0 119.921  60.308   3
   2 -13   0 26.2992 60.6702   3
  -2  13   0 128.898  73.929   4
   2  13   0 -91.741  36.743   1
   3 -13   0 719.440 140.550   3
  -3 -13   0 838.370 129.553   3
  -3  13   0 694.929 136.848   4
   3  13   0 916.727 118.971   1
   4 -13   0 -22.287  81.916   3
  -4 -13   0 -9.1037 60.6817   3
   4  13   0 -34.554  44.492   1
  -4  13   0 -66.646  70.467   4
  -5 -13   0 368.490 105.344   3
   5 -13   0 142.428 115.865   3
  -5  13   0 346.280 118.079   4
   5  13   0 488.169  96.961   1
  -6  13   0  91.592 107.200   4
   0 -14   0 472.794  95.266   3
   0  14   0 393.941 105.298   4
  -1 -14   0 296.399  82.348   3
   1 -14   0 375.383  87.144   3
   1  14   0 313.106  76.448   1
  -1  14   0 345.077 101.103   4
   1  14   0 346.453  94.288   4
   2 -14   0 -81.030  49.605   3
  -2 -14   0 25.4603 57.2575   3
  -2  14   0  1.5763 69.7867   4
   2  14   0 14.7207 46.9546   1
   3 -14   0 442.194 120.564   3
  -3 -14   0 765.476 126.883   3
   3  14   0 495.516 102.026   1
  -3  14   0 771.905 145.159   4
   4 -14   0 497.750 147.118   3
  -4 -14   0 553.888 120.983   3
  -4  14   0 370.523 125.388   4
   4  14   0 647.724 108.357   1
  -5 -14   0 875.273 155.131   3
   5 -14   0 789.604 181.882   3
   5  14   0 957.296 137.147   1
  -5  14   0 990.237 176.356   4
   0 -15   0 -39.528  48.643   3
   0  15   0 -16.773  63.359   4
  -1 -15   0 37.9822 63.8281   3
   1 -15   0 111.820  63.538   3
  -1  15   0 42.7240 74.2370   4
   1  15   0 134.198  77.583   4
   1  15   0 86.7229 62.7452   1
   2 -15   0 1402.23  190.31   3
  -2 -15   0 1995.12  211.66   3
   2  15   0 1807.86  182.45   1
  -3 -15   0 171.455  83.451   3
   3 -15   0 -35.556  67.759   3
   3  15   0 -22.665  50.977   1
  -3  15   0 -17.019  86.444   4
   4 -15   0 -47.030  88.745   3
  -4 -15   0 -5.2353 73.1039   3
  -4  15   0 -68.196  81.473   4
   4  15   0 108.910  72.848   1
   0 -16   0 882.742 130.793   3
   0  16   0 571.429 135.289   4
   1 -16   0 -52.713  51.032   3
  -1 -16   0 30.6327 56.1615   3
  -1  16   0 -58.471  77.703   4
   2 -16   0 -7.4719 57.4144   3
  -2 -16   0 81.5672 69.2110   3
  -2  16   0 49.9805 91.1463   4
   2  16   0 -10.565  55.243   1
  -3 -16   0 183.779  90.703   3
   3 -16   0 61.3894 86.7862   3
  -3  16   0 124.505  99.399   4
   3  16   0 180.311  75.047   1
  -4 -16   0 1541.70  208.84   3
   4  16   0 1149.48  163.81   1
   0 -17   0 47.4570 65.4871   3
   0  17   0 111.631  95.558   4
   1 -17   0 364.104 103.617   3
  -1 -17   0 281.481  95.680   3
  -1  17   0 609.524 140.884   4
  -2 -17   0 670.099 125.656   3
  -2  17   0 461.722 132.051   4
  -9   0   1 1172.85  196.40   3
   8   0  -1 72.2779 94.7415   2
  -8   0   1 -2.1781 72.0258   3
  -7   0   1 97.3757 72.5792   3
  -7   0   1 36.6267 71.7593   2
   7   0  -1 -14.611  34.055   1
  -6   0   1  5.4518 52.2248   3
  -6   0   1 60.8497 63.7439   2
   6   0  -1 -0.9353 30.6965   1
  -5   0   1 1318.12  148.79   3
   5   0  -1 1174.26   98.35   1
  -5   0   1 1086.81  149.25   2
  -4   0   1 18.6603 39.3561   3
   4   0  -1 11.9854 21.9436   1
  -4   0   1 -41.354  42.816   2
  -4   0   1 -22.919  25.774   4
   3   0  -1 728.599  62.301   1
  -3   0   1 799.197  97.973   2
  -3   0   1 802.863  90.233   3
  -3   0   1 684.304  64.883   4
  -2   0   1 31.4940 31.8642   3
  -2   0   1  7.0656 21.8943   4
   2   0  -1  4.1896 16.5775   1
  -2   0   1 -24.244  32.934   2
  -1   0   1 8909.40  541.86   3
   1   0  -1 9350.46  547.11   2
  -1   0   1 9999.99  530.65   4
   1   0  -1 9414.57  527.27   1
   0   0  -1 19.5175 14.4174   1
   0   0   1  9.8404 11.1119   4
   0   0  -1 30.1179 18.8187   2
  -1   0  -1 894.027  68.992   1
   1   0   1 852.365  67.434   4
  -1   0  -1 911.531  64.619   3
  -1   0  -1 842.838  74.346   2
  -2   0  -1 29.2053 37.6097   2
  -2   0  -1 -25.577  23.289   1
  -2   0  -1 -23.446  22.850   4
  -2   0  -1  1.5590 26.6566   3
   3   0   1 2318.36  163.13   1
  -3   0  -1 2558.51  174.29   3
  -3   0  -1 2606.31  161.04   4
  -3   0  -1 2220.95  185.42   2
   4   0   1 -29.355  23.282   1
   4   0   1 -32.705  30.217   4
  -4   0  -1 -21.928  46.739   2
  -4   0  -1 14.0387 36.6764   3
   5   0   1 633.376  83.130   1
  -5   0  -1 754.015 123.880   2
  -5   0  -1 806.765 108.106   3
   6   0   1 12.9768 32.6499   1
  -6   0  -1 -45.102  51.082   3
  -6   0  -1  3.8843 65.2397   2
   7   0   1 1346.05  140.66   1
  -7   0  -1 1210.38  169.60   3
  -8   0  -1 66.4255 92.3994   2
  -9  -1   1 -8.3695 95.0017   3
  -9   1   1  85.670 101.811   3
  -8  -1   1 243.556  96.914   3
  -8  -1   1 412.068 126.241   2
   8  -1  -1 321.744 119.052   2
   8   1  -1 414.444 123.927   2
  -8   1   1 318.008 104.011   3
  -7  -1   1 663.420 141.982   2
  -7  -1   1 1158.34  159.80   3
   7  -1  -1 1186.61  174.50   2
  -7   1   1 1250.54  166.98   3
   7   1  -1 1138.90  120.59   1
   6  -1  -1 329.658  57.949   1
  -6  -1   1 331.247  96.758   2
  -6  -1   1 318.074  88.326   3
  -6   1   1 352.254  96.749   2
   6   1  -1 342.811  60.284   1
  -6   1   1 248.263  80.957   3
  -5  -1   1 60.0316 57.3168   2
   5  -1  -1 -21.615  22.827   1
  -5  -1   1 32.7147 45.6736   3
   5   1  -1  4.7525 25.0298   1
  -5   1   1 61.4364 56.0472   2
  -5   1   1 37.2411 54.4351   3
   4  -1  -1 1010.29   86.08   1
  -4  -1   1 1224.17   80.41   4
  -4  -1   1 1036.99  128.32   2
  -4  -1   1 1436.60  134.60   3
  -4   1   1 995.661 120.519   3
  -4   1   1 1167.70  134.10   2
   4   1  -1 983.184  87.466   1
  -4   1   1 1165.13  104.28   4
  -3  -1   1 2666.15  202.96   2
   3  -1  -1 2872.18  173.62   1
  -3  -1   1 2863.81  194.73   3
  -3  -1   1 2761.98  166.48   4
  -3   1   1 2699.68  182.44   4
   3   1  -1 2931.83  177.38   1
  -3   1   1 2862.63  206.07   2
  -3   1   1 2712.37  196.82   3
  -2  -1   1 1988.16  115.81   4
   2  -1  -1 1809.19  143.43   2
   2  -1  -1 2202.17  120.76   1
  -2  -1   1 1875.90  137.81   3
  -2  -1   1 1977.14  147.22   2
  -2   1   1 1708.82  128.71   4
   2   1  -1 2064.11  124.84   1
  -2   1   1 1821.56  138.65   3
  -1  -1   1 489.411  48.380   3
   1  -1  -1 564.168  54.688   2
  -1  -1   1 597.922  57.557   2
  -1  -1   1 533.698  36.381   4
   1  -1  -1 603.887  36.062   1
   1   1  -1 592.967  45.922   1
  -1   1   1 512.779  55.853   3
  -1   1   1 506.459  46.103   4
   0  -1  -1 1058.28   68.68   1
   0  -1   1 1238.57   71.26   3
   0  -1  -1 1025.47   81.20   2
   0  -1  -1 1079.62   72.79   3
   0   1   1 998.965  68.278   4
   0   1  -1 1165.73   73.33   1
   0   1  -1 1198.09   74.98   4
  -1  -1  -1 3633.85  221.17   2
  -1  -1  -1 3377.48  205.77   3
  -1   1  -1 3560.07  212.24   3
   1   1   1 3400.58  202.24   4
  -1   1  -1 3180.21  215.28   2
  -1   1  -1 3757.38  210.61   1
  -1   1  -1 3321.12  211.90   4
   1   1   1 3857.94  208.30   1
  -2  -1  -1 2700.01  178.83   3
  -2  -1  -1 2774.49  196.32   2
   2   1   1 2706.41  169.16   4
  -2   1  -1 2728.52  184.53   3
   2   1   1 2945.33  177.07   1
  -2   1  -1 2761.69  180.95   4
  -2   1  -1 2968.15  194.99   2
  -2   1  -1 2986.86  178.82   1
  -3  -1  -1 1293.24  136.75   2
  -3  -1  -1 1446.81  113.39   3
  -3   1  -1 1255.26  101.41   1
   3   1   1 1195.57   90.03   4
  -3   1  -1 1250.07  106.06   4
  -3   1  -1 1217.30  128.98   2
  -3   1  -1 1450.73  116.14   3
   3   1   1 1249.26   98.22   1
  -4  -1  -1 -41.955  45.916   2
  -4  -1  -1  3.8877 37.3794   3
   4  -1   1  3.3921 26.7519   1
   4   1   1 -28.480  25.841   1
  -4   1  -1 -3.8564 46.1996   2
  -4   1  -1 -90.055  35.449   3
   4   1   1 39.0358 25.6264   4
  -4   1  -1 12.6904 33.1484   4
  -5  -1  -1 2995.12  228.98   3
   5  -1   1 2936.20  206.01   1
  -5  -1  -1 2676.71  244.59   2
  -5   1  -1 3298.34  248.34   2
  -5   1  -1 3308.95  236.76   3
   5   1   1 2915.73  207.91   1
   6  -1   1 552.799  78.049   1
  -6  -1  -1 622.504 107.054   3
  -6  -1  -1 300.318  98.402   2
  -6   1  -1 357.340 101.524   2
   6   1   1 540.780  81.384   1
  -6   1  -1 620.990 108.053   3
  -7  -1  -1 1201.30  158.64   3
   7  -1   1 947.472 115.463   1
  -7  -1  -1 908.534 155.697   2
   7   1   1 952.374 117.219   1
  -7   1  -1 846.789 141.023   3
  -7   1  -1 826.370 148.473   2
  -8  -1  -1 -5.0815 77.5948   2
   8   1   1 12.0143 49.1444   1
  -8   1  -1 31.1025 80.7018   2
  -8  -2   1 65.8134 94.1752   2
   8  -2  -1 409.778 122.318   2
  -8  -2   1 362.012 103.779   3
   8   2  -1 491.110  85.815   1
  -8   2   1 229.276 102.887   3
  -7  -2   1 43.5814 65.6067   3
  -7  -2   1 -4.6407 64.6120   2
   7  -2  -1 18.3479 66.3509   2
  -7   2   1 -27.742  56.031   3
   7   2  -1 79.4876 47.0063   1
   6  -2  -1 2423.67  238.53   2
   6  -2  -1 2111.90  159.96   1
  -6  -2   1 2416.19  205.71   3
  -6  -2   1 2016.96  227.61   2
   6   2  -1 2167.08  166.14   1
  -6   2   1 2283.83  227.02   3
  -5  -2   1 447.552  98.026   2
   5  -2  -1 199.012  71.352   2
  -5  -2   1 277.767  75.147   3
   5  -2  -1 267.940  47.179   1
  -5   2   1 301.429  65.791   4
   5   2  -1 293.883  52.911   1
  -5   2   1 450.941  90.903   3
   4  -2  -1 2553.33  161.12   1
  -4  -2   1 2440.11  188.53   3
  -4  -2   1 2479.46  203.90   2
   4  -2  -1 2344.48  194.34   2
  -4   2   1 2377.23  195.26   3
  -4   2   1 2647.40  178.83   4
   4   2  -1 2341.91  165.85   1
   3  -2  -1 -15.792  17.079   1
   3  -2  -1 36.7982 42.1821   2
  -3  -2   1 -6.7199 32.4147   3
  -3  -2   1 -51.167  39.837   2
  -3   2   1 -5.8007 38.0657   3
  -3   2   1  7.9957 35.5264   4
   3   2  -1  6.6204 22.0081   1
  -2  -2   1 1111.38  106.19   2
   2  -2  -1 1163.41  103.87   2
  -2  -2   1 961.611  89.417   3
   2  -2  -1 1146.16   73.19   1
   2   2  -1 1160.28   80.03   1
  -2   2   1 1050.41   94.23   4
  -2   2   1 1037.37  103.29   3
  -1  -2   1 568.634  51.727   3
  -1  -2   1 543.669  59.996   2
   1  -2  -1 673.545  58.195   2
   1   2  -1 614.628  48.436   4
  -1   2   1 735.311  69.267   3
  -1   2   1 594.192  56.747   4
   1   2  -1 622.704  50.960   1
   0  -2  -1 7749.86  492.14   2
   0  -2   1 8569.34  487.02   3
   0  -2  -1 8325.43  488.43   3
   0   2  -1 8425.65  478.35   1
   0   2   1 8541.35  479.98   4
   0   2  -1 8881.47  485.11   4
   0   2   1 8517.76  472.66   1
  -1  -2  -1 266.681  30.923   3
  -1  -2  -1 305.150  51.229   2
  -1   2  -1 332.348  42.675   1
   1   2   1 269.947  28.618   4
  -1   2  -1 331.098  46.268   3
   1   2   1 293.626  36.201   1
  -1   2  -1 317.816  47.646   4
  -1   2  -1 271.709  40.153   2
  -2  -2  -1 418.341  49.738   3
  -2  -2  -1 442.877  72.542   2
  -2   2  -1 347.102  56.342   3
   2   2   1 406.816  35.492   4
  -2   2  -1 492.088  61.769   4
  -2   2  -1 458.895  54.076   1
  -2   2  -1 503.225  65.305   2
   2   2   1 395.083  50.357   1
  -3  -2  -1 100.035  52.238   2
  -3  -2  -1 64.1994 34.6688   3
   3   2   1 66.6262 28.9541   1
  -3   2  -1 170.439  39.551   1
  -3   2  -1 153.665  52.926   2
  -3   2  -1 201.369  48.721   3
  -3   2  -1 129.996  41.300   4
   3   2   1 120.277  21.113   4
   4  -2   1 4954.95  302.15   1
  -4  -2  -1 4304.91  336.23   2
  -4  -2  -1 5007.96  319.27   3
   4   2   1 4579.63  302.95   1
  -4   2  -1 5060.37  326.56   3
   4   2   1 4755.12  282.56   4
  -4   2  -1 5330.35  339.38   2
  -4   2  -1 4964.02  311.87   4
  -5  -2  -1 48.1458 48.8795   3
  -5  -2  -1 -9.5243 55.1624   2
   5  -2   1 14.8754 29.4372   1
  -5   2  -1 26.1089 41.2675   4
  -5   2  -1 26.7928 57.6328   2
   5   2   1 44.9892 33.2801   1
  -5   2  -1 -16.401  44.619   3
  -6  -2  -1 85.3022 59.8911   3
  -6  -2  -1 138.137  84.367   2
   6  -2   1 236.521  54.226   1
   6   2   1 175.635  51.700   1
  -6   2  -1 63.4355 67.0827   2
  -6   2  -1 218.168  77.876   3
  -7  -2  -1 385.735  97.409   3
  -7  -2  -1 283.453 101.555   2
  -7   2  -1 130.814  90.823   2
  -7   2  -1 335.545  99.858   3
   7   2   1 273.392  69.512   1
   8  -2   1 875.029 170.687   2
  -8  -2  -1 698.583 159.308   2
   8   2   1 909.727 123.094   1
  -8   2  -1 1058.04  179.19   2
  -8  -3   1 988.372 163.040   3
   8  -3  -1 714.026 148.720   2
  -8  -3   1 855.013 172.743   2
   8   3  -1 984.308 124.337   1
  -8   3   1 962.475 164.766   3
   7  -3  -1 370.989 104.744   2
  -7  -3   1 488.536 121.741   2
  -7  -3   1 403.309 101.252   3
   7   3  -1 375.108  74.471   1
  -7   3   1 438.759 112.203   3
   6  -3  -1 671.608 118.584   2
  -6  -3   1 609.500 124.805   2
  -6  -3   1 583.003 106.861   3
  -6   3   1 549.767 110.046   3
   6   3  -1 584.480  84.408   1
   5  -3  -1 1151.59  142.41   2
   5  -3  -1 1059.35   88.68   1
  -5  -3   1 1051.53  128.14   3
  -5  -3   1 1128.86  145.93   2
  -5   3   1 792.911 123.852   3
   5   3  -1 1135.59  110.64   1
  -5   3   1 1062.76  122.95   4
   4  -3  -1 2521.92  157.10   1
   4  -3  -1 2267.66  191.27   2
  -4  -3   1 2829.24  189.19   3
  -4  -3   1 2168.53  194.91   2
   4   3  -1 2142.31  163.76   1
  -4   3   1 2234.88  177.92   4
  -4   3   1 2838.89  204.11   3
  -3  -3   1 44.0130 35.6799   3
   3  -3  -1 95.3978 46.0190   2
  -3  -3   1  7.3597 44.2818   2
   3  -3  -1 45.0014 21.0730   1
   3   3  -1 22.4528 22.7959   1
  -3   3   1 70.0922 48.1576   3
  -3   3   1 75.3754 43.4361   4
   2  -3  -1 6331.26  377.07   2
  -2  -3   1 6685.74  387.40   2
  -2  -3   1 5701.26  369.18   3
   2   3  -1 6058.42  349.86   4
  -2   3   1 6303.33  376.13   4
   2   3  -1 6620.76  363.49   1
  -2   3   1 6135.84  352.46   1
  -2   3   1 5921.74  382.26   3
   1  -3  -1 1858.31  128.71   2
  -1  -3   1 2041.80  135.51   2
  -1  -3   1 1905.31  127.26   3
  -1   3   1 2066.02  118.31   1
   1   3  -1 2117.01  127.34   1
  -1   3   1 1791.61  137.73   3
  -1   3   1 1940.02  135.26   4
   1   3  -1 1929.02  126.35   4
   0  -3  -1 293.812  50.190   3
   0  -3  -1 290.053  47.307   2
   0  -3   1 298.201  27.376   2
   0  -3   1 219.641  42.967   3
   0   3  -1 306.091  40.218   1
   0   3  -1 488.410  53.396   4
   0   3   1 339.451  41.009   4
   0   3   1 278.139  30.941   1
   1  -3   1 5513.37  304.45   3
   1  -3   1 4972.62  286.14   2
  -1  -3  -1 4831.52  301.17   2
  -1  -3  -1 4480.42  283.35   3
   1   3   1 5028.40  282.93   1
  -1   3  -1 4317.80  295.15   4
  -1   3  -1 4600.42  287.14   1
   1   3   1 4938.63  279.88   4
  -2  -3  -1 4398.08  299.25   2
  -2  -3  -1 4575.85  275.37   3
   2   3   1 4580.39  262.10   4
   2   3   1 4390.05  274.36   1
  -2   3  -1 4589.39  288.56   4
  -2   3  -1 4613.73  285.91   2
  -2   3  -1 4502.56  275.53   1
  -2   3  -1 4679.36  290.39   3
  -3  -3  -1 409.006  60.957   3
  -3  -3  -1 454.063  83.465   2
  -3   3  -1 503.333  76.841   2
  -3   3  -1 484.373  62.031   1
  -3   3  -1 449.383  74.153   3
   3   3   1 509.827  38.814   4
   3   3   1 540.735  65.063   1
  -3   3  -1 465.416  71.038   4
  -4  -3  -1  1.2785 52.4256   2
  -4  -3  -1 -0.9202 34.5067   3
   4   3   1 -20.091  26.842   1
  -4   3  -1 -9.6832 27.3044   1
  -4   3  -1 51.9436 51.4985   2
  -4   3  -1 10.1527 47.0815   3
  -4   3  -1 49.7691 44.8885   4
   5  -3   1 48.1806 35.5135   1
  -5  -3  -1 182.422  61.148   3
  -5  -3  -1 57.8230 66.0170   2
  -5   3  -1 91.7121 61.8227   2
   5   3   1 64.5856 38.9614   1
  -5   3  -1 125.197  53.942   4
  -5   3  -1 149.059  62.207   3
  -6  -3  -1 1684.07  188.29   3
   6  -3   1 2013.52  154.92   1
  -6  -3  -1 1627.80  210.28   2
  -6   3  -1 2095.00  216.33   2
  -6   3  -1 1925.34  204.10   3
   6   3   1 2076.82  160.43   1
  -7  -3  -1  3.0110 74.1046   2
   7  -3   1 97.0632 78.9334   2
  -7  -3  -1 28.7972 66.9483   3
   7   3   1 -13.136  41.337   1
  -7   3  -1 14.8431 68.3108   3
  -7   3  -1 58.5295 76.3510   2
   8  -3   1 -36.082  67.611   2
  -8  -3  -1 67.5176 95.1557   2
  -8   3  -1 13.7110 76.4555   3
   8   3   1 39.9245 54.8487   1
  -8  -4   1 131.102  90.490   3
  -8  -4   1  97.648 100.555   2
   8  -4  -1 18.1876 75.4734   2
   8   4  -1 35.9158 53.6704   1
  -8   4   1 101.601  91.794   3
  -7  -4   1 -28.291  52.808   3
  -7  -4   1 12.7531 76.0205   2
   7  -4  -1 -1.1904 65.8487   2
   7   4  -1  5.4732 42.0621   1
  -7   4   1 -79.718  58.692   3
  -6  -4   1 1087.94  139.07   3
   6  -4  -1 938.703 139.765   2
  -6   4   1 1063.10  152.84   3
   6   4  -1 883.834 108.313   1
  -5  -4   1 1185.70  160.50   2
  -5  -4   1 1597.23  156.62   3
   5  -4  -1 1308.63  155.14   2
   5   4  -1 1373.38  119.67   1
  -5   4   1 1628.15  156.86   4
  -5   4   1 1421.09  163.58   3
  -4  -4   1 1014.02  138.19   2
  -4  -4   1 1186.33  126.98   3
   4  -4  -1 1249.15   94.19   1
   4  -4  -1 1226.54  135.90   2
   4   4  -1 1421.66  107.33   1
  -4   4   1 1084.94  136.36   3
  -4   4   1 1338.15  134.02   4
  -3  -4   1 115.517  57.765   2
   3  -4  -1 32.1912 40.8632   2
  -3  -4   1 78.3212 33.0350   3
  -3   4   1 131.266  54.857   3
  -3   4   1 164.418  53.153   4
   3   4  -1 156.260  35.192   1
  -3   4   1 153.227  29.073   1
  -2  -4   1 1553.72  108.30   3
   2  -4  -1 1301.63  107.52   2
  -2  -4   1 1467.17  120.80   2
  -2   4   1 1521.15  129.08   3
  -2   4   1 1375.44  126.54   4
   2   4  -1 1313.81   94.25   4
  -2   4   1 1437.03   93.96   1
   2   4  -1 1487.75  103.56   1
  -1  -4   1 3095.67  199.05   3
   1  -4  -1 3002.84  215.07   3
   1  -4  -1 3339.27  197.83   2
  -1  -4   1 2981.65  202.63   2
  -1   4   1 3100.03  206.79   4
   1   4  -1 3226.84  198.07   4
  -1   4   1 3086.36  187.24   1
   1   4  -1 3502.41  198.14   1
   0  -4   1 6912.54  415.18   2
   0  -4  -1 7348.10  430.15   2
   0  -4  -1 7011.64  434.86   3
   0   4   1 7554.24  424.23   4
   0   4  -1 8348.23  431.89   4
   0   4   1 6817.51  410.90   1
   0   4  -1 6952.21  418.40   1
  -1  -4  -1 384.940  63.290   2
   1  -4   1 510.092  43.609   2
   1  -4   1 403.467  65.741   3
  -1  -4  -1 556.756  54.003   3
   1   4   1 428.244  47.841   4
  -1   4  -1 429.785  55.075   1
  -1   4  -1 501.714  67.919   4
   1   4   1 485.985  50.616   1
   2  -4   1 143.014  37.783   2
  -2  -4  -1 107.579  29.530   3
  -2  -4  -1 35.8151 42.3559   2
  -2   4  -1 24.6598 30.7300   1
  -2   4  -1 94.4216 45.5836   3
  -2   4  -1 135.179  49.409   4
   2   4   1 147.301  24.601   4
   2   4   1 99.4437 30.8240   1
  -3  -4  -1 2105.23  165.09   3
  -3  -4  -1 2801.82  205.50   2
  -3   4  -1 2262.18  182.41   4
  -3   4  -1 2627.66  166.70   1
  -3   4  -1 2462.43  187.39   3
   3   4   1 2412.80  165.21   1
   3   4   1 2341.68  145.01   4
  -3   4  -1 2663.89  183.98   2
  -4  -4  -1 471.248 103.181   2
  -4  -4  -1 673.968  87.126   3
   4   4   1 597.307  78.817   1
  -4   4  -1 610.115  96.388   3
  -4   4  -1 899.778 111.366   2
  -4   4  -1 712.955  99.174   4
  -4   4  -1 781.745  83.049   1
  -5  -4  -1 538.940 114.865   2
  -5  -4  -1 595.934  91.809   3
   5  -4   1 494.162  71.836   1
   5   4   1 482.211  74.239   1
  -5   4  -1 299.501  84.147   3
  -5   4  -1 493.014  97.339   2
  -5   4  -1 633.244  98.506   4
   6  -4   1 -11.004  58.028   2
  -6  -4  -1 89.9638 59.8100   3
  -6  -4  -1 -30.560  72.189   2
   6   4   1 13.4561 37.8329   1
  -6   4  -1 132.592  69.939   3
   7  -4   1 832.567 141.864   2
  -7  -4  -1 598.370 139.324   2
   7   4   1 582.697  94.285   1
  -7   4  -1 450.753 109.056   3
  -8  -4  -1 389.759 130.090   2
   8  -4   1 709.231 147.498   2
   8   4   1 780.034 115.175   1
  -8   4  -1 522.965 133.070   3
  -8  -5   1 -14.499  88.029   2
   8  -5  -1 11.2767 76.7935   2
  -8  -5   1 41.3257 77.4711   3
   8   5  -1 22.3776 55.3832   1
  -8   5   1 -15.838  79.478   3
  -7  -5   1 1444.10  175.99   3
  -7  -5   1 1032.16  183.03   2
   7  -5  -1 1320.29  171.34   2
  -7   5   1 1290.04  180.32   3
   7   5  -1 1392.57  148.67   1
   6  -5  -1 -30.126  53.793   2
  -6  -5   1  9.8138 65.1134   2
  -6  -5   1 21.5232 50.8501   3
   6   5  -1 11.8471 37.6430   1
  -6   5   1 -28.507  55.335   3
   5  -5  -1 84.6407 54.9969   2
  -5  -5   1 54.3278 68.8363   2
  -5  -5   1 28.8973 50.5487   3
  -5   5   1 -56.191  53.804   3
  -5   5   1 -16.648  53.230   4
   5   5  -1 20.9095 32.6649   1
   4  -5  -1 42.9644 43.9577   2
  -4  -5   1 48.3947 58.2031   2
  -4  -5   1 66.7600 41.9998   3
   4   5  -1 38.4766 29.7638   1
  -4   5   1  6.7661 44.6888   3
  -4   5   1 82.0746 56.8433   4
  -3  -5   1 5596.39  348.06   3
  -3  -5   1 5673.95  369.12   2
   3  -5  -1 5532.50  350.83   2
   3   5  -1 5470.14  337.04   1
  -3   5   1 5428.76  324.50   1
  -3   5   1 5544.82  367.16   3
  -3   5   1 5653.42  361.33   4
   2  -5  -1 175.026  38.255   2
  -2  -5   1 218.646  55.098   2
  -2  -5   1 127.741  37.326   3
  -2   5   1 208.243  56.109   3
   2   5  -1 263.818  40.356   4
  -2   5   1 257.517  57.111   4
   2   5  -1 203.426  40.189   1
  -2   5   1 151.647  31.780   1
  -1  -5   1 48.0044 33.7341   2
   1  -5  -1 51.8578 25.5093   2
  -1  -5   1 42.8471 27.6481   3
   1  -5  -1 28.1056 43.8880   3
   1   5  -1 38.7294 26.4797   1
  -1   5   1 37.5112 21.2573   1
  -1   5   1 54.5686 38.2586   4
   1   5  -1 16.9736 32.9046   4
   0  -5   1 42.6599 21.9207   2
   0  -5  -1  8.7749 34.9615   3
   0  -5   1  5.2595 31.6718   3
   0  -5  -1 14.7714 31.4134   2
   0   5   1 -7.7921 16.4931   1
   0   5  -1 79.2880 37.8024   4
   0   5  -1 19.0633 25.8322   1
   0   5   1 -40.954  25.269   4
  -1  -5  -1 2622.15  175.85   3
  -1  -5  -1 2332.42  184.35   2
   1  -5   1 2729.37  162.04   2
   1  -5   1 2913.50  195.03   3
   1   5   1 2801.54  172.57   4
  -1   5  -1 2613.08  178.25   1
   1   5   1 2578.00  167.95   1
  -1   5  -1 2704.75  187.92   4
  -2  -5  -1  6.3067 24.4525   3
  -2  -5  -1 -17.366  45.057   2
   2  -5   1 -40.626  39.677   3
   2  -5   1 20.2555 28.6396   2
  -2   5  -1 -9.4525 44.9436   4
   2   5   1 25.1009 22.9193   1
  -2   5  -1 24.7303 30.5774   1
   2   5   1 16.7220 21.6758   4
  -3  -5  -1 798.011  81.504   3
  -3  -5  -1 676.200 107.547   2
   3  -5   1 634.709  82.966   2
   3   5   1 705.800  58.492   4
  -3   5  -1 832.348 104.834   3
  -3   5  -1 612.665  96.162   4
   3   5   1 763.596  80.946   1
  -3   5  -1 752.104  81.399   1
   4  -5   1 -10.510  43.188   2
  -4  -5  -1 -22.687  32.054   3
  -4  -5  -1 74.9665 63.6569   2
   4   5   1 20.8478 28.8460   1
  -4   5  -1 23.5786 47.7915   3
  -4   5  -1 82.2206 51.3812   4
  -4   5  -1 22.3780 33.0654   1
   5  -5   1 1723.55  185.41   2
  -5  -5  -1 1816.90  163.39   3
  -5  -5  -1 2099.43  221.13   2
  -5   5  -1 1871.80  196.24   3
  -5   5  -1 1923.59  152.39   1
   5   5   1 2085.29  158.84   1
  -5   5  -1 2218.90  185.13   4
   6  -5   1 -15.595  57.147   2
  -6  -5  -1 21.0844 76.5567   2
  -6  -5  -1 21.7152 47.8259   3
   6   5   1 11.8174 38.6175   1
  -6   5  -1 -35.731  53.635   3
   7  -5   1 608.245 126.829   2
  -7  -5  -1 626.978 143.802   2
   7   5   1 457.407  88.665   1
  -7   5  -1 621.904 127.798   3
  -8  -5  -1  48.055 101.233   2
   8  -5   1 -7.2692 80.9300   2
   8   5   1 14.8411 51.2546   1
  -8   5  -1 81.2350 86.4092   3
  -8  -6   1 83.2128 80.6615   3
   8  -6  -1 19.6967 84.4250   2
  -8  -6   1 188.816 107.429   2
   8   6  -1 -12.904  50.628   1
  -8   6   1 53.7765 90.3510   3
  -7  -6   1 -28.617  77.778   2
  -7  -6   1 43.2216 61.8834   3
   7  -6  -1 75.4229 69.7183   2
  -7   6   1 -18.463  62.157   3
   7   6  -1 -15.505  42.065   1
  -6  -6   1 368.092 107.311   2
   6  -6  -1 551.651 103.460   2
  -6  -6   1 415.927  92.524   3
   6   6  -1 417.714  76.786   1
  -6   6   1 564.770 110.840   4
  -6   6   1 377.810 105.225   3
   5  -6  -1 1932.77  171.98   2
  -5  -6   1 1812.46  207.65   2
  -5  -6   1 2023.11  171.86   3
  -5   6   1 1821.95  203.00   3
  -5   6   1 1815.25  193.51   4
   5   6  -1 2009.84  156.60   1
  -4  -6   1 338.844  86.420   2
   4  -6  -1 334.944  66.431   2
  -4  -6   1 366.664  68.590   3
  -4   6   1 199.111  71.659   4
   4   6  -1 355.015  60.033   1
  -4   6   1 256.137  75.555   3
  -3  -6   1 107.934  55.342   2
  -3  -6   1 90.6671 39.2608   3
   3  -6  -1 48.4415 34.4985   2
  -3   6   1 50.3889 26.4419   1
   3   6  -1 83.7134 36.0357   1
  -3   6   1 81.8485 53.9187   4
  -3   6   1  5.3460 42.8601   3
   3   6  -1 23.8008 23.4327   4
  -2  -6   1 687.480  77.509   3
  -2  -6   1 665.561  88.169   2
   2  -6  -1 485.377  63.040   2
   2  -6  -1 549.185  91.201   3
  -2   6   1 574.913  84.816   4
   2   6  -1 635.934  68.629   4
  -2   6   1 626.067  62.411   1
   2   6  -1 610.994  70.179   1
   1  -6  -1 3192.10  196.85   2
   1  -6  -1 2714.78  216.27   3
  -1  -6   1 3115.48  205.44   3
  -1  -6   1 2911.06  200.75   2
   1   6  -1 3253.68  199.00   1
  -1   6   1 2967.22  211.49   4
  -1   6   1 2958.35  187.73   1
   1   6  -1 3035.19  203.11   4
   0  -6  -1 2196.00  147.72   2
   0  -6   1 1924.72  131.42   2
   0  -6   1 2028.20  154.80   3
   0  -6  -1 2310.70  157.64   3
   0   6  -1 2197.49  155.76   4
   0   6  -1 2150.44  142.80   1
   0   6   1 1932.57  148.80   4
   0   6   1 1737.22  130.80   1
  -1  -6  -1 839.555  95.568   2
  -1  -6  -1 846.541  87.955   3
   1  -6   1 892.887 106.623   3
   1  -6   1 859.794  63.354   2
  -1   6  -1 758.354  96.756   4
   1   6   1 825.924  73.445   1
  -1   6  -1 913.205  90.158   1
   1   6   1 827.490  83.632   4
   2  -6   1 243.946  64.835   3
   2  -6   1 271.920  42.876   2
  -2  -6  -1 264.636  46.929   3
  -2  -6  -1 225.322  63.946   2
   2   6   1 262.500  44.494   1
  -2   6  -1 319.348  54.263   1
  -2   6  -1 228.436  66.250   4
   2   6   1 211.595  40.683   4
  -3  -6  -1 2418.52  202.74   2
   3  -6   1 2200.49  168.40   2
  -3  -6  -1 2519.25  169.13   3
   3  -6   1 1932.01  186.89   3
  -3   6  -1 2450.81  194.47   4
   3   6   1 2477.18  152.30   4
  -3   6  -1 2183.85  166.23   1
   3   6   1 2403.69  166.36   1
   4  -6   1 106.505  49.002   2
  -4  -6  -1 134.483  47.594   3
  -4  -6  -1 175.418  75.228   2
  -4   6  -1 131.999  44.258   1
  -4   6  -1 86.6384 59.2846   3
  -4   6  -1 36.3319 56.7778   4
   4   6   1 227.877  50.538   1
   5  -6   1 651.638 101.348   2
  -5  -6  -1 577.869  94.371   3
  -5  -6  -1 647.278 130.840   2
   5   6   1 566.459  85.709   1
  -5   6  -1 670.785 113.705   4
  -5   6  -1 681.486 113.294   3
   6  -6   1 -2.1176 60.3793   2
  -6  -6  -1 75.3369 60.9530   3
  -6  -6  -1 -96.375  70.451   2
  -6   6  -1 20.8144 69.9988   4
  -6   6  -1 63.8290 70.3888   3
   6   6   1 -7.6047 40.3013   1
   7  -6   1 660.947 130.248   2
  -7  -6  -1 795.484 163.895   2
  -7   6  -1 457.147 117.315   3
   7   6   1 804.310 111.681   1
  -8  -6  -1 272.304 126.061   2
   8  -6   1 259.068 104.785   2
   8   6   1 321.736  85.263   1
  -8   6  -1 344.511 118.279   3
   8  -7  -1 862.641 150.794   2
  -8  -7   1 894.505 183.626   2
  -8  -7   1 729.450 145.274   3
   8   7  -1 670.136 119.990   1
  -8   7   1 909.187 165.867   3
  -7  -7   1 417.010 125.939   2
  -7  -7   1 622.376 121.801   3
   7  -7  -1 339.377  94.050   2
  -7   7   1 336.415 108.972   3
   7   7  -1 381.580  84.083   1
  -6  -7   1 735.249 117.356   3
  -6  -7   1 610.961 133.168   2
   6  -7  -1 636.021 109.264   2
  -6   7   1 424.036 105.548   3
   6   7  -1 592.281  92.866   1
  -6   7   1 556.357 117.650   4
   5  -7  -1 416.714  82.100   2
  -5  -7   1 434.826  81.747   3
  -5  -7   1 259.060  91.806   2
  -5   7   1 124.786  73.507   4
   5   7  -1 424.286  72.938   1
  -5   7   1 130.194  76.725   3
  -4  -7   1 1517.16  172.29   2
   4  -7  -1 1690.73  138.40   2
  -4  -7   1 1445.68  146.59   3
  -4   7   1 1509.88  166.65   4
  -4   7   1 1388.46  168.99   3
   4   7  -1 1520.65  130.07   1
   3  -7  -1 465.893 100.833   3
  -3  -7   1 522.952  75.756   3
  -3  -7   1 554.642  92.626   2
   3  -7  -1 469.073  66.589   2
  -3   7   1 472.874  88.176   4
  -3   7   1 343.886  81.069   3
   3   7  -1 417.553  65.143   1
   2  -7  -1 4423.31  266.72   2
   2  -7  -1 3635.18  291.53   3
  -2  -7   1 4208.65  285.20   2
  -2  -7   1 4432.82  276.60   3
   2   7  -1 4215.63  268.42   1
  -2   7   1 4415.04  261.49   1
   2   7  -1 4043.18  266.35   4
  -2   7   1 4133.14  289.58   4
   1  -7  -1 -12.201  42.702   3
   1  -7  -1 53.7276 33.8230   2
  -1  -7   1  6.9781 35.7374   2
  -1  -7   1 74.0559 36.7911   3
  -1   7   1 -20.177  40.918   4
  -1   7   1 61.1691 27.3185   1
   1   7  -1 23.2843 30.0288   1
   1   7  -1 17.5688 38.4718   4
   0  -7   1 972.689 103.162   3
   0  -7   1 954.338  77.023   2
   0  -7  -1 968.342 104.653   3
   0  -7  -1 936.319  94.472   2
   0   7   1 973.855 103.152   4
   0   7  -1 938.413  92.128   1
   0   7  -1 891.372 103.755   4
   0   7   1 877.011  77.761   1
   1  -7   1 1766.32  116.56   2
  -1  -7  -1 1485.74  137.79   2
   1  -7   1 1324.79  151.97   3
  -1  -7  -1 1655.95  132.78   3
   1   7   1 1749.75  124.95   1
  -1   7  -1 2184.69  158.46   4
   1   7   1 1820.37  134.86   4
  -1   7  -1 1765.05  133.97   1
   2  -7   1 4133.60  251.92   2
   2  -7   1 4293.93  292.65   3
  -2  -7  -1 4196.68  265.23   3
  -2  -7  -1 4134.22  289.82   2
   2   7   1 3829.08  256.60   4
  -2   7  -1 3604.82  280.80   4
  -2   7  -1 4116.15  266.42   1
   2   7   1 4212.37  257.35   1
   3  -7   1 97.7185 66.0167   3
  -3  -7  -1 99.9954 66.5481   2
   3  -7   1 131.395  40.064   2
  -3  -7  -1 156.561  45.192   3
  -3   7  -1 181.169  65.022   4
   3   7   1 103.736  35.855   4
   3   7   1 57.7771 35.0727   1
  -3   7  -1 99.3516 44.3179   1
  -4  -7  -1  2.5733 64.2319   2
   4  -7   1  8.2279 53.7342   3
  -4  -7  -1 60.9501 40.9443   3
   4  -7   1 -0.8081 34.9512   2
  -4   7  -1 17.2341 50.0002   3
  -4   7  -1 33.1241 56.8923   4
   4   7   1 51.4061 36.5367   1
  -5  -7  -1 422.021  77.489   3
  -5  -7  -1 232.719  96.038   2
   5  -7   1 237.973  69.560   2
  -5   7  -1 137.127  74.581   4
  -5   7  -1 101.403  69.499   3
   5   7   1 185.838  55.888   1
  -6  -7  -1 965.578 173.260   2
   6  -7   1 1369.68  159.05   2
  -6  -7  -1 1110.92  142.47   3
  -6   7  -1 1138.27  163.11   3
   6   7   1 1011.41  125.58   1
  -6   7  -1 1318.92  167.65   4
  -7  -7  -1 138.440 100.451   2
   7   7   1 161.192  60.477   1
  -7   7  -1 144.303  90.194   3
   8   7   1 90.1817 63.1493   1
  -8   7  -1 -46.291  76.886   3
  -8  -8   1 648.010 162.170   2
  -8   8   1 455.441 138.378   3
  -7  -8   1 41.1105 93.4887   2
  -7  -8   1 -51.221  58.541   3
   7   8  -1 -9.7454 53.8442   1
  -7   8   1 34.0335 76.1367   3
  -6  -8   1 994.954 170.054   2
  -6  -8   1 1154.69  152.41   3
   6  -8  -1 1143.11  146.20   2
   6   8  -1 1214.92  137.21   1
  -6   8   1 1281.81  173.15   3
  -6   8   1 946.693 155.047   4
  -5  -8   1 269.728  73.372   3
   5  -8  -1 172.531  60.705   2
  -5  -8   1 237.840  89.825   2
  -5   8   1 135.901  80.316   4
   5   8  -1 277.495  65.170   1
  -5   8   1 189.049  79.975   3
   4  -8  -1 1269.59  171.73   3
  -4  -8   1 1504.51  146.39   3
   4  -8  -1 1435.81  135.24   2
  -4  -8   1 1324.98  161.40   2
  -4   8   1 973.749 146.462   4
   4   8  -1 1239.99  129.37   1
  -4   8   1 1211.00  156.17   3
   3  -8  -1 -0.7999 30.0019   2
  -3  -8   1 -10.234  49.672   2
   3  -8  -1 113.632  70.190   3
  -3  -8   1 35.4596 40.1243   3
  -3   8   1 40.7879 58.7972   4
   3   8  -1 54.5905 34.7752   1
  -2  -8   1 1335.80  127.29   3
   2  -8  -1 1278.37  101.40   2
  -2  -8   1 1123.96  126.26   2
   2  -8  -1 990.344 135.943   3
   2   8  -1 1189.80  116.47   4
   2   8  -1 1147.76  103.48   1
  -2   8   1 1451.60  109.11   1
  -2   8   1 1134.85  137.09   4
   1  -8  -1 197.892  61.483   3
  -1  -8   1 146.284  48.400   2
   1  -8  -1 217.536  52.283   2
  -1  -8   1 111.440  45.041   3
   1   8  -1 176.615  45.676   1
  -1   8   1 141.449  37.760   1
  -1   8   1 107.988  53.311   4
   1   8  -1 127.294  50.516   4
   0  -8   1 5149.29  312.09   2
   0  -8  -1 5186.03  325.65   2
   0  -8   1 5303.00  335.88   3
   0   8   1 4885.63  311.03   1
   0   8   1 5238.35  334.30   4
   0   8  -1 5037.69  319.36   1
   0   8  -1 5145.44  337.01   4
   1  -8   1 175.129  62.257   3
  -1  -8  -1 185.519  58.898   2
  -1  -8  -1 183.857  50.735   3
   1  -8   1 201.842  39.957   2
   1   8   1 231.268  43.117   1
  -1   8  -1 129.470  45.521   1
  -1   8  -1 111.295  58.106   4
   1   8   1 68.7618 44.3758   4
   2  -8   1 84.9195 55.0168   3
   2  -8   1 76.2904 27.7490   2
  -2  -8  -1 34.1869 37.2835   3
  -2  -8  -1 200.412  66.009   2
  -2   8  -1 67.1793 45.6812   1
  -2   8  -1 206.169  70.085   4
   2   8   1 74.2884 40.6164   4
   2   8   1 143.220  40.183   1
  -3  -8  -1 -20.453  54.459   2
  -3  -8  -1 79.9335 43.6556   3
   3  -8   1 88.8814 66.9634   3
   3  -8   1 66.7350 34.5446   2
  -3   8  -1 33.5472 42.7927   1
  -3   8  -1 -71.771  41.842   4
   3   8   1 24.3150 31.0176   1
   4  -8   1 2874.21  240.54   3
  -4  -8  -1 2785.87  196.32   3
  -4  -8  -1 2232.92  241.39   2
   4   8   1 2367.11  183.91   1
  -4   8  -1 2173.68  229.81   4
  -5  -8  -1  8.0708 72.4748   2
   5  -8   1 38.2161 69.9899   3
  -5  -8  -1 -4.7803 46.2680   3
   5   8   1 35.1769 41.2512   1
  -5   8  -1 16.6817 68.6889   4
   6  -8   1 -63.560  74.921   3
  -6  -8  -1 30.0503 87.9614   2
  -6  -8  -1 -11.878  58.736   3
  -6   8  -1 121.810  80.716   3
  -6   8  -1 -12.838  75.663   4
   6   8   1 74.5968 49.2080   1
  -7  -8  -1  87.833 101.958   2
  -7   8  -1 -54.179  68.235   3
   7   8   1 -16.489  46.198   1
  -7  -9   1 309.228  95.904   3
  -7  -9   1 275.457 127.201   2
   7   9  -1 257.115  77.488   1
  -7   9   1 187.926 100.537   3
  -6  -9   1 192.975  99.467   2
  -6  -9   1 445.196 101.086   3
  -6   9   1 403.610 116.001   4
   6   9  -1 379.692  80.695   1
  -6   9   1 252.608  99.701   3
   5  -9  -1 -65.457  74.729   3
  -5  -9   1 60.0422 58.7343   3
  -5  -9   1 34.9907 81.2714   2
   5   9  -1 14.1171 39.3534   1
  -5   9   1 -20.317  53.022   3
  -5   9   1 78.2840 70.0309   4
   4  -9  -1 695.417 142.662   3
   4  -9  -1 1023.30  110.65   2
  -4  -9   1 618.451 120.734   2
  -4  -9   1 1041.69  123.20   3
  -4   9   1 714.465 123.785   4
   4   9  -1 893.809 107.850   1
   3  -9  -1 1643.17  193.82   3
  -3  -9   1 1846.21  183.38   2
  -3  -9   1 1860.64  159.16   3
   3  -9  -1 1899.24  140.90   2
   3   9  -1 1598.80  143.15   1
  -3   9   1 2020.87  198.36   4
  -2  -9   1 1844.03  155.63   2
   2  -9  -1 1709.27  132.24   2
  -2  -9   1 1613.72  158.91   3
   2  -9  -1 1467.79  173.02   3
   2   9  -1 1776.47  141.01   1
  -2   9   1 1660.15  175.26   4
   2   9  -1 1787.55  147.70   4
   1  -9  -1 343.815  77.892   3
  -1  -9   1 295.961  66.699   3
   1  -9  -1 594.117  74.918   2
  -1  -9   1 472.300  70.903   2
   1   9  -1 255.032  57.256   1
  -1   9   1 466.669  63.402   1
   1   9  -1 528.148  82.810   4
  -1   9   1 521.600  91.156   4
   0  -9  -1 548.909  85.222   3
   0  -9   1 341.235  71.769   3
   0  -9  -1 365.125  67.157   2
   0   9  -1 255.026  67.950   4
   0   9   1 482.516  81.490   4
   0   9   1 518.096  63.021   1
   0   9  -1 517.948  70.862   1
  -1  -9  -1 534.367  84.754   2
   1  -9   1 605.485  95.585   3
  -1  -9  -1 424.287  73.511   3
  -1   9  -1 380.781  68.771   1
  -1   9  -1 438.083  87.935   4
   1   9   1 367.572  59.317   1
   1   9   1 419.597  73.379   4
  -2  -9  -1 1637.75  171.09   2
  -2  -9  -1 1678.47  142.29   3
   2  -9   1 1499.12  172.89   3
   2   9   1 1625.05  139.21   4
   2   9   1 1563.33  128.97   1
  -2   9  -1 1671.35  155.77   1
  -2   9  -1 1833.47  180.24   4
   3  -9   1 208.928  75.771   3
  -3  -9  -1 57.3330 66.3170   2
  -3  -9  -1 142.299  51.919   3
  -3   9  -1 189.479  72.121   4
   3   9   1 168.872  50.118   1
   4  -9   1 23.0330 71.6841   3
  -4  -9  -1 13.3346 41.5073   3
  -4  -9  -1 139.001  78.545   2
   4   9   1 31.9786 37.5047   1
  -4   9  -1 10.5428 64.2846   4
   5  -9   1 1480.14  195.14   3
  -5  -9  -1 1291.39  149.90   3
  -5  -9  -1 1473.95  196.61   2
   5   9   1 1216.35  134.31   1
  -5   9  -1 1014.37  157.54   4
   6  -9   1 931.140 173.282   3
  -6  -9  -1 686.727 154.561   2
  -6   9  -1 771.860 147.706   4
   6   9   1 975.618 122.718   1
  -7  -9  -1 219.769 129.798   2
   7  -9   1 126.020 121.887   3
   7   9   1 397.061  85.970   1
   7 -10  -1  66.097 122.286   3
  -7 -10   1 -159.44   81.31   2
  -7 -10   1 -11.609  70.380   3
   7  10  -1 -45.482  51.613   1
   6 -10  -1 114.111 105.923   3
  -6 -10   1 148.899  77.420   3
  -6 -10   1 37.2743 88.9281   2
   6  10  -1 -15.612  51.430   1
  -6  10   1 22.1914 85.4106   4
  -5 -10   1 1621.34  206.93   2
  -5 -10   1 2112.41  201.68   3
   5 -10  -1 1956.76  241.52   3
   5  10  -1 1602.60  166.50   1
  -5  10   1 1607.71  203.65   4
   4 -10  -1 164.213  87.851   3
  -4 -10   1 174.121  79.358   2
  -4 -10   1 214.586  69.791   3
  -4  10   1 53.1618 72.1238   4
   4  10  -1 105.450  48.242   1
  -3 -10   1 63.5139 62.1737   2
   3 -10  -1 -100.17   44.25   3
  -3 -10   1 69.8220 51.4431   3
  -3  10   1  7.1907 58.8785   4
   3  10  -1 90.3563 42.5053   1
  -2 -10   1 23.0602 43.3280   3
   2 -10  -1 22.0190 54.3989   3
  -2  10   1 45.4955 59.9688   4
   2  10  -1 83.1914 49.2236   4
   2  10  -1 16.7569 37.3043   1
  -1 -10   1 2108.83  165.70   3
   1 -10  -1 1601.94  138.73   2
   1 -10  -1 2092.10  173.93   3
   1  10  -1 1934.57  164.19   4
  -1  10   1 1743.43  138.27   1
   1  10  -1 1659.73  142.59   1
  -1  10   1 1969.60  189.82   4
   0 -10  -1 49.2922 46.4536   3
   0 -10   1 19.5009 42.2969   3
   0 -10  -1 15.4889 42.8637   2
   0  10  -1 67.9437 41.5079   1
   0  10   1  6.0821 31.4695   1
   0  10   1 129.676  58.283   4
   0  10  -1 60.9119 54.4779   4
  -1 -10  -1 45.9549 45.5984   3
  -1 -10  -1 70.7292 53.2553   2
   1 -10   1 -9.7689 41.9075   3
  -1  10  -1 15.1524 50.0858   4
  -1  10  -1 -12.628  36.935   1
   1  10   1  4.8811 30.9244   1
   1  10   1 -10.151  46.960   4
   2 -10   1  2.7703 47.9225   3
  -2 -10  -1  7.8004 56.9566   2
  -2 -10  -1 -36.410  38.561   3
  -2  10  -1 58.4236 61.0266   4
  -2  10  -1 21.7590 44.5297   1
   2  10   1 -72.482  40.525   4
   2  10   1 31.0346 33.0221   1
  -3 -10  -1 3025.80  262.23   2
  -3 -10  -1 3521.05  246.05   3
   3 -10   1 3271.02  268.54   3
   3  10   1 3390.77  232.52   1
  -3  10  -1 2947.30  263.73   4
  -4 -10  -1 217.914  67.688   3
   4 -10   1 298.778 100.912   3
  -4 -10  -1 265.835  98.734   2
   4  10   1 81.8503 48.3547   1
  -4  10  -1 131.512  75.011   4
  -5 -10  -1 984.887 166.996   2
  -5 -10  -1 1213.66  143.59   3
   5 -10   1 1134.94  181.80   3
  -5  10  -1 711.405 145.187   4
   5  10   1 1119.88  129.03   1
  -6 -10  -1 114.951 101.211   2
   6 -10   1 -62.464  83.527   3
   6  10   1 99.3246 53.6037   1
  -6  10  -1 105.125  83.734   4
   7 -10   1 273.250 137.098   3
  -7 -10  -1 514.203 157.830   2
  -7 -11   1 679.990 141.918   3
  -7  11   1 698.253 157.861   4
  -6 -11   1 294.578  96.973   3
   6 -11  -1 309.322 125.598   3
  -6  11   1 71.2816 93.9448   4
   6  11  -1 252.436  73.514   1
  -5 -11   1 24.7042 57.6924   3
   5 -11  -1 -13.104  87.065   3
  -5  11   1 -106.66   67.19   4
   5  11  -1 -33.794  34.025   1
  -4 -11   1 -44.172  47.132   3
   4 -11  -1 -53.399  69.710   3
  -4  11   1 90.3003 74.7398   4
   4  11  -1 36.7129 44.3849   1
   3 -11  -1 1818.52  202.17   3
  -3 -11   1 1453.62  166.64   3
   3  11  -1 1365.48  147.18   1
  -3  11   1 1343.50  175.03   4
  -2 -11   1 -14.392  47.712   3
   2 -11  -1 76.1951 68.8334   3
   2  11  -1 27.7538 43.9145   1
  -2  11   1 -73.679  57.293   4
   2  11  -1 90.2847 61.0058   4
   1 -11  -1 190.391  65.698   3
  -1 -11   1 183.553  61.844   3
   1  11  -1 95.2112 63.0576   4
  -1  11   1 202.214  75.760   4
   1  11  -1 121.140  50.438   1
   0 -11   1 530.903  87.568   3
   0 -11  -1 636.212  95.583   3
   0  11  -1 314.995  84.130   4
   0  11  -1 502.890  80.520   1
   0  11   1 531.025  96.877   4
   0  11   1 462.144  69.886   1
  -1 -11  -1 1725.33  169.23   3
   1 -11   1 1546.19  172.78   3
   1  11   1 1619.56  136.44   1
  -1  11  -1 1708.10  146.98   1
   1  11   1 1571.79  166.48   4
  -1  11  -1 1735.01  182.44   4
  -2 -11  -1 750.792 118.394   2
   2 -11   1 706.709 120.164   3
  -2 -11  -1 572.130  96.906   3
   2  11   1 651.409 101.111   4
   2  11   1 698.900  89.069   1
  -2  11  -1 485.927 112.249   4
   3 -11   1 382.942 103.232   3
  -3 -11  -1 110.036  81.441   2
  -3 -11  -1 254.220  73.719   3
   3  11   1 366.775  69.527   1
  -3  11  -1 342.725  97.304   4
  -4 -11  -1 41.1751 53.6343   3
   4 -11   1 -29.378  59.996   3
  -4 -11  -1 57.7315 78.8649   2
  -4  11  -1 -7.1639 69.3928   4
   4  11   1 -48.861  35.212   1
  -5 -11  -1 1272.27  157.84   3
   5 -11   1 1406.69  203.32   3
  -5 -11  -1 1130.02  186.53   2
   5  11   1 1173.92  140.60   1
  -5  11  -1 1282.33  184.64   4
  -6 -11  -1 -15.524 102.212   2
   6 -11   1 227.345 123.629   3
   6  11   1 283.615  81.452   1
  -6  11  -1 406.149 123.777   4
   6 -12  -1 759.769 175.996   3
  -6 -12   1 684.315 135.102   3
   6  12  -1 766.427 122.356   1
  -6  12   1 526.342 148.706   4
   5 -12  -1 109.667  94.241   3
  -5 -12   1 247.683  84.674   3
   5  12  -1 131.898  59.417   1
  -5  12   1 134.242  96.941   4
  -4 -12   1 804.100 131.293   3
   4 -12  -1 729.444 151.763   3
   4  12  -1 668.104 106.057   1
  -4  12   1 621.384 128.217   4
  -3 -12   1 107.120  61.018   3
   3 -12  -1 140.445  80.543   3
   3  12  -1 -26.728  42.875   1
  -3  12   1  3.5356 66.2712   4
   2 -12  -1 149.573  82.647   3
  -2 -12   1 295.585  80.504   3
  -2  12   1 360.605  98.848   4
   2  12  -1 484.017  83.509   1
   1 -12  -1 1397.17  162.27   3
  -1 -12   1 1598.85  165.61   3
   1  12  -1 1391.38  162.66   4
   1  12  -1 1299.27  137.30   1
  -1  12   1 1234.30  161.91   4
   0 -12  -1 1654.40  172.15   3
   0 -12   1 1822.80  177.93   3
   0  12   1 1346.19  172.15   4
   0  12  -1 1636.58  182.67   4
   0  12  -1 1879.08  151.18   1
   0  12   1 1706.10  139.28   1
   1 -12   1 512.291  98.034   3
  -1 -12  -1 571.700  94.840   3
  -1  12  -1 345.097  97.504   4
   1  12   1 463.056  76.191   1
  -1  12  -1 448.151  87.642   1
   1  12   1 295.408  84.400   4
  -2 -12  -1 156.625  58.983   3
   2 -12   1 71.9742 63.3937   3
  -2  12  -1 110.603  71.327   4
   2  12   1 94.2755 49.1306   1
   3 -12   1 -5.7747 65.2380   3
  -3 -12  -1 123.408  63.041   3
  -3  12  -1 88.4107 77.1896   4
   3  12   1 165.146  56.139   1
  -4 -12  -1 1532.38  173.38   3
   4 -12   1 1303.43  193.16   3
  -4  12  -1 1272.66  184.80   4
   4  12   1 1229.57  143.60   1
  -5 -12  -1 -31.891  58.559   3
  -5 -12  -1 10.7371 94.4957   2
   5 -12   1 103.652  84.042   3
  -5  12  -1  3.1281 83.0295   4
   5  12   1 -15.821  46.968   1
  -6 -12  -1 -160.79   87.92   2
   6 -12   1  38.425 106.392   3
   6  12   1 -8.7623 52.6231   1
  -6  12  -1 -101.29   82.74   4
  -6 -13   1 215.029 100.893   3
  -6  13   1 448.337 136.548   4
  -5 -13   1 108.411  80.093   3
   5 -13  -1  66.055 100.564   3
   5  13  -1 39.3849 50.6296   1
  -5  13   1 119.463  93.567   4
   4 -13  -1 1403.90  202.55   3
  -4 -13   1 1199.25  164.47   3
  -4  13   1 1020.32  171.77   4
   4  13  -1 1246.21  149.66   1
   3 -13  -1 -9.0969 61.2387   3
  -3 -13   1 30.5683 58.2028   3
  -3  13   1 20.4988 68.0467   4
   3  13  -1 -14.731  45.965   1
   2 -13  -1 2318.52  241.32   3
  -2 -13   1 2544.27  212.60   3
  -2  13   1 2078.32  232.89   4
   2  13  -1 2242.96  187.06   1
  -1 -13   1 43.9255 53.3525   3
   1 -13  -1 25.9083 54.1006   3
   1  13  -1 12.1545 42.2624   1
   1  13  -1 39.5603 64.3674   4
  -1  13   1 -63.401  56.795   4
   0 -13  -1 121.946  60.352   3
   0 -13   1 109.680  58.989   3
   0  13  -1 46.8101 67.0078   4
   0  13   1 129.372  71.531   4
   0  13  -1 222.922  60.764   1
  -1 -13  -1 157.068  65.004   3
   1 -13   1 123.274  60.348   3
   1  13   1 151.140  70.018   4
  -1  13  -1 85.8263 76.6820   4
   1  13   1 139.605  50.114   1
   2 -13   1 1794.86  208.93   3
  -2 -13  -1 2078.28  206.15   3
   2  13   1 2175.41  173.20   1
  -2  13  -1 1822.61  216.07   4
  -3 -13  -1  8.3463 56.4405   3
   3 -13   1 -21.327  64.329   3
  -3  13  -1 108.774  85.938   4
   3  13   1 104.889  53.700   1
   4 -13   1 31.7322 87.0239   3
  -4 -13  -1 14.0180 64.2318   3
   4  13   1  1.4636 46.3661   1
  -4  13  -1 -64.615  67.876   4
   5 -13   1 24.9972 99.8018   3
   5  13   1 19.6474 52.7965   1
  -5  13  -1 140.868 103.861   4
  -5 -14   1 571.121 129.013   3
   5 -14  -1  66.812 106.180   3
  -5  14   1 380.973 123.644   4
   5  14  -1 465.704 100.327   1
   4 -14  -1 581.978 153.381   3
  -4 -14   1 741.824 137.145   3
  -4  14   1 699.278 146.503   4
   4  14  -1 836.315 127.173   1
  -3 -14   1 -0.2471 65.1288   3
   3 -14  -1 30.3929 76.3789   3
   3  14  -1 72.0214 56.6440   1
  -3  14   1 -9.5394 74.1842   4
  -2 -14   1 505.470 105.269   3
   2 -14  -1 307.546  98.849   3
  -2  14   1 199.119  89.435   4
   2  14  -1 384.750  83.621   1
  -1 -14   1 878.619 128.921   3
   1 -14  -1 803.514 124.387   3
   1  14  -1 887.266 135.575   4
  -1  14   1 685.711 129.399   4
   1  14  -1 741.012 111.525   1
   0 -14   1 1301.94  152.53   3
   0 -14  -1 993.401 136.637   3
   0  14  -1 1004.49  152.12   4
   0  14   1 1141.55  156.64   4
   0  14  -1 895.085 124.818   1
   1 -14   1 58.8674 52.6178   3
  -1 -14  -1 253.510  77.112   3
   1  14   1 276.006  87.619   4
   1  14   1 200.793  65.521   1
  -1  14  -1 192.677  88.607   4
   2 -14   1 142.417  71.397   3
  -2 -14  -1 128.352  68.805   3
   2  14   1 -0.7961 48.0345   1
  -2  14  -1 10.9558 75.1194   4
   3 -14   1 398.483 108.816   3
  -3 -14  -1 326.905  92.013   3
  -3  14  -1 167.954  96.032   4
   3  14   1 636.031 100.826   1
  -4 -14  -1 478.750 114.124   3
   4 -14   1 543.821 143.042   3
  -4  14  -1 388.842 127.178   4
   4  14   1 532.308 101.849   1
   5 -14   1 245.869 120.949   3
  -5  14  -1  3.0705 95.4661   4
   5  14   1 64.5008 58.8621   1
   4 -15  -1  56.800 106.659   3
  -4 -15   1 -18.933  76.244   3
   4  15  -1 25.0784 58.5432   1
  -4  15   1 77.2533 94.7196   4
   3 -15  -1 1367.56  197.57   3
  -3 -15   1 1091.18  166.45   3
  -3  15   1 1210.84  186.67   4
   3  15  -1 1224.14  152.88   1
   2 -15  -1 22.0837 65.5096   3
  -2 -15   1 167.634  77.016   3
  -2  15   1 14.6257 71.9344   4
   2  15  -1 137.272  65.590   1
   1 -15  -1 26.2203 57.9872   3
  -1 -15   1 32.5440 53.1144   3
  -1  15   1 22.8411 73.5656   4
   1  15  -1 18.6363 73.5244   4
   1  15  -1 18.9318 49.6556   1
   0 -15  -1 113.674  66.158   3
   0 -15   1 77.1280 56.9318   3
   0  15  -1 103.468  75.525   4
   0  15   1 50.1437 71.8194   4
  -1 -15  -1 1166.15  155.79   3
   1 -15   1 1206.66  155.58   3
  -1  15  -1 1343.94  181.77   4
   1  15   1 1174.35  166.07   4
   2 -15   1 269.790  84.863   3
  -2 -15  -1 234.359  85.456   3
   2  15   1 96.1412 63.9091   1
  -2  15  -1 138.135  91.708   4
  -3 -15  -1 417.204 102.968   3
   3 -15   1 476.725 123.570   3
  -3  15  -1 329.103 118.522   4
   3  15   1 526.196 103.862   1
  -4 -15  -1 -78.616  67.654   3
   4 -15   1 -37.679  88.699   3
  -4  15  -1 47.7929 88.1610   4
   4  15   1 29.8773 58.9852   1
  -4 -16   1 -103.39   82.80   3
  -3 -16   1 86.6498 81.6691   3
   3 -16  -1 78.5909 81.3069   3
  -3  16   1 -37.486  79.924   4
   3  16  -1  3.6690 60.9748   1
  -2 -16   1 -37.964  58.997   3
   2 -16  -1 126.295  78.572   3
  -2  16   1 22.0375 86.0352   4
   2  16  -1 -12.822  53.453   1
   1 -16  -1 835.898 134.010   3
  -1 -16   1 902.176 143.100   3
  -1  16   1 1013.91  161.78   4
   0 -16   1 73.4619 63.2520   3
   0 -16  -1 -21.995  57.606   3
   0  16  -1 -100.90   72.44   4
   0  16   1 -7.9935 73.5731   4
  -1 -16  -1 44.9081 67.3209   3
   1 -16   1 136.524  76.383   3
  -1  16  -1 201.000 101.450   4
   2 -16   1 59.5792 62.8692   3
  -2 -16  -1 23.8572 69.3165   3
  -2  16  -1 -22.736  84.423   4
   3 -16   1 1237.65  180.88   3
  -3 -16  -1 902.992 156.397   3
  -3  16  -1 872.239 176.588   4
   3  16   1 1190.27  155.10   1
   2 -17  -1 483.531 117.359   3
  -2 -17   1 625.067 126.612   3
   2  17  -1 1045.33  145.56   1
  -2  17   1 570.343 143.702   4
  -1 -17   1 22.9065 63.8184   3
   1 -17  -1 -40.459  60.092   3
  -1  17   1 -75.727  77.309   4
   0 -17  -1 107.814  74.767   3
   0 -17   1 53.3225 63.7220   3
   0  17  -1 -11.463  83.559   4
   0  17   1 200.517 101.469   4
  -1 -17  -1 525.285 114.610   3
   1 -17   1 588.435 120.583   3
  -1  17  -1 392.517 125.178   4
  -2 -17  -1 368.290 102.979   3
  -2  17  -1 356.864 124.516   4
  -9   0   2 38.4641 95.6153   3
   8   0  -2 58.6660 85.3400   2
  -8   0   2 -83.533  59.636   3
   7   0  -2 56.1206 78.1305   2
  -7   0   2 43.3224 65.3412   3
   6   0  -2 5562.79  402.05   2
  -6   0   2 5983.02  400.98   3
   6   0  -2 5326.60  345.69   1
  -5   0   2 40.5403 58.5080   2
   5   0  -2 19.6050 58.4162   2
  -5   0   2 22.9911 45.7642   3
   5   0  -2 -23.933  21.689   1
   4   0  -2 2584.86  209.14   2
  -4   0   2 2902.27  177.31   4
   4   0  -2 2587.93  173.15   1
  -4   0   2 2464.94  208.31   2
  -4   0   2 2933.44  207.53   3
   3   0  -2 31.0341 39.8046   2
  -3   0   2 -23.273  24.443   4
  -3   0   2 44.9786 39.0280   3
   3   0  -2 10.4614 18.2546   1
   2   0  -2 4092.71  234.90   1
  -2   0   2 3942.35  254.80   3
   2   0  -2 3958.73  259.75   2
  -2   0   2 4093.98  235.96   4
  -1   0   2 -1.8600 24.1478   3
   1   0  -2 -20.661  16.106   1
   1   0  -2 -8.1653 26.3829   2
  -1   0   2 -12.707  14.781   4
   0   0  -2 3927.66  237.05   1
   0   0   2 4242.05  230.91   3
   0   0   2 4221.23  236.42   4
   0   0  -2 3595.89  244.47   2
  -1   0  -2 -6.4932 32.0368   2
  -1   0  -2 -21.948  16.789   3
  -1   0  -2 74.6937 29.0977   1
   1   0   2 35.1573 25.8505   4
   2   0   2 903.257  83.014   4
  -2   0  -2 1124.82  109.27   2
  -2   0  -2 916.308  80.802   3
  -2   0  -2 1277.44   89.04   1
  -3   0  -2 -17.449  28.849   3
  -3   0  -2 -3.4081 27.3599   1
   3   0   2 -7.0659 28.4799   4
  -3   0  -2  3.5528 39.0819   2
  -4   0  -2 2003.32  151.01   3
   4   0   2 1936.16  138.04   4
   4   0   2 1569.69  134.70   1
  -4   0  -2 1744.30  180.32   2
  -5   0  -2 -18.078  45.015   3
   5   0   2 43.7789 36.6048   1
  -5   0  -2 66.1455 63.6145   2
  -6   0  -2 72.0467 63.8924   3
  -6   0  -2 11.2660 65.1017   2
   6   0   2 118.345  49.967   1
  -7   0  -2 111.075  87.110   2
   7   0   2 11.0809 44.7599   1
  -8   0  -2 1603.56  223.18   2
   8   0   2 1347.90  158.16   1
  -9  -1   2 -104.62   88.92   3
  -9   1   2  92.178 102.227   3
  -8  -1   2 895.384 153.072   3
   8  -1  -2 856.714 161.784   2
  -8   1   2 780.945 153.726   3
   8   1  -2 968.828 177.714   2
   7  -1  -2 167.112  90.453   2
  -7  -1   2 188.641  80.317   3
   7   1  -2 185.298  87.857   2
   7   1  -2 199.960  54.667   1
  -7   1   2 123.652  85.828   3
   6  -1  -2 -16.528  57.976   2
  -6  -1   2 88.8057 63.1817   3
   6  -1  -2 68.0604 33.8563   1
  -6  -1   2 152.679  73.541   2
   6   1  -2 102.068  39.767   1
  -6   1   2 35.4765 59.3185   3
  -5  -1   2 593.397  98.843   3
  -5  -1   2 545.005 104.870   2
   5  -1  -2 548.573  63.423   1
   5  -1  -2 538.148 100.774   2
   5   1  -2 549.782  68.047   1
  -5   1   2 444.172  92.251   3
   4  -1  -2 2882.23  188.39   1
  -4  -1   2 2942.61  220.61   3
   4  -1  -2 3145.35  233.44   2
  -4  -1   2 3218.68  186.03   4
  -4  -1   2 3008.56  233.19   2
  -4   1   2 3351.06  204.30   4
   4   1  -2 2717.57  192.53   1
  -4   1   2 3070.65  227.45   3
   3  -1  -2 1574.47  106.61   1
  -3  -1   2 1512.99  140.07   2
  -3  -1   2 1759.50  136.99   3
  -3  -1   2 1832.18  106.81   4
   3  -1  -2 1761.02  139.79   2
  -3   1   2 1650.12  139.11   3
   3   1  -2 1620.20  111.86   1
  -3   1   2 1458.22  117.79   4
   2  -1  -2 2888.23  175.83   1
  -2  -1   2 2878.16  198.08   3
  -2  -1   2 3229.60  175.81   4
  -2  -1   2 3036.72  204.88   2
   2  -1  -2 3018.26  201.45   2
  -2   1   2 2981.49  199.96   3
   2   1  -2 3215.44  184.32   1
   2   1  -2 2706.74  202.04   2
  -2   1   2 3108.48  185.50   4
   1  -1  -2 296.725  26.382   1
  -1  -1   2 309.817  31.009   4
   1  -1  -2 216.756  38.784   2
  -1  -1   2 256.092  35.453   3
   1   1  -2 278.177  34.911   1
   1   1  -2 246.425  38.983   2
  -1   1   2 391.814  46.407   3
  -1   1   2 295.217  32.765   4
   0  -1   2 3011.67  166.91   3
   0  -1  -2 2891.07  169.39   1
   0  -1   2 3113.73  176.95   4
   0  -1  -2 2768.41  185.53   2
   0   1  -2 2531.56  172.94   2
   0   1   2 2719.77  168.14   4
   0   1   2 2837.82  167.19   3
   0   1  -2 2814.46  173.28   1
  -1  -1  -2 294.858  42.608   1
  -1  -1  -2 382.607  32.831   3
  -1  -1  -2 289.555  51.683   2
   1  -1   2 320.564  51.385   4
  -1   1  -2 377.148  48.942   4
  -1   1  -2 354.693  41.963   3
  -1   1  -2 432.008  52.562   2
   1   1   2 401.266  39.991   4
  -1   1  -2 385.875  49.490   1
  -2  -1  -2 727.506  77.101   1
  -2  -1  -2 779.966  70.685   3
  -2  -1  -2 837.034  97.891   2
   2   1   2 880.089  73.702   1
  -2   1  -2 912.452  78.513   3
  -2   1  -2 923.419  83.174   4
   2   1   2 822.555  65.852   4
  -2   1  -2 746.615  78.061   1
  -2   1  -2 828.332  90.846   2
  -3  -1  -2 -35.443  36.750   2
  -3  -1  -2 27.8964 31.9589   3
  -3   1  -2 -33.709  31.765   3
   3   1   2 25.0754 28.3039   1
  -3   1  -2 33.3205 29.7821   1
  -3   1  -2 40.6326 33.0512   4
   3   1   2 -11.564  21.695   4
  -3   1  -2 -29.049  41.450   2
  -4  -1  -2 745.568 112.876   2
  -4  -1  -2 891.442  99.773   3
   4  -1   2 826.783  91.619   1
  -4   1  -2 1041.44   99.03   4
  -4   1  -2 927.504 106.142   3
   4   1   2 875.585  92.915   1
  -4   1  -2 800.900 114.295   2
   4   1   2 742.161  77.255   4
  -5  -1  -2 2299.62  181.92   3
  -5  -1  -2 2029.99  215.95   2
   5  -1   2 2291.28  168.25   1
   5  -1   2 2323.80  172.72   4
  -5   1  -2 1905.73  179.20   3
  -5   1  -2 2077.73  212.89   2
   5   1   2 2272.10  168.25   1
  -6  -1  -2 1178.84  147.30   3
   6  -1   2 1025.41  121.02   1
  -6  -1  -2 1245.83  175.10   2
  -6   1  -2 1146.87  162.11   2
  -6   1  -2 1381.22  155.73   3
   6   1   2 1176.28  128.05   1
  -7  -1  -2 260.964 100.490   2
   7  -1   2 299.593  70.416   1
  -7   1  -2 103.558  79.127   2
   7   1   2 138.464  59.976   1
  -8  -1  -2 -33.224  87.723   2
   8   1   2 29.9041 56.9569   1
  -8   1  -2 -6.0635 80.6800   2
  -9  -2   2 167.727 107.782   3
  -9   2   2 352.083 128.503   3
   8  -2  -2 -79.984  72.238   2
  -8  -2   2  2.5110 71.1245   3
  -8   2   2 -13.820  76.235   3
   8   2  -2 -21.357  74.048   2
  -7  -2   2 551.077 127.696   2
   7  -2  -2 659.795 128.971   2
  -7  -2   2 378.648 108.760   3
   7   2  -2 491.363  78.847   1
  -7   2   2 424.354 107.926   3
   6  -2  -2 919.377 137.324   2
  -6  -2   2 874.109 142.191   2
  -6  -2   2 947.256 133.199   3
   6   2  -2 769.282  93.947   1
  -6   2   2 856.632 132.949   3
  -5  -2   2 2889.64  230.39   3
   5  -2  -2 3002.14  191.60   1
   5  -2  -2 2982.53  239.46   2
  -5  -2   2 3229.84  248.81   2
   5   2  -2 2900.69  199.61   1
  -5   2   2 3200.44  212.67   4
  -5   2   2 2510.18  227.50   3
  -4  -2   2 257.161  60.805   3
  -4  -2   2 108.412  62.499   2
   4  -2  -2 236.714  62.978   2
   4  -2  -2 141.791  30.739   1
  -4   2   2 134.850  55.447   3
   4   2  -2 58.8938 30.0150   1
  -4   2   2 183.655  51.825   4
   3  -2  -2 354.931  67.140   2
  -3  -2   2 309.035  58.225   3
   3  -2  -2 270.310  32.962   1
  -3  -2   2 342.711  68.516   2
  -3   2   2 335.401  68.602   3
   3   2  -2 305.664  43.538   1
  -3   2   2 304.492  52.829   4
  -2  -2   2 591.402  71.607   2
  -2  -2   2 485.059  36.914   4
  -2  -2   2 510.369  60.604   3
   2  -2  -2 527.468  64.158   2
   2  -2  -2 542.802  37.150   1
   2   2  -2 519.285  54.599   1
  -2   2   2 553.157  71.712   3
  -2   2   2 561.487  58.658   4
   1  -2  -2 2296.17  146.69   2
  -1  -2   2 2140.41  140.03   4
  -1  -2   2 2335.44  143.21   3
   1   2  -2 2279.42  146.86   2
  -1   2   2 2334.93  153.38   3
  -1   2   2 2220.70  142.59   4
   1   2  -2 2237.15  142.07   1
   0  -2  -2 75.4261 28.9665   3
   0  -2   2 90.2975 24.3057   3
   0  -2  -2 63.8186 41.6807   2
   0   2   2 75.5632 23.4065   4
   0   2  -2 149.357  24.727   2
   0   2  -2 119.318  32.890   4
   0   2   2 122.552  23.363   1
   0   2  -2 91.2104 31.7818   1
   1  -2   2 1394.11  100.51   3
  -1  -2  -2 1324.65  108.01   2
  -1  -2  -2 1240.50   82.39   3
   1   2   2 1314.08   85.84   4
  -1   2  -2 1164.72  101.96   4
  -1   2  -2 1435.24  102.33   1
  -1   2  -2 1237.64   96.58   2
   1   2   2 1267.97   93.08   1
  -2  -2  -2 302.678  64.357   2
  -2  -2  -2 388.132  45.602   3
   2   2   2 332.842  48.046   1
  -2   2  -2 275.872  54.225   4
  -2   2  -2 353.840  54.110   1
   2   2   2 417.831  38.620   4
  -2   2  -2 323.477  57.649   2
  -2   2  -2 271.811  49.435   3
  -3  -2  -2 7781.89  516.80   2
  -3  -2  -2 8655.97  490.88   3
  -3   2  -2 7854.79  496.20   3
   3   2   2 8654.92  472.08   4
  -3   2  -2 8336.09  493.35   4
   3   2   2 7991.62  484.67   1
  -3   2  -2 7843.63  484.80   1
  -3   2  -2 8170.11  509.33   2
  -4  -2  -2 1138.76  144.94   2
  -4  -2  -2 1367.12  111.44   3
  -4   2  -2 1105.41  134.41   2
  -4   2  -2 1004.73  119.40   3
  -4   2  -2 1234.78  119.74   4
  -4   2  -2 1184.77  114.08   1
   4   2   2 1070.14   81.90   4
   4   2   2 1021.30  107.71   1
  -5  -2  -2 67.9010 68.2953   2
   5  -2   2 183.492  48.055   1
  -5  -2  -2 111.269  55.074   3
  -5   2  -2 127.571  66.578   2
  -5   2  -2 125.476  59.848   3
   5   2   2 133.927  49.428   1
  -5   2  -2 149.174  54.509   4
  -6  -2  -2 15.8356 60.1759   3
  -6  -2  -2  9.9018 69.4027   2
   6  -2   2 -18.938  33.515   1
   6   2   2 -26.348  32.195   1
  -6   2  -2 35.3143 55.2634   3
  -6   2  -2 18.2795 61.8640   2
   7  -2   2 1580.57  152.74   1
  -7  -2  -2 902.980 170.146   2
  -7   2  -2 1431.90  192.48   2
   7   2   2 1494.39  155.16   1
  -7   2  -2 1345.75  175.80   3
  -8  -2  -2 -8.8957 81.7964   2
   8   2   2 37.0827 56.1579   1
  -8   2  -2 -45.343  78.131   2
   8  -3  -2 389.771 112.096   2
  -8  -3   2 360.292 119.082   2
  -8  -3   2 397.149 116.551   3
  -8   3   2 173.843 102.482   3
   8   3  -2 395.876 121.097   2
   8   3  -2 259.836  71.628   1
   7  -3  -2 907.617 150.996   2
  -7  -3   2 1029.72  154.41   3
  -7  -3   2 915.556 160.707   2
   7   3  -2 1162.43  126.13   1
  -7   3   2 922.022 153.722   3
   6  -3  -2 136.139  69.569   2
  -6  -3   2 178.169  70.035   3
  -6  -3   2 37.0205 70.9621   2
  -6   3   2 101.764  67.848   3
   6   3  -2 67.5937 41.2514   1
  -5  -3   2 285.440  71.271   3
   5  -3  -2 334.961  78.653   2
  -5  -3   2 374.915  88.674   2
   5   3  -2 291.025  54.673   1
  -5   3   2 365.752  73.008   4
  -5   3   2 383.838  90.026   3
   4  -3  -2 105.042  53.358   2
   4  -3  -2 48.3669 23.0706   1
  -4  -3   2 111.254  47.347   3
  -4  -3   2 206.977  67.870   2
  -4   3   2 135.186  50.961   4
   4   3  -2 91.2104 32.9207   1
  -4   3   2 55.4450 53.1348   3
  -3  -3   2 5449.64  352.65   2
   3  -3  -2 5698.90  310.17   1
  -3  -3   2 5596.48  341.13   3
   3  -3  -2 5383.63  346.06   2
  -3   3   2 4940.49  349.72   3
  -3   3   2 5148.41  335.51   4
   3   3  -2 5327.87  323.94   1
  -2  -3   2 85.5097 20.5588   4
  -2  -3   2 149.858  35.484   3
   2  -3  -2 26.6710 33.4702   2
  -2  -3   2 202.929  48.041   2
  -2   3   2 100.756  46.430   3
  -2   3   2 179.192  40.268   4
   2   3  -2 117.201  31.202   1
   1  -3  -2 784.923  71.657   2
  -1  -3   2 902.459  72.124   2
  -1  -3   2 750.098  67.338   3
   1   3  -2 1000.77   73.45   4
  -1   3   2 1006.04   89.17   3
  -1   3   2 809.386  51.814   1
  -1   3   2 797.308  72.575   4
   1   3  -2 943.972  71.374   1
   0  -3   2 692.779  64.140   3
   0  -3  -2 667.716  78.629   2
   0  -3  -2 681.180  69.607   3
   0   3  -2 686.719  66.995   1
   0   3  -2 707.596  71.800   4
   0   3   2 730.852  53.322   1
   0   3   2 663.362  60.085   4
   1  -3   2 7365.29  405.12   3
  -1  -3  -2 6553.88  385.15   3
  -1  -3  -2 6314.47  409.13   2
   1   3   2 6732.35  384.45   4
  -1   3  -2 6819.21  390.70   2
  -1   3  -2 6439.29  399.90   4
   1   3   2 6494.01  385.87   1
  -1   3  -2 6554.69  393.95   1
  -2  -3  -2 487.817  81.918   2
  -2  -3  -2 479.264  51.845   3
   2   3   2 636.809  47.728   4
   2   3   2 506.072  60.962   1
  -2   3  -2 570.705  68.024   1
  -2   3  -2 410.768  64.470   4
  -2   3  -2 482.768  65.308   2
  -2   3  -2 428.831  64.827   3
  -3  -3  -2 22.8212 29.9228   3
  -3  -3  -2 -46.538  39.883   2
  -3   3  -2 -2.5433 29.9276   1
  -3   3  -2 24.4046 39.9759   3
   3   3   2  1.1520 15.4880   4
  -3   3  -2 -25.168  37.588   2
   3   3   2 26.9263 29.2165   1
  -3   3  -2 -29.144  33.075   4
  -4  -3  -2 -61.175  40.529   2
  -4  -3  -2 18.7729 37.1480   3
   4   3   2 28.6399 33.2594   1
  -4   3  -2 74.9767 51.6878   2
  -4   3  -2 85.0612 50.8105   3
  -4   3  -2  5.4060 37.2414   1
  -4   3  -2 107.876  49.846   4
   5  -3   2 3728.87  258.86   1
  -5  -3  -2 4170.42  277.65   3
  -5  -3  -2 3769.99  305.02   2
  -5   3  -2 4389.50  290.00   3
  -5   3  -2 3823.82  271.09   4
  -5   3  -2 3766.32  262.43   1
   5   3   2 3705.85  262.14   1
  -6  -3  -2 157.855  89.925   2
   6  -3   2 147.320  53.003   1
  -6  -3  -2 68.1221 65.4021   3
  -6   3  -2 87.5086 71.5879   2
  -6   3  -2 100.235  63.115   3
   6   3   2 215.024  60.481   1
  -7  -3  -2 313.598 118.071   2
  -7   3  -2 302.421 102.535   2
  -7   3  -2 369.485 104.523   3
   7   3   2 494.935  85.833   1
   8  -3   2 72.7971 85.3118   2
  -8  -3  -2 13.3266 89.9088   2
  -8   3  -2  8.5020 85.6507   2
   8   3   2 52.9256 54.5361   1
   8  -4  -2 -11.970  72.057   2
  -8  -4   2  6.5779 80.0570   3
  -8  -4   2 -78.128  77.436   2
  -8   4   2 99.0896 90.4482   3
   8   4  -2 -18.425  48.190   1
  -7  -4   2 -2.0734 82.1236   2
  -7  -4   2 22.4575 61.8144   3
   7  -4  -2 133.811  77.904   2
  -7   4   2 -8.4452 61.6107   3
   7   4  -2  8.3959 40.3189   1
  -6  -4   2 902.198 149.782   2
  -6  -4   2 1127.63  144.43   3
   6  -4  -2 1148.18  150.00   2
   6   4  -2 1157.22  116.75   1
  -6   4   2 716.821 133.110   3
  -5  -4   2 210.173  64.595   3
  -5  -4   2 259.948  77.059   2
   5  -4  -2 126.121  58.469   2
  -5   4   2 143.266  67.140   3
   5   4  -2 162.732  46.278   1
  -5   4   2 217.908  68.914   4
   4  -4  -2 174.596  30.510   1
   4  -4  -2 172.357  58.058   2
  -4  -4   2 241.495  69.351   2
  -4  -4   2 64.4180 42.7581   3
  -4   4   2 202.989  64.476   3
   4   4  -2 146.047  40.053   1
  -4   4   2 191.339  61.001   4
   3  -4  -2 904.445  60.053   1
   3  -4  -2 884.226  98.707   2
  -3  -4   2 809.675  91.301   3
  -3  -4   2 780.427 104.350   2
   3   4  -2 866.180  86.395   1
  -3   4   2 974.948 113.099   3
  -3   4   2 801.128  96.469   4
  -2  -4   2 1908.41  143.26   2
   2  -4  -2 1804.17  134.95   2
  -2  -4   2 1814.05  132.02   3
   2   4  -2 1858.19  119.40   4
  -2   4   2 1907.24  151.79   3
  -2   4   2 1799.58  139.50   4
   2   4  -2 1916.50  129.43   1
   1  -4  -2 2116.58  141.46   2
  -1  -4   2 2326.52  138.96   2
  -1  -4   2 1930.01  138.01   3
  -1   4   2 2082.62  122.38   1
  -1   4   2 1892.18  142.84   4
   1   4  -2 2154.08  140.20   4
   1   4  -2 2008.00  140.23   1
  -1   4   2 1957.53  151.45   3
   0  -4  -2 4384.18  293.48   3
   0  -4  -2 5133.84  301.00   2
   0  -4   2 5098.45  292.04   3
   0   4  -2 4790.13  286.30   1
   0   4   2 4338.19  282.18   4
   0   4  -2 4941.35  292.58   4
   0   4   2 4504.91  272.25   1
  -1  -4  -2 24.7475 42.4918   2
  -1  -4  -2 31.6570 23.0100   3
   1  -4   2 -21.579  18.844   2
   1  -4   2 -1.1616 37.7041   3
  -1   4  -2 28.7610 37.8115   4
  -1   4  -2  4.4176 31.2292   1
   1   4   2  3.7114 20.9345   4
   1   4   2 -7.9170 20.0189   1
   2  -4   2 1972.59  153.22   3
  -2  -4  -2 1758.43  158.91   2
  -2  -4  -2 1723.27  125.68   3
   2   4   2 1984.62  134.09   1
   2   4   2 1865.98  120.73   4
  -2   4  -2 1844.29  139.34   1
  -2   4  -2 1869.46  135.42   2
  -2   4  -2 1990.33  151.26   4
  -3  -4  -2 1159.69  141.30   2
  -3  -4  -2 1232.31  102.00   3
  -3   4  -2 1448.70  133.30   3
   3   4   2 1365.28  107.38   1
   3   4   2 1260.32   86.56   4
  -3   4  -2 1275.97  126.26   2
  -3   4  -2 1157.78  115.13   1
  -3   4  -2 1108.92  124.97   4
  -4  -4  -2 1100.84  140.55   2
  -4  -4  -2 749.546  96.726   3
  -4   4  -2 941.351 116.207   4
  -4   4  -2 942.057 118.162   2
   4   4   2 942.821 102.404   1
  -4   4  -2 962.205 102.059   1
  -4   4  -2 1016.41  120.26   3
  -5  -4  -2 110.444  49.834   3
  -5  -4  -2 68.7342 74.4494   2
  -5   4  -2 46.3963 58.5848   4
   5   4   2 136.250  46.806   1
  -5   4  -2 64.8922 65.6356   2
  -5   4  -2  9.5885 52.5137   3
  -5   4  -2 66.2965 46.1828   1
   6  -4   2 407.070  73.594   1
  -6  -4  -2 167.006  99.138   2
  -6   4  -2 273.630  86.303   3
   6   4   2 584.272  89.077   1
  -6   4  -2 295.157  96.645   2
   7  -4   2 654.966 134.662   2
  -7  -4  -2 417.861 123.826   2
  -7   4  -2 659.032 128.577   3
   7   4   2 741.480 105.940   1
  -7   4  -2 532.254 125.382   2
   8  -4   2 873.530 164.292   2
  -8  -4  -2 644.839 157.710   2
   8   4   2 761.387 116.583   1
   8  -5  -2 1434.84  198.78   2
  -8  -5   2 1531.36  204.38   3
   8   5  -2 1823.38  182.32   1
  -8   5   2 1501.66  214.76   3
  -7  -5   2 24.1363 63.5927   3
  -7  -5   2 97.2011 85.9359   2
   7  -5  -2 62.1928 70.2296   2
  -7   5   2 31.8446 68.9976   3
   7   5  -2 -7.4099 37.1023   1
   6  -5  -2 87.1189 68.9532   2
  -6  -5   2 87.4489 74.9023   2
  -6  -5   2 146.916  65.114   3
  -6   5   2 163.048  85.016   3
   6   5  -2 121.569  51.743   1
   5  -5  -2 95.0373 55.2009   2
  -5  -5   2 85.1792 53.8838   3
  -5  -5   2 -15.330  58.979   2
   5   5  -2 65.3322 38.2812   1
  -5   5   2  7.0269 56.5485   4
  -5   5   2 31.8443 58.4929   3
   4  -5  -2 2927.23  213.65   2
  -4  -5   2 2921.47  228.40   2
  -4  -5   2 2756.48  206.22   3
   4   5  -2 2801.60  194.97   1
  -4   5   2 2772.15  216.96   4
  -4   5   2 2863.72  226.83   3
   3  -5  -2 322.916  58.026   2
  -3  -5   2 272.420  52.062   3
  -3  -5   2 212.207  26.827   4
  -3  -5   2 216.384  60.156   2
   3   5  -2 155.765  40.519   1
  -3   5   2 182.036  63.132   3
  -3   5   2 247.898  61.166   4
   2  -5  -2 1455.69  112.02   2
  -2  -5   2 1364.04  112.91   3
  -2  -5   2 1414.06  120.20   2
  -2   5   2 1623.33  136.82   3
   2   5  -2 1634.50  113.20   1
  -2   5   2 1400.92   88.97   1
  -2   5   2 1130.56  123.04   4
   2   5  -2 1411.66  102.53   4
  -1  -5   2 -12.214  27.947   2
   1  -5  -2 21.1903 41.1139   3
  -1  -5   2 45.5213 29.9331   3
   1  -5  -2 -14.801  26.300   2
  -1   5   2  3.3539 16.3634   1
  -1   5   2 -11.337  27.767   4
   1   5  -2 -1.1681 22.4725   1
   1   5  -2 -11.355  31.396   4
   0  -5   2 2768.13  213.53   3
   0  -5  -2 3633.86  224.98   2
   0  -5  -2 3325.69  224.52   3
   0   5   2 3494.57  213.65   4
   0   5  -2 3450.27  214.56   1
   0   5   2 3283.82  198.91   1
   0   5  -2 3462.18  222.57   4
  -1  -5  -2 210.399  38.962   3
   1  -5   2 177.401  24.768   2
   1  -5   2 143.845  49.772   3
  -1  -5  -2 111.344  51.670   2
   1   5   2 170.241  36.782   4
   1   5   2 163.753  33.468   1
  -1   5  -2 186.273  42.197   1
  -1   5  -2 109.680  47.020   4
   2  -5   2 4650.97  289.90   3
   2  -5   2 4224.32  265.43   2
  -2  -5  -2 4034.18  292.83   2
  -2  -5  -2 4062.28  260.89   3
   2   5   2 4314.06  255.96   4
  -2   5  -2 4578.04  274.31   1
  -2   5  -2 4079.37  284.42   4
   2   5   2 4067.87  262.32   1
   3  -5   2 -47.865  39.785   3
  -3  -5  -2 107.897  64.251   2
  -3  -5  -2 -15.851  26.664   3
   3   5   2 10.5923 21.3623   4
   3   5   2 39.7687 30.4338   1
  -3   5  -2 -14.553  41.538   3
  -3   5  -2 13.0488 45.2268   4
  -3   5  -2 -16.925  35.935   2
  -3   5  -2 101.496  40.908   1
  -4  -5  -2 281.738  58.683   3
  -4  -5  -2 239.155  78.062   2
  -4   5  -2 217.907  55.489   1
  -4   5  -2 201.568  70.509   4
   4   5   2 279.906  57.104   1
  -4   5  -2 336.202  73.558   2
  -4   5  -2 337.132  76.670   3
   5  -5   2  7.1578 52.2177   2
  -5  -5  -2 16.6256 63.8492   2
  -5  -5  -2  3.0265 42.8529   3
  -5   5  -2 54.1166 59.6500   2
  -5   5  -2 -52.700  45.475   3
  -5   5  -2 51.5340 56.7952   4
  -5   5  -2 -47.385  37.570   1
   5   5   2  7.2643 39.4756   1
  -6  -5  -2 1025.03  167.66   2
   6  -5   2 844.909 141.763   2
   6   5   2 1228.69  134.64   1
  -6   5  -2 1063.18  147.77   3
  -7  -5  -2 -73.788  71.877   2
   7  -5   2 56.4161 76.7242   2
  -7   5  -2 -5.8761 70.8560   3
   7   5   2 -10.989  46.512   1
   8  -5   2 156.091  99.838   2
  -8  -5  -2 119.331 120.290   2
   8   5   2 187.618  69.516   1
  -8  -6   2 145.255  85.325   3
  -8  -6   2 -71.543  92.046   2
   8  -6  -2 -41.961  69.298   2
   8   6  -2  2.6334 56.5088   1
  -8   6   2 -7.0804 88.3058   3
   7  -6  -2 26.3803 64.7179   2
  -7  -6   2 71.3688 84.2398   2
  -7  -6   2 64.6996 66.7068   3
  -7   6   2 -34.794  58.650   3
   7   6  -2 21.9404 48.5912   1
  -6  -6   2 1586.42  170.37   3
   6  -6  -2 1230.24  159.80   2
   6   6  -2 1411.26  147.06   1
  -6   6   2 1785.22  202.50   3
  -6   6   2 1407.56  174.86   4
  -5  -6   2 133.168  73.190   2
   5  -6  -2 20.4812 49.9154   2
  -5  -6   2 119.903  54.530   3
  -5   6   2 327.578  85.379   4
   5   6  -2 292.653  62.618   1
  -5   6   2 271.706  82.235   3
  -4  -6   2 191.880  70.863   2
  -4  -6   2 283.527  60.555   3
   4  -6  -2 185.327  54.817   2
  -4   6   2 129.661  66.286   3
   4   6  -2 290.094  55.913   1
  -4   6   2 166.963  67.766   4
  -3  -6   2 179.002  61.207   2
   3  -6  -2 198.769  49.163   2
  -3  -6   2 231.263  53.236   3
  -3   6   2 169.245  60.629   4
   3   6  -2 283.862  35.595   4
   3   6  -2 185.560  45.441   1
  -3   6   2 113.319  63.208   3
   2  -6  -2 3635.77  241.19   2
  -2  -6   2 3749.47  246.09   3
  -2  -6   2 3853.30  252.05   2
  -2   6   2 3742.42  255.11   4
   2   6  -2 3631.85  241.16   1
   2   6  -2 3846.55  236.86   4
  -2   6   2 3825.74  222.86   1
  -2   6   2 3757.84  263.29   3
   1  -6  -2 1507.40  144.27   3
  -1  -6   2 1539.19  110.27   2
   1  -6  -2 1558.44  117.88   2
  -1  -6   2 1416.56  119.93   3
  -1   6   2 1394.02   98.36   1
   1   6  -2 1485.21  122.19   4
  -1   6   2 1344.57  122.38   4
   1   6  -2 1835.11  121.79   1
   0  -6   2 6578.87  425.81   3
   0  -6  -2 7447.31  431.95   2
   0  -6  -2 6960.68  431.54   3
   0   6   2 6621.83  418.84   4
   0   6   2 6641.20  402.83   1
   0   6  -2 7371.80  431.87   4
   0   6  -2 7486.50  420.58   1
   1  -6   2 134.163  54.915   3
  -1  -6  -2 244.348  62.962   2
   1  -6   2 202.768  23.428   2
  -1  -6  -2 186.595  41.551   3
   1   6   2 191.520  39.570   4
  -1   6  -2 203.206  49.962   1
  -1   6  -2 224.206  60.873   4
   1   6   2 176.757  36.258   1
   2  -6   2 716.688  71.196   2
  -2  -6  -2 695.046 107.559   2
  -2  -6  -2 668.081  74.543   3
   2  -6   2 659.642  98.936   3
   2   6   2 768.741  79.018   1
   2   6   2 886.331  71.666   4
  -2   6  -2 778.138 105.442   4
  -2   6  -2 843.556  95.585   1
  -3  -6  -2 793.548  87.764   3
   3  -6   2 960.637 120.844   3
  -3  -6  -2 852.756 126.210   2
   3  -6   2 906.482  96.357   2
  -3   6  -2 983.117 104.815   1
  -3   6  -2 742.438 112.334   4
   3   6   2 822.581  73.463   4
   3   6   2 954.545  94.992   1
  -4  -6  -2 1237.78  159.92   2
  -4  -6  -2 1068.69  112.86   3
   4  -6   2 944.353 133.421   3
   4  -6   2 1049.62  119.96   2
  -4   6  -2 1146.02  118.98   1
   4   6   2 879.785 105.534   1
  -4   6  -2 1038.21  133.57   4
  -4   6  -2 1003.98  129.76   3
  -5  -6  -2 227.568  91.904   2
   5  -6   2 71.2431 57.3753   2
  -5  -6  -2 160.972  58.304   3
   5   6   2 124.906  50.434   1
  -5   6  -2 120.110  71.619   4
  -5   6  -2 166.696  73.219   3
  -5   6  -2 64.2736 44.6407   1
  -6  -6  -2 273.657 103.458   2
   6  -6   2 140.366  79.017   2
  -6   6  -2 337.299  94.004   4
   6   6   2 346.485  74.896   1
  -6   6  -2 389.535  99.079   3
  -7  -6  -2 231.338 115.947   2
  -7   6  -2 260.717  95.202   3
   7   6   2 171.630  65.515   1
   8   6   2 886.146 135.846   1
  -8  -7   2 149.889 111.531   2
   8  -7  -2 339.461 111.708   2
  -8  -7   2 291.865 108.098   3
   8   7  -2 139.425  77.173   1
  -8   7   2 462.185 133.381   3
  -7  -7   2 519.566 111.416   3
  -7  -7   2 578.057 138.823   2
   7  -7  -2 670.248 126.008   2
   7   7  -2 550.475 101.292   1
  -7   7   2 629.652 138.030   3
  -6  -7   2 -8.5185 49.6753   3
   6  -7  -2 57.7848 56.9371   2
  -6  -7   2 -5.5884 72.2641   2
  -6   7   2 -43.490  57.248   3
   6   7  -2 33.0073 47.5825   1
  -6   7   2 -17.161  65.441   4
  -5  -7   2 243.251  83.961   2
   5  -7  -2 172.727  62.232   2
  -5  -7   2 254.177  72.213   3
  -5   7   2 264.037  81.676   4
   5   7  -2 167.993  55.457   1
  -5   7   2 261.076  87.280   3
   4  -7  -2 679.901  96.645   2
  -4  -7   2 772.218 102.329   3
  -4  -7   2 815.850 123.187   2
  -4   7   2 888.398 124.440   4
   4   7  -2 926.467 102.838   1
  -4   7   2 1122.79  144.95   3
  -3  -7   2 2280.01  183.84   2
   3  -7  -2 2249.85  165.55   2
  -3  -7   2 2042.49  168.49   3
  -3   7   2 2086.13  207.62   3
  -3   7   2 2397.29  188.93   4
   3   7  -2 2157.06  162.60   1
   2  -7  -2 509.443  66.543   2
   2  -7  -2 492.630  90.936   3
  -2  -7   2 465.842  72.554   2
  -2  -7   2 449.045  70.116   3
   2   7  -2 613.827  72.535   4
   2   7  -2 495.905  69.919   1
  -2   7   2 422.386  81.245   4
  -2   7   2 554.316  55.555   1
  -1  -7   2 1102.65  111.76   3
  -1  -7   2 1135.45   92.93   2
   1  -7  -2 1226.35  105.19   2
   1  -7  -2 984.940 122.112   3
   1   7  -2 1235.60  102.98   1
   1   7  -2 1313.70  110.36   4
  -1   7   2 1049.99   84.04   1
  -1   7   2 1161.19  120.56   4
   0  -7   2 164.279  46.269   3
   0  -7  -2 83.3001 42.2434   2
   0  -7  -2 124.453  46.361   3
   0  -7   2 103.061  23.873   2
   0   7  -2 116.166  53.696   4
   0   7   2 132.913  44.586   4
   0   7   2 80.0077 25.9434   1
   0   7  -2 104.166  41.260   1
  -1  -7  -2 5676.58  347.49   2
   1  -7   2 5191.52  343.50   3
   1  -7   2 5165.61  303.41   2
  -1  -7  -2 4519.34  324.88   3
   1   7   2 5451.41  314.69   1
  -1   7  -2 5144.87  330.21   1
   1   7   2 5102.43  322.20   4
  -1   7  -2 5449.41  345.90   4
  -2  -7  -2 185.986  45.192   3
  -2  -7  -2 240.415  73.729   2
   2  -7   2 171.736  33.991   2
   2  -7   2 95.1663 57.5327   3
   2   7   2 172.820  40.924   1
  -2   7  -2 179.436  62.555   4
  -2   7  -2 236.352  57.422   1
   2   7   2 302.312  47.980   4
  -3  -7  -2 140.258  41.799   3
  -3  -7  -2 104.356  69.176   2
   3  -7   2 274.875  78.199   3
   3  -7   2 123.463  42.004   2
  -3   7  -2 215.939  58.436   1
   3   7   2 162.762  38.620   4
  -3   7  -2 139.577  67.726   4
   3   7   2 71.8723 36.1895   1
   4  -7   2 225.989  60.597   2
  -4  -7  -2 258.089  57.998   3
  -4  -7  -2 431.956 106.038   2
   4  -7   2 397.269  95.794   3
   4   7   2 235.725  56.360   1
  -4   7  -2 323.456  69.333   1
  -4   7  -2 140.509  70.964   4
  -5  -7  -2 1869.34  169.06   3
  -5  -7  -2 1541.42  207.45   2
   5  -7   2 1204.63  178.77   3
  -5   7  -2 1673.81  187.57   4
   5   7   2 1602.22  140.38   1
  -6  -7  -2 472.929 134.000   2
  -6   7  -2 398.507 102.619   3
   6   7   2 365.072  80.621   1
  -6   7  -2 344.620 102.852   4
  -7  -7  -2 20.3962 99.2456   2
  -7   7  -2 32.5100 74.9118   3
   7   7   2 42.6805 49.8972   1
  -8  -8   2 -36.207  71.719   3
  -8  -8   2 -22.035  94.493   2
   8   8  -2 96.2656 67.1371   1
  -7  -8   2 193.083  83.197   3
  -7  -8   2 345.744 118.127   2
   7  -8  -2 268.503  88.615   2
   7   8  -2 109.913  59.504   1
  -7   8   2 80.5251 90.6796   3
   6  -8  -2 99.7404 63.9504   2
  -6  -8   2 207.327  76.485   3
  -6  -8   2 49.1965 79.3569   2
  -6   8   2 93.2100 84.0516   4
   6   8  -2 94.6490 52.8391   1
  -6   8   2 135.133  82.504   3
  -5  -8   2 1641.50  193.82   2
   5  -8  -2 1848.07  176.58   2
  -5  -8   2 2059.60  191.78   3
  -5   8   2 1704.84  194.67   4
  -5   8   2 1475.42  191.09   3
   5   8  -2 1652.27  162.85   1
   4  -8  -2  6.8755 37.1553   2
  -4  -8   2 -77.577  48.069   2
  -4  -8   2 -17.762  40.242   3
  -4   8   2 -48.464  50.367   4
  -4   8   2 76.9620 65.0747   3
   4   8  -2 -13.742  27.826   1
   3  -8  -2 216.474  80.952   3
  -3  -8   2 476.166  76.757   3
  -3  -8   2 277.111  72.919   2
   3  -8  -2 418.893  66.312   2
   3   8  -2 369.298  63.407   1
  -3   8   2 267.906  77.074   4
  -2  -8   2 -35.358  27.830   3
  -2  -8   2 62.5186 45.7277   2
   2  -8  -2  4.1966 29.9627   2
   2  -8  -2 -46.965  48.812   3
   2   8  -2 -22.197  37.285   4
   2   8  -2 14.3298 34.5557   1
  -2   8   2 -3.1817 43.2417   4
  -1  -8   2 4094.99  290.83   3
   1  -8  -2 4492.10  293.97   2
   1  -8  -2 3938.01  303.26   3
  -1  -8   2 4455.48  276.94   2
  -1   8   2 4380.36  298.03   4
  -1   8   2 4494.81  267.03   1
   1   8  -2 4596.85  284.82   1
   1   8  -2 4531.41  293.72   4
   0  -8  -2 41.2593 42.6862   3
   0  -8  -2 27.5808 41.3495   2
   0  -8   2 145.312  49.118   3
   0   8   2 -13.403  33.587   4
   0   8  -2 34.6735 48.7678   4
   0   8  -2 43.4514 34.3810   1
   0   8   2 14.7606 26.2456   1
  -1  -8  -2 21.9823 36.6204   3
   1  -8   2 137.273  52.399   3
  -1  -8  -2 77.5101 48.6475   2
   1   8   2  4.5562 35.6264   4
  -1   8  -2 36.3910 51.2611   4
  -1   8  -2 53.3855 44.9109   1
   1   8   2 149.279  37.611   1
  -2  -8  -2 215.475  71.152   2
   2  -8   2 367.417  82.773   3
  -2  -8  -2 339.671  59.979   3
   2   8   2 278.848  56.929   4
  -2   8  -2 252.558  73.603   4
  -2   8  -2 231.676  64.284   1
   2   8   2 355.842  56.452   1
  -3  -8  -2 2718.57  270.07   2
  -3  -8  -2 3843.71  246.69   3
   3  -8   2 3573.67  272.47   3
  -3   8  -2 3495.48  273.01   4
  -3   8  -2 3851.64  255.68   1
   3   8   2 3658.30  242.04   1
  -4  -8  -2 392.032  71.824   3
   4  -8   2 332.099  94.886   3
  -4  -8  -2 311.520 104.800   2
   4   8   2 459.581  73.943   1
  -4   8  -2 303.150  87.990   4
   5  -8   2 39.8572 74.7001   3
  -5  -8  -2 -2.8662 81.6366   2
  -5  -8  -2 34.4723 48.7544   3
   5   8   2 50.4304 44.3411   1
  -5   8  -2 27.6946 69.9339   4
  -6  -8  -2 63.2350 91.0595   2
   6  -8   2 32.4982 80.0760   3
  -6   8  -2 -48.174  74.398   4
   6   8   2 97.6311 53.4902   1
   7  -8   2 1792.07  250.47   3
  -7  -9   2 452.292 132.456   2
  -7  -9   2 373.018 105.550   3
   7   9  -2 148.237  68.091   1
  -7   9   2 226.320 105.493   3
   6  -9  -2 117.234  66.154   2
  -6  -9   2 -34.276  76.946   2
  -6  -9   2 67.0458 65.1631   3
  -6   9   2 -55.122  75.751   4
   6   9  -2 -21.180  43.381   1
  -6   9   2 74.8621 67.0874   3
  -5  -9   2 237.004  90.023   2
  -5  -9   2 269.777  79.496   3
   5  -9  -2 330.465  75.449   2
   5   9  -2 311.677  69.313   1
  -5   9   2 579.404 120.620   3
  -5   9   2 234.634  88.299   4
   4  -9  -2 2021.01  161.95   2
  -4  -9   2 1964.00  173.81   3
   4  -9  -2 1841.72  225.03   3
   4   9  -2 2025.55  161.12   1
  -4   9   2 1624.65  194.27   4
   3  -9  -2 879.813 140.740   3
   3  -9  -2 1061.55  110.51   2
  -3  -9   2 1232.10  134.89   3
  -3  -9   2 1043.87  131.49   2
  -3   9   2 1112.36  145.05   4
   3   9  -2 1047.06  116.71   1
   2  -9  -2 2126.84  141.82   2
   2  -9  -2 1592.23  177.62   3
  -2  -9   2 1743.65  148.50   3
  -2  -9   2 1579.68  140.44   2
  -2   9   2 1476.29  166.93   4
   2   9  -2 1516.45  147.94   4
   2   9  -2 1440.66  134.61   1
   1  -9  -2 59.5570 44.9693   2
   1  -9  -2  9.8840 48.5773   3
  -1  -9   2 -36.526  34.359   3
  -1   9   2  3.8078 39.3791   4
  -1   9   2  7.9329 26.4516   1
   1   9  -2 11.3854 44.2971   4
   1   9  -2  9.4117 34.4025   1
   0  -9  -2 549.252  81.435   2
   0  -9   2 517.688  83.272   3
   0  -9  -2 430.048  79.406   3
   0   9  -2 451.355  72.395   1
   0   9  -2 417.907  84.549   4
   0   9   2 427.562  77.924   4
   0   9   2 594.744  67.054   1
   1  -9   2 723.376 100.430   3
  -1  -9  -2 922.687 103.964   3
  -1  -9  -2 756.976 106.137   2
  -1   9  -2 521.572  89.353   1
  -1   9  -2 536.332 102.931   4
   1   9   2 643.554  90.348   4
   1   9   2 854.870  85.292   1
  -2  -9  -2 524.563 102.326   2
   2  -9   2 455.549  96.497   3
  -2  -9  -2 481.941  77.347   3
   2   9   2 618.659  76.459   1
  -2   9  -2 517.776  97.485   4
  -2   9  -2 549.363  89.857   1
   2   9   2 408.358  72.117   4
   3  -9   2 94.7524 62.4622   3
  -3  -9  -2 57.1284 43.5559   3
  -3  -9  -2 109.430  78.500   2
   3   9   2 33.9933 38.7560   1
  -3   9  -2 89.6966 54.5217   1
  -3   9  -2 62.5765 63.4156   4
   4  -9   2 463.243 111.837   3
  -4  -9  -2 842.214 104.864   3
  -4  -9  -2 759.727 141.472   2
  -4   9  -2 704.168 127.663   4
   4   9   2 1000.20  108.60   1
   5  -9   2 1748.80  219.56   3
  -5  -9  -2 1920.29  233.89   2
  -5   9  -2 1780.96  209.96   4
   6  -9   2 835.007 165.394   3
  -6  -9  -2 820.875 168.816   2
   6   9   2 875.412 121.363   1
  -6   9  -2 1262.19  176.52   4
  -7  -9  -2  61.626 113.297   2
   7  -9   2 -60.979  97.484   3
   7   9   2 311.023  87.031   1
   7 -10  -2 -72.331 103.303   3
  -7 -10   2 176.866 114.362   2
  -7 -10   2 -7.7742 75.2152   3
  -7  10   2 52.0693 91.1319   3
   7  10  -2 -2.3227 55.0182   1
   6 -10  -2 2610.78  297.77   3
  -6 -10   2 2033.44  217.23   3
   6  10  -2 1846.15  191.39   1
  -6  10   2 1766.06  228.22   4
   5 -10  -2 20.9618 87.2762   3
  -5 -10   2 162.473  73.306   3
  -5 -10   2 -114.64   60.01   2
  -5  10   2 65.2848 73.6388   4
   5  10  -2 -6.5867 39.3862   1
  -4 -10   2 894.410 124.160   3
   4 -10  -2 871.336 156.714   3
   4  10  -2 781.048 107.782   1
  -4  10   2 907.374 142.561   4
  -3 -10   2 18.2656 48.8119   3
   3 -10  -2  1.3385 37.6026   2
   3 -10  -2 -30.215  52.719   3
   3  10  -2 -2.1047 37.1166   1
  -3  10   2 -68.406  50.419   4
   2 -10  -2 1128.42  122.27   2
   2 -10  -2 1329.50  161.31   3
  -2 -10   2 1213.36  138.73   3
   2  10  -2 1205.28  125.37   1
   2  10  -2 1106.73  130.23   4
  -2  10   2 1307.41  152.50   4
   1 -10  -2 26.6551 43.6022   2
   1 -10  -2 95.5473 56.6995   3
  -1 -10   2 14.4003 38.1714   3
   1  10  -2 -6.9483 33.6314   1
  -1  10   2  5.8316 50.1347   4
   1  10  -2 33.7894 48.1702   4
   0 -10  -2 750.927  95.809   2
   0 -10   2 506.856  85.964   3
   0 -10  -2 744.431 101.724   3
   0  10  -2 434.025  76.859   1
   0  10   2 444.635  86.091   4
   0  10  -2 437.352  93.239   4
   0  10   2 597.313  72.361   1
  -1 -10  -2 69.8309 55.3943   2
   1 -10   2 -7.1429 41.5751   3
  -1 -10  -2 92.1622 46.4738   3
   1  10   2 52.5310 48.1906   4
  -1  10  -2 89.1946 55.8105   1
   1  10   2 21.6770 31.6208   1
  -1  10  -2 -37.453  53.905   4
   2 -10   2 1358.13  164.17   3
  -2 -10  -2 1560.18  149.76   3
  -2 -10  -2 1457.74  169.64   2
   2  10   2 1276.03  137.53   4
   2  10   2 1488.91  124.27   1
  -2  10  -2 1677.90  163.73   1
  -2  10  -2 1088.88  155.88   4
   3 -10   2 23.4824 66.9422   3
  -3 -10  -2 301.116  90.659   2
  -3 -10  -2 241.687  65.139   3
   3  10   2 269.133  57.185   1
  -3  10  -2 282.122  94.236   4
   4 -10   2 1201.49  169.54   3
  -4 -10  -2 874.282 162.127   2
  -4 -10  -2 1258.99  141.69   3
  -4  10  -2 1205.99  171.50   4
   4  10   2 1374.00  136.06   1
   5 -10   2 74.0338 73.2740   3
  -5 -10  -2 53.2110 84.5726   2
   5  10   2  4.9759 40.5965   1
  -5  10  -2 22.1292 72.0652   4
  -6 -10  -2 173.270 107.037   2
   6 -10   2 157.641  99.064   3
   6  10   2 42.1581 50.8198   1
  -6  10  -2 -17.669  83.216   4
  -7 -10  -2  40.277 118.878   2
   7 -10   2  24.782 106.261   3
  -7 -11   2 377.041 119.476   3
   6 -11  -2 -43.436  98.445   3
  -6 -11   2 238.034  90.192   3
  -6  11   2 25.8672 89.6684   4
   6  11  -2 -13.033  45.446   1
   5 -11  -2 98.0714 83.6065   3
  -5 -11   2 100.952  68.046   3
   5  11  -2 -6.6648 44.6091   1
  -5  11   2 -5.2609 69.9577   4
  -4 -11   2 2065.75  208.37   3
   4 -11  -2 2141.12  248.08   3
  -4  11   2 1833.19  216.42   4
   4  11  -2 2091.05  178.57   1
   3 -11  -2 174.199  85.580   3
  -3 -11   2 214.632  72.123   3
   3  11  -2 155.701  54.061   1
  -3  11   2 80.7705 68.7689   4
  -2 -11   2 1349.81  156.63   3
   2 -11  -2 1549.35  183.15   3
   2  11  -2 1662.54  136.59   1
   2  11  -2 1250.01  148.06   4
  -2  11   2 1428.79  170.97   4
   1 -11  -2 19.3300 53.3483   3
  -1 -11   2 76.5466 52.1064   3
   1  11  -2 111.049  56.870   4
   1  11  -2 38.0286 39.8061   1
  -1  11   2 -19.918  51.533   4
   0 -11  -2 1211.72  137.88   2
   0 -11   2 1578.08  154.46   3
   0 -11  -2 1283.16  146.25   3
   0  11   2 1285.32  112.04   1
   0  11   2 1434.93  155.90   4
   0  11  -2 1409.49  158.58   4
   0  11  -2 1146.41  133.04   1
   1 -11   2 343.210  78.291   3
  -1 -11  -2 323.742  72.072   3
  -1 -11  -2 302.062  76.167   2
  -1  11  -2 202.711  68.742   1
   1  11   2 278.628  57.723   1
   1  11   2 414.038  79.608   4
  -1  11  -2 180.071  72.411   4
  -2 -11  -2 1050.78  149.28   2
   2 -11   2 1280.06  157.97   3
  -2 -11  -2 999.847 129.336   3
  -2  11  -2 1311.37  148.37   1
   2  11   2 1086.78  116.98   1
   2  11   2 1134.36  130.66   4
  -2  11  -2 1279.67  164.32   4
  -3 -11  -2 39.4184 48.2488   3
  -3 -11  -2 29.1033 72.5886   2
   3 -11   2 -5.5225 66.6750   3
   3  11   2 66.7061 41.5737   1
  -3  11  -2 -40.471  58.884   4
  -4 -11  -2 350.928  84.845   3
   4 -11   2 379.187 106.699   3
  -4 -11  -2 320.548 113.667   2
   4  11   2 370.889  74.987   1
  -4  11  -2 206.962  96.388   4
   5 -11   2 289.183 115.375   3
  -5 -11  -2 383.619 126.828   2
  -5  11  -2 174.241  99.122   4
   5  11   2 323.011  75.137   1
  -6 -11  -2 743.408 170.162   2
   6 -11   2 846.083 169.671   3
   6  11   2 619.901 107.070   1
  -6  11  -2 680.838 154.369   4
  -6 -12   2 471.426 124.612   3
   6 -12  -2 501.905 164.039   3
  -6  12   2 301.607 123.595   4
   6  12  -2 540.890 106.885   1
  -5 -12   2 1273.54  172.22   3
   5 -12  -2 1172.24  197.05   3
   5  12  -2 1032.00  143.02   1
  -5  12   2 1387.07  190.07   4
  -4 -12   2 30.6329 56.1590   3
   4 -12  -2 136.156  90.940   3
   4  12  -2 45.4023 47.9787   1
  -4  12   2 29.8197 70.9238   4
  -3 -12   2 325.340  88.471   3
   3 -12  -2 113.257  82.348   3
   3  12  -2 121.252  57.295   1
  -3  12   2 78.5389 75.6663   4
   2 -12  -2 644.089 128.589   3
  -2 -12   2 573.873 108.113   3
   2  12  -2 782.351 107.218   1
  -2  12   2 810.582 128.525   4
   1 -12  -2 1620.36  181.18   3
  -1 -12   2 1644.20  175.58   3
   1  12  -2 1868.62  155.20   1
   1  12  -2 1596.48  179.91   4
  -1  12   2 1691.07  189.32   4
   0 -12   2 338.825  83.345   3
   0 -12  -2 455.452  87.462   3
   0  12   2 280.749  83.921   4
   0  12  -2 337.147  74.584   1
   0  12  -2 516.477 103.988   4
  -1 -12  -2 51.9916 48.1672   3
   1 -12   2 29.7353 44.6637   3
  -1  12  -2 -33.830  60.120   4
   1  12   2 13.7755 52.0349   4
  -1  12  -2 -26.824  46.831   1
   1  12   2  9.6685 35.1605   1
   2 -12   2 184.778  75.341   3
  -2 -12  -2 167.534  65.441   3
   2  12   2 110.871  50.201   1
  -2  12  -2 81.1164 72.2143   4
   3 -12   2 1477.20  190.31   3
  -3 -12  -2 1780.00  205.13   2
  -3 -12  -2 1488.42  165.58   3
   3  12   2 1476.99  153.27   1
  -3  12  -2 1570.90  197.32   4
  -4 -12  -2 338.593 120.895   2
   4 -12   2 537.593 130.482   3
  -4 -12  -2 286.870  86.253   3
   4  12   2 338.366  76.048   1
  -4  12  -2 451.338 114.918   4
  -5 -12  -2  66.575 101.758   2
   5 -12   2 -21.917  81.085   3
  -5  12  -2 45.1354 83.4395   4
   5  12   2 -13.751  43.283   1
  -6 -12  -2 -10.590 102.926   2
   6 -12   2 -58.866  95.358   3
   6  12   2 -3.8290 55.3456   1
  -6  12  -2 -62.386  91.605   4
  -6 -13   2 -43.727  77.818   3
  -6  13   2 -31.856  92.011   4
   5 -13  -2 400.017 142.195   3
  -5 -13   2 170.058  90.884   3
  -5  13   2 196.368 102.692   4
   5  13  -2 220.846  75.283   1
  -4 -13   2 45.1787 67.1004   3
   4 -13  -2  3.5596 80.5894   3
  -4  13   2 77.0883 80.7654   4
   4  13  -2 45.7910 56.6386   1
   3 -13  -2 1530.88  206.26   3
  -3 -13   2 1507.46  182.82   3
  -3  13   2 1146.98  177.97   4
   3  13  -2 1697.98  168.81   1
  -2 -13   2 45.7628 60.0778   3
   2 -13  -2 -5.1771 64.6527   3
   2  13  -2 -5.7129 44.4769   1
  -2  13   2 -18.192  59.159   4
  -1 -13   2 131.323  58.650   3
   1 -13  -2 231.864  79.395   3
   1  13  -2 90.3164 57.0327   1
   1  13  -2 138.913  70.326   4
  -1  13   2 245.084  85.645   4
   0 -13  -2 -11.350  42.783   3
   0 -13   2 -13.526  42.521   3
   0  13   2 38.8096 59.7318   4
   0  13  -2 93.9127 71.1304   4
   0  13  -2 -44.319  41.291   1
   1 -13   2 1885.75  203.30   3
  -1 -13  -2 2217.80  192.85   3
   1  13   2 2212.76  173.40   1
  -1  13  -2 2213.01  192.76   1
   1  13   2 2120.39  211.87   4
  -1  13  -2 2110.79  228.78   4
  -2 -13  -2 78.1351 56.7286   3
   2 -13   2  7.3400 48.0258   3
   2  13   2 -13.044  40.832   1
  -2  13  -2 -23.284  56.583   4
  -3 -13  -2 -3.9620 54.3806   3
   3 -13   2 24.4599 69.7607   3
  -3  13  -2 -77.262  61.030   4
   3  13   2 32.2775 45.9061   1
   4 -13   2 12.8892 78.3539   3
   4  13   2 121.574  59.949   1
  -4  13  -2 48.9921 84.7503   4
   5 -13   2 1363.58  213.83   3
  -5  13  -2 1228.98  199.91   4
   5  13   2 1507.00  170.18   1
   5 -14  -2 372.530 137.430   3
  -5 -14   2 315.156 108.429   3
  -5  14   2 345.993 116.467   4
   5  14  -2 298.296  92.363   1
  -4 -14   2 76.9098 82.1864   3
   4 -14  -2 93.4966 99.4768   3
   4  14  -2 88.1483 63.2667   1
  -4  14   2 22.4199 80.4789   4
  -3 -14   2 52.3582 73.0373   3
   3 -14  -2 146.554  94.309   3
   3  14  -2 180.494  67.685   1
  -3  14   2 270.223 101.531   4
  -2 -14   2 963.100 138.505   3
   2 -14  -2 882.490 140.878   3
   2  14  -2 708.144 111.881   1
  -2  14   2 919.809 149.248   4
  -1 -14   2 937.580 136.346   3
   1 -14  -2 867.116 135.115   3
  -1  14   2 992.604 149.934   4
   1  14  -2 852.811 121.936   1
   1  14  -2 898.661 141.496   4
   0 -14   2 887.040 126.671   3
   0 -14  -2 1215.37  142.87   3
   0  14  -2 762.884 136.263   4
   0  14   2 701.529 133.679   4
   0  14  -2 819.922 121.207   1
  -1 -14  -2 23.5218 54.8381   3
   1 -14   2 26.3386 52.8844   3
   1  14   2 82.5193 74.0262   4
  -1  14  -2 -17.017  64.990   4
  -2 -14  -2 64.1111 60.8338   3
   2 -14   2 179.295  75.525   3
   2  14   2 144.271  60.189   1
  -2  14  -2 88.1700 82.0347   4
   3 -14   2 923.401 152.209   3
  -3 -14  -2 1139.60  153.89   3
  -3  14  -2 721.164 148.885   4
   3  14   2 1184.35  139.07   1
   4 -14   2 243.050 106.202   3
  -4  14  -2 165.594  99.218   4
   4  14   2 286.752  79.004   1
   5 -14   2 198.541 116.966   3
   5  14   2 30.8759 60.2179   1
  -4 -15   2 681.490 140.571   3
   4 -15  -2 535.138 153.493   3
  -4  15   2 384.387 127.614   4
   4  15  -2 608.466 105.697   1
  -3 -15   2 18.3991 71.0328   3
   3 -15  -2 13.9470 74.7627   3
  -3  15   2 -2.1020 78.9596   4
   3  15  -2 -21.416  50.959   1
  -2 -15   2 219.839  81.591   3
   2 -15  -2 202.415  88.152   3
  -2  15   2 87.9051 77.6502   4
   2  15  -2 158.556  67.684   1
   1 -15  -2 17.9778 55.8200   3
  -1 -15   2 44.2771 56.7373   3
   1  15  -2 180.257  89.682   4
   1  15  -2 -17.712  53.113   1
  -1  15   2 82.0886 79.0910   4
   0 -15   2 1643.68  181.24   3
   0 -15  -2 1557.58  180.33   3
   0  15  -2 1387.17  188.55   4
   0  15   2 1577.02  193.48   4
   1 -15   2 192.117  70.011   3
  -1 -15  -2 59.1171 63.5093   3
  -1  15  -2 141.088  82.159   4
   1  15   2 304.258  95.710   4
  -2 -15  -2 1423.81  174.23   3
   2 -15   2 1516.22  178.40   3
   2  15   2 1382.61  156.74   1
  -2  15  -2 1052.61  177.97   4
   3 -15   2 -22.466  66.963   3
  -3 -15  -2 -40.866  64.229   3
  -3  15  -2 -13.259  81.876   4
   3  15   2 75.2247 61.6093   1
   4 -15   2 84.8489 89.3881   3
  -4  15  -2 40.2022 87.2685   4
   4  15   2 33.4466 62.8809   1
  -3 -16   2 -27.983  70.525   3
   3 -16  -2 -99.197  73.224   3
  -3  16   2 130.512  94.804   4
   3  16  -2 25.8194 63.8836   1
   2 -16  -2 856.925 147.095   3
  -2 -16   2 983.341 152.588   3
  -2  16   2 931.647 164.231   4
   2  16  -2 824.302 134.354   1
  -1 -16   2 177.138  74.467   3
   1 -16  -2 113.760  73.453   3
  -1  16   2 73.8359 80.8251   4
   1  16  -2 142.605  75.434   1
   0 -16  -2 826.880 129.054   3
   0 -16   2 783.426 126.525   3
   0  16   2 374.991 113.650   4
   0  16  -2 743.193 142.219   4
   1 -16   2 -3.0044 57.4673   3
  -1 -16  -2 -48.561  58.353   3
  -1  16  -2 -97.361  69.540   4
   2 -16   2 381.991  97.871   3
  -2 -16  -2 550.312 112.993   3
  -2  16  -2 410.337 124.883   4
   3 -16   2 99.1462 76.8484   3
   3  16   2 112.335  72.124   1
  -3  16  -2 -3.1347 95.4836   4
  -2 -17   2 508.500 118.081   3
   2 -17  -2 329.735 102.380   3
  -2  17   2 289.325 115.964   4
   2  17  -2 379.464 102.457   1
  -1 -17   2  7.9755 67.6001   3
   1 -17  -2 173.057  79.971   3
  -1  17   2 71.2002 94.7103   4
   0 -17   2 85.2971 64.0048   3
   0 -17  -2 34.3106 61.3716   3
   0  17   2 -17.296  87.651   4
   0  17  -2 -49.380  90.040   4
   1 -17   2 941.823 147.172   3
  -1 -17  -2 1060.56  151.38   3
  -1  17  -2 861.265 167.228   4
  -2 -17  -2 245.062  89.270   3
  -9   0   3  7.2673 85.4539   3
   8   0  -3 -44.256  82.768   2
  -8   0   3 16.8557 66.2533   3
  -7   0   3 1309.20  184.48   3
   7   0  -3 1630.67  202.81   2
   6   0  -3 -12.459  26.987   1
  -6   0   3 78.4066 68.5862   3
   6   0  -3 30.1869 60.3298   2
   5   0  -3 1080.48  144.11   2
  -5   0   3 958.766 130.546   3
   5   0  -3 1117.70   89.94   1
   4   0  -3 -42.643  15.618   1
   4   0  -3  2.6715 44.3097   2
  -4   0   3 -13.559  36.535   3
  -4   0   3  8.6827 29.3472   4
   3   0  -3 3076.59  194.01   1
  -3   0   3 3450.11  195.67   4
  -3   0   3 3027.87  218.39   3
   3   0  -3 3043.66  222.58   2
   2   0  -3 14.3044 33.6363   2
  -2   0   3  0.6487 18.7856   4
  -2   0   3  7.7704 32.4910   3
   2   0  -3 38.3471 21.5023   1
  -1   0   3 5616.81  321.03   3
   1   0  -3 5041.97  322.34   2
   1   0  -3 5044.02  313.06   1
  -1   0   3 5899.42  314.60   4
   0   0   3 -27.504  20.935   4
   0   0  -3 38.7203 37.3168   2
   0   0   3  0.1809 14.3264   3
   0   0  -3 -10.592  25.448   1
  -1   0  -3 1107.72  103.05   2
  -1   0  -3 1273.06   99.18   1
   1   0   3 1333.67   96.38   4
   1   0   3 1258.67   81.48   3
   2   0   3 -26.538  22.234   4
  -2   0  -3 41.0000 31.9121   1
  -2   0  -3 18.1979 23.0243   3
  -2   0  -3 -34.635  38.839   2
   3   0   3 6558.85  400.54   4
  -3   0  -3 6706.93  429.45   2
  -3   0  -3 6898.15  402.10   3
  -3   0  -3 6299.20  402.91   1
   4   0   3 -24.126  26.476   1
  -4   0  -3 15.7867 49.4835   2
   4   0   3 -33.079  29.257   4
  -4   0  -3 -40.635  34.699   3
   5   0   3 45.7925 40.8982   1
  -5   0  -3 255.832  67.673   3
  -5   0  -3 269.448  82.385   2
   6   0   3 17.2187 37.0354   1
  -6   0  -3 -58.106  57.989   2
   7   0   3 1697.34  172.69   1
   8   0   3 58.1245 58.5339   1
  -8   0  -3 -50.486  79.424   2
  -9  -1   3 590.769 145.272   3
  -9   1   3 501.572 141.572   3
   8  -1  -3 205.883  96.222   2
  -8  -1   3 206.687  94.888   3
  -8   1   3 325.074 109.791   3
   8   1  -3 344.319 111.630   2
   7  -1  -3 483.047 112.606   2
  -7  -1   3 417.738 110.413   3
  -7   1   3 350.487 104.264   3
   7   1  -3 49.9843 79.3072   2
  -6  -1   3 283.207  88.866   3
   6  -1  -3 337.399  97.268   2
   6   1  -3 283.769  56.357   1
  -6   1   3 402.103  95.169   3
   6   1  -3 191.613  87.976   2
   5  -1  -3 524.774  59.430   1
   5  -1  -3 713.836 110.347   2
  -5  -1   3 528.274  93.718   3
   5   1  -3 467.585  63.419   1
   5   1  -3 358.328  89.585   2
  -5   1   3 605.466 104.359   3
   4  -1  -3 3849.86  239.05   1
  -4  -1   3 4107.93  239.63   4
  -4  -1   3 3783.44  274.83   3
   4  -1  -3 3680.47  276.59   2
  -4   1   3 3943.93  251.85   4
  -4   1   3 3985.50  278.05   3
   4   1  -3 4058.81  246.42   1
   4   1  -3 4197.28  285.23   2
   3  -1  -3 1963.91  126.63   1
   3  -1  -3 1959.97  156.52   2
  -3  -1   3 2123.42  126.06   4
  -3  -1   3 1977.11  155.50   3
  -3   1   3 1969.03  136.37   4
   3   1  -3 2151.44  164.23   2
  -3   1   3 1766.75  155.55   3
   3   1  -3 2079.45  133.86   1
   2  -1  -3 2483.04  173.25   2
  -2  -1   3 2681.67  150.91   4
  -2  -1   3 2214.80  167.94   3
   2  -1  -3 2612.14  150.18   1
   2   1  -3 2345.49  157.79   1
  -2   1   3 2554.18  157.40   4
   2   1  -3 2476.66  174.31   2
  -2   1   3 2520.54  173.20   3
  -1  -1   3 8040.87  420.50   4
   1  -1  -3 7108.31  414.59   1
  -1  -1   3 7538.47  426.17   3
   1  -1  -3 6941.45  429.55   2
   1   1  -3 6869.80  418.86   1
  -1   1   3 7222.54  427.75   3
  -1   1   3 7547.07  420.01   4
   1   1  -3 7024.95  427.21   2
   0  -1   3 655.526  61.347   4
   0  -1  -3 647.609  73.468   2
   0  -1  -3 439.064  52.189   1
   0  -1   3 455.826  41.943   3
   0   1  -3 543.404  60.166   1
   0   1   3 504.919  43.126   3
   0   1  -3 566.227  61.898   2
   0   1   3 555.989  51.404   4
   1  -1   3 6474.96  399.89   4
  -1  -1  -3 6567.75  411.63   2
   1  -1   3 6748.45  392.12   3
  -1  -1  -3 6737.34  396.25   1
   1   1   3 6853.14  391.58   4
  -1   1  -3 6622.79  402.81   2
  -1   1  -3 7001.37  399.42   1
  -2  -1  -3  0.1210 19.9132   3
   2  -1   3 -13.060  31.673   4
  -2  -1  -3 -24.971  25.580   1
  -2  -1  -3  8.7628 40.0501   2
  -2   1  -3 -20.893  34.893   2
  -2   1  -3 -10.966  25.459   3
  -2   1  -3 67.0850 34.4623   1
   2   1   3 -3.6784 22.9051   4
   3  -1   3 126.129  44.268   4
  -3  -1  -3 128.027  61.765   2
  -3  -1  -3 85.6557 34.9841   3
   3   1   3 89.8949 36.3939   1
  -3   1  -3 67.5833 38.5360   3
  -3   1  -3 144.813  53.121   2
  -3   1  -3 134.020  43.407   1
   3   1   3 148.436  34.417   4
  -4  -1  -3 1108.13  141.83   2
  -4  -1  -3 1143.97  113.12   3
   4  -1   3 1086.55  115.06   4
  -4   1  -3 843.039 124.684   2
  -4   1  -3 1298.78  123.10   1
  -4   1  -3 1251.98  121.90   3
   4   1   3 1072.33   91.61   4
   4   1   3 1125.57  114.86   1
  -5  -1  -3 1646.14  156.77   3
   5  -1   3 1624.44  152.23   1
   5  -1   3 1636.57  139.13   4
  -5  -1  -3 1259.65  172.77   2
   5   1   3 1472.84  147.93   1
  -5   1  -3 1493.66  155.91   3
  -5   1  -3 1800.52  189.33   2
   6  -1   3 189.074  56.475   1
  -6  -1  -3 145.479  80.267   2
   6   1   3 309.637  65.596   1
  -6   1  -3 268.493  85.627   2
   7  -1   3 25.5306 47.2579   1
  -7  -1  -3 54.9193 80.0993   2
  -7   1  -3 18.0129 75.1101   2
   7   1   3 48.0748 51.1433   1
  -8  -1  -3 128.408 107.862   2
   8  -1   3 238.035  75.964   1
  -8   1  -3  7.0761 92.0603   2
   8   1   3 154.554  70.374   1
  -9  -2   3 138.660  99.708   3
  -8  -2   3 158.954  89.820   3
   8  -2  -3 190.741  99.178   2
  -8   2   3 201.551 102.620   3
   8   2  -3 186.389  99.626   2
   7  -2  -3 142.747  82.386   2
  -7  -2   3 189.019  84.638   3
  -7   2   3 213.114  85.469   3
   7   2  -3 391.648  70.937   1
   7   2  -3 270.660 100.095   2
  -6  -2   3 2659.50  237.86   3
   6  -2  -3 2973.19  244.51   2
  -6   2   3 2907.80  245.90   3
   6   2  -3 2997.74  202.53   1
   6   2  -3 2616.24  243.21   2
  -5  -2   3 89.5608 61.3270   2
   5  -2  -3 172.992  67.490   2
   5  -2  -3 265.637  40.322   1
  -5  -2   3 197.760  68.357   3
   5   2  -3 308.480  81.818   2
  -5   2   3 189.688  59.789   4
   5   2  -3 192.507  44.943   1
  -5   2   3 54.9621 56.0341   3
   4  -2  -3 22.3670 18.6194   1
  -4  -2   3 -54.571  44.560   2
  -4  -2   3  7.2925 38.1820   3
   4  -2  -3 82.2634 47.0651   2
   4   2  -3 45.5767 51.8237   2
  -4   2   3 24.7700 36.0628   4
   4   2  -3 13.4353 25.6687   1
  -4   2   3 38.7565 46.6252   3
   3  -2  -3  9.8849 38.9904   2
   3  -2  -3 25.1516 15.4341   1
  -3  -2   3 26.2798 36.9934   3
  -3  -2   3 12.3867 14.0371   4
   3   2  -3 33.5750 22.9979   1
  -3   2   3 15.2821 38.7578   3
   3   2  -3 19.5509 42.6535   2
  -3   2   3 56.3857 31.3403   4
   2  -2  -3 3353.33  220.67   2
  -2  -2   3 3506.19  198.35   4
  -2  -2   3 3254.69  216.26   3
   2  -2  -3 3351.17  192.78   1
   2   2  -3 3313.30  209.62   1
   2   2  -3 3614.38  225.08   2
  -2   2   3 3217.56  222.71   3
  -2   2   3 3272.39  208.51   4
  -1  -2   3 186.405  32.089   3
   1  -2  -3 180.968  35.979   2
  -1  -2   3 168.929  32.341   4
   1  -2  -3 182.872  24.964   1
   1   2  -3 215.355  35.055   2
   1   2  -3 103.758  32.290   1
  -1   2   3 220.274  34.479   4
  -1   2   3 201.065  41.968   3
   0  -2   3 1750.53  135.14   4
   0  -2  -3 1976.64  126.12   1
   0  -2   3 2096.66  123.63   3
   0  -2  -3 1652.29  146.91   2
   0   2  -3 1933.62  128.60   2
   0   2  -3 2153.97  137.27   1
   0   2   3 1836.08  123.82   4
   0   2   3 1901.26  123.19   3
   1  -2   3 2724.14  169.13   3
  -1  -2  -3 2527.10  167.08   1
  -1  -2  -3 2734.53  186.91   2
  -1  -2  -3 2450.80  149.72   3
  -1   2  -3 2383.11  170.58   4
  -1   2  -3 2621.72  173.37   1
   1   2   3 2510.10  159.23   4
  -1   2  -3 2674.74  169.30   2
  -2  -2  -3 4237.37  248.39   3
  -2  -2  -3 3892.94  280.63   2
  -2   2  -3 4139.57  259.58   3
  -2   2  -3 3828.91  262.39   1
  -2   2  -3 4225.46  266.83   4
   2   2   3 4123.84  248.25   4
  -2   2  -3 4517.63  272.07   2
   2   2   3 4054.00  258.01   1
  -3  -2  -3 1909.92  180.98   2
  -3  -2  -3 1830.05  129.27   3
  -3   2  -3 1709.75  138.09   3
   3   2   3 1744.24  119.31   4
  -3   2  -3 1857.74  142.08   1
  -3   2  -3 1993.91  155.11   2
  -3   2  -3 1796.86  144.50   4
   3   2   3 1484.78  132.42   1
  -4  -2  -3 395.935  97.688   2
  -4  -2  -3 581.523  77.246   3
   4  -2   3 489.720  83.601   4
  -4   2  -3 430.900  88.916   2
  -4   2  -3 671.003  87.364   1
   4   2   3 535.274  78.195   1
  -4   2  -3 604.261  85.691   4
   4   2   3 630.611  62.254   4
  -4   2  -3 478.128  80.168   3
   5  -2   3 35.4308 45.8916   4
   5  -2   3 36.4133 37.3373   1
  -5  -2  -3 -32.675  59.000   2
  -5  -2  -3 37.5742 46.2963   3
  -5   2  -3 22.7715 57.2598   2
  -5   2  -3 41.0162 53.9342   3
   5   2   3 -0.8398 34.3428   1
   6  -2   3 1015.72  116.33   1
  -6  -2  -3 601.170 135.698   2
  -6   2  -3 1197.26  143.96   3
   6   2   3 951.305 116.723   1
  -6   2  -3 696.685 132.901   2
  -7  -2  -3 23.5498 84.4615   2
   7  -2   3 117.151  57.067   1
  -7   2  -3 95.7789 84.8649   2
   7   2   3 95.5696 55.4918   1
  -8  -2  -3 328.134 126.570   2
   8   2   3 411.631  93.463   1
  -8   2  -3 107.127 104.296   2
  -8  -3   3 1642.02  214.48   3
   8  -3  -3 1243.98  189.71   2
   8   3  -3 1798.18  229.30   2
  -8   3   3 1477.28  209.80   3
  -7  -3   3 42.7387 61.8291   3
   7  -3  -3 -25.419  60.722   2
  -7   3   3 -27.610  66.504   3
   7   3  -3 -3.1305 37.6019   1
   7   3  -3 -18.961  75.936   2
  -6  -3   3  8.5580 69.2778   2
   6  -3  -3 108.020  65.930   2
  -6  -3   3  7.2715 61.3014   3
   6   3  -3 26.2889 36.4268   1
  -6   3   3 74.0702 70.7289   3
   5  -3  -3 387.776  86.664   2
  -5  -3   3 115.987  55.292   3
  -5  -3   3 213.797  78.466   2
  -5   3   3 177.834  72.064   3
   5   3  -3 256.447  52.189   1
  -5   3   3 371.786  72.585   4
   4  -3  -3 3409.99  239.62   2
  -4  -3   3 3331.09  234.78   3
   4  -3  -3 3310.09  195.26   1
  -4   3   3 3055.09  224.86   4
   4   3  -3 3343.09  215.59   1
  -4   3   3 3052.45  245.31   3
  -3  -3   3 58.8183 14.7464   4
   3  -3  -3 78.3795 15.5959   1
   3  -3  -3 -12.113  32.084   2
  -3  -3   3 50.9307 44.5770   2
  -3  -3   3 19.0333 34.5616   3
  -3   3   3 35.3007 43.5753   3
  -3   3   3 -3.3320 30.4914   4
   3   3  -3 117.694  34.997   1
   2  -3  -3 540.523  66.252   2
  -2  -3   3 286.759  49.864   3
  -2  -3   3 450.140  43.718   4
  -2   3   3 468.415  71.265   3
   2   3  -3 425.691  54.757   1
  -2   3   3 342.884  51.625   4
   2   3  -3 388.217  61.779   2
  -1  -3   3 613.044  59.944   3
  -1  -3   3 469.229  59.828   4
   1  -3  -3 638.987  66.974   2
   1   3  -3 593.136  64.449   1
  -1   3   3 567.280  67.279   3
  -1   3   3 453.754  56.032   4
  -1   3   3 594.780  40.485   1
   1   3  -3 627.460  54.556   2
   0  -3   3 4357.79  251.58   3
   0  -3  -3 3786.20  253.12   3
   0  -3  -3 4098.29  271.39   2
   0   3  -3 4082.41  257.61   1
   0   3  -3 4173.52  258.66   4
   0   3   3 3917.51  243.92   1
   0   3   3 4197.35  250.16   4
   0   3  -3 4424.22  243.37   2
   1  -3   3 38.9134 32.8152   3
  -1  -3  -3 81.4328 46.7146   2
  -1  -3  -3 62.9787 18.2428   3
   1   3   3 41.9787 22.4919   4
  -1   3  -3 47.9078 28.6482   2
  -1   3  -3 31.2734 37.7410   4
   1   3   3 36.4932 24.8895   1
  -1   3  -3 43.8192 36.2240   1
  -2  -3  -3  5.7321 49.0385   2
   2  -3   3 54.5301 35.5357   3
  -2  -3  -3 36.0804 22.7689   3
   2   3   3 48.0616 29.4214   1
  -2   3  -3 40.3936 37.8319   1
   2   3   3 42.9904 21.9955   4
  -2   3  -3 65.1581 38.4076   4
  -2   3  -3 108.121  42.856   2
  -3  -3  -3 31.2205 30.3592   3
  -3  -3  -3 20.8822 47.3903   2
  -3   3  -3 46.8972 37.4012   1
  -3   3  -3  0.0902 35.0233   3
   3   3   3 11.6112 18.8917   4
   3   3   3 23.8128 30.8989   1
  -3   3  -3 -13.062  39.897   4
  -3   3  -3  7.1923 43.2179   2
  -4  -3  -3 2952.38  238.34   2
  -4  -3  -3 2540.90  192.58   3
   4   3   3 2751.42  196.42   1
  -4   3  -3 2873.26  207.14   3
  -4   3  -3 2569.47  204.14   4
  -4   3  -3 2651.65  214.28   2
   4   3   3 2723.47  171.22   4
  -4   3  -3 2775.86  197.86   1
  -5  -3  -3 124.972  71.712   2
   5   3   3 152.274  51.730   1
  -5   3  -3 255.456  69.226   4
  -5   3  -3 116.275  61.265   3
  -5   3  -3 182.622  74.556   2
  -5   3  -3 173.662  55.232   1
   6  -3   3 518.159  89.403   1
  -6  -3  -3 673.964 138.471   2
   6   3   3 733.800 105.745   1
  -6   3  -3 654.644 119.852   2
  -6   3  -3 789.945 122.881   3
  -7  -3  -3 -7.0711 82.7555   2
   7  -3   3 -67.523  39.959   1
   7   3   3 38.3754 48.1060   1
  -7   3  -3 -16.068  73.075   2
  -8  -3  -3 552.678 150.849   2
   8   3   3 505.259 100.380   1
   8  -4  -3 16.4673 71.4805   2
  -8  -4   3 -5.2763 78.6006   3
  -8   4   3 16.7571 87.2942   3
   8   4  -3 102.498  97.694   2
   8   4  -3 -3.9076 56.1229   1
  -7  -4   3 454.219 126.437   2
   7  -4  -3 311.305  95.173   2
  -7  -4   3 452.914 108.280   3
   7   4  -3 642.479 137.414   2
  -7   4   3 408.863 113.073   3
   7   4  -3 566.843  91.586   1
  -6  -4   3 1627.94  178.93   3
  -6  -4   3 1565.90  191.83   2
   6  -4  -3 1719.17  186.97   2
  -6   4   3 1418.62  182.23   3
   6   4  -3 1605.82  139.58   1
  -5  -4   3 518.323  93.145   3
  -5  -4   3 519.128 105.827   2
   5  -4  -3 863.474 113.874   2
  -5   4   3 668.774 102.148   4
   5   4  -3 711.931  84.785   1
  -5   4   3 472.875 100.733   3
  -4  -4   3 229.445  70.081   2
  -4  -4   3 272.702  62.920   3
   4  -4  -3 476.067  81.281   2
   4   4  -3 480.559  64.621   1
  -4   4   3 333.244  72.784   4
  -4   4   3 306.953  76.889   3
  -3  -4   3 1944.98  114.90   4
  -3  -4   3 1844.32  157.01   2
   3  -4  -3 1935.46  148.54   2
  -3  -4   3 1852.64  144.63   3
   3   4  -3 1950.47  137.66   1
  -3   4   3 1948.77  148.39   4
  -3   4   3 1713.61  157.36   3
  -2  -4   3 2033.80  150.63   3
  -2  -4   3 2299.84  158.95   2
  -2  -4   3 2067.64  141.65   4
   2  -4  -3 2245.46  156.41   2
  -2   4   3 1878.51  152.64   4
  -2   4   3 2396.73  169.86   3
   2   4  -3 2560.21  157.37   1
  -1  -4   3 1481.61  101.25   3
   1  -4  -3 1222.02  104.70   2
  -1   4   3 1221.75   78.99   1
  -1   4   3 1287.33  102.51   4
   1   4  -3 1446.85   93.25   2
   1   4  -3 1322.70  102.45   1
  -1   4   3 1245.14  111.34   3
   1   4  -3 1211.35  100.83   4
   0  -4   3 144.429  36.368   3
   0  -4  -3 167.063  42.303   3
   0  -4  -3 120.650  49.559   2
   0   4   3 96.6056 30.6958   4
   0   4   3 140.528  27.818   1
   0   4  -3 75.9111 37.3960   4
   0   4  -3 133.554  38.574   1
   1  -4   3 1479.48  117.36   3
  -1  -4  -3 914.985 120.577   2
  -1  -4  -3 1384.09   95.56   3
  -1   4  -3 1382.71  119.00   4
   1   4   3 1222.98   98.07   1
   1   4   3 1462.45  100.04   4
  -1   4  -3 1490.60   95.72   2
  -1   4  -3 1321.87  115.82   1
   2  -4   3 2639.00  175.98   3
  -2  -4  -3 1987.20  144.51   3
  -2  -4  -3 2223.37  187.41   2
  -2   4  -3 2267.32  168.22   1
   2   4   3 2105.73  154.17   1
  -2   4  -3 2357.26  160.84   2
   2   4   3 2487.15  148.18   4
  -2   4  -3 2200.96  173.61   4
  -3  -4  -3 2267.52  166.85   3
   3  -4   3 2411.13  191.30   3
  -3  -4  -3 2422.71  211.28   2
  -3   4  -3 2311.21  180.84   1
   3   4   3 2544.47  158.36   4
  -3   4  -3 2396.83  193.26   4
  -3   4  -3 2504.87  187.12   3
  -3   4  -3 2752.82  190.43   2
   3   4   3 2717.64  177.63   1
  -4  -4  -3 957.531 139.408   2
  -4  -4  -3 789.877  91.627   3
  -4   4  -3 890.643 115.591   2
  -4   4  -3 792.646 108.822   3
  -4   4  -3 821.817 103.089   1
  -4   4  -3 814.049 111.225   4
   4   4   3 835.525  99.998   1
  -5  -4  -3 120.769  74.266   2
  -5   4  -3 96.1165 64.0422   3
  -5   4  -3 84.8728 60.8748   2
  -5   4  -3 -29.936  38.122   1
   5   4   3 53.8354 45.2064   1
  -5   4  -3 -3.8298 54.4056   4
  -6  -4  -3 160.927  96.540   2
   6  -4   3 121.309  53.460   1
  -6   4  -3 154.132  75.559   2
  -6   4  -3 465.297  96.152   3
   6   4   3 172.810  63.310   1
  -7  -4  -3 1137.36  197.61   2
  -7   4  -3 1403.18  191.20   2
   7   4   3 1343.34  155.20   1
   8  -4   3 193.301 106.775   2
  -8  -4  -3 84.6523 94.3503   2
   8   4   3 231.682  77.319   1
   8  -5  -3 -21.523  71.242   2
  -8  -5   3 44.5708 76.3142   3
   8   5  -3 41.1813 84.8652   2
   8   5  -3 23.3259 58.8530   1
  -8   5   3  3.9691 82.2517   3
   7  -5  -3 169.440  79.852   2
  -7  -5   3 94.4413 84.4653   2
  -7  -5   3 286.302  92.476   3
  -7   5   3 162.308  89.324   3
   7   5  -3 236.771  64.892   1
   6  -5  -3 -10.027  50.686   2
  -6  -5   3 64.8375 69.5207   2
  -6  -5   3 25.0639 49.8592   3
  -6   5   3 38.0216 67.8861   3
   6   5  -3 -5.1211 35.7025   1
  -5  -5   3 2414.36  191.40   3
   5  -5  -3 1916.48  181.07   2
  -5   5   3 2114.60  203.20   4
   5   5  -3 2254.08  166.74   1
  -5   5   3 2047.30  217.73   3
  -4  -5   3 -48.939  27.027   3
   4  -5  -3 39.3487 44.6407   2
  -4  -5   3 -17.851  47.740   2
   4   5  -3 -32.104  25.938   1
  -4   5   3 -65.793  41.099   4
  -4   5   3 127.626  57.656   3
  -3  -5   3 1805.37  123.83   4
  -3  -5   3 1859.69  149.69   3
   3  -5  -3 2348.36  158.37   2
  -3  -5   3 1926.47  160.24   2
  -3   5   3 2059.66  160.83   4
   3   5  -3 2150.33  149.58   1
  -3   5   3 2129.59  173.10   3
  -2  -5   3 45.5850 29.3512   3
  -2  -5   3 12.7521 33.9863   2
   2  -5  -3 -1.3421 27.7361   2
   2   5  -3 34.3847 33.5885   1
   2   5  -3  5.8337 26.4555   4
  -2   5   3 24.0089 35.6784   4
  -2   5   3 36.1589 46.2714   3
   1  -5  -3 393.556  61.126   2
   1  -5  -3 500.747  75.164   3
  -1  -5   3 528.410  62.664   3
  -1   5   3 471.634  38.836   1
  -1   5   3 476.444  63.435   4
   1   5  -3 502.222  50.501   2
   1   5  -3 435.697  61.894   1
   1   5  -3 455.515  61.444   4
   0  -5  -3 102.808  44.509   2
   0  -5   3 103.251  36.117   3
   0  -5  -3 209.260  51.988   3
   0   5   3 170.465  29.218   1
   0   5  -3 83.1096 41.0978   1
   0   5  -3 204.451  51.650   4
   0   5   3 213.144  42.615   4
   1  -5   3 3607.38  215.12   3
  -1  -5  -3 2809.09  220.29   2
   1  -5   3 2983.42  181.14   2
  -1  -5  -3 2925.03  192.85   3
   1   5   3 2916.69  191.98   1
  -1   5  -3 2910.28  207.92   1
  -1   5  -3 3166.60  215.82   4
   1   5   3 3048.20  193.38   4
  -2  -5  -3 76.3337 53.1506   2
   2  -5   3 70.1997 41.0903   3
  -2  -5  -3 44.9628 23.8031   3
  -2   5  -3 90.9981 34.6049   2
   2   5   3 66.5010 30.7879   1
   2   5   3 -14.115  21.956   4
  -2   5  -3 -1.0533 36.4030   1
  -2   5  -3 102.174  49.428   4
  -3  -5  -3 985.407 138.695   2
  -3  -5  -3 1141.01   93.42   3
   3  -5   3 961.697 122.057   3
  -3   5  -3 1201.64  117.88   2
  -3   5  -3 1061.30  126.71   4
   3   5   3 1232.45  114.92   1
   3   5   3 1023.05   84.31   4
  -3   5  -3 1058.29  117.32   1
  -4  -5  -3 75.7248 41.1010   3
  -4  -5  -3 -16.009  61.652   2
   4   5   3 19.2349 33.2248   1
  -4   5  -3 82.3616 47.5404   1
  -4   5  -3 50.5307 55.6098   4
  -4   5  -3 82.9479 53.8088   2
  -4   5  -3 27.1756 47.8677   3
  -5  -5  -3 6632.68  460.93   2
  -5   5  -3 6555.45  425.63   2
  -5   5  -3 5727.39  392.90   1
  -5   5  -3 6291.52  414.48   4
  -5   5  -3 5845.30  415.94   3
  -6  -5  -3 -32.080  71.687   2
  -6   5  -3 36.9920 66.0198   3
   6   5   3 31.8255 45.6663   1
  -6   5  -3 -4.7753 61.3820   2
  -7  -5  -3  95.101 105.582   2
   7  -5   3 130.756  85.504   2
   7   5   3 119.174  58.661   1
   8   5   3 -4.3665 54.0288   1
   8  -6  -3 -44.499  72.904   2
  -8  -6   3 -86.937  93.161   2
  -8  -6   3 -47.566  75.032   3
   8   6  -3 76.7668 60.5849   1
   8   6  -3 11.7420 94.2656   2
  -8   6   3 20.2703 84.8220   3
  -7  -6   3 270.101 107.640   2
   7  -6  -3 663.230 121.887   2
  -7  -6   3 550.359 113.200   3
   7   6  -3 785.092 111.023   1
  -7   6   3 435.859 116.531   3
   6  -6  -3 849.806 126.711   2
  -6  -6   3 805.506 125.224   3
  -6  -6   3 792.995 136.752   2
  -6   6   3 476.935 115.467   3
  -6   6   3 717.281 123.461   4
   6   6  -3 814.588 107.401   1
  -5  -6   3 419.063  99.347   2
  -5  -6   3 385.701  82.919   3
   5  -6  -3 461.208  89.410   2
  -5   6   3 282.308  92.441   3
  -5   6   3 410.223  95.840   4
   5   6  -3 436.091  71.892   1
  -4  -6   3 75.4842 58.2752   2
  -4  -6   3 76.6896 43.7345   3
   4  -6  -3 66.4255 47.4633   2
   4   6  -3 166.013  47.440   1
  -4   6   3 24.9147 55.1755   3
  -4   6   3 52.9601 56.8904   4
  -3  -6   3 2333.19  183.40   3
   3  -6  -3 2414.55  184.88   2
  -3   6   3 2733.74  213.84   3
  -3   6   3 2809.02  200.98   4
   3   6  -3 2678.58  184.29   1
   2  -6  -3 961.686  98.120   2
  -2  -6   3 859.020  97.985   3
  -2  -6   3 832.616  92.288   2
  -2   6   3 929.892 118.244   3
  -2   6   3 996.337  62.507   1
   2   6  -3 1032.99   92.19   4
   2   6  -3 1059.04  101.76   1
  -2   6   3 1153.39  113.65   4
   1  -6  -3 2236.09  185.59   3
   1  -6  -3 2422.49  178.16   2
  -1  -6   3 2540.24  175.20   3
  -1   6   3 2309.54  149.16   1
  -1   6   3 2428.62  176.54   4
   1   6  -3 3076.62  182.18   4
   1   6  -3 2538.54  176.38   1
   0  -6  -3 87.4937 42.0582   2
   0  -6  -3 -12.915  37.288   3
   0  -6   3 30.5406 32.2746   3
   0   6   3 33.0851 20.1190   1
   0   6  -3 31.0558 39.0476   4
   0   6  -3 37.5573 33.0411   1
   0   6   3  9.6834 29.5218   4
  -1  -6  -3 906.140  87.535   3
  -1  -6  -3 818.303 109.459   2
   1  -6   3 775.717  96.819   3
  -1   6  -3 836.306 104.454   4
   1   6   3 834.987  79.291   1
  -1   6  -3 927.831 101.533   1
   1   6   3 798.235  82.427   4
  -2  -6  -3 1106.56   89.92   3
   2  -6   3 1103.38  124.25   3
   2  -6   3 960.515  85.952   2
  -2  -6  -3 1117.55  137.05   2
  -2   6  -3 891.186 111.040   1
  -2   6  -3 1211.21  131.47   4
   2   6   3 1148.32   89.27   4
   2   6   3 1087.64   92.59   1
  -3  -6  -3 2407.79  168.07   3
   3  -6   3 2166.93  194.97   3
  -3  -6  -3 2445.55  238.84   2
   3  -6   3 2529.31  178.67   2
  -3   6  -3 2598.41  203.55   4
   3   6   3 2587.73  161.88   4
  -3   6  -3 2287.61  182.91   1
   3   6   3 2225.20  171.75   1
   4  -6   3 199.930  75.872   3
  -4  -6  -3 135.687  48.618   3
  -4  -6  -3 260.818  94.412   2
   4  -6   3 75.4717 53.0566   2
  -4   6  -3 291.859  79.873   4
  -4   6  -3 339.922  74.200   2
   4   6   3 138.545  48.625   1
  -4   6  -3 248.300  63.865   1
  -5  -6  -3 274.546 105.386   2
   5  -6   3 158.149  66.949   2
   5  -6   3 111.305  75.521   3
   5   6   3 179.331  53.785   1
  -5   6  -3 108.477  67.267   3
  -5   6  -3 233.483  79.371   4
  -5   6  -3 239.417  69.882   1
  -6  -6  -3 99.6411 91.6894   2
  -6   6  -3 38.8243 73.2856   4
   6   6   3 222.368  63.551   1
  -6   6  -3 144.873  83.024   3
  -7  -6  -3 1519.72  231.47   2
   7   6   3 1650.38  176.61   1
   8  -7  -3 1655.47  206.00   2
  -8  -7   3 1089.93  203.40   2
  -8  -7   3 1621.01  214.05   3
   8   7  -3 1419.28  166.66   1
   8   7  -3 1599.11  224.98   2
  -8   7   3 1125.73  199.90   3
   7  -7  -3 -54.723  54.499   2
  -7  -7   3 -8.5300 78.4390   2
  -7  -7   3 16.9838 65.3120   3
   7   7  -3 -29.951  44.752   1
  -7   7   3 -6.9045 75.0031   3
  -6  -7   3 39.3177 73.8532   2
  -6  -7   3 -78.037  46.671   3
   6  -7  -3 23.5541 54.7065   2
  -6   7   3 -20.229  64.347   3
   6   7  -3 -47.322  36.555   1
  -6   7   3 -1.0377 65.6626   4
   5  -7  -3 732.514 105.573   2
  -5  -7   3 715.634 109.252   3
  -5  -7   3 603.995 114.690   2
  -5   7   3 691.757 117.905   4
   5   7  -3 583.514  87.904   1
  -5   7   3 717.099 126.504   3
   4  -7  -3 1734.58  147.48   2
  -4  -7   3 1580.82  160.84   3
  -4  -7   3 1526.91  169.18   2
  -4   7   3 1943.08  186.46   4
  -4   7   3 1720.68  189.76   3
   4   7  -3 1662.03  140.65   1
   3  -7  -3 218.114  52.857   2
  -3  -7   3 258.363  59.424   3
  -3  -7   3 275.605  67.576   2
  -3   7   3 362.583  74.099   4
  -3   7   3 352.182  87.954   3
   3   7  -3 321.700  59.481   1
  -2  -7   3 16.7198 38.8670   2
   2  -7  -3  5.6881 47.7779   3
  -2  -7   3 65.7687 37.2574   3
   2  -7  -3 18.7270 31.7299   2
   2   7  -3 27.5802 36.5343   4
  -2   7   3 -41.086  29.939   4
   2   7  -3 -33.948  24.208   1
  -1  -7   3 341.557  59.019   3
  -1  -7   3 393.076  44.140   2
   1  -7  -3 315.320  70.052   3
   1  -7  -3 321.761  67.264   2
   1   7  -3 423.550  66.233   1
  -1   7   3 358.207  40.797   1
  -1   7   3 312.534  63.756   4
   1   7  -3 230.072  58.585   4
   0  -7  -3 4705.34  309.52   3
   0  -7   3 4374.44  302.45   3
   0  -7  -3 4765.47  312.52   2
   0   7  -3 4467.55  300.32   1
   0   7  -3 5283.52  315.43   4
   0   7   3 4668.15  300.90   4
   0   7   3 4755.34  281.14   1
  -1  -7  -3 374.452  79.313   2
  -1  -7  -3 352.157  60.917   3
   1  -7   3 335.917  68.702   3
   1   7   3 382.716  54.640   1
  -1   7  -3 373.820  76.392   4
   1   7   3 479.968  63.258   4
  -1   7  -3 539.917  78.240   1
  -2  -7  -3 1082.16   94.38   3
   2  -7   3 1147.70  135.18   3
  -2  -7  -3 1030.71  135.98   2
  -2   7  -3 1209.33  125.74   1
   2   7   3 1022.47   98.82   4
  -2   7  -3 1064.24  130.66   4
   2   7   3 1019.17  100.51   1
   3  -7   3 137.345  63.131   3
  -3  -7  -3 188.005  44.003   3
  -3  -7  -3 113.749  70.745   2
   3   7   3 36.4245 32.5966   4
   3   7   3 40.3288 35.8870   1
  -3   7  -3 158.335  66.589   4
  -3   7  -3 114.809  52.777   1
  -4  -7  -3 490.928 121.071   2
  -4  -7  -3 769.592  93.059   3
   4  -7   3 750.327 124.865   3
   4   7   3 739.427  96.415   1
  -4   7  -3 626.686 116.488   4
  -4   7  -3 729.560 103.986   1
  -5  -7  -3 776.328 147.942   2
   5  -7   3 648.776 127.128   3
   5   7   3 667.957  96.315   1
  -5   7  -3 799.973 129.848   4
  -6  -7  -3 365.783 134.829   2
   6  -7   3 393.981 115.921   3
  -6   7  -3 198.813  92.217   4
   6   7   3 337.947  76.792   1
  -7  -7  -3 -83.380  96.338   2
   7   7   3 -39.093  48.285   1
  -8  -8   3 107.430  88.824   3
  -8  -8   3 170.706 123.484   2
   8  -8  -3 254.248  99.584   2
   8   8  -3 69.3978 64.7823   1
  -7  -8   3 174.298  83.401   3
   7  -8  -3 -32.272  59.404   2
  -7  -8   3 302.838 111.472   2
   7   8  -3 44.9016 56.1988   1
  -7   8   3 -6.4891 80.8112   3
   6  -8  -3 1886.50  194.20   2
  -6  -8   3 2030.70  208.42   3
  -6  -8   3 2056.44  227.62   2
  -6   8   3 1975.29  216.43   4
  -6   8   3 1687.01  217.21   3
   6   8  -3 1694.69  178.71   1
  -5  -8   3 138.371  65.974   3
   5  -8  -3 255.804  68.280   2
  -5  -8   3 188.577  84.290   2
  -5   8   3 -3.5464 63.2518   3
  -5   8   3 68.1123 69.0106   4
   5   8  -3 142.790  53.897   1
  -4  -8   3 -66.961  49.631   2
   4  -8  -3 60.4431 45.1215   2
  -4  -8   3 12.9681 40.9419   3
  -4   8   3 -10.283  62.811   3
   4   8  -3 28.4819 37.2170   1
  -4   8   3 -46.531  50.088   4
   3  -8  -3 -15.918  62.526   3
   3  -8  -3 29.7991 34.9359   2
  -3  -8   3 -28.310  42.982   2
  -3  -8   3 -35.573  37.156   3
  -3   8   3 -22.294  53.436   3
   3   8  -3 -3.8138 33.9886   1
  -3   8   3 20.4942 52.2815   4
   2  -8  -3 3141.30  255.01   3
  -2  -8   3 3196.59  233.56   3
   2  -8  -3 3525.01  232.15   2
  -2  -8   3 3654.10  227.83   2
   2   8  -3 3218.15  228.62   1
   2   8  -3 3256.45  227.00   4
  -2   8   3 3281.23  245.15   4
   1  -8  -3 64.8030 47.6862   3
  -1  -8   3 -10.276  30.735   3
   1  -8  -3  5.4387 40.9872   2
  -1   8   3  4.9255 21.6703   1
   1   8  -3 -20.570  29.831   1
  -1   8   3 48.1921 44.0175   4
   1   8  -3 -12.403  41.363   4
   0  -8  -3 469.184  80.139   2
   0  -8  -3 583.128  84.537   3
   0  -8   3 563.213  82.455   3
   0   8  -3 575.078  88.967   4
   0   8   3 536.533  77.098   4
   0   8  -3 438.017  74.437   1
   0   8   3 530.669  59.830   1
  -1  -8  -3 83.0989 61.0782   2
   1  -8   3 23.8547 38.5518   3
  -1  -8  -3 97.1972 42.9528   3
  -1   8  -3 124.520  53.868   1
   1   8   3 -5.2946 33.6252   4
   1   8   3 143.604  36.394   1
  -1   8  -3 -8.2377 49.0135   4
   2  -8   3 2172.24  184.01   3
  -2  -8  -3 2051.09  157.69   3
  -2  -8  -3 1679.06  196.21   2
  -2   8  -3 2317.72  191.71   4
   2   8   3 2170.11  158.25   4
   2   8   3 2271.66  158.38   1
  -2   8  -3 2189.91  177.49   1
  -3  -8  -3 187.562  88.239   2
   3  -8   3 371.903  87.425   3
  -3  -8  -3 381.568  64.217   3
  -3   8  -3 428.601  97.083   4
   3   8   3 507.619  73.826   1
  -3   8  -3 435.243  85.566   1
   4  -8   3 181.327  77.246   3
  -4  -8  -3 204.563  96.972   2
  -4   8  -3 405.746  84.256   1
   4   8   3 290.449  61.535   1
  -4   8  -3 600.102 109.362   4
  -5  -8  -3 23.3410 86.3241   2
   5  -8   3 -14.875  67.239   3
   5   8   3 68.8127 44.4252   1
  -5   8  -3  3.0337 66.2693   4
   6  -8   3 1055.26  172.46   3
  -6  -8  -3 955.561 185.519   2
  -6   8  -3 987.528 158.217   4
   6   8   3 1054.37  135.01   1
  -7  -8  -3 -72.002 100.165   2
   7  -8   3 -11.388  90.581   3
   7   8   3 10.6312 50.6800   1
   7  -9  -3 102.163  71.550   2
  -7  -9   3 -14.920  88.207   2
  -7  -9   3 17.4528 59.8051   3
   7   9  -3 98.1769 63.5076   1
  -7   9   3 171.063  94.600   3
   6  -9  -3 51.6084 57.5466   2
  -6  -9   3 61.1577 77.8815   2
  -6  -9   3 100.318  67.659   3
   6   9  -3 42.2505 51.1380   1
  -6   9   3 -31.920  60.816   3
  -6   9   3 88.6070 80.4643   4
   5  -9  -3 633.052 100.886   2
  -5  -9   3 470.404 100.365   3
  -5  -9   3 363.989 105.357   2
   5   9  -3 460.011  85.306   1
  -5   9   3 524.541 115.416   4
  -5   9   3 585.479 125.758   3
   4  -9  -3 2204.57  239.29   3
  -4  -9   3 1871.73  195.29   2
   4  -9  -3 2079.27  166.98   2
  -4  -9   3 2245.38  184.31   3
  -4   9   3 1913.39  207.75   4
   4   9  -3 1859.77  167.21   1
  -4   9   3 1972.04  219.28   3
  -3  -9   3 1225.68  133.43   3
   3  -9  -3 1030.76  111.41   2
   3  -9  -3 1199.89  157.50   3
   3   9  -3 951.489 116.513   1
  -3   9   3 691.481 121.813   4
   2  -9  -3 471.614  76.879   2
   2  -9  -3 221.995  78.991   3
  -2  -9   3 421.560  76.270   3
  -2   9   3 504.818  88.137   4
   2   9  -3 385.524  72.031   4
   2   9  -3 382.035  69.752   1
  -1  -9   3 844.158 106.428   3
   1  -9  -3 856.408 111.051   2
   1  -9  -3 819.130 118.755   3
   1   9  -3 814.871 102.334   1
   1   9  -3 912.640 111.498   4
  -1   9   3 956.313 117.403   4
   0  -9   3 1039.48  118.62   3
   0  -9  -3 1140.24  124.24   2
   0  -9  -3 1254.26  130.78   3
   0   9  -3 862.052 122.172   4
   0   9   3 935.392  86.085   1
   0   9   3 1152.90  121.82   4
   0   9  -3 1095.29  118.87   1
  -1  -9  -3 914.440 124.508   2
   1  -9   3 1053.94  122.78   3
  -1  -9  -3 1048.58  114.14   3
   1   9   3 944.481 107.037   4
   1   9   3 1006.99   95.83   1
  -1   9  -3 794.848 112.237   1
  -1   9  -3 803.107 123.125   4
   2  -9   3 205.401  70.030   3
  -2  -9  -3 264.498  83.379   2
  -2  -9  -3 246.789  58.127   3
   2   9   3 289.478  54.503   1
  -2   9  -3 233.809  75.249   4
  -2   9  -3 331.264  75.434   1
   2   9   3 344.492  61.755   4
  -3  -9  -3 210.751  84.619   2
   3  -9   3 317.558  87.459   3
  -3  -9  -3 296.097  61.664   3
  -3   9  -3 297.306  87.315   4
   3   9   3 264.595  57.918   1
  -3   9  -3 260.931  73.859   1
   4  -9   3 520.146 114.057   3
  -4  -9  -3 547.742 135.260   2
   4   9   3 691.469  98.940   1
  -4   9  -3 770.439 130.229   4
  -5  -9  -3 840.013 165.721   2
   5  -9   3 839.904 145.010   3
   5   9   3 905.877 119.605   1
  -5   9  -3 774.618 139.040   4
  -6  -9  -3 125.399 112.336   2
   6  -9   3 416.969 119.399   3
   6   9   3 336.582  81.248   1
  -6   9  -3 218.387  99.976   4
   7  -9   3  14.417 105.819   3
  -7  -9  -3  31.377 111.385   2
  -7 -10   3 455.396 123.533   3
   7  10  -3 455.138 105.161   1
  -7  10   3 614.380 142.979   3
  -6 -10   3 -29.810  65.367   3
  -6  10   3 316.746 106.476   3
  -6  10   3 99.1484 99.4279   4
   6  10  -3 115.313  65.263   1
  -5 -10   3 615.984 113.625   3
   5 -10  -3 397.557  87.019   2
   5 -10  -3 253.489 108.911   3
  -5  10   3 468.762 118.910   4
   5  10  -3 573.517  99.374   1
   4 -10  -3 24.5945 77.0874   3
  -4 -10   3 57.0078 56.5285   3
   4 -10  -3 21.2452 48.2129   2
  -4  10   3 -58.148  58.626   4
   4  10  -3 -29.843  36.142   1
  -3 -10   3 1400.74  158.77   3
   3 -10  -3 1340.76  139.94   2
   3 -10  -3 1461.06  182.79   3
   3  10  -3 1533.71  151.00   1
  -3  10   3 1318.33  166.35   4
  -2 -10   3 36.2357 46.5413   3
   2 -10  -3 -51.364  50.367   3
   2 -10  -3 37.1777 49.4475   2
  -2  10   3 61.0750 59.7495   4
   2  10  -3 122.431  56.078   4
   2  10  -3 28.2305 36.8882   1
   1 -10  -3 2429.13  184.85   2
   1 -10  -3 1823.30  199.83   3
  -1 -10   3 1896.31  175.15   3
   1  10  -3 2289.60  178.10   1
  -1  10   3 2418.51  191.74   4
   1  10  -3 2576.50  190.72   4
   0 -10   3 -32.505  40.770   3
   0 -10  -3 -2.2351 42.7853   3
   0 -10  -3 -14.010  43.826   2
   0  10   3 44.9359 48.0686   4
   0  10  -3 22.6449 41.2628   1
   0  10  -3  3.3426 53.4674   4
   0  10   3 -20.158  24.850   1
  -1 -10  -3 410.007  91.925   2
   1 -10   3 634.682  97.966   3
  -1 -10  -3 461.606  82.195   3
  -1  10  -3 543.271  95.376   1
   1  10   3 572.673  73.694   1
  -1  10  -3 583.764 105.191   4
   1  10   3 512.079  84.466   4
   2 -10   3 15.3519 45.1347   3
  -2 -10  -3 50.1145 66.8618   2
  -2 -10  -3 44.4720 43.6990   3
  -2  10  -3 49.7621 55.7847   1
  -2  10  -3 32.2911 60.8443   4
   2  10   3 114.758  52.661   4
   2  10   3 -11.808  31.461   1
   3 -10   3 2956.96  264.01   3
  -3 -10  -3 3123.46  233.81   3
  -3 -10  -3 3286.60  280.03   2
  -3  10  -3 3850.14  263.01   1
  -3  10  -3 3069.86  266.27   4
   3  10   3 3197.43  230.03   1
   4 -10   3 15.8390 62.6361   3
  -4 -10  -3 33.8598 77.8290   2
  -4  10  -3 150.723  79.203   4
   4  10   3 -14.487  38.209   1
   5 -10   3 36.1594 73.3894   3
  -5 -10  -3 -2.0806 78.9608   2
   5  10   3 31.5057 43.0055   1
  -5  10  -3 41.2728 78.3210   4
   6 -10   3 46.4156 85.5339   3
  -6 -10  -3 156.846 116.662   2
  -6  10  -3 -130.40   76.34   4
   6  10   3 12.8449 51.2821   1
  -7 -11   3 352.744 116.736   3
   6 -11  -3 23.8778 91.9358   3
  -6 -11   3  8.5015 62.9286   3
  -6  11   3 -48.753  79.271   4
   6  11  -3 34.3419 56.2242   1
   5 -11  -3 378.414 125.973   3
  -5 -11   3 604.387 116.252   3
  -5  11   3 542.171 124.165   4
   5  11  -3 330.041  84.668   1
  -4 -11   3 246.592  78.359   3
   4 -11  -3 79.7421 93.0567   3
   4  11  -3 277.138  67.757   1
  -4  11   3 149.050  78.008   4
  -3 -11   3 648.631 109.825   3
   3 -11  -3 427.937 110.130   3
   3  11  -3 601.401  90.940   1
  -3  11   3 575.031 116.522   4
   2 -11  -3 -12.987  53.146   2
  -2 -11   3 -35.901  38.999   3
   2 -11  -3 18.9670 60.0818   3
   2  11  -3 52.8206 45.7734   1
  -2  11   3 24.1017 52.5203   4
   2  11  -3 24.6711 51.5567   4
   1 -11  -3 2213.91  187.96   2
  -1 -11   3 2229.80  191.98   3
   1 -11  -3 2351.96  202.79   3
  -1  11   3 2705.42  210.90   4
   1  11  -3 2487.19  203.45   4
   1  11  -3 2390.79  192.01   1
   0 -11  -3 1175.28  139.56   2
   0 -11  -3 1199.16  137.49   3
   0 -11   3 1474.95  153.21   3
   0  11   3 1009.72  135.20   4
   0  11  -3 1132.80  146.04   4
   0  11   3 1333.60  107.79   1
   0  11  -3 1284.59  139.14   1
  -1 -11  -3 2929.42  240.34   2
   1 -11   3 2756.92  225.52   3
  -1 -11  -3 3342.02  229.02   3
   1  11   3 2938.52  228.12   4
   1  11   3 3017.91  206.14   1
  -1  11  -3 2936.29  245.38   4
  -1  11  -3 2752.72  229.23   1
  -2 -11  -3 353.887 101.338   2
   2 -11   3 298.737  81.654   3
  -2 -11  -3 298.022  72.028   3
  -2  11  -3 189.253  70.521   1
  -2  11  -3 150.867  79.072   4
   2  11   3 256.287  72.226   4
   2  11   3 393.668  68.710   1
  -3 -11  -3 71.7702 80.8363   2
   3 -11   3 -15.088  54.857   3
  -3 -11  -3 128.385  57.035   3
   3  11   3 27.1126 42.9689   1
  -3  11  -3 19.6711 67.9437   4
   4 -11   3  1.5702 67.3321   3
  -4 -11  -3 -48.218  77.808   2
  -4  11  -3 -2.9380 69.0760   4
   4  11   3 -19.952  37.046   1
   5 -11   3 1014.91  165.05   3
  -5 -11  -3 897.282 178.295   2
  -5  11  -3 670.422 143.089   4
   5  11   3 739.382 111.690   1
   6 -11   3 74.6352 98.0603   3
  -6 -11  -3 -108.61  103.48   2
   6  11   3 -3.7485 46.6496   1
  -6  11  -3 -39.109  84.707   4
   6 -12  -3 455.277 152.913   3
  -6 -12   3 687.879 147.152   3
   6  12  -3 886.153 133.836   1
  -6  12   3 881.745 163.498   4
   5 -12  -3 101.016 106.734   3
  -5 -12   3 271.993  87.739   3
   5  12  -3 213.734  73.571   1
  -5  12   3 248.716 103.063   4
   4 -12  -3 -18.632  78.310   3
  -4 -12   3 19.4369 58.3978   3
   4  12  -3 27.7110 46.2392   1
  -4  12   3 51.0612 74.7930   4
   3 -12  -3 69.5884 77.3471   3
  -3 -12   3 256.466  77.547   3
   3  12  -3 106.530  53.935   1
  -3  12   3 96.4075 75.2050   4
  -2 -12   3 1338.30  161.85   3
   2 -12  -3 1461.89  187.85   3
   2  12  -3 1693.73  162.24   1
  -2  12   3 1640.75  188.64   4
  -1 -12   3 203.298  65.563   3
   1 -12  -3 79.7200 62.2446   3
  -1  12   3 129.619  71.799   4
   1  12  -3 140.480  68.927   4
   1  12  -3 117.018  52.898   1
   0 -12  -3 576.742  96.239   3
   0 -12   3 510.717  95.759   3
   0 -12  -3 768.704 109.007   2
   0  12  -3 322.212  93.726   4
   0  12   3 405.074  91.170   4
   0  12  -3 341.993  82.317   1
  -1 -12  -3 667.070 100.639   3
   1 -12   3 557.316  98.340   3
  -1 -12  -3 775.567 120.023   2
  -1  12  -3 450.669  95.092   1
   1  12   3 476.805  97.863   4
   1  12   3 651.529  87.005   1
  -1  12  -3 501.008 110.540   4
  -2 -12  -3 949.835 123.535   3
  -2 -12  -3 739.573 139.150   2
   2 -12   3 844.670 123.744   3
   2  12   3 842.023 106.043   1
  -2  12  -3 805.803 128.462   1
  -2  12  -3 994.496 145.538   4
   3 -12   3 751.493 134.767   3
  -3 -12  -3 1143.53  135.68   3
  -3 -12  -3 882.642 155.908   2
  -3  12  -3 650.272 136.575   4
   3  12   3 875.579 113.523   1
  -4 -12  -3 71.9053 96.0945   2
   4 -12   3 128.862  87.592   3
   4  12   3 64.1244 50.0525   1
  -4  12  -3 48.8338 76.9761   4
  -5 -12  -3  88.850 110.379   2
   5 -12   3 -16.694  73.048   3
   5  12   3 -4.7475 44.1523   1
  -5  12  -3 -1.4060 87.1548   4
   6 -12   3 504.675 147.582   3
  -6 -12  -3 264.904 136.237   2
  -6  12  -3 424.726 138.210   4
  -6 -13   3 138.340  86.881   3
  -6  13   3 234.341 117.145   4
   5 -13  -3  43.870 105.221   3
  -5 -13   3 20.2911 70.5601   3
   5  13  -3 67.9369 60.1616   1
  -5  13   3 14.4896 84.6807   4
  -4 -13   3 1636.51  202.78   3
   4 -13  -3 1873.82  238.62   3
   4  13  -3 1688.47  181.64   1
  -4  13   3 1650.34  216.79   4
   3 -13  -3 -75.135  66.446   3
  -3 -13   3 81.5658 70.0649   3
   3  13  -3  9.8490 47.5602   1
  -3  13   3 95.3336 82.1846   4
   2 -13  -3 195.470  85.826   3
  -2 -13   3 220.706  71.276   3
   2  13  -3 160.902  63.837   1
  -2  13   3 68.5122 78.3422   4
   1 -13  -3 38.4736 59.1299   3
  -1 -13   3 11.8164 46.7287   3
   1  13  -3 18.6794 66.1266   4
  -1  13   3 110.532  72.133   4
   1  13  -3 42.3117 48.5104   1
   0 -13  -3 1382.86  157.45   3
   0 -13   3 1494.19  163.49   3
   0  13  -3 1183.94  164.52   4
   0  13  -3 1331.01  155.78   1
   0  13   3 1643.60  181.45   4
   1 -13   3 -13.037  45.512   3
  -1 -13  -3 29.1332 50.5264   3
  -1  13  -3 23.0091 64.9633   4
   1  13   3 42.1364 62.3738   4
  -1  13  -3 12.8880 55.1591   1
   2 -13   3 152.445  71.493   3
  -2 -13  -3 124.097  66.464   3
  -2  13  -3 126.186  83.314   4
   2  13   3 179.698  58.997   1
   3 -13   3 107.641  68.281   3
  -3  13  -3 -4.3145 72.3054   4
   3  13   3 -15.234  44.882   1
   4 -13   3 1095.76  169.73   3
  -4 -13  -3 743.474 162.386   2
  -4  13  -3 805.428 159.658   4
   4  13   3 1369.05  151.56   1
  -5 -13  -3  12.332 107.259   2
   5 -13   3 -24.209  85.246   3
  -5  13  -3 -15.652  83.083   4
   5  13   3 -77.749  50.997   1
   5 -14  -3 254.378 120.542   3
  -5 -14   3 155.582  96.816   3
  -5  14   3 151.037 100.900   4
   5  14  -3 217.570  76.237   1
   4 -14  -3 36.5862 93.8601   3
  -4 -14   3 63.3233 81.6249   3
   4  14  -3 -32.341  53.494   1
  -4  14   3 24.5874 80.7827   4
  -3 -14   3 457.783 109.560   3
   3 -14  -3 420.903 118.254   3
   3  14  -3 302.618  82.226   1
  -3  14   3 510.823 125.361   4
   2 -14  -3 761.426 135.770   3
  -2 -14   3 702.371 126.774   3
  -2  14   3 711.364 137.246   4
   2  14  -3 651.464 109.876   1
  -1 -14   3 616.623 111.110   3
   1 -14  -3 630.643 117.168   3
  -1  14   3 543.210 121.698   4
   1  14  -3 634.668 121.872   4
   1  14  -3 653.112 109.756   1
   0 -14   3 -46.527  41.947   3
   0 -14  -3 -110.78   42.11   3
   0  14  -3 -39.550  51.050   1
   0  14  -3 37.5991 71.5040   4
   0  14   3 53.7530 69.4493   4
   1 -14   3 155.797  64.878   3
  -1 -14  -3 107.075  60.897   3
  -1  14  -3 12.6755 78.7189   4
   1  14   3 242.350  87.339   4
  -2 -14  -3 929.542 133.113   3
   2 -14   3 1074.16  147.59   3
  -2  14  -3 812.282 151.259   4
   2  14   3 969.310 125.792   1
   3 -14   3 327.633  95.371   3
   3  14   3 487.916  91.590   1
  -3  14  -3 481.155 123.332   4
   4 -14   3 211.424  95.662   3
  -4  14  -3 144.373  97.911   4
   4  14   3 196.199  70.875   1
   4 -15  -3 203.641 120.928   3
  -4 -15   3 64.7694 79.8454   3
   4  15  -3 116.223  69.318   1
  -4  15   3 -8.1596 84.9890   4
   3 -15  -3 692.419 137.997   3
  -3 -15   3 424.297 112.216   3
  -3  15   3 294.096 111.698   4
   3  15  -3 392.794  91.272   1
   2 -15  -3 28.0044 71.5677   3
  -2 -15   3 -46.059  56.922   3
  -2  15   3 -103.93   70.59   4
   2  15  -3 -54.072  49.432   1
  -1 -15   3 420.703  98.215   3
   1 -15  -3 450.115 103.350   3
   1  15  -3 593.045 107.317   1
  -1  15   3 477.193 119.790   4
   0 -15  -3 161.832  66.917   3
   0 -15   3 121.892  61.411   3
   0  15   3 101.163  84.830   4
   0  15  -3 -50.013  54.741   1
   0  15  -3 60.1613 79.1204   4
  -1 -15  -3 1357.84  166.98   3
   1 -15   3 1486.41  174.93   3
   1  15   3 1259.06  177.55   4
  -1  15  -3 1501.67  195.22   4
   2 -15   3 -48.840  52.089   3
  -2 -15  -3 -49.114  55.411   3
  -2  15  -3 -13.349  84.836   4
   3 -15   3 26.2899 69.9057   3
  -3  15  -3 99.7347 86.3312   4
   3  15   3 147.360  69.328   1
   4 -15   3 82.0526 82.8828   3
   4  15   3 75.7243 69.2016   1
   3 -16  -3 447.549 125.845   3
  -3 -16   3 658.944 135.373   3
  -3  16   3 574.617 144.941   4
   3  16  -3 444.474 106.198   1
   2 -16  -3 -4.4985 71.8782   3
  -2 -16   3 27.5713 66.3525   3
   2  16  -3 80.4986 67.9355   1
  -2  16   3 107.911  89.376   4
  -1 -16   3 814.221 131.995   3
   1 -16  -3 710.352 126.650   3
   1  16  -3 744.094 123.229   1
  -1  16   3 609.289 141.227   4
   0 -16  -3 -38.987  56.301   3
   0 -16   3  5.2743 55.7377   3
   0  16  -3 -9.2888 76.1543   4
   0  16   3 -85.765  72.893   4
  -1 -16  -3 525.326 108.837   3
   1 -16   3 417.759 100.813   3
  -1  16  -3 359.813 118.329   4
   2 -16   3 208.645  82.466   3
  -2  16  -3 178.743 108.982   4
   2 -17  -3 -43.002  65.761   3
   2  17  -3 19.9552 63.5618   1
   1 -17  -3 -6.3995 64.0488   3
  -1 -17   3 27.6560 66.6127   3
  -1  17   3 77.0482 95.6049   4
   0 -17  -3 741.961 124.131   3
   0 -17   3 587.263 118.445   3
   0  17  -3 538.041 142.256   4
   0  17   3 799.928 153.559   4
  -1 -17  -3 194.464  87.061   3
  -1  17  -3 139.459 109.680   4
   8   0  -4 563.527 132.430   2
  -8   0   4 761.935 149.349   3
   7   0  -4 -37.045  64.639   2
  -7   0   4  8.1114 62.7784   3
  -6   0   4 1906.10  222.19   3
   6   0  -4 2642.28  223.53   2
   5   0  -4  4.6381 26.3243   1
   5   0  -4 -75.274  40.766   2
  -5   0   4 -51.532  42.664   3
  -4   0   4 454.496  54.571   4
   4   0  -4 301.180  45.020   1
  -4   0   4 314.647  70.544   3
   4   0  -4 303.821  73.306   2
  -3   0   4 -2.1327 21.7656   4
   3   0  -4 -27.215  19.678   1
  -3   0   4 49.8949 39.6098   3
   3   0  -4 43.3721 37.8413   2
   2   0  -4 4713.59  293.05   1
  -2   0   4 5151.79  293.16   4
   2   0  -4 5063.16  310.86   2
  -2   0   4 4988.73  310.56   3
  -1   0   4 19.3250 24.7067   3
   1   0  -4 40.8681 26.7950   1
  -1   0   4 11.8832 21.2520   4
   1   0  -4 -10.977  23.937   2
   0   0   4 257.997  39.014   4
   0   0  -4 223.931  45.307   1
   0   0   4 255.534  28.964   3
   0   0  -4 267.230  57.635   2
   1   0   4  6.5557 26.6850   4
  -1   0  -4 40.4901 33.2494   1
  -1   0  -4  9.6659 38.4977   2
   2   0   4 5969.66  367.07   4
  -2   0  -4 5904.96  371.32   1
  -2   0  -4 6268.69  388.17   2
  -2   0  -4 6000.48  353.43   3
   3   0   4 -19.643  28.259   4
  -3   0  -4 31.3950 51.2778   2
  -3   0  -4 -7.0192 29.5581   1
  -3   0  -4 33.4349 30.7416   3
  -4   0  -4 23.7388 35.6874   3
  -4   0  -4  7.4219 57.1769   2
  -4   0  -4 -25.370  36.980   1
   4   0   4 126.645  41.806   4
   5   0   4 -28.709  34.437   1
  -5   0  -4 -5.4767 57.1974   2
  -6   0  -4 1695.70  203.85   2
   6   0   4 1357.13  152.02   1
  -7   0  -4 41.6409 83.4490   2
   7   0   4 -14.381  50.120   1
   8   0   4 29.0916 62.2202   1
  -8   0  -4 146.972 102.604   2
   8  -1  -4 1423.73  195.21   2
  -8  -1   4 825.781 158.077   3
   8   1  -4 1251.71  191.09   2
  -8   1   4 840.981 159.851   3
  -7  -1   4 80.0184 69.1020   3
   7  -1  -4 98.2624 72.4592   2
  -7   1   4 -10.258  64.635   3
   7   1  -4 44.7330 73.8293   2
  -6  -1   4 165.159  78.618   3
   6  -1  -4 179.868  77.120   2
   6   1  -4 219.481  50.680   1
  -6   1   4 221.896  76.936   3
   6   1  -4 111.812  70.329   2
  -5  -1   4 1101.30  136.46   3
   5  -1  -4 1086.67   89.45   1
   5  -1  -4 1241.40  147.53   2
   5   1  -4 935.913 137.163   2
   5   1  -4 1137.20   95.83   1
  -5   1   4 1159.48  143.17   3
  -4  -1   4 571.562  90.470   3
   4  -1  -4 643.169  63.218   1
   4  -1  -4 687.544  98.825   2
  -4  -1   4 680.821  63.737   4
   4   1  -4 565.560  94.776   2
  -4   1   4 689.490 101.819   3
  -4   1   4 763.962  76.673   4
   4   1  -4 661.415  70.480   1
  -3  -1   4 296.457  36.425   4
   3  -1  -4 352.051  62.534   2
   3  -1  -4 347.047  40.207   1
  -3  -1   4 310.227  59.143   3
   3   1  -4 333.148  47.789   1
  -3   1   4 286.291  44.663   4
   3   1  -4 270.628  63.465   2
  -3   1   4 348.092  64.360   3
   2  -1  -4 1322.95   90.90   1
  -2  -1   4 1312.54  110.71   3
  -2  -1   4 1410.40   91.48   4
   2  -1  -4 1429.42  111.43   2
  -2   1   4 1328.25   94.97   4
   2   1  -4 1352.96   98.70   1
   2   1  -4 1213.99  106.82   2
  -2   1   4 1315.89  112.33   3
  -1  -1   4 1973.14  121.73   4
   1  -1  -4 1808.54  129.71   2
  -1  -1   4 1903.85  124.43   3
   1  -1  -4 1653.72  119.80   1
   1   1  -4 1702.52  126.60   1
   1   1  -4 1803.37  124.56   2
  -1   1   4 1748.47  124.96   3
  -1   1   4 1871.70  120.57   4
   0  -1   4 5381.33  294.45   3
   0  -1  -4 4319.17  318.76   2
   0  -1  -4 4968.62  303.95   1
   0  -1   4 5129.89  305.82   4
   0   1  -4 5268.31  308.34   1
   0   1  -4 4395.34  311.94   2
   0   1   4 5370.72  293.98   3
   0   1   4 5148.31  301.56   4
   1  -1   4 1378.52   98.70   3
   1  -1   4 1609.06  121.86   4
  -1  -1  -4 1619.35  121.51   1
  -1  -1  -4 1533.62  128.82   2
  -1   1  -4 1668.61  123.67   2
  -1   1  -4 1723.69  123.62   1
   1   1   4 1488.63  109.40   4
   2  -1   4 126.126  35.452   3
  -2  -1  -4 89.9390 38.9727   1
  -2  -1  -4 89.3857 50.9165   2
  -2  -1  -4 105.008  24.367   3
   2  -1   4 107.440  44.084   4
  -2   1  -4 71.3554 38.2066   1
   2   1   4 155.353  35.080   4
  -2   1  -4 185.662  54.424   2
  -3  -1  -4 1210.33  140.06   2
   3  -1   4 1338.50  111.39   4
  -3  -1  -4 1017.18   91.84   3
  -3  -1  -4 1319.27  121.22   1
   3   1   4 1022.41   91.24   4
  -3   1  -4 1181.20  120.63   1
  -3   1  -4 1000.06  123.70   2
  -3   1  -4 1171.12  100.37   3
   4  -1   4 1101.13  115.21   4
  -4  -1  -4 1062.95  105.95   3
  -4  -1  -4 946.867 133.694   2
   4   1   4 1160.58  122.31   1
  -4   1  -4 1077.83  112.78   3
  -4   1  -4 854.671 126.892   2
  -4   1  -4 963.330 115.304   1
   4   1   4 1089.77   91.93   4
   5  -1   4 909.890 108.936   4
   5  -1   4 948.336 112.563   1
  -5  -1  -4 878.134 141.587   2
   5   1   4 1162.05  122.85   1
  -5   1  -4 586.258 118.954   2
   6  -1   4 -28.464  41.840   1
  -6  -1  -4 -51.794  63.481   2
  -6   1  -4 58.2965 68.3346   2
   6   1   4 47.9753 49.2258   1
  -7  -1  -4 19.2325 82.6461   2
   7  -1   4 -2.1116 51.6200   1
  -7   1  -4 57.8590 77.0742   2
   7   1   4 119.495  60.288   1
   8  -1   4 1321.85  156.52   1
  -8  -1  -4 1204.76  199.27   2
   8   1   4 919.121 140.314   1
   8  -2  -4 62.3385 73.6460   2
  -8  -2   4 149.984  93.510   3
   8   2  -4 160.322  98.825   2
  -8   2   4 122.111  95.885   3
   7  -2  -4 738.346 140.542   2
  -7  -2   4 1169.97  167.10   3
  -7   2   4 942.103 159.755   3
   7   2  -4 920.697 155.159   2
  -6  -2   4 222.394  80.299   3
   6  -2  -4 89.7835 66.1301   2
   6   2  -4  1.3402 57.9391   2
  -6   2   4 60.4428 67.4772   3
   6   2  -4 116.222  43.578   1
   5  -2  -4  0.4283 51.3836   2
  -5  -2   4 18.5379 47.6764   3
   5   2  -4 17.1068 29.0832   1
  -5   2   4 -68.813  40.772   3
  -5   2   4 31.2421 46.2412   4
   5   2  -4 50.1939 57.1409   2
   4  -2  -4 79.5553 48.9465   2
  -4  -2   4 32.7222 39.6487   3
   4  -2  -4 59.0642 21.3727   1
  -4   2   4 18.9021 34.4665   4
   4   2  -4 17.7455 28.4317   1
   4   2  -4 93.0178 50.8048   2
  -4   2   4 -72.592  35.265   3
  -3  -2   4 6096.62  376.35   3
   3  -2  -4 5972.19  339.85   1
  -3  -2   4 6056.61  342.43   4
   3  -2  -4 5930.57  376.85   2
  -3   2   4 5646.42  355.87   4
   3   2  -4 5934.31  379.51   2
   3   2  -4 5863.13  356.66   1
  -3   2   4 5937.49  380.03   3
   2  -2  -4 417.888  59.179   2
  -2  -2   4 301.480  38.128   4
   2  -2  -4 277.992  33.501   1
  -2  -2   4 367.590  56.051   3
  -2   2   4 444.079  65.595   3
   2   2  -4 359.131  50.616   1
  -2   2   4 342.830  47.603   4
   2   2  -4 371.264  55.940   2
   1  -2  -4 1340.29   99.43   1
   1  -2  -4 1693.64  114.91   2
  -1  -2   4 1480.41  105.68   4
  -1  -2   4 1478.07  104.83   3
   1   2  -4 1527.79  103.99   2
   1   2  -4 1486.27  112.99   1
  -1   2   4 1339.03  110.11   3
  -1   2   4 1446.17  104.76   4
   0  -2   4 1223.99  105.35   4
   0  -2  -4 1427.45   98.98   1
   0  -2  -4 1232.58  126.83   2
   0  -2   4 1270.14   88.50   3
   0   2  -4 1549.21  112.90   1
   0   2   4 1255.34   94.84   4
   0   2   4 1192.34   88.12   3
   0   2  -4 1354.09  100.77   2
   1  -2   4 3346.13  217.23   4
  -1  -2  -4 3322.78  205.82   1
  -1  -2  -4 3192.72  223.82   2
   1  -2   4 2919.45  196.10   3
   1   2   4 3172.36  198.21   4
  -1   2  -4 3182.92  212.25   1
  -1   2  -4 3200.57  205.99   2
  -2  -2  -4 470.361  65.753   1
   2  -2   4 348.273  70.209   4
  -2  -2  -4 338.427  76.493   2
   2  -2   4 494.465  63.168   3
  -2  -2  -4 498.687  44.555   3
   2   2   4 482.159  53.538   4
  -2   2  -4 408.330  69.651   2
  -2   2  -4 405.144  70.819   1
  -3  -2  -4 3146.83  190.38   3
   3  -2   4 2725.99  210.56   4
  -3  -2  -4 2995.81  235.11   2
   3   2   4 3027.69  187.93   4
  -3   2  -4 2775.39  217.36   2
  -3   2  -4 2877.44  199.09   3
   3   2   4 2629.97  200.84   1
  -3   2  -4 2932.59  207.63   1
   4  -2   4 18.7736 41.4195   4
  -4  -2  -4 88.4350 62.7904   2
   4   2   4 189.476  53.073   1
  -4   2  -4 104.016  57.726   2
  -4   2  -4 31.6848 43.0598   1
   4   2   4 132.349  33.800   4
  -4   2  -4 151.391  52.284   3
  -5  -2  -4 666.608 127.702   2
   5  -2   4 631.255  99.525   4
  -5   2  -4 796.229 105.442   1
  -5   2  -4 880.782 128.577   2
   5   2   4 684.104 100.387   1
   6  -2   4 442.031  89.967   1
  -6  -2  -4 497.977 124.411   2
  -6   2  -4 661.899 125.489   2
   6   2   4 606.072  95.481   1
  -7  -2  -4 765.505 160.350   2
   7  -2   4 679.635 108.192   1
  -7   2  -4 855.010 151.514   2
   7   2   4 834.782 122.444   1
  -8  -2  -4  46.847 107.269   2
   8   2   4 78.6812 67.7359   1
  -8   2  -4  6.0809 80.3548   2
  -8  -3   4 45.3713 80.0556   3
   8  -3  -4 23.5657 77.0421   2
   8   3  -4 -49.880  78.277   2
  -8   3   4 -95.847  68.548   3
   7  -3  -4 57.9546 67.6234   2
  -7  -3   4 -94.614  49.051   3
   7   3  -4  5.7368 40.1539   1
   7   3  -4 28.9682 76.6573   2
  -7   3   4  7.1658 69.4473   3
   6  -3  -4 -5.8170 51.0485   2
  -6  -3   4 93.2590 62.9390   3
  -6   3   4 -9.3326 56.5057   3
   6   3  -4 26.5687 36.9778   1
   6   3  -4 -124.91   55.44   2
  -5  -3   4 3227.91  244.22   3
   5  -3  -4 3134.33  245.78   2
  -5   3   4 2993.48  226.85   4
   5   3  -4 2946.53  250.85   2
  -5   3   4 3326.66  257.44   3
   5   3  -4 3382.94  217.85   1
  -4  -3   4 185.500  58.297   3
   4  -3  -4 131.634  51.576   2
   4   3  -4 80.4666 54.5687   2
  -4   3   4 21.7351 51.4684   3
  -4   3   4 110.001  46.280   4
   4   3  -4 83.9378 35.0794   1
   3  -3  -4 1086.25  111.95   2
  -3  -3   4 868.512 100.795   3
   3  -3  -4 1054.98   65.28   1
  -3  -3   4 961.220  69.537   4
  -3   3   4 906.257 116.221   3
   3   3  -4 1089.45  100.90   1
   3   3  -4 1030.56  112.10   2
  -3   3   4 1041.61   98.94   4
   2  -3  -4 58.0004 33.0357   2
  -2  -3   4 63.2050 31.8592   3
  -2  -3   4 65.3234 23.6222   4
   2   3  -4 33.9931 30.5474   1
  -2   3   4 113.300  46.363   3
  -2   3   4 32.1517 29.9541   4
   2   3  -4 71.4257 37.1314   2
   1  -3  -4 3999.45  233.63   1
  -1  -3   4 4108.61  249.72   4
  -1  -3   4 4222.16  247.43   3
   1  -3  -4 3986.85  256.75   2
   1   3  -4 4321.75  253.45   1
  -1   3   4 3488.77  252.33   3
  -1   3   4 3747.31  245.62   4
   1   3  -4 4074.86  242.14   2
   0  -3  -4 595.223  57.496   1
   0  -3   4 401.110  48.316   3
   0  -3  -4 415.845  53.886   3
   0  -3  -4 508.088  80.836   2
   0  -3   4 491.585  70.922   4
   0   3  -4 503.383  66.809   1
   0   3  -4 521.675  51.904   2
   0   3   4 475.400  56.167   4
  -1  -3  -4 1030.32  121.87   2
  -1  -3  -4 1199.41   74.85   3
   1  -3   4 1063.18  113.81   4
  -1  -3  -4 1124.85   94.31   1
   1  -3   4 1179.98   93.84   3
  -1   3  -4 1325.38  118.36   1
  -1   3  -4 1007.46   91.14   2
  -1   3  -4 1049.10  106.69   4
   1   3   4 1110.19   87.16   4
   1   3   4 1236.29   94.75   1
  -2  -3  -4 21.4554 20.7062   3
   2  -3   4 -4.5547 33.0342   3
  -2  -3  -4 -100.57   36.87   2
  -2   3  -4 21.2396 37.7074   1
  -2   3  -4 12.9973 38.0773   2
   2   3   4 -12.907  25.927   1
   2   3   4 -21.158  18.780   4
  -2   3  -4 -29.291  30.730   4
  -3  -3  -4 1965.12  137.63   3
   3  -3   4 1959.54  156.35   3
  -3  -3  -4 1754.68  192.32   2
  -3   3  -4 2074.69  160.88   1
  -3   3  -4 2206.40  165.71   4
   3   3   4 1929.21  151.30   1
   3   3   4 1977.61  133.75   4
  -3   3  -4 1863.12  160.96   2
  -4  -3  -4 127.483  79.541   2
   4  -3   4 70.1388 53.8160   4
  -4   3  -4 172.059  62.998   2
   4   3   4 292.708  60.601   1
   4   3   4 253.742  42.059   4
  -4   3  -4 199.795  57.898   1
  -4   3  -4 151.257  54.942   3
   5  -3   4 2946.22  232.64   4
  -5  -3  -4 3098.20  271.00   2
  -5   3  -4 2812.40  221.98   1
  -5   3  -4 2812.70  242.36   2
   5   3   4 3162.20  224.23   1
  -5   3  -4 2995.92  230.32   3
   6  -3   4 43.6399 45.8893   1
  -6  -3  -4 27.5750 79.3266   2
  -6   3  -4 131.587  73.742   2
   6   3   4 -8.5736 39.5991   1
   7  -3   4 122.601  59.425   1
  -7  -3  -4  75.119 103.656   2
   7   3   4  5.5658 52.5714   1
  -7   3  -4 207.824  96.907   2
   8   3   4 -35.169  48.388   1
  -8   3  -4 33.8652 91.5408   2
  -8  -4   4 201.831  94.561   3
   8  -4  -4 774.724 143.133   2
  -8   4   4 253.034 103.110   3
   8   4  -4 325.749 123.689   2
   7  -4  -4 1022.51  155.70   2
  -7  -4   4 983.367 151.530   3
   7   4  -4 1096.82  166.48   2
  -7   4   4 1044.05  163.80   3
   7   4  -4 1071.03  126.02   1
  -6  -4   4 1346.22  171.14   3
   6  -4  -4 1684.67  184.74   2
   6   4  -4 1580.47  136.52   1
   6   4  -4 1533.61  190.94   2
  -6   4   4 1732.83  198.16   3
   5  -4  -4 -25.344  48.889   2
  -5  -4   4 22.9377 48.4979   3
   5   4  -4 -3.5596 57.6085   2
  -5   4   4 122.432  62.200   4
  -5   4   4 98.1242 63.2393   3
   5   4  -4 28.7160 36.7630   1
  -4  -4   4 156.560  53.470   3
   4  -4  -4 66.1564 48.8821   2
   4   4  -4 174.318  65.535   2
  -4   4   4 183.918  63.936   3
   4   4  -4 206.693  47.576   1
  -4   4   4 -25.735  36.299   4
  -3  -4   4 1517.89   97.70   4
   3  -4  -4 1349.61  123.31   2
  -3  -4   4 1479.15  126.28   3
   3   4  -4 1460.43  140.44   2
  -3   4   4 1628.72  124.78   4
  -3   4   4 1457.21  151.06   3
   3   4  -4 1446.21  120.83   1
  -2  -4   4 1504.18  107.21   4
   2  -4  -4 1343.06  116.72   2
  -2  -4   4 1539.55  116.63   3
  -2   4   4 1631.06  135.36   3
   2   4  -4 1419.32  114.37   2
  -2   4   4 1484.06  117.28   4
   2   4  -4 1330.33  114.62   1
  -1  -4   4 52.4825 27.6407   3
   1  -4  -4 40.2284 34.3382   2
  -1  -4   4 -18.739  31.478   4
   1   4  -4 -40.734  24.813   1
   1   4  -4 63.6595 23.9066   2
  -1   4   4 48.9072 17.2865   1
  -1   4   4 51.8792 37.8395   3
  -1   4   4 16.8012 25.0226   4
   0  -4  -4 600.958  87.727   2
   0  -4   4 617.038  62.784   3
   0  -4  -4 600.804  67.705   3
   0   4   4 553.960  55.908   1
   0   4  -4 601.360  46.654   2
   0   4   4 417.352  57.660   4
   0   4  -4 447.070  70.495   1
   0   4  -4 548.021  70.894   4
  -1  -4  -4 3649.74  222.16   3
   1  -4   4 3974.63  241.97   3
  -1  -4  -4 3424.44  260.94   2
  -1   4  -4 3596.94  248.23   4
  -1   4  -4 3831.15  249.83   1
  -1   4  -4 3723.67  229.03   2
   1   4   4 3835.71  231.84   4
   1   4   4 3516.12  230.76   1
  -2  -4  -4 2508.13  167.64   3
   2  -4   4 3407.44  200.96   3
  -2  -4  -4 2212.51  209.45   2
   2   4   4 2789.27  174.79   4
   2   4   4 2717.89  184.12   1
  -2   4  -4 2633.33  195.05   1
  -2   4  -4 2560.29  198.70   4
  -2   4  -4 2756.61  188.08   2
  -3  -4  -4 2398.43  201.17   2
   3  -4   4 1867.08  161.67   3
  -3  -4  -4 1919.79  141.98   3
  -3   4  -4 2223.58  172.01   4
   3   4   4 1856.59  134.07   4
  -3   4  -4 1930.57  161.42   2
   3   4   4 2109.68  156.38   1
  -3   4  -4 2211.00  166.23   1
  -4  -4  -4 86.3689 68.9395   2
   4  -4   4 15.0852 43.5996   3
  -4   4  -4 -11.550  50.752   4
  -4   4  -4 41.5931 44.1650   1
   4   4   4 -3.0402 32.8703   1
  -4   4  -4 -15.925  42.354   3
  -4   4  -4 51.0039 55.2805   2
   5  -4   4 446.398  93.944   4
  -5  -4  -4 498.664 121.132   2
  -5   4  -4 335.893  73.492   1
  -5   4  -4 254.677  77.719   3
  -5   4  -4 502.688  94.111   4
   5   4   4 332.857  74.625   1
  -5   4  -4 584.576 103.320   2
  -6  -4  -4 960.188 167.142   2
   6   4   4 881.551 120.112   1
  -6   4  -4 555.856 120.615   2
  -6   4  -4 1075.47  134.02   1
  -7  -4  -4 599.720 149.014   2
   7  -4   4 474.052  95.701   1
   7   4   4 374.747  91.933   1
  -7   4  -4 597.267 131.799   2
   8  -5  -4 791.840 143.440   2
  -8  -5   4 374.524 115.864   3
   8   5  -4 430.328  95.617   1
   8   5  -4 581.092 142.204   2
  -8   5   4 663.953 153.379   3
  -7  -5   4 -48.964  59.724   3
   7  -5  -4 79.8294 62.0822   2
   7   5  -4  4.8685 46.2986   1
   7   5  -4 -26.990  71.021   2
  -7   5   4 178.281  90.089   3
  -6  -5   4 1136.37  149.92   3
   6  -5  -4 1109.74  151.93   2
  -6   5   4 1453.49  184.06   3
   6   5  -4 1290.72  172.52   2
   6   5  -4 1156.43  129.63   1
  -5  -5   4 47.3894 53.0514   3
   5  -5  -4 18.8704 46.2718   2
  -5  -5   4 27.0386 58.4696   2
  -5   5   4 60.0237 56.3493   4
   5   5  -4 89.7491 43.0713   1
  -5   5   4 17.3155 59.7162   3
   5   5  -4 -7.0849 53.0122   2
  -4  -5   4 4687.54  331.60   2
   4  -5  -4 5102.30  327.21   2
  -4  -5   4 4621.25  320.02   3
  -4   5   4 5297.75  345.40   3
   4   5  -4 5007.98  309.66   1
  -4   5   4 4612.83  319.03   4
   4   5  -4 4183.32  325.23   2
  -3  -5   4  8.8973 21.8123   4
   3  -5  -4 13.2131 37.1982   2
  -3  -5   4 -14.048  29.088   3
  -3   5   4  8.9082 49.8195   3
   3   5  -4 -36.723  29.821   1
  -3   5   4 -27.796  32.126   4
   3   5  -4 56.4810 45.6609   2
   2  -5  -4 48.8640 33.3513   2
  -2  -5   4 53.6250 33.2812   3
  -2  -5   4 19.3545 31.8255   4
   2   5  -4 -10.320  30.805   2
  -2   5   4  8.2733 44.4139   3
   2   5  -4 62.1998 35.7073   1
  -2   5   4 -10.192  29.442   4
   1  -5  -4 35.6730 40.4360   2
  -1  -5   4 52.8793 27.6650   3
   1  -5  -4 38.5013 43.7146   3
   1   5  -4 75.2551 39.7058   4
   1   5  -4 61.7071 22.4698   2
  -1   5   4 88.9371 18.6149   1
  -1   5   4 133.885  47.278   3
   1   5  -4 62.9891 36.4418   1
  -1   5   4  8.5483 30.3527   4
   0  -5   4 4556.30  267.09   3
   0  -5  -4 4461.67  286.76   2
   0  -5  -4 3893.61  269.47   3
   0   5   4 4020.16  251.00   1
   0   5  -4 4261.39  276.24   1
   0   5  -4 4145.12  273.04   4
   0   5   4 4093.56  262.89   4
  -1  -5  -4 136.429  58.464   2
  -1  -5  -4 184.105  35.457   3
   1  -5   4 283.097  53.803   3
   1   5   4 272.619  44.459   4
   1   5   4 144.029  36.226   1
  -1   5  -4 252.325  56.022   4
  -1   5  -4 186.680  55.374   1
  -1   5  -4 251.259  35.513   2
   2  -5   4 981.733 109.994   3
  -2  -5  -4 808.123  72.120   3
  -2  -5  -4 899.881 126.527   2
  -2   5  -4 912.961  91.507   2
  -2   5  -4 1113.81  116.74   1
   2   5   4 907.374  79.256   4
  -2   5  -4 956.666 115.907   4
   2   5   4 812.004  89.915   1
  -3  -5  -4 -25.536  59.260   2
   3  -5   4 14.3085 43.0380   3
  -3  -5  -4 -32.169  24.449   3
  -3   5  -4 28.1626 44.2970   1
  -3   5  -4 -9.3754 45.8721   4
  -3   5  -4 40.9173 41.6959   2
   3   5   4 -33.438  29.983   1
   3   5   4 22.2662 24.4541   4
   4  -5   4 2969.10  244.44   3
  -4  -5  -4 3586.75  285.23   2
  -4   5  -4 3845.41  257.16   4
   4   5   4 3413.78  234.66   1
  -4   5  -4 2799.78  237.15   2
  -4   5  -4 3184.84  238.79   1
   5  -5   4 49.5084 59.4288   3
  -5  -5  -4 -2.2374 75.0733   2
  -5   5  -4 -62.561  52.900   2
   5   5   4 -13.486  40.801   1
  -5   5  -4 27.6637 55.4014   4
  -5   5  -4 35.3700 47.4889   1
  -6  -5  -4 -116.49   75.28   2
   6  -5   4 65.4479 70.4097   4
   6   5   4 42.6825 50.6885   1
  -6   5  -4 43.7456 62.5038   1
  -7  -5  -4 -5.9794 92.6049   2
   7   5   4 52.7921 57.1881   1
  -8  -6   4 263.877 105.871   3
   8  -6  -4 517.604 118.646   2
  -8   6   4 509.794 134.135   3
   8   6  -4 274.627 118.148   2
   8   6  -4 334.413  91.546   1
   7  -6  -4 568.278 113.690   2
  -7  -6   4 424.589 103.776   3
  -7   6   4 494.986 122.935   3
   7   6  -4 483.242  91.984   1
   7   6  -4 417.076 120.349   2
   6  -6  -4 1897.91  194.63   2
  -6  -6   4 1881.23  197.85   3
   6   6  -4 1908.80  159.87   1
  -6   6   4 1717.66  196.64   4
   6   6  -4 1417.32  193.20   2
  -6   6   4 1850.87  220.05   3
  -5  -6   4 165.521  62.425   3
   5  -6  -4 182.625  63.769   2
  -5  -6   4 38.2050 59.6098   2
  -5   6   4 183.410  70.761   4
  -5   6   4 174.348  81.266   3
   5   6  -4 70.9630 43.0108   1
   4  -6  -4 199.377  61.113   2
  -4  -6   4 170.378  53.940   3
  -4  -6   4 264.861  71.952   2
  -4   6   4 170.027  64.461   4
   4   6  -4 189.201  51.282   1
  -4   6   4 277.375  86.153   3
   3  -6  -4 1314.67  112.85   2
  -3  -6   4 1156.58  120.19   3
  -3   6   4 981.447 131.705   3
  -3   6   4 995.683 120.172   4
   3   6  -4 1278.49  128.67   2
   3   6  -4 1235.49  121.24   1
  -2  -6   4 2557.79  183.82   3
   2  -6  -4 2446.67  183.58   2
  -2  -6   4 2562.24  179.99   4
   2   6  -4 2590.89  177.39   2
  -2   6   4 2322.49  185.33   4
   2   6  -4 2765.58  187.17   1
  -2   6   4 2775.40  204.64   3
  -1  -6   4 606.826  74.382   3
   1  -6  -4 427.489  77.505   3
   1  -6  -4 674.766  90.329   2
  -1   6   4 499.787  71.924   4
  -1   6   4 565.671  47.072   1
   1   6  -4 611.666  48.720   2
   1   6  -4 511.160  73.059   4
   1   6  -4 562.566  78.289   1
   0  -6  -4 -1.8902 39.9019   2
   0  -6  -4 27.5445 38.2491   3
   0  -6   4 30.1907 34.3205   3
   0   6   4 -5.9533 19.4750   1
   0   6  -4 -24.265  35.464   1
   0   6  -4 -30.015  36.545   4
   0   6   4 30.6494 33.1757   4
  -1  -6  -4 295.961  48.199   3
   1  -6   4 382.905  65.004   3
  -1  -6  -4 323.835  78.805   2
   1   6   4 284.565  51.317   4
   1   6   4 327.615  49.474   1
  -1   6  -4 199.937  58.865   1
  -1   6  -4 374.346  74.626   4
  -2  -6  -4 1447.49  173.76   2
  -2  -6  -4 1819.89  124.25   3
   2  -6   4 1372.32  153.88   3
   2   6   4 1942.19  131.02   4
  -2   6  -4 1844.30  174.90   4
   2   6   4 1639.25  132.14   1
  -2   6  -4 1825.79  153.33   1
  -3  -6  -4 396.214  56.958   3
   3  -6   4 421.090  80.137   3
  -3  -6  -4 333.980  91.756   2
   3   6   4 413.632  68.013   1
  -3   6  -4 292.194  73.262   1
  -3   6  -4 253.560  74.158   4
   3   6   4 321.492  51.148   4
  -4  -6  -4 44.5170 74.4049   2
   4  -6   4 -22.785  49.527   3
  -4   6  -4  3.9432 52.6734   4
  -4   6  -4  8.1862 46.4921   1
   4   6   4 -18.798  29.597   1
  -5  -6  -4 424.069 123.686   2
   5  -6   4 504.007 110.784   3
  -5   6  -4 655.576 102.923   1
  -5   6  -4 542.576 106.602   4
   5   6   4 494.044  87.843   1
  -6  -6  -4 1210.66  203.07   2
  -6   6  -4 1300.28  172.75   4
   6   6   4 1358.09  155.21   1
  -7  -6  -4 169.723 112.183   2
   7   6   4 349.843  88.993   1
  -8  -7   4 -39.244  79.040   3
   8  -7  -4 29.2339 71.9789   2
   8   7  -4 47.6768 63.6791   1
  -8   7   4 17.5746 91.7104   3
   8   7  -4  73.151 100.580   2
  -7  -7   4 -97.034  53.248   3
   7  -7  -4 72.9752 70.2754   2
  -7   7   4 -34.330  59.310   3
   7   7  -4 -38.131  45.177   1
   7   7  -4 12.7450 81.5750   2
   6  -7  -4 20.6921 54.2620   2
  -6  -7   4 62.7271 78.5022   2
  -6  -7   4 -49.889  45.924   3
  -6   7   4 118.996  75.097   4
  -6   7   4 43.0533 66.7468   3
   6   7  -4  7.6391 38.5967   1
   5  -7  -4 1500.79  168.04   2
  -5  -7   4 1721.13  177.99   3
  -5  -7   4 1663.71  185.19   2
  -5   7   4 1594.48  197.39   3
  -5   7   4 1830.77  190.32   4
   5   7  -4 1866.64  156.59   1
  -4  -7   4 403.081  75.268   3
  -4  -7   4 203.394  68.310   2
   4  -7  -4 235.781  61.860   2
  -4   7   4 204.678  74.712   3
  -4   7   4 73.8662 60.2222   4
   4   7  -4 323.090  63.725   1
  -3  -7   4 380.053  72.308   2
  -3  -7   4 222.861  56.712   3
   3  -7  -4 333.495  62.315   2
   3   7  -4 328.138  62.495   1
  -3   7   4 306.431  85.247   3
  -3   7   4 269.585  69.986   4
   2  -7  -4 -48.439  45.514   3
  -2  -7   4  3.0019 29.1159   3
   2  -7  -4 -0.0375 35.8144   2
  -2   7   4 18.2908 36.8323   4
   2   7  -4 -15.931  33.413   2
   2   7  -4 -16.524  31.165   4
   2   7  -4  6.6901 34.3733   1
   1  -7  -4 4464.84  300.32   3
  -1  -7   4 4679.19  288.11   3
   1  -7  -4 4033.62  296.49   2
  -1   7   4 4213.28  255.50   1
   1   7  -4 4601.58  288.54   1
  -1   7   4 4107.97  283.95   4
   1   7  -4 4528.62  288.75   4
   0  -7  -4 613.101  92.553   2
   0  -7   4 643.418  83.638   3
   0  -7  -4 730.765  89.960   3
   0   7  -4 447.828  79.493   1
   0   7   4 706.166  66.318   1
   0   7  -4 533.726  86.503   4
   0   7   4 662.746  81.387   4
   1  -7   4 1653.84  132.94   3
  -1  -7  -4 1280.32  153.80   2
  -1  -7  -4 1275.27  113.92   3
   1   7   4 1345.78  116.22   4
  -1   7  -4 1606.56  152.17   1
  -1   7  -4 1270.94  145.75   4
   1   7   4 1543.28  111.32   1
  -2  -7  -4 -10.935  58.522   2
  -2  -7  -4 15.4628 26.4796   3
   2  -7   4 31.2014 47.4700   3
  -2   7  -4  8.2323 44.7194   1
  -2   7  -4 -51.294  44.055   4
   2   7   4 41.5685 32.6261   1
   2   7   4 34.2255 33.4793   4
   3  -7   4 618.302 105.331   3
  -3  -7  -4 813.901 140.803   2
   3   7   4 744.623  92.718   1
  -3   7  -4 677.619 113.942   4
   3   7   4 723.822  79.786   4
  -3   7  -4 787.280 110.374   1
  -4  -7  -4 739.030 145.797   2
   4  -7   4 668.082 111.435   3
  -4   7  -4 565.843 107.701   4
   4   7   4 540.074  85.409   1
  -4   7  -4 633.818 102.388   1
   5  -7   4 1039.50  154.86   3
  -5  -7  -4 1147.24  188.26   2
  -5   7  -4 1145.90  142.54   1
  -5   7  -4 931.835 147.353   4
   5   7   4 1249.81  138.95   1
  -6  -7  -4 147.937 107.525   2
   6  -7   4 -11.360  73.141   3
   6   7   4 15.6606 45.5844   1
  -6   7  -4 -54.455  67.311   4
  -7  -7  -4 347.658 141.400   2
   7   7   4 430.307  97.225   1
  -8  -8   4 -29.650  77.018   3
   8  -8  -4 79.4581 82.6091   2
   8   8  -4  58.169 111.315   2
   8   8  -4 -14.426  62.705   1
   7  -8  -4 1268.14  169.92   2
  -7  -8   4 1491.48  185.72   3
  -7   8   4 1058.94  184.65   3
   7   8  -4 1265.15  190.84   2
   7   8  -4 1145.70  148.75   1
  -6  -8   4 -34.066  72.295   2
  -6  -8   4 41.3384 62.1480   3
   6  -8  -4 10.3115 57.4198   2
   6   8  -4 -69.420  43.944   1
  -6   8   4 -29.115  67.207   3
  -6   8   4 84.5612 79.0158   4
  -5  -8   4 121.135  67.195   3
   5  -8  -4 164.514  63.956   2
  -5  -8   4 201.657  80.254   2
  -5   8   4 332.714  96.983   4
   5   8  -4 243.258  66.523   1
  -5   8   4 157.168  82.445   3
  -4  -8   4 178.806  59.499   3
  -4  -8   4 107.171  62.225   2
   4  -8  -4 184.026  59.677   2
   4   8  -4 289.917  67.047   1
  -4   8   4 177.713  66.413   4
  -4   8   4 90.0318 76.1899   3
   3  -8  -4 2649.86  198.75   2
  -3  -8   4 2522.12  203.77   3
  -3   8   4 2595.26  214.98   4
   3   8  -4 2703.46  199.47   1
  -3   8   4 3029.63  235.62   3
  -2  -8   4 420.665  73.616   3
   2  -8  -4 514.258  92.395   3
   2  -8  -4 493.239  76.699   2
  -2   8   4 276.257  69.967   4
   2   8  -4 312.946  69.971   1
   2   8  -4 431.047  67.946   4
  -1  -8   4 233.482  56.330   3
   1  -8  -4 305.038  76.548   2
   1  -8  -4 352.573  74.928   3
   1   8  -4 354.309  68.758   1
  -1   8   4 303.589  66.501   4
   1   8  -4 182.937  59.165   4
   0  -8  -4 1098.20  112.88   3
   0  -8  -4 929.667 115.161   2
   0  -8   4 885.105 104.150   3
   0   8  -4 872.635 113.195   4
   0   8  -4 698.733 103.077   1
   0   8   4 684.172  95.523   4
   0   8   4 973.933  77.328   1
  -1  -8  -4 3022.34  242.96   3
  -1  -8  -4 3499.01  276.62   2
   1  -8   4 3984.08  262.24   3
  -1   8  -4 3960.38  267.37   1
   1   8   4 3905.42  240.48   1
  -1   8  -4 4002.03  275.62   4
   1   8   4 3840.79  249.07   4
   2  -8   4 41.9579 45.5699   3
  -2  -8  -4 -26.451  57.135   2
  -2  -8  -4 47.5998 33.1253   3
  -2   8  -4 45.1037 49.8712   1
   2   8   4 26.5300 36.5919   4
   2   8   4 19.9596 31.6721   1
  -2   8  -4 42.1830 48.8030   4
  -3  -8  -4 2662.70  282.92   2
   3  -8   4 2881.02  239.62   3
  -3   8  -4 2941.44  232.93   1
   3   8   4 3233.34  216.09   1
  -3   8  -4 2962.17  241.68   4
  -4  -8  -4 66.0354 86.3510   2
   4  -8   4 231.667  76.427   3
   4   8   4 139.758  56.090   1
  -4   8  -4 122.020  73.056   4
  -4   8  -4 426.534  88.127   1
  -5  -8  -4 82.9514 97.2740   2
   5  -8   4 213.707  83.733   3
   5   8   4 191.503  61.317   1
  -5   8  -4 136.858  82.788   4
   6  -8   4 284.779 106.381   3
  -6  -8  -4 319.845 133.694   2
  -6   8  -4 184.229  95.506   4
   6   8   4 287.771  71.974   1
  -7  -8  -4 875.110 194.578   2
   7   8   4 829.042 132.043   1
   7  -9  -4 91.9640 69.8302   2
  -7  -9   4 30.7781 97.1933   2
  -7  -9   4 -16.228  69.759   3
   7   9  -4 -36.880  52.574   1
   7   9  -4 56.4755 91.2514   2
  -7   9   4 -99.237  68.474   3
  -6  -9   4 200.816  90.561   2
  -6  -9   4 117.115  77.877   3
   6  -9  -4 254.415  81.345   2
   6   9  -4 185.208  71.213   1
  -6   9   4 402.612 114.823   3
  -6   9   4 345.065 103.696   4
  -5  -9   4 430.987  97.147   3
   5  -9  -4 452.157  89.990   2
  -5   9   4 556.650 116.014   4
  -5   9   4 510.252 122.718   3
   5   9  -4 761.590 110.608   1
   4  -9  -4 1016.53  115.48   2
  -4  -9   4 793.879 118.062   3
  -4   9   4 493.347 109.560   4
   4   9  -4 850.338 112.343   1
  -4   9   4 975.875 149.028   3
   3  -9  -4 -50.412  32.389   2
   3  -9  -4 -19.018  51.104   3
  -3  -9   4 29.4190 39.1733   3
  -3   9   4  3.5351 51.2337   4
   3   9  -4 66.0375 40.8486   1
  -2  -9   4 26.6434 35.5964   3
   2  -9  -4 -29.504  39.670   2
   2  -9  -4  1.2411 52.8075   3
   2   9  -4 25.2453 41.5991   1
   2   9  -4 51.9265 44.1313   4
  -2   9   4 94.7965 53.8032   4
   1  -9  -4 2778.03  213.11   2
  -1  -9   4 2492.09  193.88   3
   1  -9  -4 2466.56  210.21   3
   1   9  -4 2471.70  196.09   1
   1   9  -4 2687.75  205.14   4
  -1   9   4 2717.14  204.38   4
   0  -9  -4 1447.29  160.87   2
   0  -9  -4 1670.40  146.74   3
   0  -9   4 1510.37  154.06   3
   0   9  -4 1613.81  166.89   4
   0   9   4 1830.01  124.05   1
   0   9   4 1619.52  155.98   4
   0   9  -4 1727.92  166.23   1
   1  -9   4 1475.69  143.82   3
  -1  -9  -4 1326.82  132.68   3
  -1  -9  -4 1538.66  170.33   2
  -1   9  -4 1264.29  155.09   4
   1   9   4 1342.87  110.15   1
   1   9   4 1200.24  130.34   4
  -1   9  -4 1390.12  150.02   1
   2  -9   4 26.6111 50.6609   3
  -2  -9  -4 -63.206  56.429   2
  -2  -9  -4 -24.362  33.132   3
   2   9   4 21.5407 38.1420   4
  -2   9  -4 105.855  63.536   4
  -2   9  -4 -18.072  47.487   1
   2   9   4 24.8029 32.1644   1
  -3  -9  -4 794.787 148.257   2
   3  -9   4 890.742 137.312   3
   3   9   4 1237.91  122.59   1
  -3   9  -4 1096.62  137.82   1
  -3   9  -4 1088.33  152.06   4
  -4  -9  -4 885.584 165.858   2
   4  -9   4 1077.98  152.36   3
  -4   9  -4 862.219 144.644   4
  -4   9  -4 1231.58  148.77   1
   4   9   4 825.530 111.845   1
   5  -9   4 791.902 141.398   3
  -5  -9  -4 797.000 171.925   2
  -5   9  -4 802.151 142.846   4
   5   9   4 879.594 118.047   1
   6  -9   4 201.747  94.183   3
  -6  -9  -4 217.801 127.510   2
  -6   9  -4 -29.388  76.857   4
   6   9   4 144.927  63.883   1
  -7 -10   4 -109.65   69.58   3
   7  10  -4 50.1922 64.9324   1
  -7  10   4 -58.550  76.841   3
  -6 -10   4 1059.72  154.33   3
   6 -10  -4 968.394 132.817   2
  -6  10   4 1022.82  165.11   4
  -6  10   4 824.861 157.028   3
   6  10  -4 436.548 103.775   1
  -5 -10   4 -12.099  54.516   3
   5 -10  -4 -67.194  74.938   3
   5 -10  -4 -30.538  44.429   2
  -5  10   4 -71.953  65.018   3
   5  10  -4 20.4017 44.8639   1
  -5  10   4 54.8062 74.3209   4
   4 -10  -4 308.194 104.831   3
   4 -10  -4 420.089  81.814   2
  -4 -10   4 668.057 107.387   3
  -4  10   4 386.613 100.664   4
   4  10  -4 390.343  81.273   1
   3 -10  -4 157.405  57.990   2
   3 -10  -4 169.781  87.336   3
  -3 -10   4 42.1860 46.8591   3
   3  10  -4 251.445  65.093   1
  -3  10   4 230.033  74.428   4
   2 -10  -4 2105.23  182.15   2
   2 -10  -4 1921.21  209.00   3
  -2 -10   4 2125.12  177.55   3
   2  10  -4 1962.74  172.72   4
   2  10  -4 2462.92  181.12   1
  -2  10   4 2078.54  207.28   4
   1 -10  -4 150.895  61.529   2
   1 -10  -4 50.8006 54.0175   3
  -1 -10   4 129.837  52.110   3
  -1  10   4 131.181  61.601   4
   1  10  -4 157.166  56.177   1
   1  10  -4 205.895  64.363   4
   0 -10   4 293.921  67.494   3
   0 -10  -4 292.699  73.793   3
   0 -10  -4 294.693  75.199   2
   0  10   4 201.321  45.066   1
   0  10  -4 478.466  89.391   4
   0  10  -4 288.844  73.149   1
   0  10   4 324.331  72.743   4
  -1 -10  -4 200.128  75.931   2
  -1 -10  -4 125.538  54.394   3
   1 -10   4 208.243  60.703   3
   1  10   4 114.076  40.694   1
  -1  10  -4 140.830  65.380   1
  -1  10  -4 160.986  71.065   4
   1  10   4 28.1226 48.4350   4
   2 -10   4 3044.07  243.20   3
  -2 -10  -4 3403.81  272.17   2
  -2 -10  -4 2883.63  224.38   3
  -2  10  -4 3202.11  260.43   4
  -2  10  -4 3809.37  260.96   1
   2  10   4 3079.16  219.36   1
   2  10   4 2983.42  225.17   4
  -3 -10  -4 60.2231 81.0023   2
   3 -10   4 12.2694 52.8211   3
  -3  10  -4 -53.937  57.830   1
   3  10   4 153.494  50.050   1
  -3  10  -4 -12.234  65.597   4
   4 -10   4 -111.65   57.40   3
  -4 -10  -4 -40.531  81.047   2
   4  10   4 -18.227  37.191   1
  -4  10  -4 -65.639  65.645   4
  -5 -10  -4 44.7218 96.7968   2
   5 -10   4 -14.823  72.345   3
   5  10   4 68.6402 57.3585   1
  -5  10  -4 70.6475 81.9680   4
   6 -10   4 1126.92  180.86   3
  -6 -10  -4 1056.98  210.04   2
  -6  10  -4 912.265 165.084   4
   6  10   4 1003.56  138.92   1
  -6 -11   4 186.932  85.220   3
   6 -11  -4 140.037 118.486   3
  -6  11   4  72.139 101.112   4
   6  11  -4 98.3217 63.8776   1
  -5 -11   4 81.1932 67.6009   3
   5 -11  -4 73.6049 97.2958   3
  -5  11   4 -36.036  72.791   4
   5  11  -4 -75.719  44.734   1
   4 -11  -4 1187.04  132.72   2
  -4 -11   4 858.242 132.910   3
   4 -11  -4 807.590 157.974   3
  -4  11   4 681.724 134.314   4
   4  11  -4 972.772 126.486   1
  -3 -11   4 10.4010 52.7452   3
   3 -11  -4 66.0986 55.9273   2
   3 -11  -4 -15.954  62.446   3
  -3  11   4 79.6630 67.9220   4
   3  11  -4 80.8266 49.9063   1
   2 -11  -4 363.434  87.860   2
  -2 -11   4 291.325  77.499   3
   2 -11  -4 327.390  94.118   3
   2  11  -4 465.005  89.165   4
  -2  11   4 453.688  97.756   4
   2  11  -4 448.284  86.137   1
   1 -11  -4 1126.20  130.88   2
  -1 -11   4 822.469 113.492   3
   1 -11  -4 1210.54  143.05   3
   1  11  -4 733.103 117.930   4
   1  11  -4 1334.11  138.88   1
  -1  11   4 586.447 113.380   4
   0 -11   4 2216.44  193.54   3
   0 -11  -4 2460.12  205.80   2
   0 -11  -4 2548.41  200.77   3
   0  11  -4 2576.32  205.70   1
   0  11   4 2554.35  206.70   4
   0  11  -4 2271.44  207.44   4
  -1 -11  -4 660.104  93.870   3
   1 -11   4 436.720  88.447   3
  -1 -11  -4 631.079 116.161   2
   1  11   4 574.637  96.071   4
  -1  11  -4 396.434  91.152   1
   1  11   4 650.090  85.365   1
  -1  11  -4 565.762 111.442   4
   2 -11   4 20.5320 52.1195   3
  -2 -11  -4 110.300  54.186   3
  -2 -11  -4 104.285  76.310   2
   2  11   4 156.920  50.940   1
  -2  11  -4 50.3419 62.9224   1
   2  11   4 134.943  57.439   4
  -2  11  -4 -22.791  67.411   4
   3 -11   4 41.4537 52.4639   3
  -3 -11  -4 -7.6170 79.1567   2
  -3  11  -4  8.5798 70.2539   4
   3  11   4 100.814  49.140   1
  -3  11  -4 129.240  75.424   1
  -4 -11  -4 974.468 174.435   2
   4 -11   4 495.586 114.193   3
  -4  11  -4 737.308 146.313   4
   4  11   4 669.702 103.047   1
  -5 -11  -4 289.895 123.523   2
   5 -11   4 83.7663 87.2021   3
   5  11   4 123.385  63.796   1
  -5  11  -4 179.658 100.485   4
  -6 -11  -4  -9.559 115.965   2
   6 -11   4 123.075  98.607   3
   6  11   4 50.6865 60.2375   1
  -6  11  -4 -24.452  84.166   4
   6 -12  -4 129.842 116.308   3
  -6 -12   4 355.101 114.062   3
  -6  12   4 156.122 105.691   4
   6  12  -4 285.557  87.251   1
   5 -12  -4 20.9325 88.7972   3
  -5 -12   4  7.9848 67.0096   3
   5  12  -4 72.4334 58.8014   1
  -5  12   4 66.0246 85.1668   4
   4 -12  -4 100.709  90.361   3
  -4 -12   4 -21.464  56.995   3
   4  12  -4 -4.5092 40.8858   1
  -4  12   4 38.2640 77.5827   4
   3 -12  -4 1372.73  187.90   3
  -3 -12   4 1230.68  159.64   3
   3  12  -4 1266.72  149.18   1
  -3  12   4 1479.67  180.62   4
   2 -12  -4 391.032 108.183   3
  -2 -12   4 245.598  73.650   3
   2  12  -4 410.828  86.072   1
  -2  12   4 323.819  91.035   4
  -1 -12   4 522.243  94.210   3
   1 -12  -4 515.397  97.764   2
   1 -12  -4 388.700  91.072   3
  -1  12   4 458.789 101.339   4
   1  12  -4 687.857 105.870   1
   1  12  -4 474.518 101.862   4
   0 -12   4 -0.9108 42.6215   3
   0 -12  -4  4.5576 49.1660   3
   0 -12  -4 90.1392 67.9296   2
   0  12   4 55.4630 60.2009   4
   0  12  -4 -15.778  57.735   4
   0  12  -4 -70.653  40.704   1
   1 -12   4 960.003 128.420   3
  -1 -12  -4 988.161 123.703   3
  -1 -12  -4 813.059 138.378   2
   1  12   4 1123.23  140.56   4
  -1  12  -4 806.854 139.437   4
  -1  12  -4 908.755 134.730   1
   1  12   4 1292.94  118.95   1
  -2 -12  -4 287.253  75.953   3
   2 -12   4 304.545  83.033   3
  -2 -12  -4 276.223 101.705   2
  -2  12  -4 402.684 105.377   4
   2  12   4 256.249  64.592   1
  -2  12  -4 171.635  79.440   1
   3 -12   4 923.789 146.720   3
  -3 -12  -4 1051.26  173.12   2
  -3  12  -4 973.524 158.246   4
   3  12   4 1295.43  136.85   1
   4 -12   4  6.1575 72.3982   3
  -4 -12  -4 -55.402  89.179   2
  -4  12  -4 12.6911 80.6874   4
   4  12   4  7.8314 45.3200   1
  -5 -12  -4 157.683 122.649   2
   5 -12   4 225.316 105.078   3
   5  12   4 334.164  80.700   1
  -5  12  -4 172.360 111.463   4
  -6  13   4  0.8426 94.9184   4
  -5 -13   4 1947.52  226.53   3
   5 -13  -4 1719.60  251.14   3
   5  13  -4 1555.20  181.99   1
  -5  13   4 1785.82  230.89   4
  -4 -13   4 54.7130 75.4512   3
   4 -13  -4 13.5035 87.2550   3
  -4  13   4 -43.872  62.910   4
   4  13  -4 -0.0998 48.6476   1
  -3 -13   4 330.183  96.275   3
   3 -13  -4 422.395 117.120   3
  -3  13   4 306.070 101.166   4
   3  13  -4 387.829  88.114   1
   2 -13  -4 164.974  79.344   3
  -2 -13   4 -28.453  42.231   3
   2  13  -4 -9.7191 46.4560   1
  -2  13   4 -67.726  57.416   4
  -1 -13   4 1354.26  157.84   3
   1 -13  -4 1314.15  159.25   3
  -1  13   4 1010.96  154.19   4
   1  13  -4 1566.01  162.19   1
   1  13  -4 980.254 148.345   4
   0 -13   4 10.6323 46.1552   3
   0 -13  -4 52.7010 53.3014   3
   0  13   4 -73.884  55.173   4
   0  13  -4 -14.030  65.300   4
   0  13  -4 10.5210 55.3210   1
   1 -13   4 432.717  92.851   3
  -1 -13  -4 678.256 103.921   3
   1  13   4 577.167 109.812   4
  -1  13  -4 508.186 113.964   4
  -1  13  -4 529.596 106.232   1
   2 -13   4 -44.352  49.087   3
  -2 -13  -4 24.9886 73.4266   2
   2  13   4 102.035  48.939   1
  -2  13  -4 -39.467  70.580   4
  -3 -13  -4 1075.62  179.20   2
   3 -13   4 819.875 138.928   3
   3  13   4 1151.66  135.91   1
  -3  13  -4 1001.34  164.65   4
  -4 -13  -4 -14.117 103.626   2
   4 -13   4  9.5490 68.5249   3
   4  13   4 65.1458 51.5987   1
  -4  13  -4 -43.903  75.533   4
  -5 -13  -4 1191.79  212.55   2
   5 -13   4 620.997 151.874   3
   5  13   4 1239.43  150.56   1
  -5  13  -4 1065.63  184.97   4
  -5 -14   4 179.948  94.894   3
   5 -14  -4 -58.437  89.187   3
   5  14  -4 -17.554  58.624   1
  -5  14   4 11.0263 86.6117   4
   4 -14  -4  2.9545 88.3067   3
  -4 -14   4 101.052  86.720   3
  -4  14   4 68.9911 88.4708   4
   4  14  -4 42.5279 58.5053   1
   3 -14  -4 1172.02  185.50   3
  -3 -14   4 868.137 143.300   3
  -3  14   4 741.837 146.393   4
   3  14  -4 956.712 138.820   1
  -2 -14   4 401.682  97.414   3
   2 -14  -4 485.110 113.696   3
   2  14  -4 393.107  90.684   1
  -2  14   4 321.647 105.685   4
   1 -14  -4 536.871 106.469   3
  -1 -14   4 383.577  86.710   3
  -1  14   4 237.507  92.395   4
   1  14  -4 103.994  82.554   4
   1  14  -4 259.980  77.511   1
   0 -14   4  7.2680 50.8823   3
   0 -14  -4 -4.5311 47.0667   3
   0  14  -4 198.561  73.412   1
   0  14   4 73.4272 69.7528   4
   0  14  -4 -48.754  69.796   4
  -1 -14  -4 812.753 119.781   3
   1 -14   4 516.997 107.038   3
  -1  14  -4 499.832 121.350   4
  -1  14  -4 826.203 130.720   1
   1  14   4 722.853 125.522   4
   2 -14   4 697.949 117.887   3
  -2  14  -4 544.357 135.405   4
   3 -14   4 423.794 104.639   3
  -3  14  -4 360.531 122.532   4
   3  14   4 486.311  95.436   1
   4 -14   4 83.3051 76.5910   3
  -4  14  -4 -66.469  84.557   4
   4  14   4 170.009  69.832   1
  -4 -15   4 926.879 166.583   3
   4 -15  -4 1462.26  222.70   3
  -4  15   4 1153.15  191.95   4
   4  15  -4 1077.57  151.83   1
  -3 -15   4 104.524  72.597   3
   3 -15  -4 -19.958  83.165   3
   3  15  -4 90.7687 67.2797   1
  -3  15   4 -8.3839 84.6830   4
   2 -15  -4 100.680  72.933   3
  -2 -15   4 71.6556 63.4155   3
  -2  15   4 37.7641 82.8516   4
   2  15  -4 87.5438 66.4366   1
   1 -15  -4 257.143  87.627   3
  -1 -15   4 204.698  73.355   3
   1  15  -4 167.267  74.595   1
  -1  15   4 263.485  99.097   4
   0 -15  -4 1154.95  147.24   3
   0 -15   4 1096.08  145.16   3
   0  15  -4 901.056 154.811   4
   0  15   4 991.600 155.672   4
   0  15  -4 806.686 136.137   1
  -1 -15  -4 69.0539 63.9409   3
   1 -15   4 54.1261 60.5711   3
   1  15   4 77.4056 80.5602   4
  -1  15  -4 -32.015  76.187   4
   2 -15   4 -3.5465 54.6839   3
  -2  15  -4 86.3216 98.3929   4
   3 -15   4 56.0942 63.7889   3
  -3  15  -4 43.7197 91.3883   4
   4  15   4 1370.92  169.31   1
  -3 -16   4 69.3124 83.2381   3
   3 -16  -4 221.225 104.684   3
  -3  16   4  95.074 101.226   4
   3  16  -4 111.595  76.609   1
   2 -16  -4 881.640 147.395   3
  -2 -16   4 802.021 137.766   3
   2  16  -4 573.142 120.549   1
  -2  16   4 1016.13  174.37   4
  -1 -16   4 64.7173 65.5430   3
   1 -16  -4 96.6412 72.6439   3
   1  16  -4 132.497  76.374   1
  -1  16   4 67.4561 90.6594   4
   0 -16   4 -10.011  51.312   3
   0 -16  -4 -32.646  55.346   3
   0  16   4 93.1901 92.4706   4
   0  16  -4 37.7822 69.8805   1
   0  16  -4 60.9217 89.5483   4
   1 -16   4 11.0307 56.6970   3
  -1  16  -4 17.7581 86.2604   4
   2 -16   4 654.738 121.599   3
  -2  16  -4 489.152 135.921   4
   2 -17  -4 38.7944 78.4795   3
   2  17  -4 -114.23   59.27   1
   1 -17  -4 374.929 104.859   3
  -1  17   4 356.111 130.128   4
   1  17  -4 440.123 113.616   1
   0 -17  -4 125.828  79.652   3
   0  17  -4 37.1335 96.1654   4
   0  17   4 135.218 102.277   4
  -1  17  -4 130.020 101.274   4
  -8   0   5 -12.032  65.857   3
   8   0  -5 46.4122 77.2364   2
   7   0  -5 1299.23  181.90   2
  -7   0   5 1342.38  185.49   3
  -6   0   5 -13.915  54.492   3
   6   0  -5 68.6472 65.0657   2
  -5   0   5 140.920  60.193   3
   5   0  -5 113.518  38.735   1
   5   0  -5 139.320  59.076   2
   4   0  -5 32.1314 42.5351   2
  -4   0   5 -16.999  25.933   4
  -4   0   5 -33.978  38.373   3
   4   0  -5 44.2299 27.6487   1
  -3   0   5 6905.40  394.53   4
  -3   0   5 6495.20  419.70   3
   3   0  -5 6979.73  423.44   2
   3   0  -5 6454.35  394.02   1
  -2   0   5 20.7995 32.4811   3
  -2   0   5 -2.8657 21.0770   4
   2   0  -5 65.4212 34.4938   2
   2   0  -5 27.4599 27.8027   1
  -1   0   5 36.5084 27.2718   4
   1   0  -5 20.9832 31.4144   2
  -1   0   5 38.5834 27.9492   3
   1   0  -5 117.484  36.928   1
   0   0  -5  1.2874 41.8994   2
   0   0   5 19.8496 18.8334   3
   0   0   5 29.0972 26.4222   4
   0   0  -5 -24.995  32.094   1
  -1   0  -5 4714.60  300.08   2
   1   0   5 4215.69  280.53   4
  -1   0  -5 4704.86  290.73   1
  -2   0  -5 -9.4666 44.8508   2
   2   0   5 -19.964  21.076   3
   2   0   5 33.7513 32.9288   4
  -2   0  -5 -15.055  34.477   1
  -3   0  -5 647.744  66.159   3
  -3   0  -5 530.418  98.284   2
  -3   0  -5 541.250  84.801   1
   3   0   5 557.140  75.331   4
   4   0   5 -15.618  32.357   4
  -4   0  -5 -35.143  51.804   2
  -4   0  -5 33.9915 44.1686   1
  -5   0  -5 2085.77  225.27   2
   5   0   5 2109.21  178.72   1
   6   0   5 -20.809  40.071   1
  -6   0  -5 29.7469 74.5848   2
   7   0   5 854.697 123.814   1
  -7   0  -5 568.578 145.482   2
   8   0   5  3.0900 65.5985   1
  -8   0  -5 -52.422  87.397   2
   8  -1  -5 88.4709 82.5081   2
  -8  -1   5 88.3671 82.6702   3
  -8   1   5 -48.989  63.254   3
   8   1  -5 197.706  96.214   2
  -7  -1   5 75.0638 78.0577   3
   7  -1  -5 233.434  84.284   2
   7   1  -5 139.728  77.176   2
  -7   1   5 196.164  91.716   3
   6  -1  -5 485.212 104.413   2
  -6  -1   5 543.407 110.635   3
   6   1  -5 790.719 124.607   2
  -6   1   5 635.815 119.427   3
  -5  -1   5 2261.48  198.83   3
   5  -1  -5 2681.93  205.58   2
   5   1  -5 2098.03  161.06   1
   5   1  -5 2336.66  202.56   2
  -5   1   5 2332.62  225.61   3
  -4  -1   5 508.331  54.580   4
   4  -1  -5 417.127  78.198   2
   4  -1  -5 397.696  51.894   1
  -4  -1   5 334.506  72.031   3
   4   1  -5 546.673  84.708   2
   4   1  -5 399.750  58.626   1
  -4   1   5 384.983  80.601   3
  -4   1   5 496.179  62.593   4
  -3  -1   5 188.007  31.755   4
   3  -1  -5 104.007  29.372   1
   3  -1  -5 142.921  49.174   2
  -3  -1   5 208.415  53.996   3
  -3   1   5 188.434  37.971   4
   3   1  -5 151.197  49.151   2
  -3   1   5 112.654  47.300   3
   3   1  -5 205.564  41.182   1
   2  -1  -5 253.215  49.682   2
   2  -1  -5 259.364  41.915   1
  -2  -1   5 288.496  39.114   4
  -2  -1   5 270.533  51.995   3
   2   1  -5 395.525  57.000   2
   2   1  -5 296.158  46.114   1
  -2   1   5 332.368  45.464   4
  -2   1   5 252.152  53.525   3
  -1  -1   5 6108.47  324.01   3
  -1  -1   5 5410.03  319.79   4
   1  -1  -5 5194.38  318.48   1
   1  -1  -5 5228.10  330.60   2
  -1   1   5 5047.71  317.56   4
   1   1  -5 5325.62  325.21   2
  -1   1   5 5226.37  321.72   3
   1   1  -5 5090.37  322.70   1
   0  -1   5 555.944  45.462   3
   0  -1   5 435.480  58.547   4
   0  -1  -5 354.957  72.344   2
   0  -1  -5 450.646  61.744   1
   0   1   5 506.475  56.528   4
   0   1  -5 325.434  63.524   2
   0   1   5 523.185  45.760   3
   0   1  -5 499.141  67.383   1
  -1  -1  -5 940.491 108.834   2
   1  -1   5 920.227  63.122   3
  -1  -1  -5 851.578  94.835   1
   1  -1   5 1040.78   99.97   4
  -1   1  -5 1000.60  102.10   2
   1   1   5 922.195  86.498   4
  -1   1  -5 963.091 101.267   1
  -2  -1  -5 1387.53  129.41   1
   2  -1   5 1394.12  117.44   4
   2  -1   5 1240.97   97.41   3
  -2  -1  -5 1400.35  143.98   2
   2   1   5 1178.62  102.82   4
  -2   1  -5 1512.20  140.07   2
  -2   1  -5 1294.63  128.86   1
   3  -1   5 1411.77  136.23   4
  -3  -1  -5 1187.26  151.43   2
  -3  -1  -5 1244.79  133.93   1
  -3   1  -5 1473.72  154.29   2
   3   1   5 1454.66  112.57   4
  -3   1  -5 1545.77  114.58   3
  -3   1  -5 1515.31  146.53   1
  -4  -1  -5 656.600  97.612   1
   4  -1   5 693.253  95.704   4
  -4  -1  -5 753.102 125.053   2
   4   1   5 641.544  95.878   1
  -4   1  -5 774.827 116.239   2
   4   1   5 806.477  83.774   4
  -4   1  -5 638.165  97.698   1
  -5  -1  -5 788.666 137.124   2
   5  -1   5 755.522 102.790   4
  -5   1  -5 818.604 115.836   1
  -5   1  -5 756.526 129.375   2
   5   1   5 969.298 120.342   1
   6  -1   5 21.5694 53.2080   1
  -6  -1  -5 22.9648 71.2803   2
   6   1   5 -40.274  40.447   1
  -6   1  -5 -25.610  62.582   2
   7  -1   5 481.861  96.936   1
  -7  -1  -5 254.451 119.022   2
   7   1   5 721.897 112.305   1
  -7   1  -5 524.191 128.622   2
   8  -1   5 590.852 111.836   1
   8   1   5 253.993  86.819   1
  -8   1  -5 272.312 127.251   2
   8  -2  -5 968.358 159.812   2
  -8  -2   5 841.799 160.171   3
  -8   2   5 801.418 160.262   3
   8   2  -5 1009.67  174.76   2
  -7  -2   5 -70.706  57.851   3
   7  -2  -5 -51.375  56.439   2
  -7   2   5 82.9216 76.8525   3
   7   2  -5 72.1479 77.2590   2
  -6  -2   5 828.633 132.084   3
   6  -2  -5 752.471 120.388   2
   6   2  -5 791.231  92.925   1
  -6   2   5 529.606 115.444   3
   6   2  -5 499.513 110.324   2
  -5  -2   5 165.636  66.584   3
   5  -2  -5 259.874  70.655   2
  -5   2   5 299.573  64.765   4
   5   2  -5 285.724  79.355   2
   5   2  -5 138.734  45.853   1
  -5   2   5 289.829  82.562   3
   4  -2  -5 1251.91  136.99   2
   4  -2  -5 1231.80   90.63   1
  -4  -2   5 1314.35  137.54   3
   4   2  -5 1118.12  133.87   2
  -4   2   5 1384.51  149.68   3
   4   2  -5 1267.06  107.26   1
  -4   2   5 1322.79  109.40   4
   3  -2  -5 2428.13  182.31   2
  -3  -2   5 2276.34  177.74   3
   3  -2  -5 2362.19  150.06   1
  -3  -2   5 2615.67  151.96   4
   3   2  -5 2286.37  178.31   2
  -3   2   5 2248.11  185.30   3
  -3   2   5 2228.95  163.30   4
   3   2  -5 2687.17  168.49   1
  -2  -2   5 2404.60  170.27   3
   2  -2  -5 2635.96  175.15   2
   2  -2  -5 2412.01  152.08   1
  -2  -2   5 2552.36  156.32   4
  -2   2   5 2290.59  160.16   4
   2   2  -5 2481.35  168.64   2
   2   2  -5 2325.86  164.96   1
  -2   2   5 2283.58  174.55   3
   1  -2  -5 -12.620  25.118   1
  -1  -2   5 -28.354  22.274   3
  -1  -2   5 45.0236 27.8849   4
   1  -2  -5 -12.607  29.168   2
  -1   2   5 -23.635  30.023   3
  -1   2   5 50.5875 27.0191   4
   1   2  -5 -4.0038 34.3148   1
   1   2  -5 -11.568  24.016   2
   0  -2  -5 1078.43  119.16   2
   0  -2   5 989.261  74.753   3
   0  -2  -5 1095.21   92.69   1
   0  -2   5 1084.98   93.29   4
   0   2   5 969.179  75.786   3
   0   2  -5 1013.02   96.23   2
   0   2  -5 861.307  97.235   1
   0   2   5 1170.01   87.39   4
  -1  -2  -5 882.298  94.066   1
  -1  -2  -5 1039.06  121.04   2
   1  -2   5 965.748  70.851   3
   1  -2   5 865.022 100.309   4
   1   2   5 955.528  80.878   4
  -1   2  -5 906.508 103.260   1
  -1   2  -5 915.753  93.419   2
  -2  -2  -5 2873.61  197.02   1
   2  -2   5 2624.05  200.18   4
   2  -2   5 2542.70  183.03   3
  -2  -2  -5 3080.68  224.44   2
  -2   2  -5 2805.14  201.19   1
   2   2   5 2740.04  181.63   4
  -2   2  -5 2767.12  199.43   2
  -3  -2  -5 -37.179  28.833   1
   3  -2   5 34.6244 39.1103   3
   3  -2   5 -49.107  34.671   4
  -3  -2  -5 -19.546  53.502   2
  -3   2  -5 96.4129 50.6175   1
   3   2   5 -8.3193 21.2281   4
  -3   2  -5 -15.266  45.790   2
   4  -2   5 865.644 111.116   4
  -4  -2  -5 777.195 129.618   2
  -4   2  -5 863.375 124.101   2
   4   2   5 684.278  97.112   1
  -4   2  -5 578.740  96.161   1
   4   2   5 819.984  83.050   4
   5  -2   5 137.541  58.195   4
  -5  -2  -5 425.531 110.008   2
   5   2   5 261.711  66.343   1
  -5   2  -5 313.234  73.869   1
  -5   2  -5 210.259  77.549   2
   6  -2   5 2045.19  195.92   1
  -6  -2  -5 1824.46  231.92   2
   6   2   5 1915.25  191.91   1
  -6   2  -5 1878.16  220.90   2
   7  -2   5 190.332  71.316   1
  -7  -2  -5 162.086 106.773   2
   7   2   5 156.451  68.276   1
  -7   2  -5 142.581  93.367   2
   8  -2   5 31.3867 67.1287   1
  -8   2  -5 -135.12   86.88   2
   8  -3  -5 420.216 119.198   2
  -8  -3   5 334.553 113.693   3
   8   3  -5 368.908 114.861   2
  -8   3   5 379.037 125.776   3
   7  -3  -5 66.5933 66.7220   2
  -7  -3   5 -12.126  56.438   3
   7   3  -5 -71.032  67.530   2
  -7   3   5 -43.915  59.494   3
  -6  -3   5 1323.19  165.67   3
   6  -3  -5 1195.49  157.63   2
   6   3  -5 1155.00  160.33   2
   6   3  -5 1402.41  134.07   1
  -6   3   5 945.142 152.802   3
  -5  -3   5 176.174  62.094   3
   5  -3  -5 266.966  72.985   2
   5   3  -5 214.672  75.041   2
  -5   3   5 74.3533 64.2996   3
  -5   3   5 158.635  56.085   4
   5   3  -5 262.468  57.488   1
   4  -3  -5 901.271 108.758   2
  -4  -3   5 617.220  96.046   3
   4   3  -5 814.148  90.827   1
  -4   3   5 629.387 106.390   3
  -4   3   5 776.121  90.978   4
   4   3  -5 713.469 103.259   2
   3  -3  -5 -27.331  33.251   2
   3  -3  -5 -1.7187 16.0510   1
  -3  -3   5 -0.0335 19.1743   4
  -3  -3   5 16.1362 33.4799   3
  -3   3   5 -25.087  29.149   4
   3   3  -5 -4.4434 36.3936   2
   3   3  -5  3.5213 29.2891   1
  -3   3   5 -59.087  40.232   3
   2  -3  -5 1939.95  122.87   1
  -2  -3   5 2088.69  146.63   3
   2  -3  -5 2003.63  149.09   2
  -2  -3   5 2060.86  133.83   4
   2   3  -5 1899.39  140.57   2
  -2   3   5 1807.03  154.24   3
  -2   3   5 1968.96  140.71   4
   2   3  -5 1982.58  146.20   1
  -1  -3   5 1019.14   83.39   3
  -1  -3   5 1109.32   91.37   4
   1  -3  -5 1071.71  105.66   2
   1  -3  -5 1023.34   79.59   1
  -1   3   5 1035.57   86.06   4
   1   3  -5 848.112  76.334   2
  -1   3   5 848.304  93.203   3
   1   3  -5 1100.14  105.24   1
   0  -3  -5 3996.19  283.69   2
   0  -3  -5 4100.94  252.01   3
   0  -3   5 4025.33  267.51   4
   0  -3  -5 3980.47  253.26   1
   0  -3   5 4422.83  251.23   3
   0   3  -5 4202.77  270.42   1
   0   3   5 3683.01  253.37   4
   0   3  -5 4388.55  256.15   2
  -1  -3  -5 15.6384 31.2137   1
  -1  -3  -5 21.5960 50.6937   2
   1  -3   5 -3.3114 39.3856   4
  -1  -3  -5 13.4409 11.0925   3
   1  -3   5  2.8142 20.2985   3
   1   3   5  4.2226 24.3290   4
  -1   3  -5 -24.694  37.648   1
  -1   3  -5 -5.4356 29.0778   2
  -2  -3  -5 1476.53  162.54   2
   2  -3   5 1296.07  115.49   3
  -2  -3  -5 1480.83   94.35   3
  -2  -3  -5 1457.45  125.23   1
   2  -3   5 1216.19  138.24   4
  -2   3  -5 1364.28  123.01   2
   2   3   5 1297.01  116.18   1
  -2   3  -5 1460.55  143.20   1
   2   3   5 1692.86  111.65   4
   3  -3   5 351.536  65.282   3
   3  -3   5 228.499  67.015   4
  -3  -3  -5 340.338  92.927   2
  -3   3  -5 239.936  64.521   2
   3   3   5 245.029  55.868   1
   3   3   5 281.957  45.639   4
  -3   3  -5 272.435  68.419   1
  -4  -3  -5 2030.41  234.84   2
   4  -3   5 2469.35  187.45   3
   4  -3   5 2220.50  191.44   4
   4   3   5 2424.24  160.35   4
   4   3   5 2387.95  184.05   1
  -4   3  -5 2036.46  207.78   2
  -4   3  -5 2334.79  188.82   1
  -5  -3  -5 46.0763 76.8807   2
   5  -3   5 138.633  63.916   4
   5   3   5 36.9473 45.0405   1
  -5   3  -5 57.8925 50.5604   1
  -5   3  -5  7.9086 58.8636   2
   6  -3   5 211.257  70.072   1
  -6  -3  -5 177.896  96.374   2
   6   3   5 214.029  70.051   1
  -6   3  -5 111.125  66.128   1
  -6   3  -5 172.310  87.741   2
  -7  -3  -5  19.441 100.112   2
   7  -3   5 50.8264 60.6739   1
  -7   3  -5 72.8277 86.9007   2
   7   3   5 49.4699 61.4336   1
  -8  -4   5  1.0650 78.4285   3
   8  -4  -5 309.347 108.218   2
   8   4  -5 90.0788 94.2986   2
  -8   4   5 261.229 107.789   3
   7  -4  -5 925.408 148.983   2
  -7  -4   5 887.311 150.530   3
  -7   4   5 1084.52  168.43   3
   7   4  -5 833.613 116.750   1
   7   4  -5 1164.09  169.89   2
   6  -4  -5 424.831  99.388   2
  -6  -4   5 428.662  95.304   3
  -6   4   5 462.915 109.781   3
   6   4  -5 521.176 110.385   2
   6   4  -5 534.504  85.463   1
   5  -4  -5 -58.771  42.150   2
  -5  -4   5 21.1420 47.2756   3
  -5   4   5 55.6179 58.7540   3
  -5   4   5 -29.389  46.981   4
   5   4  -5 20.9481 55.4840   2
   5   4  -5 111.312  45.496   1
  -4  -4   5 667.425  97.306   3
   4  -4  -5 720.104  97.824   2
   4   4  -5 536.524  95.740   2
  -4   4   5 839.862 117.572   3
   4   4  -5 591.545  83.276   1
  -4   4   5 635.685  87.570   4
  -3  -4   5 1679.20  143.46   3
  -3  -4   5 1733.85  120.67   4
   3  -4  -5 1866.55  150.97   2
   3   4  -5 1825.27  142.78   1
  -3   4   5 2211.39  169.49   3
   3   4  -5 1911.93  150.57   2
  -3   4   5 1931.11  143.42   4
   2  -4  -5 525.109  73.583   2
  -2  -4   5 492.890  65.507   3
  -2  -4   5 566.539  62.442   4
  -2   4   5 469.569  77.460   3
   2   4  -5 426.704  67.392   1
  -2   4   5 531.479  68.737   4
   2   4  -5 448.637  60.760   2
  -1  -4   5 53.2608 26.6216   3
   1  -4  -5  0.9602 39.0401   2
  -1  -4   5 34.2751 36.4534   4
   1   4  -5 83.6643 42.1041   1
  -1   4   5 14.8124 20.6786   1
  -1   4   5 74.9632 41.0729   3
  -1   4   5 65.8141 32.9366   4
   1   4  -5 64.0675 24.5956   2
   0  -4   5 1232.27  121.35   4
   0  -4   5 1257.04   91.69   3
   0  -4  -5 1132.13   96.11   3
   0  -4  -5 1008.90  123.22   2
   0   4  -5 1186.15   85.60   2
   0   4   5 1141.95   96.14   4
   0   4  -5 1231.91  121.09   1
   0   4   5 1040.13   88.48   1
  -1  -4  -5 3933.39  307.54   2
   1  -4   5 4472.06  277.18   3
   1  -4   5 4338.88  298.80   4
  -1  -4  -5 4457.71  261.57   3
   1   4   5 4286.64  274.35   4
  -1   4  -5 4504.33  275.70   2
   1   4   5 4416.79  277.73   1
  -1   4  -5 5101.92  299.31   1
   2  -4   5 920.063 102.222   3
  -2  -4  -5 945.184  71.546   3
   2  -4   5 839.615 119.182   4
  -2  -4  -5 984.665 137.024   2
   2   4   5 1007.02   83.49   4
   2   4   5 909.892  99.030   1
  -2   4  -5 1026.67  116.47   1
  -2   4  -5 968.445 100.588   2
  -3  -4  -5 2057.91  212.37   2
   3  -4   5 1730.79  149.37   3
   3  -4   5 1463.34  171.32   4
   3   4   5 1849.91  131.79   4
   3   4   5 2029.87  152.30   1
  -3   4  -5 1862.45  176.75   1
  -3   4  -5 1986.02  159.32   2
  -4  -4  -5 65.5241 71.3635   2
   4  -4   5 -6.8682 51.8318   4
   4  -4   5 17.3709 46.9925   3
  -4   4  -5 13.8417 45.8750   1
   4   4   5 -25.341  30.656   1
  -4   4  -5 -16.473  50.952   2
   5  -4   5 400.827  92.526   4
  -5  -4  -5 791.406 147.825   2
   5   4   5 595.458  94.414   1
  -5   4  -5 549.180  95.822   1
  -5   4  -5 506.370 105.140   2
  -6  -4  -5 363.332 127.546   2
  -6   4  -5 325.363  97.975   2
  -6   4  -5 276.779  80.246   1
   6   4   5 406.140  89.960   1
  -7  -4  -5 -23.196  91.200   2
   7  -4   5 75.6922 63.7243   1
   7   4   5 117.828  66.838   1
   8  -5  -5 -14.328  72.679   2
  -8  -5   5 -11.867  75.688   3
  -8   5   5 41.6556 84.2944   3
   8   5  -5 -55.358  78.354   2
   7  -5  -5 562.905 112.992   2
  -7  -5   5 278.781  89.463   3
   7   5  -5 203.658  71.841   1
  -7   5   5 265.729 100.316   3
   7   5  -5 271.144 107.186   2
  -6  -5   5 22.7083 56.4562   3
   6  -5  -5 -24.733  48.487   2
   6   5  -5 90.3968 72.9443   2
   6   5  -5 -40.368  37.584   1
  -6   5   5  1.4103 69.5759   3
   5  -5  -5 1869.42  183.50   2
  -5  -5   5 1715.90  177.63   3
  -5   5   5 1687.32  173.36   4
  -5   5   5 1761.87  198.78   3
   5   5  -5 1712.96  147.75   1
   5   5  -5 1480.89  176.17   2
   4  -5  -5 25.3277 39.3779   2
  -4  -5   5 -27.069  30.851   3
  -4   5   5 36.1743 48.0283   4
   4   5  -5 113.507  57.055   2
  -4   5   5 -19.042  45.748   3
   4   5  -5 -21.691  33.086   1
  -3  -5   5 103.542  31.099   4
   3  -5  -5  9.7217 32.1357   2
  -3  -5   5 97.9332 43.4901   3
   3   5  -5 65.0576 37.4549   1
  -3   5   5  9.5804 46.9131   3
   3   5  -5 20.3865 37.4170   2
  -3   5   5 22.0368 39.3537   4
   2  -5  -5 31.7753 39.0566   2
  -2  -5   5 56.1208 35.0403   4
  -2  -5   5 88.7727 37.2916   3
  -2   5   5 -71.261  38.608   3
   2   5  -5 19.0116 35.7625   1
  -2   5   5 17.3431 30.3566   4
   2   5  -5 32.2361 31.2685   2
   1  -5  -5 9114.35  585.62   2
  -1  -5   5 9964.09  568.72   3
  -1  -5   5 9764.25  574.52   4
  -1   5   5 9351.94  542.61   1
  -1   5   5 9045.43  573.81   3
  -1   5   5 9343.36  567.11   4
   1   5  -5 9979.21  553.88   2
   1   5  -5 9877.03  574.04   1
   0  -5  -5 44.4837 36.4159   3
   0  -5  -5 49.4391 47.0917   2
   0  -5   5 12.1775 46.2881   4
   0  -5   5 111.435  34.595   3
   0   5   5 51.4532 35.3207   4
   0   5  -5 45.6052 40.8173   4
   0   5  -5 -13.312  34.791   1
   0   5   5 91.3649 29.3009   1
   0   5  -5 65.1427 22.5609   2
  -1  -5  -5 1369.83  157.12   2
   1  -5   5 1482.10  117.00   3
  -1  -5  -5 1544.74  102.76   3
  -1   5  -5 1447.94  142.84   1
  -1   5  -5 1381.14  140.09   4
  -1   5  -5 1465.97  105.42   2
   1   5   5 1459.20  113.56   4
   1   5   5 1305.56  110.31   1
   2  -5   5 96.6675 44.6750   3
  -2  -5  -5 43.2891 62.3576   2
  -2  -5  -5 61.1108 22.7229   3
  -2   5  -5 50.4354 49.5036   4
   2   5   5 19.5358 32.6254   1
   2   5   5 73.2928 34.6922   4
  -2   5  -5 33.2464 38.7712   2
  -2   5  -5 23.1628 47.3025   1
  -3  -5  -5 1987.01  225.92   2
   3  -5   5 2217.24  176.81   3
  -3   5  -5 2231.55  174.69   2
  -3   5  -5 2247.33  185.95   1
   3   5   5 2249.27  170.62   1
  -3   5  -5 2039.83  180.56   4
   3   5   5 2227.56  152.65   4
   4  -5   5 22.8173 50.0034   3
  -4  -5  -5 152.531  85.421   2
  -4   5  -5 22.2339 49.4135   2
  -4   5  -5 28.5674 44.7050   1
   4   5   5 -42.288  33.409   1
  -4   5  -5  8.8736 54.2320   4
   5  -5   5 246.420  81.928   4
  -5  -5  -5 282.565 109.492   2
  -5   5  -5 336.899  80.929   1
   5   5   5 219.495  69.103   1
  -6  -5  -5  77.367 100.733   2
   6  -5   5 -31.221  61.587   4
   6   5   5  1.8268 48.4185   1
  -6   5  -5 63.2080 59.9210   1
  -7  -5  -5 761.274 177.568   2
   7   5   5 802.011 127.906   1
   8  -6  -5 41.0751 83.6701   2
  -8  -6   5 129.517  89.834   3
   8   6  -5 90.3809 69.7117   1
   8   6  -5 146.753  97.651   2
  -8   6   5 236.270 111.492   3
  -7  -6   5 993.953 158.815   3
   7  -6  -5 1023.57  151.74   2
   7   6  -5 1011.36  165.28   2
   7   6  -5 1125.90  138.48   1
  -7   6   5 952.644 168.246   3
   6  -6  -5 15.7501 57.9547   2
  -6  -6   5 44.1853 63.5994   3
  -6   6   5 -7.9799 66.9485   4
  -6   6   5 50.4274 72.7203   3
   6   6  -5  7.8477 43.4932   1
   6   6  -5 56.9432 66.2069   2
  -5  -6   5 214.198  65.130   3
   5  -6  -5 184.387  61.486   2
  -5   6   5 186.186  86.104   3
   5   6  -5 104.686  67.136   2
   5   6  -5 101.604  52.320   1
  -5   6   5 170.581  67.232   4
   4  -6  -5 1026.98  122.91   2
  -4  -6   5 1090.80  126.90   3
  -4   6   5 1019.10  124.31   4
   4   6  -5 1168.24  122.00   1
  -4   6   5 830.176 131.687   3
   4   6  -5 924.991 121.168   2
  -3  -6   5 3067.92  211.42   3
  -3  -6   5 2765.65  186.67   4
   3  -6  -5 3074.83  213.35   2
   3   6  -5 2752.88  205.86   1
   3   6  -5 2789.78  207.65   2
  -3   6   5 2782.04  230.17   3
  -3   6   5 3123.30  214.41   4
  -2  -6   5 494.876  69.755   4
   2  -6  -5 523.242  78.262   2
  -2  -6   5 519.010  72.891   3
   2   6  -5 619.594  67.447   2
   2   6  -5 385.765  72.257   1
  -2   6   5 743.696 100.671   3
  -2   6   5 463.707  74.373   4
   1  -6  -5 20.2183 49.8900   2
  -1  -6   5 86.8115 50.4491   4
  -1  -6   5 105.327  35.069   3
   1  -6  -5 16.8285 40.7804   3
  -1   6   5 56.9283 20.0639   1
   1   6  -5 119.288  43.737   1
   1   6  -5 24.4821 19.6847   2
  -1   6   5 86.5273 40.0793   4
   0  -6   5 172.581  44.685   3
   0  -6  -5 264.676  57.703   3
   0  -6  -5 127.495  57.911   2
   0   6  -5 309.654  65.921   1
   0   6   5 208.694  40.090   1
   0   6   5 184.873  46.108   4
   0   6  -5 199.938  58.267   4
   1  -6   5 4583.35  283.87   3
  -1  -6  -5 4238.62  268.69   3
  -1  -6  -5 4170.95  312.64   2
  -1   6  -5 4287.45  296.24   4
   1   6   5 4094.41  274.58   4
   1   6   5 4174.79  270.92   1
  -1   6  -5 4853.52  300.49   1
  -2  -6  -5 203.538  83.061   2
   2  -6   5 196.586  57.181   3
  -2   6  -5 329.498  76.723   4
  -2   6  -5 304.970  70.251   1
   2   6   5 365.599  60.475   1
   2   6   5 400.957  57.723   4
  -3  -6  -5 907.865 150.628   2
   3  -6   5 784.632 114.030   3
  -3   6  -5 933.175 123.435   1
   3   6   5 888.194 107.032   1
  -3   6  -5 1076.54  132.66   4
   3   6   5 1041.98   96.17   4
   4  -6   5 92.8811 57.4368   3
  -4  -6  -5 109.854  87.110   2
   4   6   5 131.327  48.960   1
  -4   6  -5 51.5076 60.1679   4
  -4   6  -5 -14.202  52.818   1
  -5  -6  -5 1036.15  178.39   2
  -5   6  -5 727.300 128.782   4
  -5   6  -5 855.164 125.881   1
   5   6   5 1213.07  137.17   1
  -6  -6  -5 157.024 115.655   2
   6  -6   5 196.376  89.594   4
   6   6   5 393.641  86.010   1
  -6   6  -5 318.968  87.988   1
  -7  -6  -5  50.386 110.663   2
   7   6   5 149.670  69.831   1
  -8  -7   5 98.6979 91.5672   3
   8  -7  -5 227.063  92.973   2
   8   7  -5 191.209  82.085   1
   8   7  -5 298.194 127.412   2
   7  -7  -5 -14.582  55.346   2
  -7  -7   5 -48.236  53.787   3
  -7   7   5 -124.06   60.48   3
   7   7  -5 30.4270 81.9516   2
   7   7  -5 -37.166  48.579   1
   6  -7  -5 641.990 116.032   2
  -6  -7   5 876.118 133.174   3
   6   7  -5 547.144 125.151   2
  -6   7   5 974.375 155.683   3
  -6   7   5 1080.12  155.31   4
   6   7  -5 957.464 123.270   1
   5  -7  -5 515.327  91.329   2
  -5  -7   5 319.692  80.655   3
   5   7  -5 420.959  94.251   2
   5   7  -5 383.426  80.513   1
  -5   7   5 493.144 102.049   4
  -5   7   5 260.900  89.274   3
   4  -7  -5 891.565 112.383   2
  -4  -7   5 695.726 102.384   3
   4   7  -5 850.530 115.664   2
  -4   7   5 666.360 110.021   4
  -4   7   5 770.067 127.771   3
   4   7  -5 803.405 106.475   1
  -3  -7   5 80.2809 40.1781   3
   3  -7  -5 -0.5869 31.7495   2
   3   7  -5 17.1495 40.4710   2
  -3   7   5 71.6599 62.2847   3
  -3   7   5 77.6300 48.9691   4
   3   7  -5 -7.1459 35.8467   1
   2  -7  -5 839.338 122.853   3
  -2  -7   5 1179.07  117.21   3
  -2  -7   5 1069.34  113.09   4
   2  -7  -5 930.184 113.375   2
  -2   7   5 1027.08  129.25   3
  -2   7   5 1019.75  116.58   4
   2   7  -5 1125.69  120.37   1
   1  -7  -5 1557.33  147.67   3
  -1  -7   5 1364.89  119.17   3
   1  -7  -5 1066.14  143.17   2
  -1   7   5 1374.41  133.74   4
  -1   7   5 1399.18   92.76   1
   1   7  -5 1278.19  130.30   4
   1   7  -5 1413.21  140.95   1
   0  -7  -5 2805.31  221.64   2
   0  -7   5 2872.04  200.70   3
   0  -7  -5 2851.22  206.91   3
   0   7   5 2670.11  200.90   4
   0   7   5 2903.00  184.34   1
   0   7  -5 2947.44  218.70   1
   0   7  -5 3035.08  216.20   4
  -1  -7  -5 90.1032 64.6848   2
  -1  -7  -5 81.5201 40.0699   3
   1  -7   5 117.788  44.503   3
   1   7   5 120.986  36.738   1
  -1   7  -5 59.1140 53.0798   1
  -1   7  -5 87.7620 50.6559   4
   1   7   5 129.345  42.835   4
  -2  -7  -5 353.817  94.738   2
   2  -7   5 260.077  64.196   3
   2   7   5 287.951  55.807   4
  -2   7  -5 269.009  74.565   1
   2   7   5 321.298  57.540   1
  -2   7  -5 252.868  75.487   4
  -3  -7  -5 676.712 137.009   2
   3  -7   5 575.752 102.452   3
  -3   7  -5 563.724 101.979   1
  -3   7  -5 611.434 109.347   4
   3   7   5 773.407  83.653   4
   3   7   5 623.679  87.207   1
  -4  -7  -5 1564.47  212.62   2
   4  -7   5 1042.49  146.16   3
  -4   7  -5 1349.00  156.55   1
  -4   7  -5 1278.77  164.18   4
   4   7   5 1378.58  144.05   1
  -5  -7  -5 153.655 112.265   2
  -5   7  -5 211.672  84.475   4
  -5   7  -5 174.520  77.806   1
   5   7   5 147.793  61.777   1
  -6  -7  -5 303.937 136.055   2
   6  -7   5 120.583  81.135   4
   6   7   5 114.547  60.108   1
  -6   7  -5 78.0355 76.4952   4
  -7  -7  -5  -0.854 114.845   2
   7   7   5 16.2000 61.8774   1
   7  -8  -5 -6.9604 64.7702   2
  -7  -8   5 -1.8249 66.5095   3
   7   8  -5 34.8943 84.1229   2
  -7   8   5 -5.1404 86.6736   3
   7   8  -5 93.5641 63.2339   1
   6  -8  -5 681.945 115.084   2
  -6  -8   5 758.519 125.640   3
   6   8  -5 731.868 139.220   2
   6   8  -5 936.376 127.246   1
  -6   8   5 607.377 126.852   4
  -6   8   5 785.078 148.773   3
   5  -8  -5 20.7607 49.3156   2
  -5  -8   5 155.898  66.209   3
   5   8  -5 112.160  70.881   2
  -5   8   5 156.684  81.166   3
  -5   8   5 121.136  68.953   4
   5   8  -5 139.732  58.212   1
  -4  -8   5 508.302  89.283   3
   4  -8  -5 609.708  92.844   2
   4   8  -5 397.773  78.681   1
  -4   8   5 753.529 131.878   3
  -4   8   5 518.839  99.639   4
  -3  -8   5 1074.44  125.22   3
   3  -8  -5 1126.17  124.20   2
  -3   8   5 970.524 127.085   4
   3   8  -5 963.867 119.634   1
  -3   8   5 1238.63  153.95   3
   2  -8  -5 704.546 102.077   2
   2  -8  -5 573.227 105.137   3
  -2  -8   5 775.001  98.604   3
  -2  -8   5 627.622  93.906   4
   2   8  -5 744.043 100.457   1
   2   8  -5 827.695  94.745   4
  -2   8   5 727.267 102.900   4
   1  -8  -5 495.584  97.561   2
   1  -8  -5 567.498  89.742   3
  -1  -8   5 630.450  84.513   3
  -1   8   5 453.387  79.046   4
   1   8  -5 333.262  72.023   1
   1   8  -5 528.365  83.916   4
   0  -8  -5 2128.01  163.97   3
   0  -8  -5 1833.60  186.57   2
   0  -8   5 1933.25  155.69   3
   0   8   5 2172.79  162.66   4
   0   8  -5 2168.77  175.33   1
   0   8   5 1841.80  136.87   1
   0   8  -5 2005.08  170.98   4
  -1  -8  -5 26.5887 57.3655   2
   1  -8   5 63.1802 42.6405   3
  -1  -8  -5 63.8801 39.4278   3
  -1   8  -5 90.6093 53.0913   4
   1   8   5 46.9150 39.4604   4
  -1   8  -5 111.194  54.679   1
   1   8   5 78.2613 32.2937   1
   2  -8   5 3650.63  249.21   3
  -2  -8  -5 3658.16  283.85   2
   2   8   5 3235.85  226.70   1
  -2   8  -5 3467.02  258.73   4
   2   8   5 3169.10  228.20   4
  -2   8  -5 3006.82  249.12   1
   3  -8   5 136.678  63.091   3
  -3  -8  -5 45.4030 78.7632   2
  -3   8  -5 -88.586  51.368   1
  -3   8  -5 142.371  68.985   4
   3   8   5 17.9252 37.7857   4
   3   8   5 77.1941 43.1564   1
   4  -8   5 445.451 100.723   3
  -4  -8  -5 227.899 100.278   2
   4   8   5 461.076  82.537   1
  -4   8  -5 140.139  78.908   4
  -4   8  -5 157.224  74.101   1
   5  -8   5 26.9931 69.3510   3
  -5  -8  -5 114.360  99.982   2
   5   8   5 90.2592 58.1147   1
  -5   8  -5 132.343  84.067   4
  -5   8  -5 76.7442 66.6845   1
  -6  -8  -5 1101.33  213.43   2
  -6   8  -5 1599.86  201.07   4
   6   8   5 1572.46  172.66   1
   7  -9  -5 104.916  79.682   2
  -7  -9   5 48.8614 78.4349   3
  -7   9   5 248.566 112.703   3
   7   9  -5 147.014  73.407   1
   6  -9  -5 505.623  99.683   2
  -6  -9   5 277.370  95.766   3
  -6   9   5 252.909 105.568   4
  -6   9   5 270.504 111.512   3
   6   9  -5 416.982  93.506   1
   5  -9  -5 1334.33  154.15   2
  -5  -9   5 1276.19  160.31   3
  -5   9   5 1509.96  198.14   3
  -5   9   5 1356.58  173.34   4
   5   9  -5 1346.62  154.91   1
  -4  -9   5 453.253  90.582   3
   4  -9  -5 397.926  80.153   2
   4   9  -5 411.689  83.592   1
  -4   9   5 224.182  77.277   4
  -4   9   5 576.335 119.898   3
   3  -9  -5 67.8191 71.3105   3
  -3  -9   5 11.7230 46.9116   3
   3  -9  -5 25.3215 43.6497   2
   3   9  -5 -30.372  32.912   1
  -3   9   5 19.1573 45.8646   4
   2  -9  -5 350.709  78.665   2
   2  -9  -5 188.197  76.459   3
  -2  -9   5 156.132  55.500   3
  -2   9   5 223.941  68.900   4
   2   9  -5 342.258  69.599   4
   2   9  -5 334.522  70.680   1
   1  -9  -5 1105.41  139.37   2
   1  -9  -5 829.338 119.963   3
  -1  -9   5 984.185 116.744   3
   1   9  -5 1133.02  125.37   1
   1   9  -5 951.178 120.892   4
  -1   9   5 965.181 121.587   4
   0  -9   5 258.172  61.091   3
   0  -9  -5 301.338  65.618   3
   0  -9  -5 356.816  83.229   2
   0   9   5 314.373  48.734   1
   0   9  -5 266.993  76.391   1
   0   9  -5 277.635  73.925   4
   0   9   5 281.107  67.489   4
  -1  -9  -5 -11.047  35.289   3
  -1  -9  -5 34.6049 61.3555   2
   1  -9   5 -31.509  31.992   3
   1   9   5 59.6921 36.7963   1
   1   9   5 -26.340  40.342   4
  -1   9  -5 -40.009  44.562   1
  -1   9  -5 61.0468 54.4105   4
   2  -9   5 973.827 123.456   3
  -2  -9  -5 1057.45  158.88   2
   2   9   5 1039.52  109.92   1
  -2   9  -5 990.702 137.906   1
   2   9   5 1186.20  120.54   4
  -2   9  -5 781.314 133.102   4
  -3  -9  -5 1507.44  208.03   2
   3  -9   5 1455.23  166.47   3
   3   9   5 1551.48  148.37   1
  -3   9  -5 1401.08  175.82   4
  -3   9  -5 1583.37  179.08   1
   4  -9   5 907.126 146.160   3
  -4  -9  -5 1016.50  182.97   2
  -4   9  -5 1184.56  154.77   1
   4   9   5 1288.69  137.80   1
  -4   9  -5 969.354 152.613   4
   5  -9   5 801.315 138.693   3
  -5  -9  -5 439.405 152.687   2
   5   9   5 711.361 109.385   1
  -5   9  -5 478.610 118.204   4
  -6  -9  -5 -86.911 110.497   2
   6   9   5 28.2516 57.7217   1
  -6   9  -5 -29.152  78.137   4
  -7 -10   5 1235.47  181.85   3
   7 -10  -5 679.179 130.586   2
  -7  10   5 869.288 177.655   3
   7  10  -5 695.205 128.166   1
  -6 -10   5 23.3060 65.8635   3
   6 -10  -5 113.238  70.136   2
  -6  10   5 53.7401 86.2594   3
  -6  10   5 -64.304  75.994   4
   6  10  -5 53.5468 60.8806   1
  -5 -10   5 100.779  64.606   3
   5 -10  -5 112.470  64.572   2
   5  10  -5 191.943  70.526   1
  -5  10   5 124.251  86.244   3
  -5  10   5 -12.507  68.445   4
   4 -10  -5 36.1809 81.2561   3
  -4 -10   5 80.0352 54.5988   3
   4 -10  -5 -15.460  49.211   2
   4  10  -5 149.400  59.171   1
  -4  10   5 25.4738 62.8033   4
   3 -10  -5 3076.72  227.89   2
  -3 -10   5 2943.40  229.98   3
   3 -10  -5 2281.88  257.21   3
   3  10  -5 3080.07  227.28   1
  -3  10   5 2697.14  237.06   4
  -2 -10   5 115.315  57.316   3
   2 -10  -5 34.9218 59.8212   2
   2 -10  -5 58.9417 65.1192   3
   2  10  -5 59.8505 51.0869   1
   2  10  -5 75.0374 56.5632   4
  -2  10   5  4.1447 51.2163   4
  -1 -10   5  0.8175 36.8481   3
   1 -10  -5 84.9102 56.8633   2
   1 -10  -5 46.1752 57.0229   3
   1  10  -5 -65.930  43.170   4
   1  10  -5 99.6976 51.6678   1
  -1  10   5 48.2792 51.5565   4
   0 -10  -5  2.1507 43.9867   3
   0 -10   5 50.1238 45.6999   3
   0 -10  -5 103.207  60.087   2
   0  10   5 40.8937 49.2231   4
   0  10  -5 -52.008  49.593   4
   0  10  -5 -32.188  41.036   1
  -1 -10  -5 2166.28  166.75   3
  -1 -10  -5 1937.90  211.79   2
   1 -10   5 1940.38  168.43   3
  -1  10  -5 2148.56  211.00   4
  -1  10  -5 1833.40  193.37   1
   1  10   5 1994.96  151.41   1
   1  10   5 1977.28  167.68   4
   2 -10   5 -15.144  41.916   3
  -2 -10  -5 54.6809 67.5733   2
  -2  10  -5 62.3068 69.0646   4
   2  10   5 37.9749 38.1363   1
   2  10   5 16.3427 47.9271   4
  -2  10  -5 -24.785  51.035   1
   3 -10   5 108.552  63.916   3
  -3 -10  -5 257.370 103.584   2
   3  10   5 191.476  56.788   1
  -3  10  -5 146.568  82.644   4
  -3  10  -5 392.188  96.647   1
   4 -10   5 -26.267  64.180   3
  -4 -10  -5 196.110 102.146   2
  -4  10  -5 75.6492 77.9706   1
  -4  10  -5 98.0838 80.2086   4
   4  10   5 27.6335 45.2010   1
   5 -10   5 1465.99  194.24   3
  -5 -10  -5 1177.13  217.38   2
  -5  10  -5 905.250 164.173   4
   5  10   5 1560.70  167.32   1
  -6 -10  -5 -41.703 118.500   2
  -6  10  -5  6.3906 88.2239   4
   6  10   5 204.911  73.159   1
   6 -11  -5 -37.054 101.163   3
  -6 -11   5 76.4583 78.6626   3
  -6  11   5 59.6095 92.5585   4
   6  11  -5 247.826  80.074   1
   5 -11  -5 1640.82  179.96   2
   5 -11  -5 1705.13  235.22   3
  -5 -11   5 1571.23  194.99   3
   5  11  -5 1697.07  180.02   1
  -5  11   5 1460.98  201.93   4
   4 -11  -5 367.923 115.643   3
  -4 -11   5 120.818  66.601   3
   4 -11  -5 39.5168 58.8028   2
   4  11  -5 94.1557 55.6165   1
  -4  11   5 55.8575 70.0597   4
  -3 -11   5 129.157  63.307   3
   3 -11  -5 -42.999  50.001   2
   3 -11  -5 -11.003  59.158   3
  -3  11   5 104.593  70.556   4
   3  11  -5 -3.7816 43.1265   1
   2 -11  -5 78.0180 66.3916   3
   2 -11  -5 75.7086 64.5852   2
  -2 -11   5 25.9762 48.1422   3
   2  11  -5 79.7760 60.2941   4
   2  11  -5 57.4929 55.2536   1
  -2  11   5 -17.222  54.323   4
   1 -11  -5 2034.73  204.37   2
  -1 -11   5 2414.28  190.02   3
   1 -11  -5 1962.45  204.61   3
  -1  11   5 2213.06  193.13   4
   1  11  -5 2036.57  203.32   4
   1  11  -5 2236.87  187.14   1
   0 -11  -5 173.299  71.133   2
   0 -11  -5 136.776  54.829   3
   0 -11   5 121.586  56.682   3
   0  11  -5 68.6353 52.2160   1
   0  11   5 112.265  60.436   4
   0  11  -5 86.8085 74.0402   4
   1 -11   5 90.8251 53.5261   3
  -1 -11  -5 63.9818 65.6367   2
  -1 -11  -5 177.700  55.853   3
  -1  11  -5 -37.287  59.675   4
  -1  11  -5 -3.0548 59.0070   1
   1  11   5 27.7594 47.0569   4
   1  11   5 83.9674 41.1707   1
  -2 -11  -5 87.3056 77.9461   2
   2 -11   5 119.370  55.181   3
   2  11   5 291.692  60.751   1
  -2  11  -5 87.8639 75.5209   4
   2  11   5 196.473  65.178   4
  -2  11  -5 220.192  78.160   1
   3 -11   5 1667.74  185.59   3
  -3 -11  -5 1796.87  230.36   2
  -3  11  -5 1615.00  191.40   1
  -3  11  -5 1338.58  186.85   4
   3  11   5 1552.92  156.51   1
   4 -11   5 191.719  84.259   3
  -4 -11  -5 291.895 123.474   2
  -4  11  -5 363.316 110.330   4
   4  11   5 378.039  82.615   1
  -5 -11  -5 573.529 167.767   2
   5 -11   5 320.683 113.441   3
   5  11   5 639.478 109.071   1
  -5  11  -5 470.762 127.257   4
  -6  11  -5 -55.946  88.127   4
   6 -12  -5 186.619 121.666   3
  -6 -12   5 253.019 101.159   3
   6  12  -5 371.435  91.655   1
  -6  12   5 263.967 122.002   4
  -5 -12   5 10.0463 63.0001   3
   5 -12  -5 16.4380 92.4290   3
  -5  12   5 105.130  92.027   4
   5  12  -5  3.2796 49.9478   1
  -4 -12   5 440.502  99.010   3
   4 -12  -5 178.163  96.718   3
  -4  12   5 334.559 104.252   4
   4  12  -5 380.556  82.704   1
  -3 -12   5 788.563 130.043   3
   3 -12  -5 1115.79  151.55   2
   3 -12  -5 1270.71  178.11   3
  -3  12   5 1142.28  163.45   4
   3  12  -5 861.373 129.168   1
   2 -12  -5 543.947 120.344   3
   2 -12  -5 628.431 117.612   2
  -2 -12   5 486.446  98.834   3
  -2  12   5 569.720 115.120   4
   2  12  -5 620.257 104.701   1
   1 -12  -5 57.6129 57.4710   3
   1 -12  -5 94.6501 62.0052   2
  -1 -12   5 119.557  55.546   3
   1  12  -5 19.7216 50.4819   1
   1  12  -5 16.7491 61.0362   4
  -1  12   5 58.9375 59.1595   4
   0 -12  -5 617.219 102.158   3
   0 -12  -5 657.146 117.347   2
   0 -12   5 869.242 115.101   3
   0  12   5 393.669  95.950   4
   0  12  -5 588.234 109.778   1
   0  12  -5 472.831 103.838   4
  -1 -12  -5 603.345 123.280   2
   1 -12   5 508.522  93.644   3
  -1  12  -5 672.731 116.006   1
   1  12   5 672.574 107.705   4
  -1  12  -5 482.510 111.922   4
   2 -12   5 1109.28  139.83   3
  -2 -12  -5 1294.48  183.87   2
  -2  12  -5 1257.21  162.81   1
  -2  12  -5 812.406 142.098   4
   2  12   5 949.820 118.597   1
  -3 -12  -5 26.4173 92.5377   2
   3 -12   5 43.8187 59.6264   3
   3  12   5 78.4236 50.6081   1
  -3  12  -5 18.5804 71.6696   4
  -4 -12  -5 285.865 124.249   2
   4 -12   5 167.619  82.754   3
  -4  12  -5 46.1786 88.6831   4
   4  12   5 251.005  71.183   1
  -5 -12  -5 230.843 135.176   2
   5 -12   5 57.1322 83.6409   3
   5  12   5 151.273  69.402   1
  -5  12  -5 43.7718 91.3684   4
  -5 -13   5 24.9153 67.5166   3
   5 -13  -5 -124.71   84.48   3
  -5  13   5 53.7069 93.9550   4
   5  13  -5 14.8893 59.6580   1
  -4 -13   5 578.422 119.678   3
   4 -13  -5 865.045 168.712   3
   4  13  -5 452.290 101.141   1
  -4  13   5 556.679 131.224   4
   3 -13  -5 77.5665 90.1242   3
  -3 -13   5 23.1992 53.8788   3
   3  13  -5 50.6084 58.1107   1
  -3  13   5 63.4590 74.1407   4
   2 -13  -5 667.968 131.211   3
  -2 -13   5 553.989 107.521   3
  -2  13   5 464.155 114.070   4
   2  13  -5 555.770 101.551   1
  -1 -13   5 -10.582  49.869   3
   1 -13  -5 17.6325 57.0071   3
   1  13  -5 55.0351 70.6301   4
  -1  13   5 76.1268 70.4860   4
   1  13  -5 65.8223 53.5313   1
   0 -13  -5 1706.96  165.75   3
   0 -13   5 1379.89  158.73   3
   0 -13  -5 1538.84  181.33   2
   0  13   5 1188.40  162.90   4
   0  13  -5 1195.73  168.85   4
   0  13  -5 1027.99  152.52   1
   1 -13   5 47.9238 51.9443   3
  -1 -13  -5 24.7562 76.8993   2
   1  13   5 -5.9032 62.9026   4
  -1  13  -5 -11.987  64.630   4
  -1  13  -5 21.2814 65.1612   1
  -2 -13  -5 414.412 112.840   2
   2 -13   5 118.866  65.028   3
  -2  13  -5 231.742 101.072   4
  -2  13  -5 269.306  95.040   1
   3 -13   5 26.5585 63.2032   3
  -3 -13  -5 -14.978  91.526   2
  -3  13  -5 -15.423  73.700   4
   3  13   5 -6.3156 48.9102   1
   4 -13   5 1040.38  159.14   3
  -4 -13  -5 1441.74  223.84   2
   4  13   5 963.704 130.665   1
  -4  13  -5 703.092 155.264   4
   5 -13   5 20.9553 78.2014   3
  -5 -13  -5 -169.98  103.95   2
   5  13   5 -22.612  57.825   1
  -4 -14   5 616.978 130.123   3
   4 -14  -5 803.118 166.485   3
   4  14  -5 565.432 114.800   1
  -4  14   5 771.329 154.734   4
  -3 -14   5 365.780 103.933   3
   3 -14  -5 280.520 112.321   3
   3  14  -5 406.137  98.522   1
  -3  14   5 508.879 126.374   4
  -2 -14   5 304.906  93.209   3
   2 -14  -5 408.445 102.786   3
   2  14  -5 521.294 105.229   1
  -2  14   5 545.347 123.228   4
   1 -14  -5 97.5645 63.1823   3
  -1 -14   5 -4.3549 55.3495   3
  -1  14   5 127.355  76.517   4
   1  14  -5 44.7576 61.1177   1
   1  14  -5 -5.4291 68.2769   4
   0 -14   5 366.997  88.247   3
   0 -14  -5 230.603  77.008   3
   0  14  -5 264.568  87.727   1
   0  14  -5 201.301  94.260   4
   0  14   5 261.726  94.454   4
   1 -14   5 634.836 110.845   3
   1  14   5 489.523 112.367   4
  -1  14  -5 699.431 132.913   1
  -1  14  -5 825.174 145.291   4
   2 -14   5 314.389  85.264   3
  -2  14  -5 328.998 111.631   4
   3 -14   5 269.781  84.085   3
  -3  14  -5 157.734  96.426   4
   3  14   5 133.854  64.678   1
   4 -14   5 104.965  85.147   3
   4  14   5 220.923  79.194   1
   4 -15  -5  39.252 101.582   3
   4  15  -5 79.2003 69.3005   1
   3 -15  -5 58.4055 86.0746   3
  -3 -15   5 60.0724 75.4482   3
   3  15  -5 37.1808 61.5704   1
  -3  15   5 53.8357 92.7905   4
   2 -15  -5 -74.546  62.897   3
  -2 -15   5 280.340  87.160   3
   2  15  -5  8.1728 61.8468   1
  -2  15   5 90.9474 90.3887   4
  -1 -15   5 1958.69  203.57   3
   1 -15  -5 1937.48  204.34   3
  -1  15   5 1535.25  205.51   4
   1  15  -5 1581.18  194.81   1
   0 -15  -5 70.9505 64.3454   3
   0 -15   5 49.6379 61.7233   3
   0  15   5 -20.236  71.938   4
   0  15  -5 -50.891  54.933   1
   0  15  -5 90.0433 83.8927   4
   1 -15   5 90.3880 58.9434   3
   1  15   5 139.551  91.449   4
  -1  15  -5 260.294  95.302   1
  -1  15  -5 143.452  87.611   4
   2 -15   5  9.0184 57.2841   3
  -2  15  -5 48.0569 90.1468   4
   3 -15   5 677.277 123.094   3
  -3  15  -5 636.164 149.588   4
   3 -16  -5 911.005 168.711   3
  -2 -16   5 158.542  81.800   3
   2 -16  -5 282.391 103.347   3
  -2  16   5 338.049 122.310   4
   2  16  -5 268.762  90.711   1
  -1 -16   5 39.2241 67.1992   3
   1 -16  -5 64.5440 73.9650   3
  -1  16   5 111.397  93.713   4
   1  16  -5 -20.982  68.397   1
   0 -16   5 -34.264  52.669   3
   0  16   5 -35.163  79.724   4
   0  16  -5 -2.6780 70.7298   1
   0  16  -5 55.7235 89.7017   4
   1 -16   5 1301.49  163.17   3
  -1  16  -5 793.644 161.272   4
   2 -16   5 45.1298 67.4632   3
  -2  16  -5 51.8420 88.5356   4
   1 -17  -5 471.054 111.195   3
   1  17  -5 238.904 101.171   1
   0  17  -5 265.994 124.492   4
   0  17   5 675.894 153.713   4
   8   0  -6 1341.18  189.22   2
  -8   0   6 946.986 169.183   3
   7   0  -6 -29.092  57.141   2
  -7   0   6 84.2801 74.8652   3
   6   0  -6 230.748  77.364   2
  -6   0   6 188.300  82.485   3
   5   0  -6 32.6204 48.9799   2
  -5   0   6 44.6941 58.5208   3
   4   0  -6 2104.06  174.92   2
  -4   0   6 2131.02  144.67   4
   4   0  -6 2061.48  147.14   1
  -4   0   6 2072.84  178.45   3
   3   0  -6 29.5488 36.3007   2
   3   0  -6 -28.094  25.077   1
  -3   0   6 -5.0815 23.8275   4
  -3   0   6 -13.135  34.206   3
   2   0  -6 164.227  44.225   2
   2   0  -6 143.444  39.972   1
  -2   0   6 165.361  35.059   4
  -2   0   6 114.826  42.340   3
   1   0  -6 -1.3088 31.0148   1
  -1   0   6 -8.6077 23.5141   4
   1   0  -6 -23.689  31.336   2
  -1   0   6 -11.938  25.778   3
   0   0  -6 3550.74  237.31   1
   0   0   6 3647.39  212.67   3
   0   0  -6 3154.12  242.75   2
   0   0   6 3669.14  228.87   4
  -1   0  -6 89.4377 42.9672   1
   1   0   6 -34.564  22.589   4
  -1   0  -6 45.8391 46.9874   2
  -2   0  -6 1652.15  159.16   2
  -2   0  -6 1490.46  143.99   1
   2   0   6 1309.37  116.79   4
   3   0   6 -3.9804 31.3498   4
  -3   0  -6 -15.433  37.758   1
  -3   0  -6 -29.062  48.168   2
   4   0   6 1080.57  114.79   4
  -4   0  -6 840.575 135.855   2
  -4   0  -6 1310.62  141.15   1
   5   0   6  4.3964 43.4468   1
  -5   0  -6 -23.167  65.003   2
   6   0   6 916.871 132.791   1
  -6   0  -6 854.100 153.153   2
   7   0   6  5.6157 58.8720   1
  -7   0  -6 -61.005  81.104   2
  -8  -1   6 32.2251 72.8127   3
   8  -1  -6 -25.706  73.306   2
   8   1  -6 13.0975 75.5469   2
  -8   1   6 60.7884 83.2763   3
  -7  -1   6 567.888 122.352   3
   7  -1  -6 714.744 128.459   2
  -7   1   6 284.321 100.884   3
   7   1  -6 396.031 107.193   2
  -6  -1   6 1438.45  179.14   3
   6  -1  -6 1587.54  182.08   2
   6   1  -6 1346.43  173.37   2
  -6   1   6 1651.73  193.46   3
   5  -1  -6 878.805 119.414   2
  -5  -1   6 723.167 115.102   3
   5   1  -6 803.190  89.625   1
  -5   1   6 805.249 120.903   3
   5   1  -6 728.860 115.106   2
   4  -1  -6 128.306  35.645   1
   4  -1  -6 21.7293 42.2720   2
  -4  -1   6 115.547  34.182   4
  -4  -1   6 186.731  62.428   3
   4   1  -6 76.3493 49.2790   2
   4   1  -6 122.420  38.411   1
  -4   1   6 125.492  38.886   4
  -4   1   6 88.9905 52.3212   3
  -3  -1   6 -43.810  36.445   3
   3  -1  -6 23.9569 28.4183   1
   3  -1  -6 39.5049 39.8892   2
  -3  -1   6 31.4217 25.1002   4
   3   1  -6  5.1481 28.5602   1
   3   1  -6 -25.443  36.017   2
  -3   1   6 24.7018 25.0395   4
  -3   1   6 -15.479  34.489   3
  -2  -1   6 2493.66  170.10   3
   2  -1  -6 2225.70  158.71   1
   2  -1  -6 2126.70  167.57   2
  -2  -1   6 2527.45  156.27   4
  -2   1   6 2377.43  157.99   4
  -2   1   6 2592.08  172.67   3
   2   1  -6 2196.14  165.03   1
   2   1  -6 2271.49  166.09   2
  -1  -1   6 2559.20  168.24   4
   1  -1  -6 2529.01  171.28   1
   1  -1  -6 2717.31  183.17   2
  -1  -1   6 2513.82  167.10   3
  -1   1   6 2686.93  168.49   4
   1   1  -6 2344.97  176.57   1
  -1   1   6 2365.77  166.27   3
   1   1  -6 2331.45  173.23   2
   0  -1  -6 1152.12  124.40   2
   0  -1  -6 1207.74  112.49   1
   0  -1   6 1306.48  101.63   4
   0  -1   6 1139.86   81.36   3
   0   1  -6 867.185 107.277   1
   0   1   6 1115.21   94.06   4
   0   1  -6 1062.22  113.08   2
   0   1   6 1153.16   81.17   3
  -1  -1  -6 97.6937 45.0320   1
   1  -1   6 100.017  39.615   4
   1  -1   6 97.1668 18.1638   3
  -1  -1  -6 91.1129 51.8340   2
  -1   1  -6 98.3853 49.3810   1
  -1   1  -6 111.875  50.949   2
   1   1   6 119.447  35.151   4
  -2  -1  -6 4534.41  290.71   2
   2  -1   6 3797.72  230.58   3
   2  -1   6 4298.97  264.69   4
  -2  -1  -6 3798.34  261.61   1
   2   1   6 3716.06  247.97   4
  -2   1  -6 3438.85  260.70   1
  -2   1  -6 3679.74  269.56   2
   3  -1   6 458.438  77.416   4
  -3  -1  -6 619.561  90.426   1
  -3  -1  -6 553.794 108.902   2
  -3   1  -6 558.068  92.335   1
  -3   1  -6 669.310 105.741   2
   3   1   6 533.183  70.612   4
  -4  -1  -6 947.162 144.380   2
  -4  -1  -6 972.476 121.648   1
   4  -1   6 950.066 109.520   4
  -4   1  -6 696.766 107.495   1
   4   1   6 732.869  87.758   4
  -4   1  -6 605.924 114.075   2
  -5  -1  -6 104.980  75.313   2
   5  -1   6 23.8594 47.1448   4
   5   1   6 -57.841  35.184   1
  -5   1  -6 58.6014 68.1247   2
  -5   1  -6 -6.1370 50.4445   1
   6  -1   6 599.530 105.039   1
  -6  -1  -6 625.803 139.304   2
   6   1   6 438.598  94.166   1
  -6   1  -6 545.930 123.360   2
   7  -1   6 591.857 108.722   1
  -7  -1  -6 245.869 110.485   2
   7   1   6 537.655 110.921   1
  -7   1  -6 273.957 115.112   2
   8  -2  -6 78.2536 83.0958   2
  -8  -2   6 -29.619  76.244   3
  -8   2   6 -4.2605 70.2093   3
   8   2  -6 177.375 100.599   2
  -7  -2   6 589.618 122.274   3
   7  -2  -6 586.459 119.095   2
   7   2  -6 468.633 118.246   2
  -7   2   6 259.057 104.825   3
  -6  -2   6 -5.7181 56.7676   3
   6  -2  -6  4.9088 50.4071   2
  -6   2   6 60.6039 70.0063   3
   6   2  -6 86.3505 46.6952   1
   6   2  -6 27.0943 62.0584   2
  -5  -2   6 2161.43  199.52   3
   5  -2  -6 1510.17  174.40   2
  -5   2   6 1771.34  194.22   3
  -5   2   6 1866.86  147.29   4
   5   2  -6 1905.15  189.81   2
   5   2  -6 1682.60  141.98   1
  -4  -2   6 76.8199 49.1352   3
   4  -2  -6 110.838  53.884   2
  -4   2   6 153.562  47.258   4
   4   2  -6 159.389  43.919   1
  -4   2   6 176.211  65.424   3
   4   2  -6 117.556  53.330   2
   3  -2  -6 5852.71  352.34   1
   3  -2  -6 5866.21  384.98   2
  -3  -2   6 5538.75  379.89   3
  -3  -2   6 5939.48  355.32   4
   3   2  -6 6169.56  383.40   2
  -3   2   6 6044.86  389.55   3
   3   2  -6 6431.92  371.93   1
  -3   2   6 6297.43  367.26   4
  -2  -2   6 36.3864 31.4215   3
   2  -2  -6 110.392  31.196   1
   2  -2  -6 46.6693 35.1267   2
  -2  -2   6 30.9640 24.4686   4
   2   2  -6 17.1472 31.5736   1
   2   2  -6 14.2552 28.8291   2
  -2   2   6 17.7036 25.8910   4
  -2   2   6  7.0422 35.5842   3
  -1  -2   6 367.580  49.434   3
   1  -2  -6 369.914  67.893   2
   1  -2  -6 304.252  50.561   1
  -1  -2   6 280.477  48.833   4
   1   2  -6 277.101  50.578   2
  -1   2   6 448.725  60.009   3
   1   2  -6 464.193  68.383   1
  -1   2   6 321.704  49.883   4
   0  -2   6 1483.99  117.66   4
   0  -2  -6 1367.65  115.14   1
   0  -2  -6 1366.15  145.85   2
   0  -2   6 1382.37   98.66   3
   0   2  -6 1280.17  115.92   2
   0   2  -6 1592.15  130.19   1
   0   2   6 1441.63   98.14   3
   0   2   6 1562.09  111.36   4
  -1  -2  -6 2899.90  219.39   2
   1  -2   6 2772.23  172.41   3
   1  -2   6 2304.26  197.05   4
  -1  -2  -6 2953.47  201.14   1
  -1   2  -6 3089.72  202.66   2
  -1   2  -6 2877.61  208.22   1
   1   2   6 2881.59  188.42   4
  -2  -2  -6 26.7569 38.0754   1
   2  -2   6 101.053  50.205   4
  -2  -2  -6 101.303  60.075   2
   2  -2   6 95.2015 31.5564   3
   2   2   6 102.633  35.363   4
  -2   2  -6 123.279  50.633   2
  -2   2  -6 175.865  55.602   1
  -3  -2  -6 92.9862 45.9163   1
   3  -2   6 -4.8803 38.5623   4
  -3  -2  -6  0.0861 59.4534   2
  -3   2  -6 129.799  53.352   1
  -3   2  -6 86.5670 52.1200   2
   3   2   6 26.2087 30.1409   4
  -4  -2  -6 341.772  98.532   2
   4  -2   6 304.224  69.795   4
   4   2   6 66.7741 48.0326   1
  -4   2  -6 270.804  72.565   1
  -4   2  -6 182.189  76.490   2
   4   2   6 207.705  46.282   4
  -5  -2  -6 2563.56  261.41   2
   5  -2   6 2007.58  185.15   4
  -5   2  -6 2080.80  207.80   1
  -5   2  -6 2508.90  240.57   2
   5   2   6 2313.58  194.61   1
  -6  -2  -6 -8.6984 85.1944   2
   6  -2   6 82.2682 62.0689   1
  -6   2  -6 223.912  88.889   2
   6   2   6 138.345  66.199   1
  -7  -2  -6 14.2078 88.9197   2
   7  -2   6 57.5283 66.9346   1
   7   2   6 -52.869  52.100   1
  -7   2  -6 13.8689 81.1634   2
   8  -3  -6 -6.2002 74.0711   2
  -8  -3   6 -13.040  78.001   3
   8   3  -6 70.6707 87.6500   2
  -8   3   6 -67.732  69.650   3
   7  -3  -6 443.798 108.459   2
  -7  -3   6 631.838 126.664   3
   7   3  -6 516.239 122.720   2
  -7   3   6 536.964 131.090   3
   6  -3  -6 -20.701  46.345   2
  -6  -3   6 103.706  66.229   3
   6   3  -6 116.803  74.446   2
  -6   3   6 -35.682  61.483   3
   6   3  -6 85.9367 52.0138   1
  -5  -3   6 1814.53  179.31   3
   5  -3  -6 1196.57  154.67   2
   5   3  -6 1640.91  134.19   1
  -5   3   6 1334.84  170.35   3
   5   3  -6 1530.07  170.01   2
  -5   3   6 1682.35  140.80   4
  -4  -3   6 30.6309 43.3598   3
   4  -3  -6 -16.947  40.123   2
  -4   3   6 -15.936  47.936   3
  -4   3   6 83.2695 40.2827   4
   4   3  -6 11.6130 42.1458   2
   4   3  -6 56.3970 37.6606   1
  -3  -3   6 1491.59  133.56   3
   3  -3  -6 1625.79  135.75   2
  -3  -3   6 1553.78  109.30   4
  -3   3   6 1463.44  121.74   4
   3   3  -6 1559.71  128.95   1
  -3   3   6 1805.84  150.14   3
   3   3  -6 1347.41  136.76   2
  -2  -3   6 617.068  69.053   4
   2  -3  -6 659.577  86.839   2
   2  -3  -6 667.236  62.841   1
  -2  -3   6 625.009  78.312   3
   2   3  -6 771.982  79.474   2
   2   3  -6 765.024  88.855   1
  -2   3   6 622.006  88.625   3
  -2   3   6 763.566  79.765   4
   1  -3  -6 5557.23  347.90   1
   1  -3  -6 5764.86  377.28   2
  -1  -3   6 5705.38  359.50   4
  -1  -3   6 6237.08  356.00   3
   1   3  -6 6091.50  368.58   1
   1   3  -6 6015.42  356.24   2
  -1   3   6 5954.23  358.13   4
  -1   3   6 5525.60  359.87   3
   0  -3  -6 241.234  41.521   3
   0  -3   6 114.187  47.621   4
   0  -3   6 184.941  35.442   3
   0  -3  -6 375.126  74.223   2
   0  -3  -6 213.559  47.065   1
   0   3   6 227.273  44.188   4
   0   3  -6 292.975  47.999   2
   0   3  -6 285.384  60.943   1
   1  -3   6 -21.269  34.336   4
   1  -3   6 68.5057 24.8454   3
  -1  -3  -6 194.857  67.343   2
  -1  -3  -6 21.9678 33.9383   1
  -1   3  -6 47.0365 34.6347   2
  -1   3  -6 49.9277 43.3747   1
   1   3   6 17.4748 29.0042   4
  -2  -3  -6 143.312  66.554   2
   2  -3   6 15.5054 30.2714   3
  -2  -3  -6 19.9452 35.9207   1
   2  -3   6 -4.0657 39.2951   4
   2   3   6 10.0029 28.2958   4
  -2   3  -6 -87.732  40.792   1
  -2   3  -6 -18.888  38.999   2
  -3  -3  -6 3217.88  269.58   2
   3  -3   6 3213.58  219.73   3
   3  -3   6 2976.82  236.40   4
  -3   3  -6 3204.78  235.73   1
   3   3   6 3110.42  225.49   1
  -3   3  -6 2782.45  230.81   2
   3   3   6 3349.99  209.06   4
   4  -3   6 52.8128 50.5254   4
  -4  -3  -6 179.169  83.031   2
  -4   3  -6 -37.741  52.136   2
   4   3   6 60.0126 45.1716   1
   4   3   6 17.3340 29.3150   4
  -4   3  -6 25.4461 50.5000   1
  -5  -3  -6 -14.292  68.073   2
   5  -3   6 99.8628 65.4313   4
  -5   3  -6 128.544  73.012   2
   5   3   6 56.4701 52.6791   1
  -5   3  -6 122.441  62.053   1
  -6  -3  -6 236.769 117.116   2
  -6   3  -6 205.953  96.982   2
   6   3   6 180.005  70.583   1
  -6   3  -6 130.890  74.275   1
  -7  -3  -6 828.140 179.970   2
   7  -3   6 840.822 133.445   1
   7   3   6 826.519 132.092   1
   8  -4  -6 934.061 157.305   2
  -8  -4   6 1053.88  167.94   3
   8   4  -6 918.649 166.925   2
  -8   4   6 500.460 144.416   3
   7  -4  -6 640.866 120.817   2
  -7  -4   6 424.787 105.944   3
   7   4  -6 416.020 111.275   2
  -7   4   6 375.404 118.724   3
  -6  -4   6  1.3550 50.8892   3
   6  -4  -6 48.9957 57.4564   2
   6   4  -6 -25.574  55.132   2
   6   4  -6  0.1668 43.3056   1
  -6   4   6 -29.506  58.328   3
   5  -4  -6 432.795  84.689   2
  -5  -4   6 177.000  67.224   3
   5   4  -6 105.248  46.094   1
  -5   4   6 182.429  75.587   3
   5   4  -6 178.896  71.104   2
  -5   4   6 246.589  65.769   4
   4  -4  -6 834.064 112.321   2
  -4  -4   6 917.000 112.743   3
  -4   4   6 898.889 104.465   4
   4   4  -6 783.211  97.569   1
  -4   4   6 727.207 117.619   3
   4   4  -6 937.300 115.225   2
   3  -4  -6 966.017 111.157   2
  -3  -4   6 1011.11   79.61   4
  -3  -4   6 831.295 102.837   3
   3   4  -6 851.359 101.797   1
   3   4  -6 1020.79  107.08   2
  -3   4   6 1083.35  107.79   4
  -3   4   6 1021.36  123.49   3
   2  -4  -6 48.0751 39.3500   2
  -2  -4   6  0.1735 28.4992   4
  -2  -4   6 -16.193  29.191   3
   2  -4  -6 33.4898 19.2064   1
   2   4  -6 -11.188  32.900   1
  -2   4   6 -46.430  35.423   3
  -2   4   6 58.4940 35.9648   4
   2   4  -6 39.9534 30.5000   2
  -1  -4   6 625.879  83.121   4
   1  -4  -6 667.965  68.647   1
   1  -4  -6 921.496 108.752   2
  -1  -4   6 761.957  78.423   3
  -1   4   6 743.863  87.097   3
  -1   4   6 785.417  84.873   4
   1   4  -6 745.025  94.891   1
   1   4  -6 869.025  70.696   2
   0  -4  -6 3728.17  241.05   1
   0  -4   6 3727.78  236.68   3
   0  -4  -6 3688.66  270.72   2
   0  -4   6 4160.71  261.37   4
   0  -4  -6 3845.62  240.30   3
   0   4   6 3496.73  241.77   4
   0   4  -6 3808.62  237.73   2
   0   4  -6 3952.46  263.40   1
   1  -4   6 3399.68  250.30   4
  -1  -4  -6 3008.01  261.81   2
  -1  -4  -6 3617.24  236.13   1
   1  -4   6 3532.15  224.22   3
  -1   4  -6 3535.54  229.74   2
   1   4   6 3475.51  231.13   1
   1   4   6 3609.45  229.11   4
  -1   4  -6 3818.07  254.43   1
   2  -4   6 1646.02  127.12   3
   2  -4   6 1732.15  168.58   4
  -2  -4  -6 1882.69  196.10   2
   2   4   6 1535.58  120.21   4
   2   4   6 1536.91  132.42   1
  -2   4  -6 1717.48  167.96   1
  -2   4  -6 1523.96  132.99   2
   3  -4   6 336.180  70.730   3
   3  -4   6 387.066  85.034   4
  -3  -4  -6 467.643 114.140   2
   3   4   6 380.350  57.527   4
  -3   4  -6 322.764  78.939   1
   3   4   6 461.904  77.283   1
  -3   4  -6 454.568  80.927   2
   4  -4   6 876.779 126.772   4
  -4  -4  -6 1008.97  163.49   2
  -4   4  -6 750.182 115.021   2
   4   4   6 898.698  89.396   4
   4   4   6 925.503 117.217   1
  -4   4  -6 664.972 108.793   1
   5  -4   6 425.550  95.943   4
  -5  -4  -6 516.674 138.519   2
   5   4   6 366.724  81.050   1
  -5   4  -6 416.584  98.504   2
  -5   4  -6 576.207 101.833   1
  -6  -4  -6 343.800 139.995   2
   6   4   6 770.763 118.506   1
  -6   4  -6 625.083 112.593   1
   7  -4   6 -23.169  59.723   1
  -7  -4  -6  56.517 116.550   2
   7   4   6 26.4382 64.0823   1
   8  -5  -6 164.969  99.756   2
  -8  -5   6 190.681  89.256   3
  -8   5   6 174.621 104.580   3
   8   5  -6 326.493 116.451   2
  -7  -5   6 -35.763  56.195   3
   7  -5  -6 37.5099 67.3352   2
  -7   5   6 -71.221  75.028   3
   7   5  -6 47.7645 57.0409   1
   7   5  -6 26.8642 73.6336   2
  -6  -5   6 907.929 139.134   3
   6  -5  -6 914.926 137.080   2
  -6   5   6 1217.39  167.61   3
   6   5  -6 1060.61  129.22   1
   6   5  -6 924.692 146.922   2
   5  -5  -6 176.642  66.452   2
  -5  -5   6 33.4362 52.7227   3
  -5   5   6 123.259  72.988   3
   5   5  -6 17.1507 37.3143   1
   5   5  -6 74.3295 60.2485   2
  -5   5   6 -8.0371 47.9673   4
   4  -5  -6 61.6003 42.0501   2
  -4  -5   6 90.6980 51.4654   3
  -4   5   6 -43.362  50.279   3
   4   5  -6 40.4219 45.5172   2
  -4   5   6 26.4981 44.2206   4
   4   5  -6 -19.042  34.723   1
  -3  -5   6 46.3070 29.6406   4
   3  -5  -6 17.2255 35.7181   2
  -3  -5   6 58.3901 38.9927   3
  -3   5   6  1.5329 50.7042   3
  -3   5   6 -1.8775 36.3484   4
   3   5  -6  9.2888 37.0892   1
   3   5  -6 89.0823 45.0363   2
   2  -5  -6 3617.58  268.68   2
  -2  -5   6 4247.11  264.60   3
  -2  -5   6 4199.20  258.70   4
  -2   5   6 4021.57  264.51   4
   2   5  -6 4090.31  270.58   1
   2   5  -6 3931.45  252.73   2
  -2   5   6 3700.72  275.97   3
  -1  -5   6 105.720  37.024   3
   1  -5  -6 115.269  52.283   2
  -1  -5   6 22.2009 39.7936   4
  -1   5   6 -10.250  36.814   3
  -1   5   6 -15.251  19.440   1
   1   5  -6 -32.743  37.106   1
   1   5  -6 10.0366 24.4281   2
  -1   5   6 14.7849 31.9600   4
   0  -5   6 1390.98  104.35   3
   0  -5   6 1287.51  137.96   4
   0  -5  -6 1378.25  148.88   2
   0  -5  -6 1202.76  107.01   3
   0   5   6 1082.23  112.23   4
   0   5   6 1204.85   99.33   1
   0   5  -6 1262.35  135.83   1
   0   5  -6 1357.80   94.43   2
   1  -5   6  0.8486 28.7522   3
  -1  -5  -6 -37.697  47.386   2
   1  -5   6 -65.747  38.325   4
   1   5   6  2.3808 28.8566   1
  -1   5  -6 36.3573 43.3014   1
   1   5   6 15.6177 31.2739   4
  -2  -5  -6 1387.15  183.61   2
   2  -5   6 1690.79  182.62   4
   2  -5   6 1746.41  139.51   3
   2   5   6 1673.31  137.74   1
  -2   5  -6 1807.88  177.12   1
   2   5   6 1813.05  131.95   4
  -3  -5  -6 58.7057 70.6281   2
   3  -5   6 -34.743  40.384   3
   3  -5   6 -104.23   45.67   4
  -3   5  -6 63.3120 54.7446   1
   3   5   6 51.8947 31.8288   4
   3   5   6  6.2173 33.2206   1
  -4  -5  -6 1055.51  174.76   2
   4  -5   6 628.090 120.866   4
  -4   5  -6 1066.65  132.41   1
   4   5   6 810.341 111.889   1
  -5  -5  -6 -66.542  78.604   2
   5  -5   6 57.0237 67.1977   4
   5   5   6 -1.9898 40.8346   1
  -5   5  -6 -35.277  52.518   1
  -6  -5  -6 680.964 163.549   2
   6  -5   6 568.781 120.121   4
  -6   5  -6 631.052 120.293   1
   6   5   6 711.099 116.989   1
  -7  -5  -6   8.861 115.191   2
   7  -5   6 94.8265 71.6715   1
   7   5   6 -7.5573 63.3610   1
   8  -6  -6 685.006 136.274   2
  -8  -6   6 669.254 142.138   3
  -8   6   6 403.807 127.933   3
   8   6  -6 373.208 125.642   2
  -7  -6   6 184.814  85.129   3
   7  -6  -6 258.654  92.620   2
  -7   6   6 221.738 107.524   3
   7   6  -6 201.748  98.110   2
   7   6  -6 184.622  73.765   1
   6  -6  -6 89.9634 66.1511   2
  -6  -6   6 -12.965  53.300   3
   6   6  -6 -54.862  56.920   2
  -6   6   6 26.9017 64.4384   3
   6   6  -6 -42.611  37.715   1
  -5  -6   6 10.2431 45.9243   3
   5  -6  -6 22.4700 55.4161   2
  -5   6   6 -38.696  53.528   3
   5   6  -6 -27.887  43.409   1
  -5   6   6 23.3040 54.2967   4
   5   6  -6 -31.633  48.431   2
   4  -6  -6 1805.65  173.45   2
  -4  -6   6 1770.75  174.30   3
  -4   6   6 1772.93  195.88   3
   4   6  -6 1754.03  169.60   2
   4   6  -6 1734.00  152.53   1
  -4   6   6 1712.68  168.13   4
   3  -6  -6 343.330  70.636   2
  -3  -6   6 250.878  59.639   3
  -3  -6   6 311.272  51.248   4
  -3   6   6 373.748  85.318   3
  -3   6   6 172.945  58.043   4
   3   6  -6 452.206  78.372   1
   3   6  -6 367.827  64.105   2
  -2  -6   6 648.676  81.796   3
   2  -6  -6 494.274  81.560   2
  -2  -6   6 550.536  78.286   4
   2   6  -6 594.019  66.086   2
  -2   6   6 555.300  93.812   3
  -2   6   6 522.951  79.783   4
   2   6  -6 641.436  90.054   1
  -1  -6   6 303.409  53.447   3
  -1  -6   6 284.419  66.096   4
   1  -6  -6 163.817  68.616   2
   1  -6  -6 298.424  66.777   3
   1   6  -6 304.595  70.331   1
  -1   6   6 254.864  37.883   1
  -1   6   6 218.444  53.380   4
   0  -6   6 1656.07  158.85   4
   0  -6  -6 1432.15  159.41   2
   0  -6   6 1486.97  116.87   3
   0  -6  -6 1358.64  123.48   3
   0   6  -6 1393.57  146.46   1
   0   6   6 1394.68  107.37   1
   0   6   6 1348.92  120.97   4
   1  -6   6 1299.94  153.57   4
  -1  -6  -6 1268.53  161.04   2
   1  -6   6 1296.48  113.97   3
   1   6   6 1363.84  111.72   1
  -1   6  -6 1281.93  143.54   4
   1   6   6 1390.89  115.89   4
  -1   6  -6 1641.96  159.25   1
  -2  -6  -6 253.751  87.419   2
   2  -6   6 358.594  66.127   3
   2  -6   6 255.574  84.478   4
  -2   6  -6 305.286  77.741   4
  -2   6  -6 238.446  73.681   1
   2   6   6 286.565  59.568   1
   2   6   6 327.540  56.809   4
   3  -6   6 242.650  85.256   4
   3  -6   6 86.8997 51.2103   3
  -3  -6  -6 248.224 100.177   2
  -3   6  -6 249.876  74.099   4
   3   6   6 126.878  42.856   4
   3   6   6 185.212  55.067   1
  -3   6  -6 148.307  67.447   1
  -4  -6  -6 2113.29  257.98   2
   4  -6   6 2102.04  226.69   4
  -4   6  -6 2427.44  200.80   1
   4   6   6 2035.53  176.18   1
   5  -6   6 423.604 105.858   4
  -5  -6  -6 442.977 133.335   2
   5   6   6 347.192  81.329   1
  -5   6  -6 188.252  77.408   1
  -6  -6  -6 1294.07  221.06   2
   6  -6   6 1208.53  174.03   4
  -6   6  -6 1453.03  170.66   1
   6   6   6 1099.89  151.00   1
   8  -7  -6 88.4433 78.7286   2
   8   7  -6 -21.392  88.455   2
   8   7  -6 -14.610  64.661   1
   7  -7  -6 628.980 124.813   2
  -7  -7   6 588.411 121.341   3
   7   7  -6 571.397 135.605   2
   7   7  -6 411.803  98.318   1
  -7   7   6 821.567 161.190   3
  -6  -7   6 87.2106 68.8090   3
   6  -7  -6 94.6470 61.3032   2
   6   7  -6 197.930  86.784   2
  -6   7   6 299.766  95.767   4
   6   7  -6 214.326  68.876   1
  -6   7   6 101.633  86.572   3
  -5  -7   6 1146.08  152.34   3
   5  -7  -6 1438.38  162.87   2
  -5   7   6 1452.37  189.53   3
   5   7  -6 1870.19  169.85   1
   5   7  -6 1478.10  170.99   2
  -5   7   6 1429.86  168.07   4
  -4  -7   6 -45.547  43.332   3
   4  -7  -6 84.8486 48.4790   2
  -4   7   6 31.2324 58.9531   3
   4   7  -6 -20.183  47.161   2
   4   7  -6 -5.8496 38.7976   1
  -4   7   6 140.452  61.602   4
  -3  -7   6 721.819 100.671   3
   3  -7  -6 715.036 104.776   2
  -3   7   6 1118.91  142.85   3
   3   7  -6 1048.34  119.47   1
  -3   7   6 1116.10  125.48   4
  -2  -7   6 1446.18  135.56   4
  -2  -7   6 1259.03  129.36   3
   2  -7  -6 1346.94  143.36   2
  -2   7   6 1482.49  154.14   3
  -2   7   6 1177.39  131.40   4
   2   7  -6 1377.58  145.16   1
   1  -7  -6 2502.15  229.65   2
  -1  -7   6 3615.93  227.64   4
  -1  -7   6 2769.20  202.49   3
   1  -7  -6 2681.79  213.64   3
  -1   7   6 2854.39  210.38   4
   1   7  -6 3001.70  219.06   1
   0  -7  -6 327.842  77.169   2
   0  -7  -6 224.094  59.070   3
   0  -7   6 254.471  54.897   3
   0  -7   6 275.664  75.443   4
   0   7   6 311.783  62.324   4
   0   7  -6 157.900  63.080   1
   0   7  -6 301.982  67.825   4
   0   7   6 284.632  46.696   1
   1  -7   6 48.5081 38.3407   3
  -1  -7  -6 31.9595 64.3536   2
   1   7   6 58.2836 37.0182   1
  -1   7  -6 32.8086 47.8589   1
   1   7   6 129.382  45.837   4
  -1   7  -6 143.472  59.062   4
   2  -7   6 63.3101 46.8370   3
  -2  -7  -6 91.1819 76.5985   2
   2   7   6 168.871  48.642   4
  -2   7  -6 211.693  66.580   4
  -2   7  -6 56.3662 56.1477   1
   2   7   6 62.5845 40.1941   1
  -3  -7  -6 1886.78  242.18   2
   3  -7   6 2332.11  189.01   3
   3   7   6 2288.42  168.35   4
   3   7   6 2373.91  180.65   1
  -3   7  -6 2033.51  212.44   4
  -3   7  -6 2342.93  201.99   1
  -4  -7  -6 79.2242 90.4782   2
  -4   7  -6 50.1317 61.6730   1
   4   7   6 55.5315 43.7375   1
  -4   7  -6 -13.152  61.649   4
  -5  -7  -6 14.4487 93.8426   2
   5  -7   6 137.092  84.650   4
  -5   7  -6 -45.614  57.760   1
   5   7   6 20.6666 50.8340   1
   6  -7   6 493.721 124.960   4
  -6  -7  -6 416.436 155.454   2
   6   7   6 487.823 104.235   1
  -7  -8   6 607.030 126.417   3
   7  -8  -6 611.549 120.457   2
  -7   8   6 463.560 135.179   3
   7   8  -6 659.325 118.207   1
  -6  -8   6 41.6038 63.3245   3
   6  -8  -6 48.8319 60.2813   2
  -6   8   6 -108.90   56.56   3
   6   8  -6 43.0448 51.6860   1
  -6   8   6 -114.65   61.82   4
   5  -8  -6 842.773 123.406   2
  -5  -8   6 811.472 124.624   3
  -5   8   6 846.318 149.867   3
   5   8  -6 942.598 125.173   1
  -5   8   6 1230.35  153.59   4
  -4  -8   6 161.634  59.651   3
   4  -8  -6 143.617  62.341   2
  -4   8   6 68.8433 59.6438   4
   4   8  -6 215.547  66.955   1
  -4   8   6 128.780  76.343   3
   3  -8  -6 3263.42  228.69   2
  -3  -8   6 2797.95  216.11   3
  -3   8   6 3070.84  245.38   3
  -3   8   6 2507.18  218.46   4
   3   8  -6 2816.95  219.82   1
  -2  -8   6 106.519  48.985   3
   2  -8  -6 121.720  56.420   2
  -2  -8   6 116.432  56.203   4
   2  -8  -6 66.2345 61.7984   3
   2   8  -6 11.1016 43.9074   1
  -2   8   6 173.536  59.856   4
   1  -8  -6 315.494  75.802   3
   1  -8  -6 498.977  98.578   2
  -1  -8   6 276.259  62.693   3
  -1  -8   6 431.740  87.128   4
  -1   8   6 201.524  62.432   4
   1   8  -6 426.734  82.764   1
   0  -8   6 150.146  50.512   3
   0  -8  -6 109.739  66.775   2
   0  -8  -6 178.437  56.442   3
   0   8   6 180.665  39.104   1
   0   8   6 134.867  52.105   4
   0   8  -6 251.184  69.999   1
   0   8  -6 32.1010 48.1228   4
  -1  -8  -6 2648.25  237.96   2
   1  -8   6 2770.07  201.74   3
  -1   8  -6 2425.36  216.72   1
   1   8   6 2568.58  187.72   1
   1   8   6 3020.65  203.01   4
  -1   8  -6 2735.89  220.09   4
  -2  -8  -6 86.6660 78.0952   2
   2  -8   6 13.0476 40.8521   3
  -2   8  -6 67.0742 62.0194   1
   2   8   6 -5.9255 38.9379   4
   2   8   6 64.1370 42.0539   1
  -2   8  -6 59.1465 54.4730   4
   3  -8   6  3.8091 45.9536   3
  -3  -8  -6 29.9653 88.8203   2
  -3   8  -6 40.1399 63.7780   4
   3   8   6 -19.235  36.076   4
  -3   8  -6 -5.4308 56.5038   1
   3   8   6 14.1001 42.3077   1
   4  -8   6 57.8655 65.4725   3
  -4  -8  -6 38.1142 91.5045   2
  -4   8  -6 38.2027 70.2252   4
  -4   8  -6 -4.6310 61.6218   1
   4   8   6 72.5331 51.4845   1
  -5  -8  -6 1397.00  231.86   2
   5  -8   6 981.962 175.069   4
  -5   8  -6 1471.06  189.27   4
   5   8   6 1669.08  172.82   1
  -5   8  -6 1642.86  187.84   1
   6  -8   6 -30.374  76.711   4
  -6  -8  -6 -62.512 108.679   2
   6   8   6 -18.919  55.032   1
   7  -9  -6 600.188 119.879   2
  -7  -9   6 579.140 129.346   3
  -7   9   6 356.541 128.226   3
   7   9  -6 467.966 106.370   1
  -6  -9   6 810.479 138.832   3
   6  -9  -6 779.019 127.997   2
   6   9  -6 981.005 133.658   1
  -6   9   6 810.787 157.687   3
  -6   9   6 852.940 148.844   4
   5  -9  -6 879.030 124.894   2
  -5  -9   6 773.478 124.137   3
  -5   9   6 735.308 142.935   3
  -5   9   6 834.322 138.640   4
   5   9  -6 768.588 116.723   1
   4  -9  -6 261.714  69.382   2
  -4  -9   6 177.450  66.282   3
   4   9  -6 43.5656 53.2853   1
  -4   9   6 163.801  76.039   4
  -4   9   6 110.116  82.039   3
  -3  -9   6 192.430  62.328   3
   3  -9  -6 303.801  75.040   2
   3  -9  -6 146.613  74.552   3
   3   9  -6 135.770  58.914   1
  -3   9   6 287.483  75.915   4
  -2  -9   6 437.297  81.772   3
   2  -9  -6 263.989  83.359   3
  -2  -9   6 318.645  79.277   4
   2  -9  -6 346.932  85.088   2
   2   9  -6 254.189  69.804   1
  -2   9   6 321.301  73.507   4
   1  -9  -6 1659.95  178.97   3
  -1  -9   6 1970.79  159.04   3
   1  -9  -6 1793.38  195.58   2
  -1   9   6 1747.21  175.26   4
   1   9  -6 1834.13  161.79   4
   1   9  -6 2006.23  191.45   1
   0  -9  -6 157.084  55.136   3
   0  -9  -6 247.718  80.433   2
   0  -9   6 215.621  58.177   3
   0   9  -6 181.492  68.334   1
   0   9   6 182.773  60.248   4
   0   9  -6 24.6552 53.7922   4
   1  -9   6 -28.776  38.416   3
  -1  -9  -6 -7.0842 63.2894   2
   1   9   6 15.4562 31.0534   1
   1   9   6 -8.1059 44.2847   4
  -1   9  -6 12.8600 53.4642   4
  -1   9  -6  8.5416 43.3141   1
  -2  -9  -6 1930.00  227.87   2
   2  -9   6 2167.71  174.95   3
  -2   9  -6 2109.70  212.68   1
  -2   9  -6 1704.45  199.21   4
   2   9   6 2140.88  167.06   4
   2   9   6 2047.98  160.40   1
  -3  -9  -6 1024.41  176.27   2
   3  -9   6 893.246 122.845   3
  -3   9  -6 1031.99  145.39   1
  -3   9  -6 790.016 137.867   4
   3   9   6 1131.60  123.86   1
  -4  -9  -6 552.327 157.947   2
   4  -9   6 617.730 116.884   3
  -4   9  -6 577.184 119.914   1
  -4   9  -6 762.901 134.563   4
   4   9   6 878.014 113.158   1
  -5  -9  -6  16.719 112.627   2
  -5   9  -6 48.9303 77.9037   4
   5   9   6 53.1052 57.4565   1
   6  -9   6  86.526 103.652   4
  -6  -9  -6  85.209 115.627   2
   6   9   6 -72.018  49.235   1
   7 -10  -6 -44.084  72.514   2
   7  10  -6 25.0910 70.1514   1
   6 -10  -6 -4.6027 59.0384   2
  -6 -10   6 93.2397 71.3539   3
  -6  10   6 -87.245  70.870   4
   6  10  -6 -2.4555 58.2982   1
  -6  10   6 28.8960 84.4028   3
   5 -10  -6 223.892  78.439   2
  -5 -10   6 189.377  72.732   3
  -5  10   6 132.648  83.882   4
  -5  10   6 22.7406 81.4348   3
   5  10  -6 105.730  62.728   1
   4 -10  -6 2056.27  209.36   2
  -4 -10   6 2139.89  218.55   3
  -4  10   6 2468.67  240.98   4
   4  10  -6 2350.12  198.98   1
  -3 -10   6 330.434  77.948   3
   3 -10  -6 445.544 110.395   3
   3 -10  -6 220.783  73.510   2
   3  10  -6 189.972  72.225   1
  -3  10   6 366.957  92.376   4
   2 -10  -6 248.883  83.671   3
  -2 -10   6 398.383  80.144   3
  -2 -10   6 362.835  89.911   4
   2 -10  -6 476.781 103.449   2
   2  10  -6 502.520  93.175   1
  -2  10   6 492.038  95.053   4
   1 -10  -6 29.2499 55.9362   2
  -1 -10   6  3.1528 44.4764   3
   1 -10  -6 127.972  63.589   3
  -1  10   6 98.9917 57.7258   4
   1  10  -6 -55.927  44.221   1
   1  10  -6 187.313  67.059   4
   0 -10  -6 1585.93  176.42   2
   0 -10   6 1259.92  143.81   3
   0 -10  -6 1330.73  144.27   3
   0  10  -6 1606.07  174.63   1
   0  10   6 1288.21  148.84   4
   0  10  -6 1632.68  169.22   4
  -1 -10  -6 -12.222  64.572   2
   1 -10   6 -37.035  36.965   3
   1  10   6  8.0671 33.1076   1
  -1  10  -6 40.1987 59.8213   4
  -1  10  -6 -14.941  54.739   1
   1  10   6 -28.173  42.171   4
  -2 -10  -6 330.876 104.298   2
   2 -10   6 492.648  84.930   3
  -2  10  -6 327.555  93.228   4
   2  10   6 287.288  72.052   4
   2  10   6 298.682  65.445   1
  -2  10  -6 304.142  89.525   1
   3 -10   6 76.3166 60.0549   3
  -3 -10  -6 -8.3934 90.8572   2
  -3  10  -6 244.048  84.510   1
  -3  10  -6 99.3823 72.7532   4
   3  10   6 52.7010 46.3943   1
  -4 -10  -6 913.746 191.127   2
   4 -10   6 1564.20  169.17   3
   4  10   6 1240.37  139.53   1
  -4  10  -6 898.149 151.354   1
  -4  10  -6 737.406 145.521   4
  -5 -10  -6 -33.309 116.658   2
  -5  10  -6 82.0237 91.3007   4
   5  10   6 114.392  63.775   1
   6 -10   6 714.538 168.616   4
  -6  10  -6 1066.80  178.85   4
  -6 -11   6 757.903 145.075   3
   6 -11  -6 1001.84  196.14   3
   6 -11  -6 863.358 142.055   2
   6  11  -6 883.335 140.901   1
  -6  11   6 945.717 166.416   4
  -6  11   6 1029.68  184.23   3
   5 -11  -6 -32.947  91.470   3
  -5 -11   6 134.774  71.063   3
   5 -11  -6 359.256  89.091   2
  -5  11   6 293.018 104.564   4
   5  11  -6 223.222  75.775   1
  -4 -11   6 170.583  76.752   3
   4 -11  -6 178.869  76.137   2
   4 -11  -6 196.172  95.847   3
  -4  11   6 88.0755 77.8414   4
   4  11  -6 314.102  84.618   1
   3 -11  -6 50.8996 72.9647   3
  -3 -11   6 20.7430 54.3120   3
   3 -11  -6 18.7976 63.1428   2
  -3  11   6 33.3215 64.3781   4
   3  11  -6  1.3063 52.7699   1
   2 -11  -6 880.611 134.375   3
  -2 -11   6 765.262 114.473   3
   2 -11  -6 480.502 115.228   2
  -2  11   6 915.132 131.642   4
   2  11  -6 648.937 109.527   1
   1 -11  -6 385.201  87.748   3
  -1 -11   6 341.157  78.936   3
   1 -11  -6 212.011  75.673   2
   1  11  -6 356.234  86.608   4
  -1  11   6 262.255  79.564   4
   1  11  -6 477.848  91.881   1
   0 -11  -6 144.370  74.470   2
   0 -11   6 175.542  60.298   3
   0 -11  -6 205.651  64.039   3
   0  11   6 218.554  71.776   4
   0  11  -6 123.630  69.706   1
   0  11  -6 117.632  72.967   4
   1 -11   6 35.0941 49.2260   3
  -1 -11  -6 -7.8295 65.0454   2
  -1  11  -6 -24.652  54.692   4
   1  11   6 -6.6910 49.4435   4
  -1  11  -6 -33.051  58.885   1
   2 -11   6 1720.81  170.55   3
  -2 -11  -6 1543.39  210.36   2
   2  11   6 1657.88  167.55   4
  -2  11  -6 1228.82  176.15   4
  -2  11  -6 1397.50  179.66   1
   2  11   6 1650.65  140.16   1
   3 -11   6 234.961  77.504   3
  -3 -11  -6 253.019 117.454   2
  -3  11  -6 483.725 116.596   4
   3  11   6 294.657  70.787   1
  -3  11  -6 106.605  80.247   1
   4 -11   6 631.853 120.102   3
  -4 -11  -6 732.737 170.275   2
  -4  11  -6 608.547 136.419   4
   4  11   6 725.992 112.157   1
  -5 -11  -6  31.082 126.310   2
  -5  11  -6  5.0045 86.4671   4
   5  11   6 -62.466  51.219   1
   6 -12  -6  14.574 113.047   3
  -6  12   6 12.3588 92.9117   4
   5 -12  -6 297.971 125.839   3
  -5 -12   6 480.042 112.802   3
   5  12  -6 360.761  90.401   1
  -5  12   6 257.128 106.185   4
   4 -12  -6 145.150  77.048   2
   4 -12  -6 74.5876 84.1165   3
  -4 -12   6 87.0914 69.9467   3
   4  12  -6 163.775  73.260   1
  -4  12   6 48.7699 82.2072   4
  -3 -12   6 1596.32  182.08   3
   3 -12  -6 1996.59  212.14   2
   3 -12  -6 1781.58  213.81   3
  -3  12   6 1317.41  182.82   4
   3  12  -6 1361.19  171.11   1
  -2 -12   6 10.5235 52.5543   3
   2 -12  -6  8.1106 67.3283   3
   2 -12  -6 13.1523 70.6484   2
  -2  12   6 37.0984 58.7126   4
   2  12  -6 114.165  62.758   1
   1 -12  -6 -13.032  62.956   2
   1 -12  -6 -44.197  48.803   3
  -1 -12   6 -4.0951 47.3829   3
  -1  12   6 -49.548  45.621   4
   1  12  -6 97.0461 56.7805   1
   1  12  -6  5.1233 67.2987   4
   0 -12   6 1092.10  135.90   3
   0 -12  -6 1094.84  157.85   2
   0  12  -6 1049.75  150.02   1
   0  12  -6 1371.46  166.05   4
   0  12   6 1081.62  144.62   4
  -1 -12  -6 1154.15  171.17   2
   1 -12   6 1148.70  135.96   3
  -1  12  -6 942.191 147.010   1
  -1  12  -6 1060.94  154.93   4
   1  12   6 826.863 126.512   4
   2 -12   6 202.382  69.073   3
  -2 -12  -6 125.834  97.046   2
   2  12   6 361.379  70.799   1
   2  12   6 233.596  75.283   4
  -2  12  -6 393.524 107.545   4
  -2  12  -6 129.169  82.916   1
   3 -12   6 -9.4628 54.7246   3
  -3 -12  -6 -34.081  86.854   2
  -3  12  -6 36.4530 80.8769   1
   3  12   6 -5.4731 46.6996   1
  -3  12  -6 87.6023 82.2999   4
  -4 -12  -6  21.010 109.782   2
   4 -12   6 198.029  87.607   3
   4  12   6 108.292  58.438   1
  -4  12  -6 106.528  88.523   4
  -5 -12  -6 1110.83  220.80   2
   5  12   6 936.059 134.624   1
  -5 -13   6 579.738 133.107   3
   5 -13  -6 1058.28  192.21   3
   5  13  -6 825.648 136.654   1
  -5  13   6 668.094 156.554   4
   4 -13  -6 105.953  97.839   3
  -4 -13   6 -3.7193 55.0029   3
  -4  13   6 38.8270 82.1937   4
   4  13  -6 -37.811  49.536   1
   3 -13  -6 756.109 144.047   3
  -3 -13   6 467.920 104.369   3
   3  13  -6 348.296  96.433   1
  -3  13   6 454.522 117.871   4
   2 -13  -6 94.5791 74.5507   2
  -2 -13   6 -26.044  51.802   3
   2 -13  -6 64.2340 72.1166   3
  -2  13   6  9.2359 69.7706   4
   2  13  -6 87.8169 61.6930   1
   1 -13  -6 2321.90  230.13   2
  -1 -13   6 2350.89  200.14   3
   1 -13  -6 1974.55  209.08   3
   1  13  -6 1988.03  216.72   4
   1  13  -6 2104.02  222.47   1
   0 -13   6 -1.4202 49.3465   3
   0 -13  -6 12.1936 68.1047   2
   0  13   6 14.5486 62.5317   4
   0  13  -6 102.600  72.177   4
   0  13  -6 -34.728  62.780   1
   1 -13   6 22.5579 50.6620   3
  -1 -13  -6 -23.576  77.369   2
  -1  13  -6 -45.586  64.347   4
   1  13   6 -19.403  57.587   4
  -1  13  -6 19.8884 66.2428   1
  -2 -13  -6 38.6748 84.7372   2
   2 -13   6 99.3175 64.6852   3
  -2  13  -6  6.7632 72.8691   4
  -2  13  -6 -72.621  62.805   1
  -3 -13  -6 901.363 185.988   2
   3 -13   6 973.257 146.303   3
  -3  13  -6 1374.73  190.44   4
   3  13   6 1261.55  144.58   1
  -4 -13  -6 144.071 129.503   2
   4 -13   6 87.5331 75.7799   3
   4  13   6 -62.032  51.827   1
  -4  13  -6 26.1440 88.8185   4
  -4 -14   6 201.612  94.039   3
   4 -14  -6 299.205 122.889   3
  -4  14   6 512.210 132.712   4
   4  14  -6 222.355  85.264   1
   3 -14  -6 434.171 131.945   3
  -3 -14   6 389.348 103.363   3
  -3  14   6 624.083 136.753   4
   3  14  -6 606.491 115.097   1
  -2 -14   6 13.2049 54.4621   3
   2 -14  -6 -2.9521 74.8097   3
  -2  14   6 -76.747  62.798   4
   2  14  -6 198.796  73.240   1
  -1 -14   6 192.020  73.344   3
   1 -14  -6 69.0178 66.8797   3
   1  14  -6 68.6081 77.8943   4
  -1  14   6 90.1162 84.5368   4
   1  14  -6 213.786  85.671   1
   0 -14   6 409.256  90.591   3
   0  14   6 672.318 127.018   4
   0  14  -6 571.196 117.425   1
   0  14  -6 407.207 112.253   4
  -1 -14  -6 1035.77  171.01   2
   1 -14   6 1190.02  146.72   3
   1  14   6 1057.65  156.22   4
  -1  14  -6 761.180 150.681   4
  -1  14  -6 1264.55  173.99   1
  -2 -14  -6 451.256 136.035   2
   2 -14   6 485.054 101.202   3
  -2  14  -6 114.109  89.968   4
  -2  14  -6 188.600  95.169   1
  -3 -14  -6 136.426 117.912   2
   3 -14   6 -22.913  59.718   3
  -3  14  -6 -112.49   78.54   4
   4  14   6 172.249  76.751   1
   4 -15  -6  26.593 100.325   3
  -3 -15   6 -8.7225 64.1499   3
   3 -15  -6 60.3454 87.8369   3
   3  15  -6 30.4592 64.6464   1
  -3  15   6 97.3005 99.0426   4
   2 -15  -6 1018.33  157.53   3
  -2 -15   6 795.350 141.171   3
   2  15  -6 1115.49  158.62   1
  -2  15   6 1025.64  171.42   4
  -1 -15   6 142.658  76.703   3
   1  15  -6 175.177  86.189   1
  -1  15   6 202.432  98.834   4
   0 -15   6 166.592  72.758   3
   0  15   6 179.332  91.884   4
   0  15  -6 237.263  99.690   4
   0  15  -6 43.3278 71.1967   1
   1 -15   6 -15.096  55.368   3
  -1  15  -6 -90.876  81.945   4
   1  15   6 -111.24   74.83   4
  -1  15  -6 -35.213  68.755   1
   2 -15   6 638.603 118.368   3
  -2  15  -6 235.876 108.125   4
   3 -15   6 99.3559 77.3013   3
   2 -16  -6 125.350  88.702   3
   2  16  -6 -47.189  68.733   1
  -2  16   6 19.0716 92.0214   4
  -1 -16   6  8.3266 57.8614   3
  -1  16   6 -1.5222 82.9836   4
   1  16  -6 37.3709 73.6853   1
   0 -16   6 761.908 128.645   3
   0  16   6 1221.72  183.87   4
   0  16  -6 710.199 149.396   4
   0  16  -6 631.433 130.893   1
   1 -16   6 166.854  77.561   3
  -1  16  -6 65.8325 97.8383   4
  -8   0   7 -4.3306 78.6369   3
   8   0  -7 -49.382  63.463   2
   7   0  -7 241.059  89.373   2
  -7   0   7 591.717 125.159   3
   6   0  -7 -47.187  53.924   2
  -6   0   7 -48.976  56.500   3
  -5   0   7 1652.64  185.98   3
   5   0  -7 1734.78  178.15   2
  -4   0   7 -20.633  42.010   3
   4   0  -7 -20.468  28.563   1
   4   0  -7 -19.296  39.800   2
  -4   0   7 -1.5887 28.3834   4
  -3   0   7 924.260  82.522   4
   3   0  -7 1099.90  101.26   1
  -3   0   7 835.206 107.627   3
   3   0  -7 1002.11  111.21   2
   2   0  -7 37.7931 35.5455   2
   2   0  -7 43.6243 34.4319   1
  -2   0   7 -21.293  33.486   3
  -2   0   7 50.8177 30.0668   4
  -1   0   7 3995.13  251.92   4
   1   0  -7 3902.36  265.17   2
   1   0  -7 3646.54  258.94   1
  -1   0   7 4208.23  250.05   3
   0   0   7 -18.895  24.049   4
   0   0  -7 61.3893 39.5261   1
   0   0   7 25.4511 21.6410   3
   0   0  -7 47.3853 43.9166   2
   1   0   7 6092.55  394.75   4
  -1   0  -7 6636.18  422.87   2
  -1   0  -7 6716.49  409.17   1
  -2   0  -7  7.5126 50.7604   2
   2   0   7 13.0601 32.0735   4
  -2   0  -7 38.1626 45.8797   1
  -3   0  -7 17.5276 57.4078   2
   3   0   7 -17.977  34.181   4
  -3   0  -7 68.5490 49.0274   1
   4   0   7 53.0621 42.2469   4
  -4   0  -7 -42.572  58.841   2
  -4   0  -7 -13.796  39.827   1
  -5   0  -7 914.722 134.774   1
  -5   0  -7 1152.91  169.96   2
   6   0   7 27.4843 54.8111   1
  -6   0  -7 -83.577  72.040   2
  -7   0  -7 772.909 164.276   2
   7   0   7 287.808  94.416   1
  -8  -1   7 -31.448  76.180   3
   8  -1  -7 -17.845  70.771   2
  -8   1   7 -19.300  82.274   3
   8   1  -7 107.159  82.302   2
   7  -1  -7 1161.80  167.44   2
  -7  -1   7 1182.64  171.95   3
   7   1  -7 889.257 150.258   2
  -7   1   7 802.435 150.027   3
   6  -1  -7 264.850  82.591   2
  -6  -1   7 115.767  68.912   3
  -6   1   7 130.098  73.789   3
   6   1  -7 221.921  79.993   2
  -5  -1   7 608.877 103.016   3
   5  -1  -7 672.711 106.264   2
   5   1  -7 562.471  78.045   1
  -5   1   7 509.127 103.816   3
   5   1  -7 462.178  93.693   2
  -4  -1   7 549.639  96.191   3
  -4  -1   7 538.639  63.372   4
   4  -1  -7 460.998  83.719   2
  -4   1   7 470.150  65.791   4
   4   1  -7 552.687  88.374   2
   4   1  -7 494.100  70.562   1
  -4   1   7 545.086  95.225   3
  -3  -1   7 1126.06   94.19   4
   3  -1  -7 1336.98  116.16   2
  -3  -1   7 1223.74  128.74   3
   3  -1  -7 1259.38  103.91   1
   3   1  -7 1003.65  110.15   1
  -3   1   7 1290.48  102.77   4
  -3   1   7 1297.00  130.69   3
   3   1  -7 1316.31  126.17   2
   2  -1  -7 2484.37  173.09   1
   2  -1  -7 2559.03  185.75   2
  -2  -1   7 2567.28  169.00   4
  -2  -1   7 2669.66  180.70   3
   2   1  -7 2412.02  178.17   2
  -2   1   7 2354.69  169.42   4
  -2   1   7 2485.19  182.71   3
   2   1  -7 2685.88  182.12   1
  -1  -1   7 1605.52  124.43   4
   1  -1  -7 1479.61  129.15   1
   1  -1  -7 1775.89  144.20   2
  -1  -1   7 1761.25  124.29   3
  -1   1   7 1659.83  124.03   3
  -1   1   7 1680.77  124.23   4
   1   1  -7 1638.70  134.20   2
   1   1  -7 1613.53  136.44   1
   0  -1  -7 180.065  54.157   1
   0  -1   7 235.510  48.934   4
   0  -1  -7 214.639  65.917   2
   0  -1   7 247.942  36.882   3
   0   1  -7 168.448  56.848   1
   0   1  -7 200.992  55.602   2
   0   1   7 228.254  34.102   3
   0   1   7 200.249  45.594   4
  -1  -1  -7 612.552  98.236   2
   1  -1   7 495.438  74.949   4
   1  -1   7 459.445  40.847   3
  -1  -1  -7 361.808  69.092   1
   1   1   7 412.033  62.146   4
  -1   1  -7 527.127  84.938   2
  -1   1  -7 447.960  79.670   1
  -2  -1  -7 981.163 115.181   1
   2  -1   7 905.941 104.913   4
  -2  -1  -7 1099.42  138.12   2
  -2   1  -7 794.384 111.648   1
  -2   1  -7 849.907 117.561   2
   2   1   7 859.714  95.844   4
  -3  -1  -7 1677.31  185.67   2
  -3  -1  -7 1297.38  147.14   1
   3  -1   7 1284.97  135.93   4
  -3   1  -7 1392.06  161.52   2
  -3   1  -7 1246.96  148.91   1
   3   1   7 1378.58  117.74   4
  -4  -1  -7 -32.103  45.602   1
   4  -1   7 -16.264  38.249   4
  -4  -1  -7 73.9674 64.6890   2
  -4   1  -7 30.9892 67.0635   2
   4   1   7 41.1485 36.0712   4
  -4   1  -7 -51.067  37.093   1
  -5  -1  -7 71.3805 83.6044   2
   5  -1   7 113.993  57.008   4
  -5   1  -7 141.084  63.386   1
   5   1   7 121.288  61.393   1
  -5   1  -7 50.3598 74.4372   2
  -6  -1  -7 565.639 141.826   2
   6  -1   7 555.998 110.269   1
   6   1   7 531.928 108.194   1
  -6   1  -7 463.513 122.830   2
   7  -1   7 498.033 106.195   1
  -7  -1  -7 470.644 139.116   2
  -7   1  -7 311.322 123.454   2
   7   1   7 474.765 108.335   1
   8  -2  -7 326.224 109.630   2
  -8  -2   7 457.909 122.059   3
   8   2  -7 295.619 109.480   2
  -8   2   7 392.241 122.558   3
  -7  -2   7 109.561  77.247   3
   7  -2  -7 273.399  91.696   2
  -7   2   7 78.5214 74.0853   3
   7   2  -7 131.326  80.857   2
  -6  -2   7 273.472  86.272   3
   6  -2  -7 325.007  87.200   2
   6   2  -7 508.661 103.063   2
  -6   2   7 347.930  97.638   3
  -5  -2   7 245.659  80.969   3
   5  -2  -7 300.848  76.517   2
   5   2  -7 163.603  63.104   2
  -5   2   7 186.817  55.737   4
  -5   2   7 361.109  91.073   3
   5   2  -7 173.120  51.191   1
   4  -2  -7 2090.82  173.21   2
  -4  -2   7 2116.56  175.68   3
   4   2  -7 1993.60  169.88   2
   4   2  -7 1999.01  155.80   1
  -4   2   7 2097.42  201.07   3
  -4   2   7 1961.78  152.66   4
   3  -2  -7 12.3101 26.8759   1
  -3  -2   7 38.7376 40.6368   3
  -3  -2   7  2.4823 24.1802   4
   3  -2  -7 10.6769 34.5982   2
   3   2  -7 53.4676 35.9368   1
  -3   2   7 -12.445  40.830   3
  -3   2   7 23.2452 31.6572   4
   3   2  -7  3.6677 33.9342   2
   2  -2  -7  3.1088 31.5407   2
  -2  -2   7 15.7579 25.2564   4
  -2  -2   7 14.5443 34.5966   3
   2  -2  -7 46.9024 30.2169   1
  -2   2   7 -0.6371 35.6582   3
   2   2  -7  1.8421 29.9371   2
  -2   2   7 -35.314  24.517   4
   2   2  -7  0.5755 34.2198   1
   1  -2  -7 341.703  72.214   2
   1  -2  -7 395.883  60.902   1
  -1  -2   7 348.524  57.292   4
  -1  -2   7 292.829  50.194   3
  -1   2   7 401.920  59.182   3
  -1   2   7 349.801  53.664   4
   1   2  -7 248.898  54.268   2
   1   2  -7 237.684  59.329   1
   0  -2   7 3818.91  232.67   3
   0  -2   7 3773.21  252.23   4
   0  -2  -7 3988.93  252.70   1
   0  -2  -7 3707.86  271.02   2
   0   2   7 3676.83  243.34   4
   0   2  -7 3859.67  254.18   2
   0   2  -7 3554.90  259.11   1
   0   2   7 3820.53  228.64   3
  -1  -2  -7 395.300  86.446   2
   1  -2   7 293.275  62.073   4
   1  -2   7 347.023  38.835   3
  -1  -2  -7 416.653  70.716   1
   1   2   7 285.913  53.117   4
  -1   2  -7 383.420  70.322   2
  -1   2  -7 231.636  64.871   1
   2  -2   7 -78.302  36.225   4
  -2  -2  -7 29.0173 41.1482   1
  -2  -2  -7 44.2771 62.8141   2
  -2   2  -7 23.9270 49.2825   2
   2   2   7 11.5790 28.8566   4
  -2   2  -7 42.3770 49.3845   1
   3  -2   7 -15.975  43.729   4
  -3  -2  -7 -4.2260 61.8425   2
  -3  -2  -7 -20.627  42.957   1
  -3   2  -7 34.5854 53.6885   2
   3   2   7 31.1358 34.2073   4
  -3   2  -7 -10.591  48.700   1
  -4  -2  -7 2620.16  259.41   2
   4  -2   7 2014.19  180.12   4
  -4   2  -7 2280.74  222.81   2
   4   2   7 2201.19  186.63   1
   4   2   7 2041.56  160.55   4
  -4   2  -7 2123.12  187.27   1
  -5  -2  -7 508.340 124.135   2
   5  -2   7 336.711  77.007   4
  -5   2  -7 358.520  97.877   2
   5   2   7 354.285  85.781   1
  -5   2  -7 23.0267 56.1296   1
  -6  -2  -7 316.499 128.935   2
   6  -2   7 586.596 109.151   1
  -6   2  -7 380.672  99.850   1
   6   2   7 304.612  88.418   1
  -6   2  -7 598.198 132.336   2
   7  -2   7 56.1384 70.1026   1
  -7  -2  -7  83.222 108.576   2
   7   2   7 -87.771  54.520   1
  -7   2  -7 -149.59   75.22   2
  -8  -3   7 -11.821  72.078   3
   8  -3  -7 124.154  89.498   2
   8   3  -7 47.9354 82.2976   2
  -8   3   7 134.909 101.878   3
  -7  -3   7 120.361  79.023   3
   7  -3  -7 33.8234 63.8629   2
   7   3  -7  7.6494 66.0064   2
  -7   3   7 70.5257 81.1352   3
   6  -3  -7 1397.54  166.60   2
  -6  -3   7 1294.03  163.79   3
  -6   3   7 1190.31  172.37   3
   6   3  -7 1283.71  164.58   2
   6   3  -7 1178.30  132.38   1
  -5  -3   7 -77.799  44.619   3
   5  -3  -7 78.7498 50.6687   2
  -5   3   7 107.053  53.505   4
  -5   3   7  7.3662 59.0047   3
   5   3  -7  2.3100 37.7878   1
   5   3  -7 104.577  59.090   2
  -4  -3   7 353.061  77.848   3
   4  -3  -7 336.331  74.286   2
   4   3  -7 203.730  56.999   1
   4   3  -7 187.002  60.718   2
  -4   3   7 499.906  71.162   4
  -4   3   7 399.683  86.382   3
   3  -3  -7 236.167  57.348   2
  -3  -3   7 282.007  45.169   4
  -3  -3   7 382.861  69.968   3
  -3   3   7 223.875  64.705   3
   3   3  -7 267.233  59.445   1
   3   3  -7 283.802  59.672   2
  -3   3   7 367.967  58.423   4
  -2  -3   7 2789.07  191.33   4
   2  -3  -7 2873.40  211.94   2
   2  -3  -7 2941.65  186.64   1
  -2  -3   7 2975.56  202.96   3
  -2   3   7 2875.36  198.14   4
  -2   3   7 2899.13  209.45   3
   2   3  -7 2874.03  197.16   2
   2   3  -7 3037.98  209.95   1
   1  -3  -7 -0.7809 43.0424   2
   1  -3  -7 -20.994  27.154   1
  -1  -3   7 67.2184 31.8697   3
  -1  -3   7 -31.185  28.126   4
  -1   3   7 56.0386 29.3930   4
   1   3  -7 33.9244 33.4471   2
   1   3  -7 16.2275 38.0345   1
  -1   3   7 59.3524 38.5812   3
   0  -3  -7 51.6954 38.5953   1
   0  -3   7 45.0653 25.3272   3
   0  -3  -7 -7.2869 45.7558   2
   0  -3   7 88.4730 45.2051   4
   0  -3  -7 67.0100 30.0708   3
   0   3   7  1.4529 25.8212   4
   0   3  -7 -4.4634 35.4444   2
   0   3  -7 -4.6526 41.2181   1
  -1  -3  -7 27.2494 39.9926   1
   1  -3   7 127.439  51.568   4
  -1  -3  -7 234.898  72.990   2
   1  -3   7 117.659  28.322   3
  -1   3  -7 120.709  50.461   2
   1   3   7 82.0709 35.1983   4
  -1   3  -7 123.833  50.762   1
  -2  -3  -7 5474.10  350.97   1
  -2  -3  -7 5770.47  393.52   2
   2  -3   7 5604.14  363.03   4
  -2   3  -7 5159.32  352.72   2
  -2   3  -7 5237.91  359.59   1
   2   3   7 5164.07  332.43   4
  -3  -3  -7 533.927  87.537   1
   3  -3   7 294.851  78.702   4
  -3  -3  -7 162.077  88.142   2
  -3   3  -7 415.863  85.608   2
  -3   3  -7 457.930  94.400   1
   3   3   7 441.433  80.634   1
   3   3   7 395.514  60.488   4
  -4  -3  -7 416.667 116.728   2
   4  -3   7 336.095  81.165   4
   4   3   7 391.255  63.217   4
   4   3   7 537.261  95.519   1
  -4   3  -7 234.841  75.496   1
  -4   3  -7 296.580  88.554   2
   5  -3   7 -23.843  45.854   4
  -5  -3  -7 -56.482  76.632   2
  -5   3  -7 -28.047  50.326   1
  -5   3  -7 -17.093  61.342   2
   5   3   7 -57.013  47.190   1
  -6  -3  -7 1271.97  213.62   2
  -6   3  -7 1297.09  171.59   1
   6   3   7 1259.98  162.50   1
   7  -3   7 -65.582  59.506   1
  -7  -3  -7  68.589 113.142   2
   7   3   7 55.8772 60.4012   1
   8  -4  -7 335.203 117.033   2
  -8  -4   7 392.166 118.240   3
  -8   4   7 478.994 138.239   3
   8   4  -7 499.133 126.437   2
   7  -4  -7 207.042  88.590   2
  -7  -4   7  0.6740 63.9686   3
   7   4  -7 59.3692 73.5797   2
  -7   4   7 63.7051 78.2568   3
  -6  -4   7 11.4038 54.7345   3
   6  -4  -7 89.8127 65.5367   2
   6   4  -7 76.9463 64.8906   2
  -6   4   7 164.629  87.823   3
   6   4  -7 85.3820 52.5456   1
   5  -4  -7 963.943 134.164   2
  -5  -4   7 1038.14  135.20   3
  -5   4   7 978.086 120.545   4
   5   4  -7 1104.44  123.50   1
  -5   4   7 1037.73  149.16   3
   5   4  -7 1055.19  135.23   2
   4  -4  -7 1111.25  127.61   2
  -4  -4   7 922.426 119.679   3
  -4   4   7 825.725 107.100   4
  -4   4   7 846.743 126.334   3
   4   4  -7 986.969 118.348   2
   4   4  -7 1088.66  120.58   1
   3  -4  -7 1628.18  141.71   2
  -3  -4   7 1697.09  139.45   3
  -3  -4   7 1479.20  113.47   4
   3   4  -7 1404.68  128.20   2
  -3   4   7 1548.99  161.30   3
   3   4  -7 1485.09  145.58   1
  -3   4   7 1553.37  130.49   4
  -2  -4   7 74.9495 35.5349   4
   2  -4  -7 59.1064 42.5108   2
  -2  -4   7 88.4103 37.5710   3
  -2   4   7 -13.767  29.923   4
  -2   4   7 41.3675 50.4967   3
   2   4  -7 69.6624 47.0754   1
   2   4  -7 31.2303 31.1040   2
   1  -4  -7 1184.84  144.41   2
  -1  -4   7 1493.54  121.49   4
   1  -4  -7 1123.97  101.42   1
  -1  -4   7 1410.60  107.61   3
   1   4  -7 1161.05  102.61   2
  -1   4   7 1348.83  117.27   3
   1   4  -7 1292.88  136.59   1
  -1   4   7 1451.94  112.24   4
   0  -4  -7 1054.45   87.18   3
   0  -4   7 867.141 108.302   4
   0  -4   7 885.523  87.250   3
   0  -4  -7 1147.46  104.28   1
   0  -4  -7 957.919 127.506   2
   0   4  -7 872.965  91.483   2
   0   4  -7 970.403 119.159   1
   0   4   7 1151.91   96.77   4
   1  -4   7 1077.24  124.61   4
  -1  -4  -7 936.542 103.640   1
   1  -4   7 774.150  79.049   3
  -1  -4  -7 804.243 124.002   2
   1   4   7 874.972  93.109   4
  -1   4  -7 785.929 111.894   1
  -1   4  -7 948.057  96.059   2
   2  -4   7 -12.988  24.832   3
  -2  -4  -7 -48.988  60.355   2
   2  -4   7 38.0515 49.5462   4
   2   4   7 -17.984  34.160   1
  -2   4  -7 -114.37   30.45   1
   2   4   7 50.1617 32.2685   4
  -2   4  -7 -17.152  41.461   2
  -3  -4  -7 545.571 124.712   2
   3  -4   7 314.413  84.157   4
   3   4   7 532.747  85.557   1
  -3   4  -7 294.274  79.306   2
   3   4   7 515.801  68.765   4
  -3   4  -7 356.812  87.389   1
  -4  -4  -7 1558.37  212.85   2
   4  -4   7 1529.03  178.71   4
   4   4   7 1544.77  166.84   1
  -4   4  -7 1761.11  182.15   1
   4   4   7 1690.31  131.59   4
   5  -4   7 997.286 142.558   4
  -5  -4  -7 871.880 175.257   2
   5   4   7 1030.34  139.54   1
  -5   4  -7 1252.32  154.43   1
  -6  -4  -7 603.065 156.950   2
  -6   4  -7 325.516  93.336   1
   6   4   7 203.399  81.794   1
   7  -4   7  2.2054 69.4862   1
   8  -5  -7 -26.237  69.300   2
  -8  -5   7 -35.387  64.047   3
   8   5  -7 23.8996 84.1381   2
  -8   5   7  60.004 100.398   3
   7  -5  -7 1921.62  208.57   2
  -7  -5   7 1389.86  187.81   3
   7   5  -7 1292.48  156.29   1
  -7   5   7 1569.88  215.37   3
   7   5  -7 1632.19  199.00   2
  -6  -5   7 -14.976  53.783   3
   6  -5  -7 -21.048  60.544   2
   6   5  -7 50.4701 64.8197   2
  -6   5   7 70.2266 78.4174   3
   6   5  -7 -53.053  42.889   1
  -5  -5   7 1061.68  138.11   3
   5  -5  -7 1133.39  140.06   2
   5   5  -7 901.404 126.710   2
  -5   5   7 630.370 127.071   3
  -5   5   7 991.766 123.561   4
   5   5  -7 1001.78  120.83   1
   4  -5  -7 -33.398  37.690   2
  -4  -5   7  3.2909 44.3336   3
   4   5  -7 -10.929  41.509   1
  -4   5   7 43.6086 44.1405   4
  -4   5   7 52.6359 61.5541   3
   4   5  -7 26.0382 47.2288   2
  -3  -5   7 2152.07  162.21   3
   3  -5  -7 1779.37  159.22   2
  -3  -5   7 1905.42  136.71   4
   3   5  -7 1756.20  158.40   1
   3   5  -7 1715.70  148.19   2
  -3   5   7 2242.40  162.62   4
  -3   5   7 2151.77  178.83   3
  -2  -5   7 99.8698 42.3698   3
  -2  -5   7 77.4516 39.5053   4
   2  -5  -7 65.2263 44.7366   2
  -2   5   7 24.1821 45.3714   3
   2   5  -7 32.8436 30.6401   2
   2   5  -7 34.6341 41.0885   1
  -2   5   7  3.2696 31.3560   4
  -1  -5   7 3610.27  235.39   4
   1  -5  -7 2961.38  251.88   2
  -1  -5   7 2968.74  218.15   3
   1   5  -7 3781.68  218.31   2
  -1   5   7 3235.93  229.20   3
  -1   5   7 3568.96  209.72   1
   1   5  -7 3123.18  238.27   1
  -1   5   7 3031.79  223.92   4
   0  -5   7 57.0425 31.7747   3
   0  -5  -7 77.7516 54.5689   2
   0  -5   7 -34.752  43.869   4
   0   5   7 66.1134 32.4985   4
   0   5   7 35.0354 30.4237   1
   0   5  -7 60.1108 51.5997   1
   1  -5   7 752.036  79.378   3
   1  -5   7 713.021 110.426   4
  -1  -5  -7 797.773 128.283   2
  -1   5  -7 742.219 112.103   1
   1   5   7 697.983  84.931   4
   1   5   7 627.989  83.877   1
   2  -5   7 156.113  69.433   4
   2  -5   7 36.4126 33.6547   3
  -2  -5  -7 99.2957 81.1130   2
  -2   5  -7 189.995  68.363   1
   2   5   7 92.9349 45.3177   1
   2   5   7 71.7167 37.4245   4
   3  -5   7 1413.04  174.38   4
  -3  -5  -7 1401.89  201.84   2
  -3   5  -7 1557.33  172.22   1
   3   5   7 1517.48  123.39   4
   3   5   7 1657.27  156.80   1
  -4  -5  -7 50.0051 88.2794   2
   4  -5   7 48.3769 65.3919   4
  -4   5  -7 35.0592 58.8433   1
   4   5   7 -57.663  40.929   1
   5  -5   7 217.667  86.952   4
  -5  -5  -7 208.997 122.526   2
   5   5   7 315.130  86.710   1
  -5   5  -7 370.423  93.674   1
  -6  -5  -7  31.979 108.877   2
   6  -5   7 -6.1006 63.7689   4
   6   5   7 -40.486  51.026   1
  -6   5  -7 -20.142  61.226   1
   7  -5   7 1282.22  178.50   1
  -7   5  -7 1670.16  202.44   1
   8   6  -7 256.572 109.343   2
   7  -6  -7 -2.7167 66.0181   2
  -7  -6   7 -6.1652 54.6600   3
  -7   6   7 24.4325 86.6405   3
   7   6  -7 84.3151 60.8477   1
   7   6  -7 -22.227  73.323   2
   6  -6  -7 -37.542  50.286   2
  -6  -6   7 48.6681 63.3488   3
   6   6  -7  9.8777 49.5762   1
   6   6  -7 14.8755 66.4454   2
  -6   6   7 50.8958 74.3394   3
   5  -6  -7 2053.82  203.55   2
  -5  -6   7 1969.91  201.07   3
  -5   6   7 1929.39  195.51   4
  -5   6   7 2390.43  236.58   3
   5   6  -7 1906.13  194.91   2
   5   6  -7 2012.87  176.38   1
  -4  -6   7 614.459  97.904   3
   4  -6  -7 593.475  96.736   2
   4   6  -7 639.430 100.847   1
  -4   6   7 652.467 113.482   3
   4   6  -7 497.082  89.370   2
  -4   6   7 696.474 102.133   4
  -3  -6   7 3062.63  203.84   4
   3  -6  -7 3062.06  230.78   2
  -3  -6   7 2770.79  219.23   3
   3   6  -7 3214.54  215.11   2
   3   6  -7 3272.42  232.57   1
  -3   6   7 2951.13  224.34   4
  -3   6   7 3212.50  245.89   3
  -2  -6   7 85.7811 43.2488   3
  -2  -6   7 50.5472 38.8233   4
   2  -6  -7 45.9686 48.5369   2
   2   6  -7 31.1171 51.4066   1
  -2   6   7 45.2257 39.3057   4
  -2   6   7 18.3031 48.9046   3
  -1  -6   7 456.506  79.250   4
  -1  -6   7 255.716  54.431   3
   1  -6  -7 338.567  70.122   3
   1  -6  -7 382.566  89.871   2
  -1   6   7 417.951  69.975   4
   1   6  -7 259.708  71.945   1
   0  -6   7 1053.31  128.83   4
   0  -6   7 1081.45  104.86   3
   0  -6  -7 1036.36  139.30   2
   0   6   7 926.809  94.927   1
   0   6   7 1143.27  116.48   4
   0   6  -7 1153.22  134.34   1
  -1  -6  -7 348.234  94.465   2
   1  -6   7 381.493  60.932   3
   1  -6   7 412.421  91.709   4
  -1   6  -7 423.660  87.264   1
   1   6   7 346.071  60.223   1
   1   6   7 373.580  63.844   4
  -2  -6  -7 -75.860  58.910   2
   2  -6   7 17.1728 58.3022   4
   2  -6   7 28.1833 37.4826   3
  -2   6  -7 20.1652 49.6784   1
   2   6   7 -1.6690 36.2558   1
   2   6   7 62.7849 37.6058   4
  -3  -6  -7 1275.87  194.35   2
   3  -6   7 1166.08  160.13   4
  -3   6  -7 1320.56  160.46   1
   3   6   7 1204.06  133.46   1
   3   6   7 1239.02  121.07   4
  -4  -6  -7 695.965 157.653   2
   4  -6   7 749.650 135.216   4
  -4   6  -7 799.431 131.231   1
   4   6   7 907.889 117.629   1
   5  -6   7 1358.20  184.23   4
  -5  -6  -7 1509.16  237.84   2
  -5   6  -7 1330.74  173.46   1
   5   6   7 1805.82  183.01   1
  -6  -6  -7 290.830 142.152   2
   6  -6   7 118.520  83.648   4
   6   6   7 258.640  84.952   1
  -6   6  -7 139.914  80.764   1
   7  -7  -7  5.4823 66.8784   2
  -7  -7   7 75.0611 67.4622   3
   7   7  -7 127.628  86.144   2
   7   7  -7 127.969  73.985   1
  -7   7   7 103.259  97.423   3
   6  -7  -7 1540.63  180.56   2
  -6  -7   7 1404.02  176.93   3
   6   7  -7 1428.28  164.60   1
  -6   7   7 1762.68  217.27   3
  -6   7   7 1536.26  184.29   4
   5  -7  -7 -66.082  39.211   2
  -5  -7   7 37.9901 50.0890   3
   5   7  -7 -19.155  43.819   1
  -5   7   7 38.5018 76.1057   3
  -5   7   7 -45.347  53.848   4
  -4  -7   7 -42.006  35.508   3
   4  -7  -7 -19.806  35.550   2
  -4   7   7 -18.243  57.684   3
  -4   7   7 72.9196 54.3140   4
   4   7  -7 -30.793  44.859   1
   3  -7  -7 912.531 119.995   2
  -3  -7   7 977.188 114.635   3
   3   7  -7 829.862 113.227   1
  -3   7   7 717.054 120.810   3
  -3   7   7 907.933 118.028   4
   2  -7  -7 1063.54  133.45   2
  -2  -7   7 835.207 105.309   3
  -2  -7   7 924.333 108.981   4
   2   7  -7 1423.80  141.93   1
  -2   7   7 1156.44  135.24   3
  -2   7   7 762.506 109.890   4
  -1  -7   7 715.490  89.566   3
   1  -7  -7 841.703 129.000   2
  -1  -7   7 740.595 106.164   4
   1  -7  -7 711.268 100.593   3
  -1   7   7 788.555  99.541   4
   1   7  -7 721.737 109.079   1
   0  -7   7 140.652  43.222   3
   0  -7   7 110.386  60.641   4
   0  -7  -7 40.7826 56.5578   2
   0   7   7 54.4941 43.4748   4
   0   7  -7 84.9567 56.8888   1
   0   7   7 69.3977 33.4037   1
   1  -7   7 195.199  49.129   3
   1  -7   7 71.5187 65.0409   4
  -1  -7  -7 10.9462 66.3214   2
  -1   7  -7 51.9123 52.8336   1
   1   7   7 22.5756 34.2398   1
   1   7   7  2.3921 37.0362   4
  -2  -7  -7 3255.71  292.33   2
   2  -7   7 3464.29  235.68   3
   2  -7   7 2975.32  267.66   4
  -2   7  -7 3391.39  261.72   1
   2   7   7 3271.30  232.18   1
   2   7   7 3387.09  231.92   4
   3  -7   7 -52.799  63.370   4
  -3  -7  -7 10.9433 78.7450   2
  -3   7  -7 92.4524 59.9235   1
   3   7   7 82.1248 45.2679   4
   3   7   7 81.8828 49.2423   1
   4  -7   7 355.760 109.390   4
  -4  -7  -7 366.800 133.748   2
  -4   7  -7 150.555  67.849   1
   4   7   7 134.459  61.258   1
  -5  -7  -7 -11.729  98.577   2
   5  -7   7 138.906  89.528   4
   5   7   7 62.4726 57.2894   1
  -5   7  -7 -43.130  62.584   1
  -6  -7  -7 831.427 195.122   2
   6  -7   7 958.731 159.939   4
   6   7   7 714.834 125.284   1
  -7  -8   7 43.1985 69.1402   3
   7  -8  -7  3.6318 64.8136   2
   7   8  -7 -4.4446 61.5535   1
  -7   8   7 64.3906 93.2308   3
  -6  -8   7 122.381  67.979   3
   6  -8  -7 90.7615 72.3396   2
   6   8  -7 76.5351 67.6821   1
  -6   8   7 176.733  84.717   4
  -6   8   7 177.210  93.523   3
  -5  -8   7  8.9027 48.8478   3
   5  -8  -7 55.8683 54.9422   2
  -5   8   7 50.1341 70.0170   3
  -5   8   7 -2.1485 65.4503   4
   5   8  -7 -40.992  44.124   1
   4  -8  -7 1631.58  170.40   2
  -4  -8   7 1418.99  158.84   3
  -4   8   7 1584.18  189.93   3
   4   8  -7 1387.90  161.53   1
  -4   8   7 1317.23  159.07   4
   3  -8  -7 -18.720  46.258   2
  -3  -8   7  2.2316 37.7638   3
   3   8  -7 47.6865 46.6685   1
  -3   8   7 -120.48   48.72   3
  -3   8   7 39.1662 51.1997   4
  -2  -8   7 100.701  49.187   3
   2  -8  -7 80.6025 63.2785   2
   2  -8  -7 58.9221 60.5347   3
  -2  -8   7 211.452  64.156   4
  -2   8   7 135.220  58.792   4
   2   8  -7 107.323  61.115   1
   1  -8  -7 -12.142  60.990   2
  -1  -8   7  9.9404 51.9821   4
  -1  -8   7 51.2808 40.8236   3
   1  -8  -7 -44.157  43.558   3
  -1   8   7 38.5140 41.7062   4
   1   8  -7 -5.9469 42.5082   1
   0  -8   7 4228.32  284.69   3
   0  -8  -7 4433.44  323.37   2
   0  -8   7 4545.64  316.69   4
   0   8   7 3757.80  285.85   4
   0   8  -7 4422.22  307.92   1
   1  -8   7 -10.711  34.873   3
   1  -8   7 54.5174 66.1134   4
  -1  -8  -7 87.5307 78.9874   2
  -1   8  -7 -8.1356 51.3483   1
   1   8   7 10.5867 31.9168   1
   1   8   7 42.0125 40.9256   4
  -2  -8  -7 184.296  98.469   2
   2  -8   7 24.8730 71.8029   4
   2  -8   7 89.3386 45.0025   3
   2   8   7 128.107  50.100   1
   2   8   7 130.675  51.045   4
  -2   8  -7 70.7823 63.5724   4
  -2   8  -7 58.0443 55.9993   1
   3  -8   7 80.4690 57.3543   3
   3  -8   7 98.6422 79.1513   4
  -3  -8  -7 -139.28   64.98   2
   3   8   7 27.0998 42.8551   1
  -3   8  -7 -37.618  42.696   1
   3   8   7 -50.262  39.769   4
   4  -8   7 1506.09  204.41   4
  -4  -8  -7 1274.06  225.44   2
  -4   8  -7 1605.11  191.52   1
   4   8   7 1833.71  177.02   1
  -5  -8  -7 119.188 123.830   2
   5  -8   7 49.2111 82.9654   4
   5   8   7 68.7158 61.9074   1
  -5   8  -7 36.2413 75.5137   1
   6  -8   7 277.791 114.055   4
  -6  -8  -7 252.047 155.106   2
   6   8   7 193.766  78.663   1
   7  -9  -7 382.577 104.640   2
  -7  -9   7 240.399  99.040   3
   7   9  -7 278.634  92.060   1
  -7   9   7 337.455 125.377   3
   6  -9  -7 345.461  92.147   2
  -6  -9   7 208.536  80.591   3
  -6   9   7 196.883 103.467   3
   6   9  -7 175.931  81.539   1
  -6   9   7 151.294  94.574   4
   5  -9  -7 118.819  66.403   2
  -5  -9   7 41.0007 65.9128   3
  -5   9   7 65.8856 85.8128   3
  -5   9   7 100.433  80.742   4
   5   9  -7 52.9277 61.2762   1
  -4  -9   7 359.152  86.446   3
   4  -9  -7 475.571  93.599   2
  -4   9   7 359.040  92.897   4
  -4   9   7 364.473 108.101   3
   4   9  -7 329.867  82.470   1
   3  -9  -7 838.332 122.733   2
  -3  -9   7 1042.34  125.90   3
   3  -9  -7 680.718 129.531   3
   3   9  -7 876.601 124.520   1
  -3   9   7 793.232 119.897   4
  -2  -9   7 2211.33  175.56   3
   2  -9  -7 1896.45  202.09   3
   2  -9  -7 1900.75  212.62   2
  -2  -9   7 2044.27  177.64   4
  -2   9   7 2082.17  183.75   4
   2   9  -7 2080.03  182.03   1
  -1  -9   7 1274.70  133.19   3
   1  -9  -7 1187.29  143.76   3
  -1  -9   7 1471.96  158.61   4
   1  -9  -7 1060.69  148.58   2
  -1   9   7 1038.05  133.63   4
   1   9  -7 1204.00  149.91   1
   0  -9   7 89.2928 68.9904   4
   0  -9   7 -48.500  32.244   3
   0  -9  -7 -39.223  54.451   2
   0   9  -7 39.9740 50.7383   1
   0   9   7 -18.586  42.676   4
  -1  -9  -7 255.016  94.046   2
   1  -9   7 285.644  66.772   3
  -1   9  -7 313.582  85.508   1
   1   9   7 409.017  77.185   4
   1   9   7 265.450  55.863   1
  -1   9  -7 457.562  95.797   4
  -2  -9  -7 1144.88  180.04   2
   2  -9   7 1099.02  127.79   3
   2   9   7 1032.80  119.41   1
  -2   9  -7 1158.71  155.95   4
  -2   9  -7 997.363 144.803   1
   2   9   7 1077.13  123.67   4
  -3  -9  -7 712.484 163.345   2
   3  -9   7 674.565 106.312   3
  -3   9  -7 422.410 104.633   4
  -3   9  -7 777.039 131.073   1
   3   9   7 721.670 105.525   1
   4  -9   7 115.814  85.795   4
  -4  -9  -7 -52.553 100.723   2
  -4   9  -7  6.7747 69.8727   1
   4   9   7 130.024  56.578   1
  -4   9  -7 128.994  79.184   4
  -5  -9  -7  43.341 124.458   2
   5  -9   7 253.308 104.733   4
  -5   9  -7 148.469  90.383   1
   5   9   7 176.426  75.342   1
   6  -9   7 264.965 118.682   4
   7 -10  -7 68.6505 76.0085   2
  -6 -10   7 -25.441  63.226   3
   6 -10  -7 -16.093  66.566   2
  -6  10   7 45.1966 83.2071   4
   6  10  -7 -43.350  59.810   1
  -6  10   7 82.8379 91.0859   3
  -5 -10   7 953.706 142.075   3
   5 -10  -7 954.180 136.441   2
  -5  10   7 706.897 139.801   4
   5  10  -7 1026.87  144.98   1
  -5  10   7 949.722 167.305   3
   4 -10  -7 267.916  78.173   2
  -4 -10   7 152.605  65.738   3
   4 -10  -7 55.4860 79.3494   3
  -4  10   7 93.2004 73.0424   4
   4  10  -7 27.9694 61.1570   1
   3 -10  -7 615.471 129.785   3
   3 -10  -7 975.282 136.976   2
  -3 -10   7 749.333 117.231   3
  -3  10   7 892.388 131.975   4
   3  10  -7 1013.14  133.45   1
   2 -10  -7 -45.996  57.098   3
  -2 -10   7 34.4133 64.2127   4
  -2 -10   7 -14.276  44.927   3
   2 -10  -7 53.3261 66.9473   2
   2  10  -7 39.0262 54.8973   1
  -2  10   7 -61.788  48.754   4
   1 -10  -7 953.490 136.807   3
  -1 -10   7 1254.66  134.46   3
  -1 -10   7 1240.83  157.22   4
   1 -10  -7 966.806 143.709   2
  -1  10   7 1228.82  143.95   4
   1  10  -7 976.602 139.471   1
   0 -10   7  4.1710 42.8254   3
   0 -10  -7 57.3103 63.4341   2
   0  10  -7 34.5595 57.5185   4
   0  10  -7 27.8455 50.9905   1
   0  10   7 10.7176 49.8550   4
  -1 -10  -7 1964.00  236.70   2
   1 -10   7 2131.20  177.91   3
  -1  10  -7 1831.71  209.83   1
   1  10   7 2669.48  193.09   4
  -1  10  -7 1986.74  212.89   4
  -2 -10  -7 20.0679 79.0820   2
   2 -10   7 36.6052 49.4918   3
   2  10   7 34.3339 43.8778   1
   2  10   7 72.2272 57.1712   4
  -2  10  -7 102.829  67.076   1
  -2  10  -7 54.4260 68.2150   4
   3 -10   7 50.1536 55.4231   3
  -3 -10  -7 -46.201  83.866   2
   3  10   7 56.3510 47.5756   1
  -3  10  -7 49.8587 73.1243   4
  -3  10  -7 -74.089  50.482   1
  -4 -10  -7 269.347 141.754   2
  -4  10  -7 163.674  92.950   1
  -4  10  -7 121.498  86.245   4
   4  10   7 186.200  68.527   1
  -5 -10  -7 431.101 165.175   2
   5 -10   7 348.420 128.870   4
   5  10   7 756.148 121.175   1
   6 -11  -7  82.664 110.581   3
  -6 -11   7 18.5673 68.6059   3
   6 -11  -7 23.0970 71.9238   2
   6  11  -7 61.3286 71.4609   1
  -6  11   7  89.808 107.777   3
  -6  11   7 224.713 109.083   4
   5 -11  -7 359.993 101.925   2
   5 -11  -7 383.463 127.723   3
  -5 -11   7 465.392 106.090   3
   5  11  -7 549.115 111.228   1
  -5  11   7 361.210 112.176   4
   4 -11  -7 60.7947 66.3338   2
  -4 -11   7 58.8680 61.0114   3
   4 -11  -7 -19.854  80.676   3
   4  11  -7 54.6994 55.8955   1
  -4  11   7 57.4854 77.3425   4
   3 -11  -7 1040.10  157.90   3
  -3 -11   7 732.329 118.405   3
   3 -11  -7 1001.34  148.11   2
  -3  11   7 1032.85  147.26   4
   3  11  -7 526.515 106.663   1
   2 -11  -7 398.989 107.578   2
   2 -11  -7 459.635 106.987   3
  -2 -11   7 496.167  97.801   3
   2  11  -7 564.516 107.642   1
  -2  11   7 618.265 111.810   4
  -1 -11   7 1006.23  151.20   4
   1 -11  -7 923.991 137.537   2
  -1 -11   7 796.558 114.251   3
   1  11  -7 986.658 131.870   4
   1  11  -7 702.833 121.262   1
  -1  11   7 760.236 124.639   4
   0 -11   7 40.7460 48.2552   3
   0 -11  -7 33.7368 67.8036   2
   0  11  -7 -46.071  51.813   1
   0  11  -7 42.8231 59.4689   4
   0  11   7 62.6738 60.6709   4
  -1 -11  -7 855.248 145.011   2
   1 -11   7 645.525  99.295   3
  -1  11  -7 375.350 100.471   1
  -1  11  -7 496.860 107.594   4
   1  11   7 532.375 100.717   4
   2 -11   7 276.869  75.064   3
  -2 -11  -7 199.476 105.011   2
  -2  11  -7 180.928  84.216   4
  -2  11  -7 250.071  94.529   1
   2  11   7 292.489  79.713   4
   2  11   7 367.185  74.473   1
   3 -11   7 1068.74  142.58   3
  -3 -11  -7 1414.34  221.99   2
  -3  11  -7 1233.37  175.81   4
   3  11   7 1438.50  148.52   1
  -3  11  -7 951.663 157.499   1
  -4 -11  -7 224.340 130.221   2
   4  11   7 34.6787 55.7291   1
  -4  11  -7 169.138 103.846   1
  -4  11  -7 164.791  89.430   4
  -5 -11  -7  71.085 126.412   2
   5 -11   7  3.1915 93.4902   4
  -5  11  -7 -2.7644 90.2100   4
   5  11   7 67.5118 65.3172   1
  -6  12   7 239.161 118.474   4
  -5 -12   7 224.180  93.484   3
   5 -12  -7 18.3216 97.3815   3
   5 -12  -7 269.872  95.982   2
  -5  12   7 267.339 115.011   4
   5  12  -7 197.086  86.427   1
   4 -12  -7 721.905 129.335   2
   4 -12  -7 843.686 164.682   3
  -4 -12   7 907.292 142.172   3
  -4  12   7 688.296 137.259   4
   4  12  -7 584.542 119.556   1
   3 -12  -7 106.413  84.911   2
   3 -12  -7 99.7154 84.0135   3
  -3 -12   7 -13.586  54.476   3
   3  12  -7  6.0129 51.1468   1
  -3  12   7 52.0311 70.0973   4
  -2 -12   7  2.4604 51.9480   3
   2 -12  -7 15.1011 68.1570   2
   2 -12  -7 30.0797 72.7958   3
   2  12  -7 -11.501  58.344   1
  -2  12   7  6.3126 63.0490   4
  -1 -12   7 201.562  71.787   3
   1 -12  -7 207.257  83.006   2
   1  12  -7 287.326  88.233   1
   1  12  -7 236.810  81.967   4
  -1  12   7 82.0885 71.1301   4
   0 -12   7 1426.33  161.56   3
   0 -12  -7 1494.67  192.32   2
   0  12   7 1500.86  172.74   4
   0  12  -7 1499.97  181.03   1
   0  12  -7 1504.85  180.87   4
   1 -12   7 261.250  69.624   3
  -1 -12  -7 454.413 120.409   2
   1  12   7 403.023  92.353   4
  -1  12  -7 405.428 110.884   1
  -1  12  -7 303.112  94.412   4
   2 -12   7 21.2416 52.7646   3
  -2 -12  -7 12.2521 89.7200   2
  -2  12  -7 197.958  92.584   4
  -2  12  -7 18.7176 71.4721   1
   3 -12   7 20.8701 57.6204   3
  -3 -12  -7 -75.270 102.120   2
  -3  12  -7 67.6826 82.7322   4
  -3  12  -7 78.7658 84.4569   1
   3  12   7 51.2194 53.4471   1
  -4 -12  -7 967.985 197.922   2
   4  12   7 933.578 129.587   1
  -4  12  -7 584.345 141.272   4
   5 -13  -7 55.9554 96.4466   3
  -5  13   7 29.0089 87.4819   4
   4 -13  -7 82.3032 89.8684   3
  -4 -13   7 170.181  82.169   3
  -4  13   7 64.7714 92.0285   4
   4  13  -7 35.2274 67.2176   1
   3 -13  -7 102.538  90.864   2
   3 -13  -7 85.3953 92.6744   3
  -3 -13   7 -60.866  50.244   3
   3  13  -7 48.0857 61.6978   1
  -3  13   7 -69.274  72.223   4
   2 -13  -7 1596.49  195.44   2
   2 -13  -7 1514.36  196.51   3
  -2 -13   7 1633.93  184.17   3
   2  13  -7 1398.22  183.53   1
  -2  13   7 1509.83  195.14   4
  -1 -13   7 -14.812  54.858   3
   1 -13  -7 -12.884  71.983   2
   1  13  -7 -101.79   66.84   4
   1  13  -7 45.4960 66.7532   1
  -1  13   7 -65.559  61.153   4
   0 -13  -7 22.2321 79.5561   2
   0 -13   7 18.7362 50.1474   3
   0  13  -7 -37.749  64.866   4
   0  13  -7 63.0048 66.6104   1
   0  13   7 13.6671 60.3070   4
   1 -13   7 11.5063 53.5415   3
  -1 -13  -7 56.3701 92.6035   2
   1  13   7 149.528  74.226   4
  -1  13  -7 -27.969  70.861   1
  -1  13  -7  2.3489 70.0562   4
  -2 -13  -7 1204.66  200.94   2
   2 -13   7 1354.39  161.03   3
  -2  13  -7 1151.10  174.06   1
  -2  13  -7 1193.73  182.00   4
  -3 -13  -7 105.331 117.010   2
   3 -13   7 -16.869  58.302   3
  -3  13  -7 -1.2165 84.4285   4
  -3  13  -7 102.165  88.962   1
  -4 -13  -7  12.113 122.475   2
   4  13   7 22.9137 62.6342   1
  -4 -14   7 664.915 138.077   3
   4 -14  -7 651.430 156.423   3
  -4  14   7 605.667 149.378   4
   4  14  -7 621.220 120.474   1
  -3 -14   7 202.627  92.293   3
   3 -14  -7 313.460 120.027   3
   3  14  -7 230.843  83.443   1
  -3  14   7 205.184  99.212   4
   2 -14  -7  5.6927 74.4083   3
  -2 -14   7 42.2062 67.3988   3
   2  14  -7 40.4310 65.1810   1
  -2  14   7 19.8776 74.5424   4
  -1 -14   7 243.603  77.607   3
   1 -14  -7 254.991 100.679   2
   1  14  -7 336.266 100.062   1
  -1  14   7 102.225  79.188   4
   1  14  -7 279.389 101.614   4
   0 -14  -7 367.829 119.811   2
   0 -14   7 595.293 108.486   3
   0  14  -7 600.316 128.250   1
   0  14   7 635.604 126.670   4
   0  14  -7 764.728 136.625   4
  -1 -14  -7 223.099 115.316   2
   1 -14   7 163.085  71.074   3
   1  14   7 175.075  89.985   4
  -1  14  -7 75.0098 84.8576   4
  -1  14  -7 120.786  85.724   1
   2 -14   7 48.7772 61.3895   3
  -2 -14  -7 -28.751  92.639   2
  -2  14  -7 42.3002 84.3519   4
  -2  14  -7 111.300  88.868   1
   3 -14   7 -2.9346 63.7697   3
  -3 -14  -7 170.372 127.953   2
   3 -15  -7 357.982 124.976   3
  -2 -15   7 36.8066 60.9262   3
  -2  15   7 125.700  98.136   4
   2  15  -7 38.6706 75.4193   1
  -1 -15   7 465.088 104.292   3
  -1  15   7 236.886 100.866   4
   1  15  -7 213.874  95.093   1
   0 -15   7 27.6008 60.9621   3
   0  15  -7 45.5533 84.2121   4
   0  15   7 70.3287 86.6431   4
   0  15  -7 -77.375  66.255   1
   1 -15   7 569.663 111.249   3
  -1  15  -7 622.420 139.559   1
   1  15   7 506.891 128.627   4
  -1  15  -7 318.107 124.162   4
   2 -15   7 216.690  83.636   3
   1  16  -7 213.170 102.709   1
  -1  16   7 403.722 126.521   4
   0  16   7  6.9943 88.7895   4
   0  16  -7 167.203  94.316   1
   0  16  -7 160.103 104.936   4
  -8   0   8 354.085 120.255   3
   8   0  -8 358.551 107.694   2
   7   0  -8 -13.349  63.599   2
  -7   0   8 -41.528  69.753   3
  -6   0   8 769.060 133.179   3
   6   0  -8 686.366 121.746   2
   5   0  -8 -5.4474 48.1212   2
  -5   0   8 -20.134  53.893   3
   4   0  -8 564.479  93.702   2
  -4   0   8 665.001 105.932   3
  -4   0   8 692.976  78.578   4
   3   0  -8 -19.644  35.089   2
  -3   0   8 -31.828  23.285   4
   3   0  -8 21.0786 35.8993   1
  -3   0   8 -15.294  38.759   3
  -2   0   8 1956.57  147.77   3
   2   0  -8 1756.52  146.15   1
   2   0  -8 1870.94  149.50   2
  -2   0   8 1786.17  134.97   4
  -1   0   8 -23.413  28.538   3
   1   0  -8 -28.310  37.445   1
   1   0  -8 -93.501  35.870   2
  -1   0   8 -16.613  27.555   4
   0   0  -8 3164.77  243.94   1
   0   0  -8 3688.91  258.12   2
   0   0   8 3663.83  235.78   4
  -1   0  -8 -34.568  40.674   1
  -1   0  -8 116.726  59.373   2
   1   0   8 -3.2554 33.6248   4
  -2   0  -8 178.240  62.795   1
  -2   0  -8 144.968  72.791   2
   2   0   8 182.940  50.442   4
   3   0   8 53.7640 39.7100   4
  -3   0  -8 -33.814  40.317   1
  -3   0  -8  8.3017 58.9089   2
   4   0   8 2826.79  217.24   4
  -4   0  -8 3034.14  240.03   1
  -4   0  -8 3160.78  268.80   2
  -5   0  -8 131.129  84.617   2
  -5   0  -8 78.9375 62.9433   1
   6   0   8 -4.7559 55.8333   1
  -6   0  -8 54.1535 91.3010   2
  -7   0  -8  28.256 102.778   2
   8  -1  -8 346.810 105.723   2
  -8  -1   8 266.583 113.705   3
   8   1  -8 409.728 110.813   2
  -8   1   8 293.959 113.714   3
   7  -1  -8 510.990 115.963   2
  -7  -1   8 498.242 117.409   3
  -7   1   8 355.771 114.129   3
   7   1  -8 597.933 117.379   2
   6  -1  -8 680.659 117.621   2
  -6  -1   8 533.719 116.657   3
  -6   1   8 620.354 124.651   3
   6   1  -8 379.276  97.439   2
  -5  -1   8 179.292  67.304   3
   5  -1  -8 123.465  59.956   2
  -5   1   8 127.892  70.705   3
   5   1  -8 66.6959 55.9834   2
  -4  -1   8 1242.62  149.40   3
   4  -1  -8 1344.31  147.95   2
  -4  -1   8 1460.91  110.93   4
  -4   1   8 1213.46  149.54   3
   4   1  -8 1363.25  130.19   1
   4   1  -8 1074.99  134.05   2
  -4   1   8 1474.61  117.21   4
   3  -1  -8 971.384 108.988   2
  -3  -1   8 853.051  85.214   4
  -3  -1   8 851.228 107.231   3
   3  -1  -8 780.148  90.352   1
   3   1  -8 889.410 104.521   2
  -3   1   8 901.497 110.521   3
  -3   1   8 878.798  91.704   4
   3   1  -8 730.291  96.243   1
   2  -1  -8 2197.36  157.43   1
   2  -1  -8 2133.66  166.47   2
  -2  -1   8 2017.23  146.59   4
  -2  -1   8 2145.79  157.71   3
  -2   1   8 2061.97  149.66   4
   2   1  -8 2001.77  157.81   2
   2   1  -8 1995.10  159.78   1
  -2   1   8 1898.62  155.79   3
   1  -1  -8 65.6803 45.0483   1
  -1  -1   8 40.8028 30.6830   3
  -1  -1   8 17.2843 32.9232   4
   1  -1  -8 -14.534  46.697   2
  -1   1   8 45.5132 29.6164   4
  -1   1   8 39.8887 34.7167   3
   1   1  -8 -5.0958 42.8689   2
   1   1  -8 54.3493 42.9394   1
   0  -1   8 590.226  77.835   4
   0  -1  -8 478.931  81.854   1
   0  -1  -8 467.254  90.497   2
   0  -1   8 674.109  61.408   3
   0   1   8 480.963  69.104   4
   0   1  -8 462.486  82.085   1
   0   1  -8 585.455  87.941   2
  -1  -1  -8 1302.31  136.75   1
  -1  -1  -8 1441.44  158.01   2
   1  -1   8 1070.19  120.14   4
   1   1   8 1201.39  118.25   4
  -1   1  -8 1225.24  142.63   1
  -1   1  -8 1448.75  146.85   2
  -2  -1  -8 2692.72  222.05   2
   2  -1   8 2368.97  185.54   4
  -2  -1  -8 2399.33  197.66   1
  -2   1  -8 2406.91  198.71   1
  -2   1  -8 2673.27  207.31   2
   2   1   8 2163.56  173.87   4
  -3  -1  -8 185.519  81.158   2
  -3  -1  -8 103.452  55.561   1
   3  -1   8 168.444  56.786   4
  -3   1  -8 110.927  70.393   2
   3   1   8 144.772  49.326   4
  -3   1  -8 148.985  64.757   1
  -4  -1  -8 58.7168 77.1017   2
   4  -1   8 75.7121 51.3318   4
  -4  -1  -8 39.8202 57.3466   1
  -4   1  -8 34.8599 49.4499   1
  -4   1  -8 -81.383  61.760   2
   4   1   8 -17.213  35.302   4
   5  -1   8 359.424  78.536   4
  -5  -1  -8 202.068 101.914   2
   5   1   8 203.683  74.053   1
  -5   1  -8 435.612  98.050   1
  -5   1  -8 248.663  96.753   2
  -6  -1  -8 1153.71  201.08   2
   6  -1   8 1295.39  168.08   1
  -6   1  -8 1082.97  185.89   2
   6   1   8 1751.98  192.23   1
  -7  -1  -8 348.008 136.673   2
  -7   1  -8 138.894 112.995   2
   8  -2  -8 -53.968  73.788   2
  -8  -2   8 31.6818 82.0568   3
   8   2  -8 -81.722  72.432   2
  -8   2   8 -9.9977 80.5753   3
   7  -2  -8 84.8813 73.9588   2
  -7  -2   8  8.8535 64.1214   3
   7   2  -8 -16.367  62.790   2
  -7   2   8 -80.185  67.892   3
  -6  -2   8 16.0549 58.0720   3
   6  -2  -8 47.2454 60.0142   2
  -6   2   8 72.4583 79.8725   3
   6   2  -8 45.8326 63.1457   2
  -5  -2   8 2133.85  187.87   3
   5  -2  -8 2068.71  204.93   2
   5   2  -8 1985.09  165.56   1
   5   2  -8 2051.17  182.87   2
  -5   2   8 1963.86  212.24   3
   4  -2  -8 212.600  62.816   2
  -4  -2   8 109.210  57.120   3
  -4   2   8 169.778  65.095   3
  -4   2   8 154.298  48.820   4
   4   2  -8 108.085  44.953   1
   4   2  -8 91.5111 52.7034   2
  -3  -2   8 529.586  84.474   3
  -3  -2   8 564.011  67.314   4
   3  -2  -8 616.588  88.877   2
  -3   2   8 618.473  95.662   3
   3   2  -8 529.738  79.766   2
  -3   2   8 686.207  80.169   4
   3   2  -8 481.362  80.271   1
   2  -2  -8 135.259  49.760   2
   2  -2  -8 80.3363 38.9298   1
  -2  -2   8 107.286  44.996   3
  -2  -2   8 111.043  38.919   4
  -2   2   8 128.040  41.205   4
   2   2  -8 135.225  44.834   2
   2   2  -8 68.7931 45.0313   1
  -2   2   8 81.6116 50.1872   3
  -1  -2   8 2345.17  161.24   3
   1  -2  -8 2279.66  170.51   1
  -1  -2   8 2395.05  166.98   4
   1  -2  -8 2381.63  195.90   2
  -1   2   8 2301.91  163.79   4
   1   2  -8 2094.52  171.90   2
  -1   2   8 2321.55  165.11   3
   1   2  -8 2103.10  178.05   1
   0  -2  -8 523.178  83.626   1
   0  -2  -8 827.882 116.653   2
   0  -2   8 760.782  71.150   3
   0  -2   8 621.298  84.173   4
   0   2  -8 843.077 109.902   1
   0   2  -8 822.665  96.494   2
   0   2   8 691.904  81.297   4
  -1  -2  -8 374.889  71.041   1
  -1  -2  -8 249.685  83.585   2
   1  -2   8 317.679  64.885   4
   1   2   8 214.220  52.287   4
  -1   2  -8 281.854  73.443   1
  -1   2  -8 314.313  72.117   2
  -2  -2  -8 58.0876 62.1813   2
   2  -2   8 67.8863 46.4710   4
  -2  -2  -8 -71.697  38.310   1
   2   2   8  2.6928 30.4962   4
  -2   2  -8 -8.1465 44.3904   1
  -2   2  -8 -102.70   38.75   2
  -3  -2  -8 1633.67  204.33   2
   3  -2   8 1705.27  168.14   4
  -3  -2  -8 1480.71  165.50   1
  -3   2  -8 1387.46  169.58   2
  -3   2  -8 1594.52  174.63   1
   3   2   8 1662.00  135.04   4
  -4  -2  -8 242.929 101.020   2
   4  -2   8 182.677  63.503   4
  -4  -2  -8 176.289  64.979   1
   4   2   8 63.6734 54.3695   1
  -4   2  -8 220.858  84.779   2
  -4   2  -8 130.085  64.396   1
   4   2   8 108.531  47.665   4
  -5  -2  -8 980.042 177.501   2
   5  -2   8 1054.61  135.82   4
   5   2   8 1060.78  146.83   1
  -5   2  -8 888.487 152.134   2
  -5   2  -8 883.309 131.348   1
  -6  -2  -8 -105.71   78.70   2
  -6   2  -8 -25.863  74.683   2
   6   2   8 -16.916  52.646   1
  -6   2  -8 -3.1516 63.5658   1
  -8  -3   8 61.9592 85.4545   3
   8  -3  -8 13.1125 78.8018   2
  -8   3   8 -73.644  77.710   3
   8   3  -8 -40.430  72.529   2
   7  -3  -8 1406.99  184.70   2
  -7  -3   8 1136.07  173.11   3
  -7   3   8 1648.56  214.96   3
   7   3  -8 1389.88  184.46   2
  -6  -3   8 133.538  74.622   3
   6  -3  -8 171.560  71.488   2
   6   3  -8 218.515  79.650   2
  -6   3   8 236.214  94.583   3
  -5  -3   8 -28.292  48.075   3
   5  -3  -8 151.909  62.136   2
   5   3  -8 137.913  62.542   2
  -5   3   8 47.8254 49.8072   4
  -5   3   8  1.5915 56.1445   3
   5   3  -8 28.2617 46.9751   1
  -4  -3   8 165.411  57.401   3
   4  -3  -8 197.548  62.906   2
   4   3  -8 141.404  53.915   1
   4   3  -8 97.1452 53.3463   2
  -4   3   8 45.0523 61.1782   3
  -4   3   8 135.393  54.072   4
  -3  -3   8 2835.23  184.59   4
  -3  -3   8 2626.64  205.18   3
   3  -3  -8 2672.84  210.24   2
   3   3  -8 2813.05  207.26   1
   3   3  -8 2594.46  198.50   2
  -3   3   8 2941.98  199.77   4
  -3   3   8 2743.41  216.65   3
  -2  -3   8 82.9084 40.4249   3
   2  -3  -8 170.768  42.169   1
   2  -3  -8 142.341  52.608   2
  -2  -3   8 129.852  39.833   4
   2   3  -8 80.1019 40.7776   2
  -2   3   8 129.757  52.865   3
   2   3  -8 156.840  52.236   1
  -2   3   8 68.0657 38.1086   4
   1  -3  -8 583.847  77.534   1
  -1  -3   8 675.899  84.492   4
   1  -3  -8 682.334 110.578   2
  -1  -3   8 602.650  74.370   3
  -1   3   8 589.557  76.178   4
  -1   3   8 713.521  82.986   3
   1   3  -8 736.110  90.430   2
   1   3  -8 664.756  98.660   1
   0  -3   8 237.012  56.497   4
   0  -3  -8 256.901  76.656   2
   0  -3  -8 293.165  62.982   1
   0  -3   8 288.412  44.915   3
   0   3  -8 330.088  62.167   2
   0   3  -8 446.830  83.207   1
   0   3   8 174.208  47.235   4
   1  -3   8 1055.81  122.88   4
  -1  -3  -8 1092.40  121.06   1
  -1  -3  -8 948.958 143.198   2
  -1   3  -8 1034.41  116.52   2
   1   3   8 1114.16  107.95   4
  -1   3  -8 1061.11  135.32   1
   2  -3   8 2101.12  172.76   4
  -2  -3  -8 1870.95  162.11   1
  -2  -3  -8 1712.93  208.60   2
  -2   3  -8 2026.93  200.55   1
  -2   3  -8 1599.07  169.94   2
   2   3   8 1886.22  144.17   4
  -3  -3  -8 799.478 113.282   1
   3  -3   8 691.510 107.447   4
  -3  -3  -8 531.732 130.119   2
   3   3   8 667.388  83.880   4
  -3   3  -8 712.839 111.910   2
  -3   3  -8 559.092 105.527   1
   4  -3   8 103.276  64.376   4
  -4  -3  -8 225.524 105.025   2
  -4   3  -8 52.2888 62.2735   1
  -4   3  -8 229.886  82.586   2
   4   3   8 248.804  72.059   1
   4   3   8 199.731  54.386   4
  -5  -3  -8 839.689 177.111   2
   5  -3   8 739.137 122.325   4
  -5   3  -8 888.816 136.383   1
   5   3   8 960.933 132.380   1
  -6  -3  -8  50.536 104.447   2
   6   3   8 -41.392  51.684   1
  -6   3  -8 92.6307 75.7876   1
  -8   4   8 104.922  91.257   3
   8   4  -8 120.630  87.794   2
   7  -4  -8 55.6864 71.3621   2
  -7  -4   8 -29.232  55.174   3
  -7   4   8 105.750  98.586   3
   7   4  -8 24.6733 67.0889   2
  -6  -4   8 773.833 123.624   3
   6  -4  -8 607.028 115.023   2
   6   4  -8 636.316 112.615   2
   6   4  -8 660.624 104.217   1
  -6   4   8 373.825 109.943   3
   5  -4  -8 1329.98  166.84   2
  -5  -4   8 1369.83  167.54   3
   5   4  -8 1579.78  170.59   2
  -5   4   8 1530.50  188.43   3
  -5   4   8 1875.16  155.08   4
   5   4  -8 1796.08  168.06   1
  -4  -4   8 1174.33  137.83   3
   4  -4  -8 1144.60  136.69   2
  -4   4   8 1282.45  131.29   4
   4   4  -8 1241.01  133.84   1
   4   4  -8 1002.54  124.81   2
  -4   4   8 1186.66  154.45   3
   3  -4  -8 519.944  87.252   2
  -3  -4   8 462.694  64.866   4
  -3  -4   8 762.513  96.188   3
  -3   4   8 412.815  73.682   4
   3   4  -8 740.249  99.059   1
  -3   4   8 604.385 101.162   3
   3   4  -8 531.384  77.751   2
  -2  -4   8 448.350  65.286   4
   2  -4  -8 401.673  80.687   2
  -2  -4   8 482.939  71.197   3
  -2   4   8 425.927  79.515   3
   2   4  -8 489.996  66.815   2
  -2   4   8 544.943  75.117   4
   2   4  -8 282.754  70.900   1
  -1  -4   8 789.989  84.571   3
  -1  -4   8 824.408  97.593   4
   1  -4  -8 603.698 117.396   2
   1  -4  -8 580.377  76.773   1
  -1   4   8 916.833  96.475   4
   1   4  -8 576.926  97.934   1
  -1   4   8 895.802  94.818   3
   1   4  -8 832.732  94.178   2
   0  -4   8 2258.13  152.70   3
   0  -4  -8 2294.07  197.65   2
   0  -4  -8 2277.64  166.14   1
   0  -4   8 2010.89  174.01   4
   0   4   8 2072.71  161.23   4
   0   4  -8 2152.03  160.92   2
   0   4  -8 2189.69  186.07   1
   1  -4   8 187.406  62.253   4
  -1  -4  -8 67.2099 44.1385   1
  -1  -4  -8 30.3734 72.9859   2
   1  -4   8 110.826  34.907   3
   1   4   8 112.204  39.746   4
  -1   4  -8 193.529  67.771   1
   2  -4   8 224.487  74.219   4
  -2  -4  -8 350.915  70.725   1
  -2  -4  -8 41.2337 79.3592   2
   2   4   8 233.716  50.276   4
   2   4   8 96.0889 48.5687   1
  -2   4  -8 327.908  80.350   1
   3  -4   8 802.446 125.266   4
  -3  -4  -8 1097.97  176.87   2
   3   4   8 972.476 101.418   4
  -3   4  -8 748.792 124.537   1
   3   4   8 852.982 115.557   1
  -4  -4  -8 1978.52  248.48   2
   4  -4   8 1672.35  182.91   4
  -4   4  -8 1187.61  163.79   1
   4   4   8 1911.51  184.63   1
   4   4   8 1484.14  129.89   4
   5  -4   8 317.259  92.421   4
  -5  -4  -8 171.647 117.549   2
   5   4   8 156.561  71.456   1
  -5   4  -8 160.520  74.383   1
  -6  -4  -8 156.329 118.486   2
  -6   4  -8 82.1579 76.2627   1
   6   4   8 73.1462 68.1177   1
   8   5  -8 512.723 133.296   2
  -7  -5   8 -15.016  62.535   3
   7  -5  -8 54.2898 73.3401   2
  -7   5   8 -61.425  81.319   3
   7   5  -8 82.5846 78.1481   2
   6  -5  -8 382.704  95.502   2
  -6  -5   8 526.189 107.232   3
   6   5  -8 465.023 106.192   2
   6   5  -8 557.994  98.966   1
  -6   5   8 365.289 105.380   3
   5  -5  -8 -6.0566 46.7753   2
  -5  -5   8 22.5543 53.1125   3
  -5   5   8 -15.646  48.116   4
   5   5  -8 28.6699 49.9553   2
   5   5  -8 -26.106  43.727   1
  -5   5   8 76.3916 71.6042   3
   4  -5  -8 1244.26  146.29   2
  -4  -5   8 1277.79  145.77   3
   4   5  -8 1156.88  132.49   2
   4   5  -8 1457.69  149.41   1
  -4   5   8 1138.62  155.68   3
  -4   5   8 1380.53  141.98   4
  -3  -5   8 72.2644 34.5821   4
  -3  -5   8 -1.9333 38.6818   3
   3  -5  -8 11.2223 44.6184   2
  -3   5   8 -35.957  38.538   4
  -3   5   8 -32.111  48.251   3
   3   5  -8 -61.922  37.456   1
   3   5  -8 49.8079 39.8704   2
   2  -5  -8 2599.78  204.01   2
  -2  -5   8 2316.08  178.34   3
  -2  -5   8 2371.12  175.41   4
  -2   5   8 2233.18  181.62   4
   2   5  -8 2444.35  199.10   1
  -2   5   8 2599.03  197.98   3
   1  -5  -8  0.5328 30.9729   1
  -1  -5   8 33.7132 43.0073   4
  -1  -5   8 -49.034  27.600   3
   1  -5  -8 -29.132  53.747   2
  -1   5   8 -29.660  30.944   4
  -1   5   8 66.3685 45.3256   3
   1   5  -8 44.9446 48.4635   1
   0  -5   8 521.143  66.091   3
   0  -5  -8 484.035 101.143   2
   0  -5  -8 386.658  69.037   1
   0  -5   8 549.581  91.054   4
   0   5  -8 572.719  95.755   1
   0   5   8 462.019  74.660   4
   1  -5   8 29.7205 29.2756   3
   1  -5   8 65.4856 53.7856   4
  -1  -5  -8 -61.882  52.489   2
   1   5   8 44.1384 35.0802   4
  -1   5  -8 -11.441  45.823   1
   1   5   8 24.9392 38.0318   1
  -2  -5  -8 3232.12  283.41   2
   2  -5   8 2943.42  249.41   4
  -2   5  -8 3268.83  248.83   1
   2   5   8 3219.02  217.19   4
   2   5   8 2930.45  225.29   1
   3  -5   8 81.1576 62.3670   4
  -3  -5  -8  0.0886 81.1002   2
  -3   5  -8 -76.142  46.910   1
   3   5   8 11.2432 36.6153   4
   3   5   8  2.0689 38.1434   1
   4  -5   8 -32.443  62.645   4
  -4  -5  -8 66.4164 91.5043   2
   4   5   8 41.8496 53.9614   1
  -4   5  -8 106.654  71.279   1
  -5  -5  -8 -87.773  97.890   2
   5  -5   8 14.8076 68.0710   4
   5   5   8 79.8579 63.7213   1
  -5   5  -8 -2.3894 59.4162   1
  -6  -5  -8 2183.06  288.02   2
   6   5   8 1689.19  195.44   1
  -6   5  -8 1291.68  183.09   1
  -7  -6   8 67.0772 75.0531   3
   7  -6  -8 -21.065  64.054   2
   7   6  -8 20.5369 73.3498   2
  -7   6   8 -50.396  80.403   3
   7   6  -8 21.2037 62.6595   1
   6  -6  -8 909.289 136.657   2
  -6  -6   8 657.856 122.994   3
  -6   6   8 951.754 160.927   3
   6   6  -8 635.476 118.794   2
   6   6  -8 902.180 126.842   1
   5  -6  -8 416.163  91.619   2
  -5  -6   8 562.453  99.400   3
  -5   6   8 416.381  89.404   4
  -5   6   8 665.085 119.987   3
   5   6  -8 368.532  88.008   2
   5   6  -8 311.629  83.310   1
   4  -6  -8 1289.95  149.70   2
  -4  -6   8 1111.67  138.11   3
   4   6  -8 1181.89  141.32   1
  -4   6   8 1225.20  160.92   3
  -4   6   8 1373.63  145.63   4
  -3  -6   8 74.7206 39.5541   4
   3  -6  -8 143.910  59.544   2
  -3  -6   8 107.950  53.605   3
  -3   6   8 251.870  78.325   3
   3   6  -8 191.485  65.569   1
  -3   6   8 155.247  55.592   4
  -2  -6   8 465.213  75.776   4
   2  -6  -8 310.441  81.994   2
  -2  -6   8 497.594  76.208   3
  -2   6   8 480.291  79.841   4
   2   6  -8 326.891  80.066   1
  -2   6   8 496.065  92.463   3
  -1  -6   8 435.506  83.497   4
  -1  -6   8 512.185  74.058   3
   1  -6  -8 443.300 105.318   2
   1   6  -8 456.878  91.426   1
  -1   6   8 594.980  86.487   4
   0  -6   8 2011.01  179.19   4
   0  -6   8 2261.99  154.50   3
   0  -6  -8 1748.45  204.11   2
   0   6   8 2070.30  162.96   4
   0   6  -8 2063.59  203.69   1
   0   6   8 1896.50  147.88   1
   1  -6   8 105.312  40.034   3
  -1  -6  -8 165.574  80.516   2
   1  -6   8 39.3102 53.9910   4
   1   6   8 102.649  47.149   4
  -1   6  -8 57.3452 57.0397   1
   1   6   8 78.0563 41.7191   1
  -2  -6  -8 318.448 104.349   2
   2  -6   8 426.212  99.630   4
   2   6   8 296.240  64.434   1
  -2   6  -8 251.741  78.927   1
   2   6   8 399.906  69.821   4
   3  -6   8 281.725  92.225   4
  -3  -6  -8 300.905 115.067   2
   3   6   8 238.952  61.473   4
   3   6   8 292.390  70.149   1
  -3   6  -8 167.626  76.132   1
   4  -6   8 2262.93  234.98   4
  -4  -6  -8 2133.53  276.64   2
   4   6   8 2246.56  191.06   1
  -4   6  -8 1867.10  215.13   1
   5  -6   8 270.164  90.824   4
  -5  -6  -8  48.748 116.123   2
  -5   6  -8 -5.1990 63.4761   1
   5   6   8 54.3538 59.2486   1
   6  -6   8 61.7682 79.1677   4
  -6  -6  -8 119.483 125.551   2
   6   6   8 126.319  67.899   1
  -6   6  -8 -5.5924 72.3784   1
  -7  -7   8 1321.76  177.76   3
   7  -7  -8 1195.06  170.44   2
  -7   7   8 989.787 186.795   3
   7   7  -8 1114.57  153.83   1
  -6  -7   8 74.7057 70.3243   3
   6  -7  -8 10.4564 60.8185   2
  -6   7   8 43.6598 75.2685   4
   6   7  -8 77.9412 61.2049   1
  -6   7   8 88.3914 87.8640   3
   5  -7  -8 57.7751 57.9534   2
  -5  -7   8 125.621  63.963   3
  -5   7   8 170.967  88.302   3
  -5   7   8 34.9332 56.0582   4
   5   7  -8 122.389  64.058   1
   4  -7  -8 44.8826 54.8490   2
  -4  -7   8 68.5968 51.8932   3
  -4   7   8 57.1063 66.3337   3
  -4   7   8 155.029  64.367   4
   4   7  -8 31.4320 52.7666   1
  -3  -7   8 1574.16  158.34   3
   3  -7  -8 1822.93  182.27   2
   3   7  -8 1522.37  171.87   1
  -3   7   8 1570.31  163.70   4
  -3   7   8 1635.91  182.58   3
  -2  -7   8 251.803  63.757   3
  -2  -7   8 223.059  63.126   4
   2  -7  -8 328.538  88.503   2
  -2   7   8 306.611  78.746   3
  -2   7   8 366.254  75.499   4
   2   7  -8 398.575  85.458   1
   1  -7  -8 480.991 105.825   2
  -1  -7   8 391.652  68.157   3
  -1  -7   8 459.978  86.558   4
   1   7  -8 343.514  86.285   1
  -1   7   8 350.148  72.709   4
   0  -7   8 102.911  41.022   3
   0  -7  -8 95.5417 66.1053   2
   0  -7   8 291.318  80.140   4
   0   7  -8 235.744  73.125   1
   0   7   8 199.366  57.386   4
   1  -7   8 947.387 139.089   4
   1  -7   8 1283.58  118.12   3
  -1  -7  -8 1294.59  176.66   2
   1   7   8 893.015 107.392   1
   1   7   8 1163.67  123.03   4
  -1   7  -8 876.809 135.312   1
  -2  -7  -8 1412.90  207.41   2
   2  -7   8 1451.00  178.73   4
   2   7   8 1359.39  139.38   1
  -2   7  -8 1432.55  172.27   1
   2   7   8 1378.10  139.74   4
  -3  -7  -8 424.531 144.735   2
   3  -7   8 463.459 115.269   4
   3   7   8 638.264  89.739   4
   3   7   8 676.563  97.728   1
  -3   7  -8 680.255 123.658   1
   4  -7   8 46.2451 72.6481   4
  -4  -7  -8 -58.987  95.254   2
   4   7   8  2.4569 48.0545   1
  -4   7  -8 -36.047  63.528   1
  -5  -7  -8 1200.03  225.85   2
   5  -7   8 800.064 153.083   4
   5   7   8 827.762 128.838   1
  -5   7  -8 781.070 138.715   1
   6  -7   8 225.154 103.599   4
  -6   7  -8 136.161  90.896   1
   7  -8  -8 -22.176  72.622   2
  -7  -8   8 91.2716 80.0545   3
  -7   8   8  1.1681 92.6121   3
   7   8  -8 -16.828  63.983   1
  -6  -8   8 20.4792 64.4843   3
   6  -8  -8  7.8839 60.0496   2
  -6   8   8 -2.1030 84.5320   3
  -6   8   8 38.3608 72.9579   4
   6   8  -8 20.2609 58.3123   1
  -5  -8   8 1343.35  161.85   3
   5  -8  -8 1090.11  151.80   2
  -5   8   8 1359.77  187.58   3
   5   8  -8 1083.22  152.15   1
  -5   8   8 1218.83  159.10   4
  -4  -8   8 230.728  69.367   3
   4  -8  -8 81.6908 60.2479   2
  -4   8   8 43.6481 60.7224   4
  -4   8   8 196.400  89.257   3
   4   8  -8 121.275  68.597   1
  -3  -8   8 57.7646 47.0394   3
   3  -8  -8 161.175  66.973   2
  -3   8   8 210.159  81.574   3
   3   8  -8 144.134  63.341   1
  -3   8   8 130.721  63.025   4
  -2  -8   8  9.9160 37.9658   3
   2  -8  -8  8.3810 62.0084   2
   2  -8  -8 19.2068 61.4759   3
  -2  -8   8 -4.4474 45.8742   4
   2   8  -8 24.5693 51.3612   1
  -2   8   8  6.0355 49.9055   4
   1  -8  -8 1919.98  221.18   2
  -1  -8   8 2212.27  187.72   4
  -1  -8   8 2234.99  172.43   3
  -1   8   8 2055.53  180.13   4
   1   8  -8 2187.51  214.68   1
   0  -8  -8 89.1822 67.7070   2
   0  -8   8 159.981  50.296   3
   0  -8   8 56.5447 66.8655   4
   0   8   8 103.584  54.310   4
   0   8  -8 90.1052 63.4345   1
  -1  -8  -8 728.415 142.698   2
   1  -8   8 611.862 121.123   4
   1  -8   8 790.900  96.899   3
  -1   8  -8 604.629 115.347   1
   1   8   8 701.302  98.925   4
   1   8   8 579.577  84.153   1
  -2  -8  -8 84.8856 91.2808   2
   2  -8   8 34.0075 71.3537   4
   2   8   8 23.5341 41.8899   1
   2   8   8 -28.265  42.391   4
  -2   8  -8 34.0171 56.6361   1
   3  -8   8 690.482 138.906   4
  -3  -8  -8 734.805 167.604   2
  -3   8  -8 845.046 141.654   1
   3   8   8 825.561 113.687   1
   3   8   8 997.957 115.003   4
  -4  -8  -8  83.076 108.852   2
   4  -8   8 -39.658  67.138   4
  -4   8  -8 56.7342 67.5900   1
   4   8   8  8.7970 50.0284   1
   5  -8   8 619.155 141.123   4
  -5  -8  -8 618.250 186.138   2
   5   8   8 618.699 119.053   1
  -5   8  -8 382.156 112.195   1
   6  -8   8 -17.170  86.095   4
   7  -9  -8 417.240 109.490   2
   7   9  -8 396.648 107.332   1
  -6  -9   8 82.0533 70.3699   3
   6  -9  -8 253.057  88.776   2
  -6   9   8 99.1795 98.3881   3
  -6   9   8 102.867  88.748   4
   6   9  -8 149.751  78.167   1
  -5  -9   8 -40.022  49.628   3
   5  -9  -8 11.6774 61.6440   2
   5   9  -8 26.3776 62.9058   1
  -5   9   8 53.9105 81.5132   3
  -5   9   8 80.4874 74.5870   4
   4  -9  -8 783.771 123.837   2
  -4  -9   8 624.661 105.935   3
  -4   9   8 457.410 107.031   4
  -4   9   8 866.315 145.324   3
   4   9  -8 859.458 127.393   1
  -3  -9   8 913.715 122.695   3
   3  -9  -8 1037.42  144.24   2
   3  -9  -8 735.751 137.667   3
   3   9  -8 910.696 132.536   1
  -3   9   8 1079.62  142.46   4
  -2  -9   8 1688.84  168.03   4
   2  -9  -8 1640.32  194.41   2
  -2  -9   8 1594.32  160.44   3
   2  -9  -8 1609.16  180.46   3
   2   9  -8 1289.86  169.82   1
  -2   9   8 1483.99  166.43   4
  -1  -9   8 203.013  77.500   4
  -1  -9   8 168.666  56.936   3
   1  -9  -8 52.2828 67.9149   2
   1   9  -8 258.981  82.915   1
  -1   9   8 126.399  61.637   4
   0  -9  -8 -77.170  59.062   2
   0  -9   8 44.4149 59.8839   4
   0  -9   8 -15.435  38.546   3
   0   9   8 44.3705 48.6969   4
   0   9  -8 10.3272 53.2344   1
  -1  -9  -8 1098.05  175.85   2
   1  -9   8 1156.90  133.81   3
   1  -9   8 1368.78  180.20   4
   1   9   8 1524.06  152.93   4
  -1   9  -8 1407.35  168.63   1
   2  -9   8 595.489  95.863   3
   2  -9   8 713.834 138.197   4
  -2  -9  -8 836.383 155.181   2
  -2   9  -8 614.307 119.993   1
   2   9   8 718.659 102.782   4
   2   9   8 531.391  88.844   1
  -3  -9  -8  77.406 104.819   2
   3  -9   8 443.612 115.511   4
  -3   9  -8 175.699  88.045   1
   3   9   8 474.766  83.787   1
   4  -9   8 73.4444 93.8569   4
  -4  -9  -8 -33.182 107.817   2
  -4   9  -8 -71.188  71.246   1
   4   9   8 67.5773 58.9521   1
   5  -9   8 91.7579 98.7394   4
  -5  -9  -8 148.088 148.474   2
  -5   9  -8 276.946 104.961   1
   5   9   8 368.400  93.099   1
  -6 -10   8 466.793 114.373   3
   6 -10  -8 510.214 116.947   2
  -6  10   8 678.016 157.871   3
   6  10  -8 532.818 119.210   1
  -6  10   8 508.371 132.858   4
  -5 -10   8 134.177  76.727   3
   5 -10  -8 76.2508 74.9279   2
   5  10  -8 49.7413 63.9292   1
  -5  10   8 89.0469 95.2560   3
  -5  10   8 67.5008 77.5215   4
  -4 -10   8 533.600 104.034   3
   4 -10  -8 307.424 113.715   3
   4 -10  -8 496.721 106.482   2
  -4  10   8 536.835 114.828   4
   4  10  -8 232.420  86.403   1
   3 -10  -8 -40.897  56.832   2
   3 -10  -8 15.3126 76.4229   3
  -3 -10   8 14.7280 56.8409   3
  -3  10   8 58.3813 63.4323   4
   3  10  -8 45.7312 62.6483   1
  -2 -10   8 1147.18  145.38   4
   2 -10  -8 1380.51  180.59   2
  -2 -10   8 1153.45  138.82   3
   2 -10  -8 1018.23  148.66   3
  -2  10   8 1118.54  147.14   4
   2  10  -8 1175.29  155.04   1
  -1 -10   8 -11.606  61.502   4
  -1 -10   8 69.8242 48.9715   3
   1 -10  -8 75.0829 68.1595   2
  -1  10   8 -69.871  47.247   4
   1  10  -8 34.7502 60.0440   1
   0 -10   8 2911.65  216.57   3
   0 -10  -8 2644.41  272.30   2
   0 -10   8 2339.17  255.60   4
   0  10  -8 2697.14  239.24   1
   0  10   8 3001.05  229.54   4
  -1 -10  -8 40.5212 82.2951   2
   1 -10   8 -45.619  68.863   4
   1 -10   8 -32.073  41.864   3
   1  10   8 -17.526  47.695   4
  -1  10  -8 24.3422 57.6801   1
   2 -10   8 91.3189 91.9050   4
   2 -10   8 104.405  60.211   3
  -2 -10  -8 51.8694 89.3368   2
  -2  10  -8 -17.387  54.380   1
   2  10   8 18.7223 46.6861   1
   2  10   8 158.648  65.415   4
  -3 -10  -8 308.342 132.729   2
   3 -10   8 98.6564 92.2675   4
  -3  10  -8 32.6540 71.4653   1
   3  10   8 131.603  61.565   1
  -4 -10  -8 2125.83  293.81   2
   4 -10   8 1713.28  235.52   4
   4  10   8 1679.09  180.47   1
  -4  10  -8 1558.54  211.53   1
   5 -10   8 -25.054  97.601   4
   5  10   8 -36.081  55.758   1
  -5  10  -8 -46.190  81.549   1
   6 -11  -8 386.476 106.118   2
   6 -11  -8 302.919 133.938   3
  -6  11   8 406.360 139.960   3
  -6  11   8 239.062 112.244   4
   6  11  -8 333.313 105.484   1
  -5 -11   8 45.3437 69.4465   3
   5 -11  -8  7.0864 67.2676   2
   5 -11  -8 17.8713 97.8700   3
  -5  11   8 69.6265 76.7699   4
   5  11  -8 88.1811 72.2833   1
   4 -11  -8 254.326 114.779   3
  -4 -11   8 687.334 123.697   3
   4 -11  -8 903.638 139.742   2
  -4  11   8 506.565 120.864   4
   4  11  -8 483.683 110.020   1
   3 -11  -8 267.219  93.929   2
   3 -11  -8 300.154 104.736   3
  -3 -11   8 152.057  66.981   3
   3  11  -8 320.921  88.579   1
  -3  11   8 -1.9191 69.4751   4
   2 -11  -8 937.210 157.809   2
  -2 -11   8 1035.15  137.30   3
   2  11  -8 1026.78  149.97   1
  -2  11   8 1015.13  146.72   4
  -1 -11   8  7.4412 49.0346   3
  -1 -11   8 63.0379 77.1223   4
   1 -11  -8 -18.058  62.890   2
   1  11  -8 -50.995  56.226   1
  -1  11   8 -20.100  55.345   4
   0 -11   8 523.012 121.982   4
   0 -11   8 330.458  78.801   3
   0 -11  -8 368.720 105.459   2
   0  11   8 415.467  95.484   4
   0  11  -8 226.517  83.868   1
   1 -11   8 541.957 129.577   4
   1 -11   8 837.025 115.008   3
  -1 -11  -8 1020.87  169.49   2
   1  11   8 543.532 103.707   4
  -1  11  -8 586.240 122.013   1
  -2 -11  -8 1829.41  236.75   2
   2 -11   8 1437.19  156.79   3
   2 -11   8 1196.75  194.62   4
   2  11   8 1445.11  160.95   4
  -2  11  -8 1147.09  178.00   1
  -3 -11  -8 311.637 132.127   2
   3 -11   8 175.310 114.910   4
   3  11   8 360.451  82.923   1
  -3  11  -8 201.638 100.031   1
   4 -11   8 26.9316 95.9351   4
  -4 -11  -8  82.207 125.574   2
  -4  11  -8 22.2444 89.5989   1
   4  11   8 -11.051  53.417   1
  -5 -12   8 469.079 117.598   3
   5 -12  -8 497.939 149.479   3
   5 -12  -8 513.534 121.006   2
   5  12  -8 389.183 108.698   1
  -5  12   8 517.730 131.599   4
   4 -12  -8 82.2077 95.4357   3
   4 -12  -8 187.732  96.140   2
  -4 -12   8 227.707  84.925   3
  -4  12   8 54.0655 82.9633   4
   4  12  -8 133.547  74.853   1
   3 -12  -8 23.7548 83.4629   3
   3 -12  -8 53.1906 83.2700   2
  -3 -12   8 93.6815 64.2400   3
   3  12  -8 35.3558 61.5351   1
  -3  12   8 104.572  80.284   4
  -2 -12   8 214.034  75.222   3
   2 -12  -8 220.181  95.426   2
   2  12  -8 91.7686 72.9605   1
  -2  12   8 226.129  85.453   4
  -1 -12   8 1468.21  158.94   3
   1 -12  -8 1102.25  163.85   2
  -1 -12   8 966.193 156.982   4
   1  12  -8 1172.21  166.75   1
  -1  12   8 1020.29  151.77   4
   0 -12   8 720.911 147.226   4
   0 -12   8 586.153 103.045   3
   0 -12  -8 681.602 137.870   2
   0  12   8 662.947 119.974   4
   0  12  -8 504.184 114.814   1
   1 -12   8 157.645  67.845   3
   1 -12   8 537.777 137.044   4
  -1 -12  -8 420.680 124.245   2
   1  12   8 292.620  84.759   4
  -1  12  -8 400.810 106.054   1
  -1  12  -8 235.217  91.681   4
   2 -12   8  71.305 100.635   4
  -2 -12  -8 204.564 116.582   2
   2 -12   8 100.206  58.921   3
  -2  12  -8 45.7045 73.0543   1
  -2  12  -8 -72.596  70.574   4
  -3 -12  -8 430.551 155.793   2
   3 -12   8 465.597 141.064   4
  -3  12  -8 235.097 107.820   4
  -3  12  -8 352.071 119.505   1
  -4 -12  -8 345.729 152.229   2
   4  12   8 262.949  88.863   1
   5 -13  -8 -61.423  94.766   3
   4 -13  -8 24.8744 92.6847   3
   4 -13  -8 -53.222  85.170   2
  -4 -13   8 31.2064 73.5329   3
  -4  13   8 38.9835 78.4019   4
   4  13  -8 -50.146  55.011   1
  -3 -13   8 1499.27  188.55   3
   3 -13  -8 1791.37  226.27   2
   3 -13  -8 1597.48  210.61   3
   3  13  -8 1130.59  172.09   1
  -3  13   8 1576.59  205.80   4
   2 -13  -8 88.7905 82.5596   2
  -2 -13   8 -16.446  52.788   3
  -2  13   8 -59.209  63.852   4
   2  13  -8 -74.006  59.716   1
  -1 -13   8 678.727 138.178   4
  -1 -13   8 467.157  99.570   3
   1 -13  -8 513.252 122.133   2
  -1  13   8 221.393  94.370   4
   1  13  -8 361.730 106.539   1
   0 -13  -8 108.858  88.905   2
   0 -13   8 30.9146 57.3163   3
   0 -13   8 -40.785  85.442   4
   0  13   8 -111.75   53.41   4
   0  13  -8 11.5005 65.3377   1
   1 -13   8 421.240 135.264   4
  -1 -13  -8 536.558 138.392   2
   1 -13   8 523.393 103.624   3
  -1  13  -8 512.001 123.018   1
  -1  13  -8 327.150 110.142   4
   1  13   8 674.520 125.160   4
  -2 -13  -8   7.613 108.223   2
   2 -13   8 74.3123 62.0643   3
  -2  13  -8 -26.879  78.159   1
  -2  13  -8 11.3716 82.2118   4
  -3 -13  -8  47.253 124.095   2
   3 -13   8  18.570 106.938   4
  -3  13  -8 136.565 103.078   1
  -3  13  -8 -0.4463 82.5381   4
   4 -14  -8 370.339 134.307   3
  -3 -14   8 75.2832 68.6917   3
  -3  14   8 57.1781 89.5525   4
   3  14  -8 45.8934 74.0733   1
  -2 -14   8 91.6370 72.1155   3
   2 -14  -8 -19.807  76.932   2
   2  14  -8 173.864  81.496   1
  -2  14   8 149.717  92.845   4
  -1 -14   8 401.917  98.094   3
   1 -14  -8 335.528 119.139   2
   1  14  -8 243.431  98.435   1
  -1  14   8 570.124 132.583   4
   0 -14  -8 610.865 147.248   2
   0 -14   8 471.726  97.665   3
   0 -14   8 191.645 117.943   4
   0  14  -8 214.538  98.095   4
   0  14   8 264.613 101.755   4
   0  14  -8 290.347 105.280   1
  -1 -14  -8 151.601 116.713   2
   1 -14   8 63.2254 66.8251   3
   1  14   8 119.762  81.669   4
  -1  14  -8 225.165 101.251   4
  -1  14  -8 97.4085 85.9518   1
   2 -14   8 44.8842 65.4485   3
  -2 -14  -8 213.691 121.233   2
  -2  14  -8 -16.638  83.398   4
  -2  14  -8 45.6795 86.9832   1
  -2 -15   8 548.972 119.492   3
   2  15  -8 569.436 131.784   1
  -1 -15   8 -58.505  54.785   3
   1  15  -8 51.0196 73.9926   1
  -1  15   8 95.2279 88.3265   4
   0 -15   8 400.487  99.875   3
   0 -15   8 324.983 128.086   4
   0  15   8 206.234 101.876   4
   0  15  -8 491.267 123.476   1
   0  15  -8 213.790 101.472   4
   1 -15   8 118.599  74.798   3
  -1  15  -8 95.2877 92.4025   4
  -1  15  -8 172.090 102.648   1
   1  15   8 45.9696 90.6897   4
  -8   0   9 93.6313 98.5439   3
   8   0  -9 103.528  84.220   2
  -7   0   9 638.533 130.762   3
   7   0  -9 353.001 104.625   2
  -6   0   9 -2.8691 59.2881   3
   6   0  -9 62.4346 57.9702   2
  -5   0   9 2595.81  226.53   3
   5   0  -9 2606.50  218.07   2
  -4   0   9 24.2799 51.5637   3
  -4   0   9 21.3517 33.7989   4
   4   0  -9 21.3567 44.4448   2
  -3   0   9 349.853  75.379   3
   3   0  -9 573.387  83.274   2
  -3   0   9 422.352  65.171   4
   3   0  -9 306.050  66.345   1
  -2   0   9  7.1597 29.7492   4
   2   0  -9 -3.7520 36.5608   2
   2   0  -9  5.8340 37.5649   1
  -2   0   9 14.6243 33.9389   3
   1   0  -9 1803.50  174.73   2
  -1   0   9 1517.85  123.34   4
  -1   0   9 1427.93  117.34   3
   1   0  -9 1370.85  145.04   1
   0   0  -9 -30.784  40.762   2
   0   0  -9 -23.125  41.954   1
   0   0   9  4.7150 32.8048   4
  -1   0  -9 445.498  92.638   2
   1   0   9 493.104  72.584   4
  -1   0  -9 246.663  78.368   1
  -2   0  -9 15.6555 61.9361   2
  -2   0  -9 68.2490 58.5933   1
   2   0   9  8.1445 37.0251   4
   3   0   9 3583.43  264.25   4
  -3   0  -9 3978.22  290.56   1
  -3   0  -9 3923.74  311.38   2
  -4   0  -9 -55.079  67.814   2
  -4   0  -9  1.2589 48.6563   1
   4   0   9 -17.088  45.419   4
  -5   0  -9 154.773  94.529   2
  -5   0  -9 72.1679 68.0229   1
  -6   0  -9 107.508 101.281   2
   6   0   9 -65.127  63.716   1
   8   1  -9 328.366 106.666   2
  -8   1   9 465.671 136.514   3
  -7  -1   9 403.524 113.932   3
   7  -1  -9 653.258 130.353   2
  -7   1   9 640.538 145.510   3
   7   1  -9 1076.97  151.02   2
  -6  -1   9 -59.914  55.908   3
   6  -1  -9 -12.440  53.771   2
  -6   1   9 48.7805 77.1751   3
   6   1  -9  4.5851 54.6116   2
  -5  -1   9 27.1551 53.4181   3
   5  -1  -9 -41.083  49.976   2
  -5   1   9 72.8157 70.3785   3
   5   1  -9 -12.548  47.917   2
  -4  -1   9 601.579 102.949   3
   4  -1  -9 850.287 113.877   2
  -4  -1   9 732.932  85.667   4
   4   1  -9 753.075 101.382   1
  -4   1   9 881.667  95.860   4
  -4   1   9 902.597 124.628   3
   4   1  -9 758.480 105.300   2
  -3  -1   9 1187.29  136.81   3
   3  -1  -9 1480.27  147.42   2
  -3  -1   9 1363.49  110.09   4
  -3   1   9 1641.83  155.03   3
   3   1  -9 1362.34  135.31   2
   3   1  -9 1145.22  127.93   1
  -3   1   9 1253.52  112.49   4
  -2  -1   9 393.005  69.246   3
   2  -1  -9 352.400  65.592   1
   2  -1  -9 470.044  80.905   2
  -2  -1   9 405.936  61.727   4
   2   1  -9 427.806  74.687   2
  -2   1   9 464.915  65.486   4
  -2   1   9 405.114  72.639   3
   2   1  -9 257.839  67.669   1
  -1  -1   9 -36.482  29.423   3
   1  -1  -9 -22.915  51.305   2
   1  -1  -9 -3.8517 41.4202   1
  -1  -1   9 58.3575 33.9684   4
   1   1  -9 -31.807  44.090   2
  -1   1   9 24.3446 34.6049   4
   1   1  -9 -4.7250 39.8764   1
   0  -1  -9 159.175  66.073   2
   0  -1   9 168.333  50.981   4
   0  -1  -9 214.612  62.673   1
   0   1  -9 217.797  63.610   2
   0   1  -9 260.683  68.838   1
   0   1   9 189.712  48.437   4
   1  -1   9 1258.40  133.50   4
  -1  -1  -9 1441.58  153.56   1
  -1  -1  -9 1457.23  168.28   2
  -1   1  -9 1257.45  151.34   1
   1   1   9 1401.80  123.37   4
  -1   1  -9 1455.72  159.15   2
  -2  -1  -9 304.099  79.631   1
  -2  -1  -9 396.453  96.323   2
   2  -1   9 243.882  61.764   4
  -2   1  -9 204.367  78.904   1
  -2   1  -9 187.826  76.348   2
   2   1   9 201.714  55.694   4
  -3  -1  -9 25.6080 56.6029   1
  -3  -1  -9 -2.6149 73.6628   2
   3  -1   9 31.3763 42.0443   4
  -3   1  -9 -10.355  61.368   2
  -3   1  -9 166.569  70.225   1
   3   1   9 -51.763  30.225   4
   4  -1   9 419.392  83.516   4
  -4  -1  -9 385.403  92.429   1
  -4  -1  -9 436.155 123.697   2
   4   1   9 321.357  68.283   4
  -4   1  -9 291.130 100.838   2
  -4   1  -9 426.751  96.661   1
  -5  -1  -9 1272.90  202.68   2
   5  -1   9 1367.85  155.37   4
   5   1   9 1552.85  183.27   1
  -5   1  -9 1608.44  209.16   2
  -5   1  -9 1405.89  179.33   1
   6  -1   9 846.255 142.182   1
  -6  -1  -9 794.163 176.712   2
  -6   1  -9 634.171 150.914   2
   6   1   9 833.664 140.927   1
   8   2  -9 -59.284  68.272   2
  -7  -2   9 57.0170 74.2948   3
   7  -2  -9 -28.530  62.317   2
   7   2  -9 -23.901  64.474   2
  -7   2   9 -51.810  74.362   3
  -6  -2   9 1647.16  196.26   3
   6  -2  -9 1717.04  194.40   2
   6   2  -9 1779.58  193.78   2
  -6   2   9 1746.81  208.07   3
   5  -2  -9 182.917  74.425   2
  -5  -2   9 121.221  64.310   3
  -5   2   9 288.535  85.294   3
   5   2  -9 274.591  72.896   2
  -4  -2   9 528.316 100.776   3
   4  -2  -9 894.669 115.661   2
  -4   2   9 952.220 126.707   3
   4   2  -9 844.667 109.045   2
   4   2  -9 716.444 101.436   1
  -4   2   9 658.291  90.243   4
   3  -2  -9 29.4332 40.2948   2
  -3  -2   9  6.2402 42.3624   3
  -3  -2   9 22.1091 30.8535   4
  -3   2   9 52.4971 52.5842   3
   3   2  -9  0.8583 35.3191   2
   3   2  -9 -48.757  38.565   1
  -3   2   9 22.2784 35.6150   4
  -2  -2   9 1552.49  124.90   4
   2  -2  -9 1495.37  129.88   1
   2  -2  -9 1502.39  156.28   2
  -2  -2   9 1775.17  139.83   3
  -2   2   9 1639.44  151.36   3
   2   2  -9 1528.03  155.11   1
  -2   2   9 1619.01  129.37   4
   2   2  -9 1416.18  131.66   2
   1  -2  -9 796.988 100.920   1
  -1  -2   9 977.435  96.202   3
   1  -2  -9 921.444 136.230   2
  -1  -2   9 801.103  93.954   4
  -1   2   9 1031.46  100.57   4
   1   2  -9 739.513 109.356   2
   1   2  -9 749.963 108.467   1
   0  -2  -9 1344.92  133.33   1
   0  -2   9 1039.32  119.91   4
   0  -2  -9 1074.20  140.52   2
   0   2  -9 1168.10  130.87   2
   0   2   9 1181.26  117.33   4
   0   2  -9 1349.72  144.40   1
  -1  -2  -9 22.6071 62.2907   2
   1  -2   9 -33.531  33.513   4
  -1  -2  -9  2.2704 39.1150   1
  -1   2  -9 -71.013  42.666   1
   1   2   9 -1.3254 29.0780   4
  -1   2  -9  2.3366 44.3630   2
   2  -2   9 1656.37  167.74   4
  -2  -2  -9 1805.73  179.55   1
  -2  -2  -9 1700.57  208.37   2
   2   2   9 1655.04  139.62   4
  -2   2  -9 1726.95  182.67   1
  -2   2  -9 1593.86  174.14   2
   3  -2   9 398.207  81.475   4
  -3  -2  -9 179.878  93.082   2
  -3  -2  -9 363.978  86.137   1
  -3   2  -9 167.578  81.380   2
  -3   2  -9 335.183  88.632   1
   3   2   9 325.372  64.386   4
   4  -2   9 1813.21  183.45   4
  -4  -2  -9 1725.27  192.70   1
  -4  -2  -9 2071.40  247.80   2
   4   2   9 1797.00  153.40   4
  -4   2  -9 1777.82  206.21   2
  -4   2  -9 1701.86  197.80   1
  -5  -2  -9 -32.560  89.462   2
   5  -2   9  3.1688 53.5740   4
  -5   2  -9 -54.136  60.494   1
   5   2   9 66.1108 65.4430   1
  -6  -2  -9 -41.889  92.354   2
   6   2   9 -34.988  66.092   1
  -6   2  -9 -23.908  65.757   1
   8   3  -9 626.630 135.062   2
  -7  -3   9 342.044 107.775   3
   7  -3  -9 361.039  99.242   2
  -7   3   9 311.062 106.573   3
   7   3  -9 503.209 112.927   2
   6  -3  -9 36.7620 54.6560   2
  -6  -3   9 132.281  77.200   3
  -6   3   9 58.7215 78.9407   3
   6   3  -9 122.213  63.534   2
  -5  -3   9 -11.485  55.893   3
   5  -3  -9 73.6114 53.1634   2
  -5   3   9 21.0747 64.7154   3
  -5   3   9 -10.635  46.913   4
   5   3  -9 101.494  57.427   2
   5   3  -9 128.527  52.434   1
   4  -3  -9 2527.95  209.79   2
  -4  -3   9 2685.95  212.78   3
  -4   3   9 2223.75  232.28   3
   4   3  -9 3001.96  213.80   2
  -4   3   9 2788.13  199.77   4
   4   3  -9 2557.76  206.53   1
   3  -3  -9 15.5954 45.3675   2
  -3  -3   9 22.4477 30.1323   4
  -3  -3   9 16.8473 43.1859   3
   3   3  -9 -7.1665 37.6653   2
  -3   3   9 22.8940 53.2421   3
  -3   3   9 35.0380 38.3256   4
   3   3  -9 67.7349 50.5772   1
  -2  -3   9 1172.47  124.63   3
  -2  -3   9 1228.32  108.78   4
   2  -3  -9 1306.40  145.10   2
   2   3  -9 1432.63  148.21   1
  -2   3   9 1290.44  126.17   4
  -2   3   9 1230.04  132.33   3
   2   3  -9 1228.48  124.61   2
   1  -3  -9 175.969  50.218   1
  -1  -3   9 145.606  48.441   4
   1  -3  -9 71.9150 68.6409   2
  -1  -3   9 113.702  44.716   3
   1   3  -9 58.6618 53.2747   2
   1   3  -9 41.8953 48.5395   1
  -1   3   9 160.781  46.910   4
   0  -3  -9 2371.77  181.54   1
   0  -3  -9 2329.63  227.36   2
   0  -3   9 2409.64  185.44   4
   0   3   9 2299.68  171.99   4
   0   3  -9 2483.79  201.02   1
   0   3  -9 2182.81  178.89   2
  -1  -3  -9 606.548  93.602   1
   1  -3   9 573.222  93.477   4
  -1  -3  -9 780.100 126.758   2
  -1   3  -9 609.372 104.428   1
   1   3   9 593.841  81.258   4
  -1   3  -9 584.970  92.880   2
  -2  -3  -9 3528.08  249.80   1
   2  -3   9 3195.71  248.90   4
  -2  -3  -9 3301.81  283.29   2
   2   3   9 3053.72  224.05   4
  -2   3  -9 3421.22  259.42   1
  -2   3  -9 3192.66  247.78   2
  -3  -3  -9 56.7286 55.1664   1
  -3  -3  -9 138.134  84.904   2
   3  -3   9 41.7581 52.1014   4
   3   3   9 97.3516 43.2456   4
  -3   3  -9 232.430  77.255   1
   4  -3   9 222.195  73.698   4
  -4  -3  -9 162.541  99.445   2
  -4   3  -9 197.382  75.427   1
   4   3   9 272.510  62.218   4
   4   3   9 327.136  86.969   1
  -5  -3  -9  45.597 105.674   2
   5  -3   9 50.1941 66.9834   4
   5   3   9 -51.901  51.318   1
  -5   3  -9 -3.3330 62.8036   1
  -6  -3  -9 938.045 203.323   2
  -6   3  -9 1003.89  156.58   1
   6   3   9 832.319 140.637   1
   8   4  -9 -22.543  75.206   2
   7  -4  -9 74.3630 73.7724   2
  -7  -4   9 86.3443 79.2930   3
   7   4  -9 274.210  89.495   2
  -7   4   9 116.938  95.011   3
  -6  -4   9 426.028 105.541   3
   6  -4  -9 569.520 108.238   2
  -6   4   9 542.420 127.395   3
   6   4  -9 329.206  90.896   2
  -5  -4   9 772.326 119.628   3
   5  -4  -9 856.620 126.825   2
  -5   4   9 874.059 141.479   3
   5   4  -9 625.426 110.396   2
  -5   4   9 896.892 115.360   4
   5   4  -9 931.558 120.714   1
   4  -4  -9 17.7970 47.8891   2
  -4  -4   9  7.5747 48.7891   3
   4   4  -9 -42.040  40.678   2
   4   4  -9 81.8406 52.6323   1
  -4   4   9 -7.3535 44.3381   4
  -4   4   9 -55.824  53.530   3
   3  -4  -9 226.370  69.326   2
  -3  -4   9 119.799  42.437   4
  -3  -4   9 240.723  63.795   3
   3   4  -9 102.986  57.470   1
  -3   4   9 166.933  69.588   3
  -3   4   9 260.333  61.585   4
   3   4  -9 198.623  53.066   2
  -2  -4   9 1093.08  114.10   3
   2  -4  -9 961.461 128.721   2
  -2  -4   9 1041.04  106.91   4
  -2   4   9 1062.35  124.91   3
  -2   4   9 954.499 109.289   4
   2   4  -9 998.526 106.556   2
   2   4  -9 830.066 116.631   1
   1  -4  -9 1850.43  204.44   2
  -1  -4   9 1871.64  139.65   3
  -1  -4   9 1836.14  148.38   4
   1  -4  -9 1654.03  138.69   1
   1   4  -9 1803.48  179.99   1
  -1   4   9 1579.80  142.50   4
   0  -4   9 990.128  93.610   3
   0  -4  -9 1148.29  148.88   2
   0  -4  -9 789.383 100.783   1
   0  -4   9 875.880 113.643   4
   0   4   9 905.357 101.097   4
   0   4  -9 708.188 114.446   1
  -1  -4  -9 85.1702 48.8498   1
  -1  -4  -9  2.6459 65.9838   2
   1  -4   9 115.601  60.025   4
  -1   4  -9 22.4155 55.0323   1
   1   4   9 78.0349 38.7527   4
   2  -4   9 328.624  87.803   4
  -2  -4  -9 487.402 120.194   2
  -2  -4  -9 344.091  78.801   1
   2   4   9 439.694  68.149   4
  -2   4  -9 322.254  88.745   1
   3  -4   9 580.999 109.639   4
  -3  -4  -9 522.806 136.999   2
   3   4   9 658.551  87.301   4
  -3   4  -9 904.552 133.976   1
   3   4   9 477.324  96.741   1
   4  -4   9 558.018 112.360   4
  -4  -4  -9 717.535 169.797   2
   4   4   9 518.554  80.633   4
  -4   4  -9 570.573 115.378   1
   4   4   9 681.742 115.743   1
   5  -4   9 46.0837 65.6105   4
  -5  -4  -9 261.733 132.975   2
   5   4   9  9.0474 57.4474   1
  -5   4  -9 -30.056  62.222   1
  -6  -4  -9 147.134 125.869   2
   6   4   9 27.2363 62.5967   1
  -6   4  -9 74.5612 81.7495   1
   7  -5  -9 726.142 139.653   2
  -7  -5   9 586.012 133.213   3
   7   5  -9 847.894 144.159   2
  -7   5   9 817.974 164.315   3
   6  -5  -9 -14.951  58.540   2
  -6  -5   9 79.9600 66.7030   3
   6   5  -9 -9.9173 56.8394   2
  -6   5   9 41.3264 79.7882   3
   6   5  -9  6.2019 52.2798   1
  -5  -5   9 10.4848 48.4501   3
   5  -5  -9 151.843  65.721   2
  -5   5   9 121.878  78.089   3
   5   5  -9 31.6628 53.9469   2
  -5   5   9 41.3364 49.3944   4
   5   5  -9 13.5253 51.9290   1
   4  -5  -9 30.2888 48.3019   2
  -4  -5   9 -41.266  40.027   3
  -4   5   9 30.3268 61.9743   3
   4   5  -9 44.2780 48.9077   1
   4   5  -9 -34.592  41.335   2
  -4   5   9 33.6084 48.4789   4
  -3  -5   9 2366.07  163.76   4
   3  -5  -9 2216.17  193.46   2
  -3  -5   9 1936.49  174.36   3
   3   5  -9 2160.89  209.47   1
  -3   5   9 2110.63  175.67   4
  -3   5   9 2349.65  197.45   3
  -2  -5   9 -48.093  35.515   4
   2  -5  -9 15.9933 54.1739   2
  -2  -5   9 14.7252 39.5077   3
  -2   5   9 25.4688 56.1225   3
  -2   5   9 67.0294 42.7225   4
   2   5  -9 -17.389  42.399   1
   1  -5  -9 26.3830 64.1498   2
  -1  -5   9 82.8621 38.3953   3
  -1  -5   9 103.711  52.139   4
  -1   5   9 38.0004 38.8830   4
   1   5  -9 84.1965 57.3449   1
   0  -5  -9 246.804  81.287   2
   0  -5   9 224.773  48.104   3
   0  -5   9 199.383  62.329   4
   0  -5  -9 227.143  54.723   1
   0   5   9 89.8882 48.2122   4
   0   5  -9 103.213  63.283   1
  -1  -5  -9 2557.68  257.78   2
   1  -5   9 2227.17  218.66   4
  -1   5  -9 2341.39  205.27   1
   1   5   9 2436.82  182.53   1
   1   5   9 2217.33  175.33   4
  -2  -5  -9 77.9715 87.3842   2
   2  -5   9 228.620  78.225   4
   2   5   9 141.892  52.898   1
   2   5   9 134.608  49.358   4
  -2   5  -9 353.615  91.263   1
   3  -5   9 91.7269 70.0581   4
  -3  -5  -9  9.4629 93.7543   2
   3   5   9 50.7797 50.7014   1
  -3   5  -9 -7.4220 59.1742   1
   3   5   9 27.7992 39.4833   4
   4  -5   9 -80.842  57.239   4
  -4  -5  -9 -45.799  95.232   2
  -4   5  -9 -17.513  54.430   1
   4   5   9 32.5262 51.5520   1
   5  -5   9 1063.99  156.79   4
  -5  -5  -9 1108.97  221.34   2
  -5   5  -9 1036.27  157.01   1
   5   5   9 1010.67  148.85   1
  -6  -5  -9 -76.646 110.488   2
  -6   5  -9 40.6859 75.7776   1
   7  -6  -9 116.185  78.898   2
  -7  -6   9 26.1498 74.4074   3
  -7   6   9 156.367 103.883   3
   6  -6  -9 294.505  86.676   2
  -6  -6   9 200.445  84.290   3
  -6   6   9 495.570 118.777   3
   6   6  -9 372.436  91.156   1
  -5  -6   9 529.993 108.288   3
   5  -6  -9 565.028 108.160   2
  -5   6   9 621.516 126.624   3
  -5   6   9 710.599 114.267   4
   5   6  -9 690.739 111.736   1
  -4  -6   9 47.0464 52.1637   3
   4  -6  -9 114.674  60.052   2
  -4   6   9 43.1315 52.9414   4
   4   6  -9 -16.153  50.919   1
  -4   6   9 -30.114  59.934   3
   3  -6  -9 245.357  72.355   2
  -3  -6   9 208.715  53.760   4
  -3  -6   9 239.388  64.633   3
  -3   6   9 373.226  78.064   4
  -3   6   9 313.976  87.330   3
   3   6  -9 399.842  83.974   1
   2  -6  -9 636.273 118.976   2
  -2  -6   9 775.198 101.010   4
  -2  -6   9 789.141  98.498   3
  -2   6   9 842.015 115.251   3
  -2   6   9 663.024  98.288   4
   2   6  -9 721.961 118.351   1
  -1  -6   9 2386.38  187.68   4
   1  -6  -9 2166.09  232.08   2
  -1  -6   9 2465.57  173.78   3
   1   6  -9 2154.53  213.90   1
  -1   6   9 1999.74  176.90   4
   0  -6   9 1016.70  100.03   3
   0  -6   9 753.186 117.108   4
   0  -6  -9 976.016 142.398   2
   0   6  -9 774.648 126.283   1
   0   6   9 905.647  98.717   1
   0   6   9 747.049 101.272   4
  -1  -6  -9 51.3244 73.5026   2
   1  -6   9 21.4386 58.7295   4
   1   6   9 22.3821 37.0899   4
   1   6   9 109.355  48.234   1
  -1   6  -9 21.5318 52.6375   1
   2  -6   9 10.5223 56.6933   4
  -2  -6  -9 92.8950 92.4354   2
   2   6   9 -11.908  39.466   1
  -2   6  -9 -6.3305 52.2884   1
   2   6   9 82.5757 45.7459   4
   3  -6   9 960.749 149.443   4
  -3  -6  -9 673.896 162.519   2
   3   6   9 845.787 105.825   4
   3   6   9 901.830 119.585   1
  -3   6  -9 786.804 129.957   1
  -4  -6  -9 240.149 136.337   2
   4  -6   9 76.5955 79.5477   4
  -4   6  -9 327.306  97.315   1
   4   6   9 302.446  81.666   1
  -5  -6  -9  -8.417 118.558   2
   5  -6   9 34.7501 78.9068   4
  -5   6  -9 -1.9046 72.9265   1
   5   6   9 -7.6836 56.5648   1
   6  -6   9 -3.0723 78.2615   4
  -6   6  -9 50.6327 82.3357   1
   7  -7  -9 416.133 115.806   2
  -7  -7   9 355.250 109.107   3
  -7   7   9 339.814 129.953   3
   6  -7  -9 150.509  71.458   2
  -6  -7   9  8.0326 68.5275   3
  -6   7   9 126.130  96.154   3
  -6   7   9 71.7932 74.7387   4
   6   7  -9 50.1490 69.4882   1
  -5  -7   9 -81.375  44.738   3
   5  -7  -9 -11.815  58.699   2
  -5   7   9 -62.827  52.451   4
   5   7  -9 -70.763  50.197   1
  -5   7   9 34.2210 74.1428   3
   4  -7  -9 1311.54  162.75   2
  -4  -7   9 1130.23  142.67   3
   4   7  -9 1433.02  165.33   1
  -4   7   9 1161.35  145.94   4
  -4   7   9 1382.07  176.50   3
   3  -7  -9 130.943  65.324   2
  -3  -7   9 133.117  55.320   3
   3   7  -9 17.5401 53.0350   1
  -3   7   9 114.663  74.708   3
  -3   7   9 84.3209 56.8364   4
  -2  -7   9 481.190  84.406   4
   2  -7  -9 417.874 111.114   2
  -2  -7   9 393.187  75.096   3
   2   7  -9 502.118 105.178   1
  -2   7   9 490.853  87.918   4
   1  -7  -9 70.7051 69.2575   2
  -1  -7   9 25.4106 39.8784   3
  -1  -7   9 63.9665 56.9016   4
   1   7  -9 76.1618 60.6016   1
  -1   7   9 64.8424 51.5798   4
   0  -7   9 1743.29  138.14   3
   0  -7  -9 1576.84  196.24   2
   0  -7   9 1776.07  183.88   4
   0   7  -9 1841.48  192.22   1
   0   7   9 1329.53  151.15   4
  -1  -7  -9 516.973 126.065   2
   1  -7   9 427.731 101.730   4
   1   7   9 519.025  81.403   1
  -1   7  -9 608.807 115.777   1
   1   7   9 525.962  84.917   4
   2  -7   9 1875.79  216.53   4
  -2  -7  -9 2664.26  286.00   2
   2   7   9 1798.99  162.72   4
   2   7   9 2495.73  180.89   1
  -2   7  -9 1880.70  215.70   1
  -3  -7  -9  79.587 108.154   2
   3  -7   9 -79.997  54.061   4
   3   7   9 14.3587 43.4423   4
   3   7   9 -19.813  43.454   1
  -3   7  -9 -6.6694 57.6006   1
  -4  -7  -9 237.087 130.754   2
   4  -7   9 175.457  88.863   4
  -4   7  -9 221.460  86.039   1
   4   7   9 319.493  83.014   1
   5  -7   9 150.816  97.684   4
  -5  -7  -9 458.401 162.551   2
  -5   7  -9 124.505  78.148   1
   5   7   9 137.190  71.425   1
   7   8  -9 -36.136  69.408   1
  -7   8   9  57.175 102.229   3
   6  -8  -9 1268.74  174.22   2
  -6  -8   9 1535.10  187.09   3
  -6   8   9 1664.19  217.94   3
  -6   8   9 968.866 160.753   4
   6   8  -9 1411.53  177.69   1
   5  -8  -9 47.0120 61.1776   2
  -5  -8   9 -19.327  53.674   3
   5   8  -9 -9.7616 57.2966   1
  -5   8   9 83.0543 69.8186   4
  -5   8   9 21.0975 75.5572   3
  -4  -8   9 376.148  91.732   3
   4  -8  -9 535.975 107.200   2
  -4   8   9 470.653  96.654   4
   4   8  -9 325.793  90.090   1
  -4   8   9 642.982 127.474   3
   3  -8  -9 21.3723 62.5829   2
  -3  -8   9 -27.683  42.126   3
   3   8  -9 -69.299  55.253   1
  -3   8   9 20.1184 70.0573   3
  -3   8   9 71.9466 58.8849   4
   2  -8  -9 1292.00  195.79   2
  -2  -8   9 1640.40  165.76   3
  -2  -8   9 1939.39  163.96   4
   2   8  -9 1575.38  191.07   1
  -2   8   9 2145.31  175.72   4
  -1  -8   9 90.4787 50.1599   3
   1  -8  -9 109.718  77.060   2
  -1  -8   9 143.131  67.221   4
  -1   8   9 110.550  52.898   4
   1   8  -9 54.2249 58.5664   1
   0  -8   9 1469.50  132.14   3
   0  -8   9 1710.73  185.71   4
   0  -8  -9 1494.12  188.33   2
   0   8   9 1466.98  153.97   4
   0   8  -9 1386.21  175.00   1
  -1  -8  -9 -59.460  69.915   2
   1  -8   9 -69.633  59.793   4
   1   8   9 11.0865 45.8426   4
  -1   8  -9 -58.738  53.187   1
  -2  -8  -9 1242.51  197.89   2
   2  -8   9 591.174 133.693   4
   2   8   9 1182.47  126.34   1
   2   8   9 961.919 118.643   4
  -2   8  -9 796.964 141.289   1
   3  -8   9 26.4980 80.4750   4
  -3  -8  -9 248.874 126.406   2
   3   8   9 58.3201 52.0870   1
   3   8   9 128.633  57.784   4
  -3   8  -9 82.3178 79.5724   1
   4  -8   9 1563.89  209.15   4
  -4  -8  -9 1249.54  239.04   2
   4   8   9 1981.90  193.81   1
  -4   8  -9 1261.34  190.23   1
  -5  -8  -9 162.060 144.069   2
   5  -8   9 -22.570  91.855   4
  -5   8  -9 101.505  87.948   1
   5   8   9 39.3616 65.0064   1
   6  -9  -9 -33.275  64.281   2
  -6  -9   9 18.4026 69.7303   3
  -6   9   9  3.8353 80.6018   4
   6   9  -9 13.7872 66.5829   1
  -6   9   9 -20.606  87.931   3
  -5  -9   9 172.472  76.599   3
   5  -9  -9 63.7671 70.9827   2
   5   9  -9 127.001  78.680   1
  -5   9   9 173.356  86.811   4
  -5   9   9 49.6621 89.8753   3
  -4  -9   9 713.382 117.438   3
   4  -9  -9 648.339 122.013   2
   4   9  -9 673.357 123.416   1
  -4   9   9 704.351 145.653   3
  -4   9   9 898.311 136.146   4
  -3  -9   9 1378.02  156.24   3
   3  -9  -9 1673.52  196.50   2
   3  -9  -9 1285.37  178.57   3
  -3   9   9 1259.85  163.86   4
   3   9  -9 1408.76  175.94   1
   2  -9  -9 301.817  98.596   2
  -2  -9   9 431.205  82.713   3
  -2  -9   9 509.356  92.541   4
  -2   9   9 228.072  76.777   4
   2   9  -9 428.340 105.889   1
   1  -9  -9 98.6751 74.4268   2
  -1  -9   9 25.9806 44.1913   3
  -1  -9   9 65.6642 60.9313   4
  -1   9   9 -24.187  48.992   4
   1   9  -9 45.9307 57.5770   1
   0  -9   9 685.184  95.420   3
   0  -9  -9 655.296 132.054   2
   0  -9   9 594.427 120.782   4
   0   9   9 693.755 107.772   4
   0   9  -9 543.543 112.007   1
   1  -9   9 374.026  77.124   3
  -1  -9  -9 641.834 140.467   2
   1  -9   9 458.447 112.697   4
  -1   9  -9 766.318 130.807   1
   1   9   9 551.475  93.626   4
  -2  -9  -9 442.301 145.690   2
   2  -9   9 417.463 116.153   4
  -2   9  -9 552.588 121.329   1
   2   9   9 588.290  97.490   4
   2   9   9 601.830  96.118   1
  -3  -9  -9  51.768 102.247   2
   3  -9   9 82.3848 89.9320   4
  -3   9  -9 -60.538  60.998   1
   3   9   9 -84.784  41.358   1
   4  -9   9 193.681 102.914   4
  -4  -9  -9 265.684 143.422   2
  -4   9  -9 52.1746 85.4785   1
   4   9   9 155.230  69.511   1
   5  -9   9 706.899 156.938   4
   5   9   9 1003.74  144.43   1
  -5   9  -9 815.969 158.641   1
  -6 -10   9 -37.968  72.705   3
   6 -10  -9 117.994  81.898   2
  -6  10   9 37.4828 85.2365   4
   6  10  -9 21.6244 76.0319   1
  -6  10   9 63.2286 98.3089   3
   5 -10  -9 1068.16  163.41   2
  -5 -10   9 1073.49  159.03   3
  -5  10   9 1049.02  183.64   3
  -5  10   9 1293.74  180.34   4
   5  10  -9 1294.17  171.75   1
   4 -10  -9 13.4661 89.0373   3
   4 -10  -9 -0.9309 65.3221   2
  -4 -10   9 76.0282 58.3243   3
  -4  10   9 26.8766 69.3528   4
   4  10  -9 100.219  67.216   1
  -3 -10   9 -44.779  43.767   3
   3 -10  -9 83.4795 80.3948   2
  -3  10   9 34.5152 56.7380   4
   3  10  -9  5.1236 63.4139   1
  -2 -10   9 -1.3056 59.0212   4
  -2 -10   9 46.9459 56.2516   3
   2 -10  -9 18.1663 77.8396   2
  -2  10   9 105.942  66.315   4
   2  10  -9 -14.276  66.490   1
  -1 -10   9 1235.69  144.64   3
  -1 -10   9 1505.64  178.17   4
   1 -10  -9 1033.28  162.71   2
   1  10  -9 1295.68  166.54   1
  -1  10   9 1383.27  160.62   4
   0 -10   9 -24.341  66.086   4
   0 -10  -9 -5.6159 69.4271   2
   0 -10   9 -44.466  38.828   3
   0  10   9 97.8520 63.7511   4
   0  10  -9 25.7595 61.9374   1
   1 -10   9 -90.864  66.070   4
   1 -10   9 133.882  57.700   3
  -1 -10  -9 186.390  98.370   2
  -1  10  -9  8.0696 67.2246   1
   1  10   9 40.4513 50.5437   4
   2 -10   9 -32.635  78.191   4
  -2 -10  -9 23.1450 98.3822   2
  -2  10  -9 -78.094  61.725   1
   2  10   9 -22.450  55.627   4
  -3 -10  -9 1896.02  274.01   2
   3 -10   9 1757.28  234.53   4
   3  10   9 1876.12  189.01   1
  -4 -10  -9 -28.813 116.658   2
   4 -10   9 168.646 105.093   4
   4  10   9 159.693  67.076   1
  -4  10  -9 45.5972 88.0179   1
  -5 -11   9 106.805  78.851   3
   5 -11  -9 98.8667 84.1995   2
   5 -11  -9  80.432 104.131   3
  -5  11   9 11.3418 87.9272   4
   5  11  -9 116.689  77.138   1
   4 -11  -9 164.267  89.472   2
  -4 -11   9 35.3213 62.8826   3
   4 -11  -9 150.759 104.862   3
   4  11  -9 118.930  74.807   1
  -4  11   9 53.5013 73.8096   4
  -3 -11   9 1125.72  144.64   3
   3 -11  -9 913.969 166.645   2
  -3  11   9 873.454 144.000   4
   3  11  -9 802.315 142.113   1
  -2 -11   9 24.4212 52.9280   3
   2 -11  -9 39.5293 80.6526   2
  -2  11   9 55.8854 65.2634   4
   2  11  -9 35.1466 66.4796   1
   1 -11  -9 29.6286 80.8179   2
  -1 -11   9 107.179  76.260   4
  -1 -11   9 94.6539 56.2990   3
  -1  11   9 -44.777  58.746   4
   1  11  -9 69.5000 69.3660   1
   0 -11  -9 220.041  94.820   2
   0 -11   9 103.224  83.755   4
   0 -11   9 94.5635 60.6615   3
   0  11  -9 215.375  88.261   1
   0  11   9 85.1358 69.4946   4
   1 -11   9 1236.18  144.37   3
   1 -11   9 1603.86  206.92   4
  -1 -11  -9 1419.91  212.86   2
   1  11   9 1213.53  153.18   4
  -1  11  -9 1014.89  161.27   1
  -2 -11  -9 310.958 130.734   2
   2 -11   9 42.7795 91.5627   4
  -2  11  -9 136.167  86.713   1
   2  11   9 215.464  77.922   4
   3 -11   9 139.360 103.135   4
  -3 -11  -9 131.225 132.188   2
  -3  11  -9 66.4276 87.8102   1
   4  11   9 59.6989 61.3175   1
  -4  11  -9 105.951  97.323   1
   5 -12  -9 309.426 107.587   2
   5 -12  -9 212.327 122.661   3
  -5  12   9 155.188 100.437   4
   4 -12  -9 261.018 114.822   3
  -4 -12   9 140.608  82.243   3
   4 -12  -9 329.084 114.346   2
   4  12  -9 218.580  87.936   1
  -4  12   9 281.827 105.928   4
  -3 -12   9 -32.823  60.886   3
   3 -12  -9 -81.974  83.082   2
   3  12  -9 -21.419  67.173   1
  -3  12   9 -22.965  66.239   4
  -2 -12   9 845.939 126.557   3
   2 -12  -9 871.249 154.790   2
   2  12  -9 743.960 140.652   1
  -2  12   9 777.540 142.081   4
  -1 -12   9 163.854  70.167   3
   1 -12  -9 149.892  91.614   2
  -1 -12   9 221.878  96.944   4
   1  12  -9 245.375  93.318   1
  -1  12   9 72.6054 76.7108   4
   0 -12  -9 758.951 153.820   2
   0 -12   9 792.177 152.791   4
   0 -12   9 563.766 103.482   3
   0  12  -9 589.814 124.790   1
   0  12   9 797.964 129.720   4
   1 -12   9 -153.97   79.54   4
  -1 -12  -9 42.1447 94.8382   2
   1 -12   9 20.2235 55.3303   3
  -1  12  -9 -37.575  69.742   1
   1  12   9 -30.114  59.726   4
   2 -12   9 405.154 135.660   4
  -2 -12  -9 462.575 147.077   2
  -2  12  -9 253.356 106.961   1
  -3 -12  -9 560.333 168.371   2
   3 -12   9 424.445 142.473   4
  -3  12  -9 204.861  99.797   1
   4 -13  -9 1092.34  192.17   2
  -4 -13   9 1052.36  165.35   3
  -3 -13   9 18.3563 66.9398   3
   3 -13  -9 -37.693  89.347   2
  -3  13   9 -86.599  74.834   4
   3  13  -9  8.2588 70.6273   1
   2 -13  -9 731.944 145.417   2
  -2 -13   9 697.014 122.762   3
  -2  13   9 447.225 120.963   4
   2  13  -9 491.851 125.751   1
  -1 -13   9 73.2396 90.5323   4
  -1 -13   9 -48.720  57.550   3
   1 -13  -9 15.5370 78.5250   2
   1  13  -9 -22.997  64.932   1
  -1  13   9 -89.435  68.278   4
   0 -13  -9 578.941 146.135   2
   0 -13   9 733.996 155.337   4
   0 -13   9 582.346 110.727   3
   0  13  -9 971.494 155.611   1
   0  13   9 720.025 132.872   4
  -1 -13  -9  71.564 108.981   2
   1 -13   9 17.6566 96.9890   4
   1 -13   9 79.7769 65.1305   3
  -1  13  -9 47.1822 81.0743   1
   1  13   9 109.338  80.366   4
  -2 -13  -9 516.462 168.144   2
   2 -13   9 1040.01  190.43   4
  -2  13  -9 561.170 141.307   1
  -3 -14   9 41.9578 76.8949   3
   3 -14  -9 129.416 102.024   2
  -2 -14   9 926.990 146.133   3
   2 -14  -9 840.640 160.461   2
  -2  14   9 715.520 153.680   4
   2  14  -9 980.245 163.919   1
   1 -14  -9 369.148 130.646   2
  -1 -14   9 440.814 105.785   3
   1  14  -9 408.023 114.671   1
  -1  14   9 741.228 146.115   4
   0 -14   9 396.044 144.016   4
   0 -14  -9 627.508 156.800   2
   0 -14   9 977.360 139.175   3
   0  14   9 845.206 149.028   4
   0  14  -9 730.757 147.055   1
   1 -14   9 -279.00   86.99   4
   1 -14   9  1.5042 63.9149   3
  -1 -14  -9  77.949 107.075   2
   1  14   9 35.1364 85.1036   4
  -1  14  -9 57.5208 83.5589   1
  -7   0  10 25.3632 84.0183   3
   7   0 -10 81.4844 74.8073   2
   6   0 -10 2603.25  220.27   2
  -6   0  10 2046.80  241.31   3
  -5   0  10 -4.9795 61.1181   3
   5   0 -10 -15.721  45.996   2
  -4   0  10 -58.527  46.989   3
   4   0 -10 17.8052 42.7753   2
  -4   0  10 67.2176 40.4888   4
   3   0 -10  2.4724 43.0928   1
  -3   0  10 33.3671 33.8503   4
  -3   0  10  2.4039 42.6850   3
   3   0 -10 21.9192 43.2006   2
   2   0 -10 1731.27  172.16   2
  -2   0  10 1900.11  150.79   3
  -2   0  10 1589.22  137.00   4
   2   0 -10 1902.81  158.47   1
   1   0 -10 10.2730 58.3930   2
   1   0 -10 -23.949  39.896   1
  -1   0  10 -46.799  28.920   4
   0   0 -10 458.665  92.447   2
   0   0 -10 356.053  82.845   1
   0   0  10 505.103  75.198   4
  -1   0 -10 82.6236 56.8826   1
  -1   0 -10  8.9687 62.2262   2
   1   0  10 11.0239 37.0279   4
  -2   0 -10 2205.85  228.36   1
  -2   0 -10 2578.16  251.40   2
   2   0  10 2680.41  197.28   4
  -3   0 -10 14.0676 52.2992   1
  -3   0 -10 -53.357  66.109   2
   3   0  10 -2.6068 40.7600   4
   4   0  10 756.387 109.836   4
  -4   0 -10 730.990 145.625   2
  -4   0 -10 975.113 138.796   1
  -5   0 -10 13.0264 88.4279   2
  -5   0 -10  2.5643 62.3917   1
  -6   0 -10 271.683 127.730   2
  -7  -1  10 -57.704  69.703   3
   7  -1 -10 36.6209 74.8170   2
   7   1 -10 143.326  77.807   2
  -7   1  10 30.7259 88.2377   3
  -6  -1  10 -37.534  66.397   3
   6  -1 -10 74.7584 60.3431   2
   6   1 -10 -10.680  60.528   2
  -6   1  10 92.7071 79.7370   3
   5  -1 -10 378.227  88.545   2
  -5  -1  10 348.433  92.463   3
   5   1 -10 327.539  81.573   2
  -5   1  10 390.286  98.220   3
  -4  -1  10 1490.33  124.78   4
  -4  -1  10 1598.03  169.48   3
   4  -1 -10 1543.21  163.81   2
  -4   1  10 1327.58  135.62   4
   4   1 -10 1806.06  167.91   2
  -4   1  10 1438.63  168.85   3
  -3  -1  10 1048.97  126.98   3
  -3  -1  10 1022.41  103.71   4
   3  -1 -10 1180.66  133.08   2
  -3   1  10 674.228 111.609   3
   3   1 -10 908.632 117.236   1
  -3   1  10 1141.13  110.87   4
   3   1 -10 897.877 115.282   2
  -2  -1  10 54.0529 45.5190   3
   2  -1 -10 26.7871 44.2581   1
  -2  -1  10 40.2964 35.7024   4
   2  -1 -10 15.6007 52.4595   2
  -2   1  10 26.6241 37.6377   4
   2   1 -10 97.0691 49.9715   2
   2   1 -10 35.8243 47.6492   1
   1  -1 -10 99.5068 51.5577   1
  -1  -1  10 79.0733 40.7263   4
   1  -1 -10  4.2463 61.2728   2
  -1   1  10 57.1502 38.6656   4
   1   1 -10 -47.671  50.463   2
   1   1 -10 -12.893  43.891   1
   0  -1 -10 2462.56  198.89   1
   0  -1  10 2429.85  183.27   4
   0  -1 -10 2541.23  212.67   2
   0   1 -10 2427.91  205.04   1
   0   1 -10 2386.59  203.76   2
   0   1  10 2431.50  182.40   4
  -1  -1 -10 229.115  70.932   1
   1  -1  10 322.611  69.030   4
  -1  -1 -10 190.066  82.910   2
  -1   1 -10 204.750  78.946   2
  -1   1 -10 239.311  78.926   1
   1   1  10 197.296  56.063   4
  -2  -1 -10 1364.40  181.77   2
   2  -1  10 996.724 129.623   4
  -2  -1 -10 1295.58  156.75   1
  -2   1 -10 1626.00  177.22   2
  -2   1 -10 1561.90  172.51   1
   2   1  10 1151.15  130.65   4
  -3  -1 -10 291.074  88.202   1
  -3  -1 -10 192.508  98.630   2
   3  -1  10 170.473  61.010   4
  -3   1 -10 194.767  87.249   2
   3   1  10 49.1934 50.1037   4
  -3   1 -10 293.523  88.365   1
  -4  -1 -10 767.566 154.127   2
  -4  -1 -10 511.701 110.955   1
   4  -1  10 444.921  87.612   4
  -4   1 -10 394.139 100.061   1
   4   1  10 469.757  87.088   4
  -4   1 -10 532.988 131.141   2
  -5  -1 -10 476.480 143.548   2
   5  -1  10 702.595 110.259   4
  -5   1 -10 665.226 129.194   1
  -5   1 -10 618.685 143.587   2
  -6  -1 -10 183.364 130.028   2
   7  -2 -10 478.128 110.448   2
  -7  -2  10 388.073 118.148   3
   7   2 -10 352.539 101.446   2
  -7   2  10 397.189 118.464   3
   6  -2 -10 128.875  71.955   2
  -6  -2  10 259.457  83.899   3
  -6   2  10 257.990 100.061   3
   6   2 -10 240.533  80.670   2
  -5  -2  10 571.785 110.836   3
   5  -2 -10 453.941  93.450   2
  -5   2  10 484.537 117.377   3
   5   2 -10 637.654 105.651   2
   4  -2 -10 12.9774 43.7306   2
  -4  -2  10 -76.864  39.257   3
   4   2 -10 -3.1093 49.4332   1
   4   2 -10 36.3061 46.2281   2
  -4   2  10 -76.819  50.643   3
  -4   2  10 10.0352 39.5390   4
  -3  -2  10 1143.52  128.87   3
   3  -2 -10 880.563 122.158   2
  -3  -2  10 1005.65  101.85   4
  -3   2  10 856.526 104.027   4
   3   2 -10 1185.35  132.96   1
  -3   2  10 900.150 123.430   3
   3   2 -10 812.372 108.320   2
   2  -2 -10 327.021  80.982   2
   2  -2 -10 411.688  73.805   1
  -2  -2  10 514.909  72.119   4
  -2  -2  10 432.495  75.785   3
   2   2 -10 296.551  68.700   2
  -2   2  10 329.267  62.073   4
   2   2 -10 513.237  87.675   1
  -1  -2  10 1706.40  149.23   4
   1  -2 -10 2052.31  161.81   1
   1  -2 -10 2086.47  214.19   2
   1   2 -10 1636.32  180.49   2
   1   2 -10 2074.28  177.04   1
  -1   2  10 1968.74  151.02   4
   0  -2 -10 74.0724 49.1596   1
   0  -2  10  3.9398 38.8997   4
   0  -2 -10  6.0784 55.0886   2
   0   2  10 40.2935 37.0493   4
   0   2 -10  6.6946 46.3089   2
   0   2 -10 -22.567  49.123   1
   1  -2  10 213.199  60.200   4
  -1  -2 -10 212.696  88.844   2
  -1  -2 -10 258.147  72.332   1
   1   2  10 183.662  52.666   4
  -1   2 -10 322.415  88.003   1
  -1   2 -10 262.424  74.303   2
  -2  -2 -10 326.103 109.448   2
   2  -2  10 439.445  84.947   4
  -2  -2 -10 330.854  85.303   1
  -2   2 -10 438.264  96.017   2
   2   2  10 329.305  66.867   4
  -2   2 -10 336.513  95.331   1
  -3  -2 -10 1097.21  147.74   1
  -3  -2 -10 1459.81  202.16   2
   3  -2  10 1128.38  140.00   4
  -3   2 -10 1377.75  167.17   1
   3   2  10 1172.97  128.79   4
  -3   2 -10 910.570 150.073   2
  -4  -2 -10 27.3034 87.6267   2
   4  -2  10 73.6776 54.3978   4
  -4  -2 -10 107.551  65.482   1
   4   2  10 176.708  56.321   4
  -4   2 -10 121.935  68.194   1
  -5  -2 -10 -21.123 102.169   2
   5  -2  10 161.872  71.272   4
  -5   2 -10 36.0291 71.2916   1
   5   2  10 68.8825 67.2387   1
  -6  -2 -10 -70.811 103.977   2
   7  -3 -10 536.734 116.043   2
  -7  -3  10 213.136  90.771   3
   7   3 -10 208.005  91.880   2
  -7   3  10 423.016 127.226   3
  -6  -3  10 81.8231 72.0164   3
   6  -3 -10 56.8709 63.4728   2
  -6   3  10 33.1332 73.1371   3
   6   3 -10 -29.525  54.986   2
  -5  -3  10 507.075 102.411   3
   5  -3 -10 443.154  96.084   2
   5   3 -10 326.246  84.507   2
  -5   3  10 533.638  90.310   4
  -5   3  10 569.287 116.398   3
   4  -3 -10 584.731 100.956   2
  -4  -3  10 661.622 101.511   3
  -4   3  10 376.011  93.901   3
   4   3 -10 395.944  88.483   1
   4   3 -10 455.962  81.913   2
  -4   3  10 352.525  73.641   4
   3  -3 -10 814.226 118.294   2
  -3  -3  10 797.819 106.566   3
  -3  -3  10 631.184  80.007   4
  -3   3  10 611.312  88.987   4
  -3   3  10 716.234 113.168   3
   3   3 -10 612.151  90.431   2
   3   3 -10 679.311 104.183   1
  -2  -3  10 21.4803 36.7446   4
  -2  -3  10 62.4285 49.9691   3
   2  -3 -10 248.007  74.910   2
   2   3 -10  3.6092 39.4268   2
   2   3 -10 43.6535 50.1149   1
  -2   3  10 62.9934 38.4318   4
   1  -3 -10 1130.20  158.48   2
   1  -3 -10 1098.27  118.88   1
  -1  -3  10 1159.39  120.07   4
   1   3 -10 932.924 131.582   1
   1   3 -10 688.319 112.057   2
  -1   3  10 1201.76  119.03   4
   0  -3 -10  6.1734 62.1816   2
   0  -3 -10 117.474  58.941   1
   0  -3  10 30.5217 41.1505   4
   0   3  10 261.631  54.729   4
   0   3 -10 63.5260 60.4805   1
   0   3 -10 123.633  55.751   2
   1  -3  10 1894.97  162.31   4
  -1  -3 -10 1719.14  173.47   1
  -1  -3 -10 1760.21  210.92   2
   1   3  10 1790.44  147.53   4
  -1   3 -10 1719.03  189.64   1
  -2  -3 -10 117.752  60.836   1
  -2  -3 -10 -19.864  72.682   2
   2  -3  10 31.8924 51.0793   4
   2   3  10 13.5635 36.9590   4
  -2   3 -10 -105.63   42.65   1
  -3  -3 -10 144.165  71.580   1
  -3  -3 -10 113.543  99.884   2
   3  -3  10 133.862  68.942   4
  -3   3 -10 38.3602 57.4528   1
   3   3  10 217.903  56.395   4
  -4  -3 -10 -55.088  89.066   2
   4  -3  10 54.8505 59.4501   4
   4   3  10  3.2206 44.6459   4
   4   3  10 41.1592 64.3512   1
  -4   3 -10 53.9498 68.9348   1
   5  -3  10 1403.94  173.74   4
  -5  -3 -10 1429.19  228.59   2
   5   3  10 1457.56  184.39   1
  -5   3 -10 1478.75  187.92   1
  -7  -4  10 61.7496 76.8218   3
   7  -4 -10 279.170  98.295   2
  -7   4  10 104.353  92.338   3
   7   4 -10 179.229  87.646   2
  -6  -4  10 638.677 123.736   3
   6  -4 -10 700.091 129.159   2
  -6   4  10 788.469 152.005   3
   6   4 -10 919.440 135.659   2
   5  -4 -10 475.929 100.647   2
  -5  -4  10 574.949 107.747   3
  -5   4  10 619.231 101.156   4
   5   4 -10 600.269 102.062   2
   5   4 -10 472.440  97.222   1
  -5   4  10 470.632 111.650   3
   4  -4 -10 58.8510 52.6735   2
  -4  -4  10 -49.159  45.443   3
   4   4 -10 49.9051 55.1808   1
  -4   4  10 -13.661  55.624   3
   4   4 -10 17.3256 42.8066   2
  -4   4  10 21.9362 46.5566   4
  -3  -4  10 79.3681 55.2461   3
   3  -4 -10 38.5767 52.1775   2
  -3  -4  10 43.4755 36.4175   4
   3   4 -10 43.7233 52.2392   1
   3   4 -10 13.9613 42.2227   2
  -3   4  10 135.654  51.390   4
  -3   4  10 143.924  66.214   3
   2  -4 -10 2047.87  216.54   2
  -2  -4  10 2104.30  161.33   4
  -2  -4  10 1951.67  165.14   3
   2   4 -10 1933.05  199.84   1
  -2   4  10 2155.06  167.44   4
  -1  -4  10 200.719  60.447   4
   1  -4 -10 247.516  89.134   2
   1   4 -10 272.126  81.742   1
  -1   4  10 377.980  68.007   4
   0  -4 -10 658.084 119.799   2
   0  -4 -10 626.330  90.722   1
   0  -4  10 852.883 109.363   4
   0   4  10 459.275  80.821   4
   0   4 -10 637.904 113.759   1
   1  -4  10 616.899 106.838   4
  -1  -4 -10 829.193 109.849   1
  -1  -4 -10 957.374 155.630   2
  -1   4 -10 847.943 126.250   1
   1   4  10 626.918  90.072   4
   2  -4  10 1155.17  145.09   4
  -2  -4 -10 722.995 156.042   2
  -2  -4 -10 873.437 122.206   1
  -2   4 -10 871.164 139.177   1
   2   4  10 823.976 102.392   4
   3  -4  10 1363.76  175.50   4
  -3  -4 -10 2172.34  257.72   2
   3   4  10 1689.14  181.50   1
   3   4  10 1645.15  139.44   4
  -3   4 -10 1300.79  179.25   1
   4  -4  10 342.503  92.225   4
  -4  -4 -10 457.874 153.632   2
   4   4  10 204.333  75.454   1
  -4   4 -10 226.664  88.406   1
  -5  -4 -10 -65.633 105.481   2
   5  -4  10 17.5558 66.2239   4
   5   4  10 -67.871  53.998   1
  -5   4 -10 54.3704 71.8517   1
   7  -5 -10 107.038  77.023   2
  -7  -5  10 -42.143  67.185   3
  -7   5  10 37.4988 98.2419   3
   6  -5 -10 10.4913 61.8958   2
  -6  -5  10 -44.649  60.330   3
  -6   5  10 36.8229 79.8848   3
  -5  -5  10 46.6272 51.2520   3
   5  -5 -10 78.9179 59.6930   2
  -5   5  10 48.8867 74.8826   3
  -5   5  10 15.7577 56.3272   4
   5   5 -10 26.3918 57.9928   1
   4  -5 -10 2480.00  213.76   2
  -4  -5  10 2483.80  209.62   3
   4   5 -10 2693.32  219.68   1
  -4   5  10 2196.12  195.38   4
  -4   5  10 2690.16  251.87   3
  -3  -5  10 104.143  56.012   3
   3  -5 -10 178.619  69.848   2
  -3  -5  10 112.016  43.619   4
   3   5 -10 55.1681 60.2318   1
  -3   5  10  3.7779 55.3734   3
  -3   5  10 122.845  53.175   4
  -2  -5  10 60.4400 47.0917   3
   2  -5 -10 162.552  79.497   2
  -2  -5  10  9.4434 42.7717   4
  -2   5  10 83.2652 49.2893   4
   2   5 -10 130.038  63.885   1
  -1  -5  10 100.242  46.645   3
   1  -5 -10 95.3796 76.2602   2
  -1  -5  10 124.316  58.437   4
   1   5 -10 175.003  69.768   1
  -1   5  10 26.0109 40.8231   4
   0  -5  10 2326.83  201.07   4
   0  -5 -10 2480.13  250.79   2
   0  -5 -10 2750.22  190.72   1
   0   5 -10 2186.65  227.02   1
   0   5  10 2342.98  185.77   4
  -1  -5 -10 -49.304  56.486   2
  -1  -5 -10 -10.663  44.055   1
   1  -5  10 119.659  62.445   4
  -1   5 -10 112.490  73.863   1
   1   5  10 105.215  44.440   4
   2  -5  10 523.329 106.318   4
  -2  -5 -10 440.324 125.991   2
   2   5  10 590.747  85.534   4
   2   5  10 420.676  85.767   1
  -2   5 -10 588.974 112.886   1
  -3  -5 -10 -100.54   93.04   2
   3  -5  10 -37.191  60.176   4
   3   5  10 39.0296 42.4607   4
   3   5  10 -18.517  49.615   1
  -3   5 -10 37.2665 57.0166   1
  -4  -5 -10 858.347 199.385   2
   4  -5  10 922.092 150.552   4
  -4   5 -10 767.049 143.789   1
   4   5  10 1173.66  152.65   1
   5  -5  10 51.9146 71.3654   4
  -5  -5 -10 153.696 138.996   2
  -5   5 -10 -39.624  66.790   1
   5   5  10  9.9110 53.8532   1
  -7  -6  10 52.1955 72.6289   3
  -7   6  10 53.1937 91.1779   3
  -6  -6  10 477.198 111.909   3
   6  -6 -10 695.634 127.354   2
  -6   6  10 625.030 141.498   3
   6   6 -10 839.535 129.964   1
  -5  -6  10 131.930  69.929   3
   5  -6 -10 202.921  81.593   2
  -5   6  10 165.742  92.669   3
   5   6 -10 263.487  79.745   1
  -5   6  10 100.763  65.949   4
  -4  -6  10 152.231  60.802   3
   4  -6 -10 -4.9954 53.3351   2
  -4   6  10 46.4291 54.1246   4
  -4   6  10 -10.821  71.184   3
   4   6 -10 75.5073 56.9185   1
  -3  -6  10 -0.7585 44.3858   3
   3  -6 -10 -24.214  51.026   2
  -3   6  10 87.8321 53.0158   4
   3   6 -10 119.418  67.503   1
  -2  -6  10 2909.25  212.71   4
   2  -6 -10 2920.14  259.94   2
  -2  -6  10 2926.64  214.74   3
   2   6 -10 3335.80  247.63   1
  -2   6  10 2436.84  215.17   4
  -1  -6  10 261.790  72.919   4
   1  -6 -10 259.355  93.280   2
  -1  -6  10 317.680  65.866   3
  -1   6  10 331.970  70.722   4
   1   6 -10 248.544  80.907   1
   0  -6  10 659.365 112.565   4
   0  -6 -10 667.649 126.873   2
   0   6 -10 702.221 120.938   1
   0   6  10 802.655 104.695   4
   1  -6  10 348.966  92.830   4
  -1  -6 -10 127.232  94.286   2
   1   6  10 255.866  64.861   4
   1   6  10 227.559  60.473   1
  -1   6 -10 187.330  77.068   1
  -2  -6 -10 792.898 161.487   2
   2  -6  10 802.926 135.486   4
   2   6  10 826.490 112.016   1
   2   6  10 767.162 104.084   4
  -2   6 -10 858.698 137.870   1
   3  -6  10 529.860 119.576   4
  -3  -6 -10 675.205 167.699   2
   3   6  10 737.212 111.551   1
   3   6  10 561.520  89.955   4
  -3   6 -10 528.558 118.637   1
   4  -6  10 128.287  84.768   4
  -4  -6 -10 -38.891 120.265   2
   4   6  10 204.635  77.584   1
  -4   6 -10 296.719 101.244   1
   5  -6  10 -51.317  71.579   4
  -5  -6 -10 111.849 139.673   2
  -5   6 -10  7.3299 80.1801   1
   5   6  10 -64.306  58.380   1
  -7   7  10 621.212 154.078   3
  -6  -7  10 -56.959  55.815   3
   6  -7 -10 30.9505 66.1534   2
  -6   7  10 -66.612  80.222   3
   6   7 -10 56.8649 66.3671   1
  -5  -7  10 216.314  80.267   3
   5  -7 -10 220.720  86.924   2
  -5   7  10 155.110  77.530   4
  -5   7  10 287.406 103.114   3
   5   7 -10 226.573  83.284   1
   4  -7 -10 645.810 121.022   2
  -4  -7  10 595.246 107.374   3
  -4   7  10 773.938 117.135   4
  -4   7  10 914.975 143.053   3
   4   7 -10 701.398 127.644   1
   3  -7 -10 570.566 113.378   2
  -3  -7  10 406.067  84.413   3
  -3   7  10 435.858  94.179   4
   3   7 -10 585.377 110.401   1
   2  -7 -10 179.848  83.634   2
  -2  -7  10 76.3484 53.6419   4
  -2  -7  10 10.0659 44.4568   3
   2   7 -10 150.157  66.846   1
  -2   7  10 39.2845 55.6303   4
   1  -7 -10 1174.82  163.68   2
  -1  -7  10 992.109 116.859   3
  -1  -7  10 1038.92  134.62   4
   1   7 -10 1453.08  170.03   1
  -1   7  10 841.246 121.789   4
   0  -7 -10 655.799 124.825   2
   0  -7  10 361.157  92.767   4
   0   7  10 456.078  87.761   4
   0   7 -10 497.116 112.699   1
   1  -7  10 1722.93  200.11   4
  -1  -7 -10 1723.76  225.94   2
  -1   7 -10 1877.69  212.21   1
   1   7  10 1553.74  164.03   4
   1   7  10 1961.32  155.53   1
   2  -7  10 12.3434 68.8791   4
  -2  -7 -10 -86.144  84.267   2
   2   7  10 -12.452  39.568   4
  -2   7 -10 12.5951 59.3872   1
   2   7  10  3.9555 45.6407   1
  -3  -7 -10  39.769 106.570   2
   3  -7  10  9.0217 73.1659   4
   3   7  10 69.2138 50.1483   4
   3   7  10 39.1964 52.9783   1
  -3   7 -10 -21.394  63.106   1
   4  -7  10 209.436  99.394   4
  -4  -7 -10  90.326 119.731   2
   4   7  10 39.7043 59.7983   1
  -4   7 -10 61.3203 77.8253   1
   5  -7  10 737.163 155.434   4
  -5   7 -10 1037.56  173.45   1
   5   7  10 1151.73  158.76   1
  -6  -8  10 68.1572 76.3088   3
   6  -8 -10 23.5806 66.1337   2
  -6   8  10 23.6616 89.1399   3
  -6   8  10 55.5544 82.6624   4
   6   8 -10 21.5536 74.4122   1
   5  -8 -10 585.669 117.680   2
  -5  -8  10 521.989 108.641   3
  -5   8  10 333.130 113.045   3
  -5   8  10 448.423 108.206   4
   5   8 -10 318.368  97.527   1
  -4  -8  10  6.5300 55.9928   3
   4  -8 -10 -15.301  62.281   2
   4   8 -10 90.7083 75.1643   1
  -4   8  10 31.4420 84.8785   3
  -4   8  10 57.4625 63.2020   4
   3  -8 -10 256.522  99.144   2
  -3  -8  10 484.355  90.945   3
   3   8 -10 349.542 100.379   1
  -3   8  10 413.639  93.264   4
  -2  -8  10 -63.154  39.646   3
   2  -8 -10 -124.02   56.81   2
  -2  -8  10 20.9981 52.1692   4
  -2   8  10 -2.8623 51.1888   4
   2   8 -10 25.4449 61.4843   1
  -1  -8  10 1286.28  147.81   4
   1  -8 -10 742.508 139.587   2
  -1  -8  10 919.285 114.701   3
   1   8 -10 837.939 143.490   1
  -1   8  10 801.295 120.528   4
   0  -8  10 14.6429 64.1710   4
   0  -8 -10 -13.173  72.373   2
   0   8  10 16.7714 48.1880   4
   0   8 -10 -23.264  61.764   1
   1  -8  10 565.866 118.325   4
  -1  -8 -10 781.767 157.524   2
  -1   8 -10 536.878 118.977   1
   1   8  10 461.792  91.009   4
   2  -8  10 112.302  76.307   4
  -2  -8 -10 -64.242  80.565   2
   2   8  10 134.416  57.147   1
   2   8  10 126.224  62.920   4
  -2   8 -10 231.909  94.257   1
  -3  -8 -10 1226.50  228.33   2
   3  -8  10 1549.16  207.10   4
   3   8  10 1556.69  157.73   4
  -3   8 -10 1234.43  184.35   1
   3   8  10 1552.71  168.47   1
   4  -8  10 23.3249 85.5641   4
  -4  -8 -10 -40.263 125.865   2
   4   8  10 56.8420 62.6544   1
  -4   8 -10 87.3165 81.2613   1
   6  -9 -10 -121.80   58.69   2
  -6  -9  10 17.5833 71.5022   3
  -6   9  10  27.755 102.156   3
   6   9 -10 36.3724 76.2602   1
  -6   9  10 -98.588  73.571   4
   5  -9 -10 363.169 108.847   2
  -5  -9  10 329.778  95.854   3
  -5   9  10 266.556 112.678   3
  -5   9  10 460.685 106.214   4
   5   9 -10 252.382  91.964   1
  -4  -9  10 917.029 137.134   3
   4  -9 -10 936.102 152.238   2
   4   9 -10 1046.27  157.39   1
  -4   9  10 888.787 155.595   3
  -4   9  10 680.753 124.782   4
  -3  -9  10 598.392 100.179   3
   3  -9 -10 567.339 129.077   2
  -3   9  10 545.390 105.389   4
   3   9 -10 663.008 131.722   1
  -2  -9  10 160.628  67.436   4
   2  -9 -10 115.356  80.492   2
  -2  -9  10 50.2813 51.0794   3
   2   9 -10 134.575  77.219   1
  -2   9  10 92.4720 66.6023   4
  -1  -9  10 191.373  75.508   4
   1  -9 -10 78.2491 84.0127   2
  -1  -9  10 228.532  67.976   3
  -1   9  10 151.590  69.674   4
   1   9 -10 255.928  91.668   1
   0  -9 -10 749.183 143.678   2
   0  -9  10 675.288 120.133   4
   0   9  10 389.367  92.511   4
   0   9 -10 500.791 115.616   1
  -1  -9 -10 703.898 161.763   2
   1  -9  10 440.871 115.500   4
  -1   9 -10 561.003 118.504   1
   1   9  10 382.408  89.085   4
   2  -9  10 279.601 104.455   4
  -2  -9 -10 276.240 118.989   2
   2   9  10 233.494  76.296   4
  -2   9 -10 185.668  88.684   1
  -3  -9 -10  63.218 125.140   2
   3  -9  10 35.8666 88.7219   4
  -3   9 -10 -19.418  68.717   1
   3   9  10 -43.868  48.370   1
   4  -9  10 407.335 128.440   4
  -4  -9 -10 526.394 192.372   2
   4   9  10 647.782 114.211   1
  -4   9 -10 162.758 104.214   1
  -5 -10  10 -15.978  70.114   3
   5 -10 -10 53.1039 75.4313   2
   5  10 -10 28.6027 70.2258   1
  -5  10  10 23.5605 71.8262   4
  -5  10  10 57.9458 98.8109   3
   4 -10 -10 53.9535 81.6709   2
  -4 -10  10 -16.122  59.646   3
  -4  10  10 -12.812  65.121   4
   4  10 -10 10.3415 74.9099   1
  -3 -10  10 47.1696 56.7411   3
   3 -10 -10 -3.8404 85.3476   2
  -3  10  10 -0.4892 61.3432   4
   3  10 -10 16.4065 70.7290   1
   2 -10 -10 1369.93  202.69   2
  -2 -10  10 1389.41  162.51   3
   2  10 -10 1816.03  205.22   1
  -2  10  10 1697.17  189.59   4
   1 -10 -10 -60.014  52.745   2
  -1 -10  10 13.5307 50.8729   3
  -1 -10  10 98.4140 76.8724   4
   1  10 -10 -7.1235 61.3170   1
  -1  10  10 122.976  67.712   4
   0 -10 -10 590.597 138.376   2
   0 -10  10 522.705  92.885   3
   0 -10  10 338.014 109.664   4
   0  10  10 384.905  92.238   4
   0  10 -10 651.332 130.250   1
   1 -10  10 -81.208  63.477   4
  -1 -10 -10  91.220 100.337   2
   1  10  10 60.3613 60.4893   4
  -1  10 -10 -41.620  58.808   1
   2 -10  10 1064.73  177.45   4
  -2 -10 -10 997.008 203.260   2
   2  10  10 1189.09  144.54   4
  -2  10 -10 745.258 151.583   1
   3 -10  10 179.842 105.391   4
  -3 -10 -10 -43.375 105.743   2
   3  10  10 -50.383  47.469   1
  -3  10 -10 -22.532  77.848   1
   4  10  10 698.777 122.038   1
  -4  10 -10 509.378 140.075   1
   5 -11 -10 174.131  94.923   2
   5 -11 -10  98.156 117.931   3
  -5 -11  10  0.1973 71.3023   3
   5  11 -10 223.633  90.545   1
  -5  11  10  1.5895 90.6297   4
   4 -11 -10 609.249 150.401   2
  -4 -11  10 906.750 141.616   3
   4  11 -10 824.032 146.988   1
  -4  11  10 683.607 136.380   4
   3 -11 -10 281.881 115.830   2
  -3 -11  10 263.683  79.492   3
  -3  11  10 256.359  97.640   4
   3  11 -10 252.000 102.093   1
  -2 -11  10 36.4483 58.7351   3
   2 -11 -10 -3.9106 78.2355   2
   2  11 -10 28.4164 62.7743   1
  -2  11  10 23.8330 66.9993   4
  -1 -11  10 44.7883 60.4747   3
  -1 -11  10 90.6072 77.2239   4
   1 -11 -10 87.3315 83.5381   2
  -1  11  10 -11.620  61.435   4
   1  11 -10 54.8754 71.6689   1
   0 -11  10 1626.76  208.45   4
   0 -11  10 1561.64  172.88   3
   0 -11 -10 1819.50  231.90   2
   0  11 -10 2078.76  229.90   1
   0  11  10 1566.48  185.82   4
   1 -11  10 238.654 113.234   4
  -1 -11 -10 161.814 108.040   2
  -1  11 -10 372.487 114.826   1
   1  11  10 237.640  83.964   4
  -2 -11 -10 700.791 176.825   2
   2 -11  10 462.739 135.489   4
  -2  11 -10 408.843 115.111   1
   2  11  10 446.929 104.658   4
  -3 -11 -10 100.978 131.663   2
   3 -11  10 -15.110  92.981   4
  -3  11 -10 -16.412  76.773   1
  -4 -12  10 10.4485 73.4775   3
   4 -12 -10 -20.166 100.131   2
   4  12 -10 62.4528 82.6643   1
  -4  12  10 69.2085 86.3605   4
   3 -12 -10 290.649 121.327   2
  -3 -12  10 544.797 115.422   3
  -3  12  10 252.166  98.746   4
   3  12 -10 421.068 111.360   1
   2 -12 -10 220.613 103.493   2
  -2 -12  10 226.017  78.420   3
  -2  12  10 232.753  93.265   4
   2  12 -10 207.501  85.583   1
   1 -12 -10 993.947 167.551   2
  -1 -12  10 957.476 159.905   4
  -1 -12  10 1084.04  145.74   3
   1  12 -10 966.438 164.153   1
  -1  12  10 1031.51  157.13   4
   0 -12  10 -8.9724 84.9650   4
   0 -12 -10 -80.794  82.905   2
   0 -12  10 58.1738 65.0817   3
   0  12 -10 127.428  80.037   1
   0  12  10 -44.040  59.698   4
  -1 -12 -10 -25.367  97.385   2
   1 -12  10 104.340 100.446   4
  -1  12 -10 29.9895 84.5383   1
   1  12  10 75.7068 77.2655   4
   2 -12  10 493.297 148.780   4
  -2 -12 -10 471.420 158.901   2
  -2  12 -10 473.066 130.360   1
  -3 -13  10 559.989 118.532   3
   3 -13 -10 170.616 112.043   2
   2 -13 -10 141.571  96.471   2
  -2 -13  10 55.0874 68.8225   3
  -2  13  10 -30.717  84.087   4
   2  13 -10 40.6250 74.2746   1
   1 -13 -10 284.361 116.465   2
  -1 -13  10 361.077  96.860   3
  -1 -13  10 500.463 129.450   4
   1  13 -10 444.378 120.143   1
  -1  13  10 290.350 108.973   4
   0 -13 -10 136.604 101.288   2
   0 -13  10 -86.013  92.552   4
   0 -13  10 40.7786 61.6516   3
   0  13  10 -17.115  75.136   4
   0  13 -10 -2.8195 75.6804   1
  -1 -13 -10 810.006 182.234   2
   1 -13  10 1199.08  193.23   4
  -1  13 -10 829.428 156.650   1
   1  13  10 691.810 139.646   4
  -2 -14  10 331.753 101.480   3
   2 -14 -10 308.073 120.289   2
  -1 -14  10 282.648  96.322   3
   1 -14 -10 214.197 119.389   2
   0 -14 -10 -25.320 108.481   2
   0 -14  10  87.460 113.917   4
   0 -14  10 130.512  81.185   3
   0  14  10 101.019  92.077   4
   7   0 -11 981.421 153.790   2
  -7   0  11 781.062 158.169   3
   6   0 -11  7.1925 59.2107   2
  -6   0  11 -63.906  68.442   3
   5   0 -11 -6.8937 48.4353   2
  -5   0  11 119.036  74.361   3
   4   0 -11 -70.933  43.619   2
  -4   0  11  4.7744 37.3542   4
  -4   0  11 -18.395  54.714   3
  -3   0  11 1984.54  181.70   3
   3   0 -11 2091.12  183.89   2
  -3   0  11 2193.32  163.41   4
  -2   0  11 12.6571 34.6963   4
   2   0 -11 -4.6786 45.3040   1
   2   0 -11 -102.38   44.35   2
   1   0 -11 530.111 106.612   2
  -1   0  11 531.859  79.323   4
   1   0 -11 735.779 108.872   1
   0   0  11 -16.453  32.908   4
   0   0 -11 -99.803  41.980   1
   0   0 -11 -9.8269 53.8799   2
  -1   0 -11 2006.82  207.05   1
  -1   0 -11 2048.34  221.00   2
   1   0  11 1954.73  166.86   4
   2   0  11  9.6123 43.2229   4
  -2   0 -11 74.9797 77.8659   2
  -2   0 -11 141.538  71.568   1
  -3   0 -11 1035.92  173.85   2
  -3   0 -11 1341.75  169.72   1
   3   0  11 1236.07  139.66   4
   4   0  11 28.0083 55.3357   4
  -4   0 -11  4.9017 93.4883   2
  -4   0 -11 -6.6430 68.4852   1
  -5   0 -11 143.334  80.849   1
  -5   0 -11  52.648 110.110   2
   7  -1 -11 73.4678 80.4215   2
  -7  -1  11 -21.726  70.153   3
  -7   1  11 213.554 103.502   3
   7   1 -11 62.0811 72.3253   2
   6  -1 -11 111.974  72.562   2
  -6  -1  11 145.938  84.354   3
   6   1 -11 188.013  78.300   2
  -6   1  11 138.107  89.491   3
  -5  -1  11 288.730  93.588   3
   5  -1 -11 124.727  70.952   2
   5   1 -11 344.627  85.870   2
  -5   1  11 525.826 111.746   3
  -4  -1  11 647.764 110.693   3
   4  -1 -11 686.394 108.186   2
  -4  -1  11 520.783  78.438   4
  -4   1  11 596.645 112.530   3
  -4   1  11 551.252  85.215   4
   4   1 -11 514.203  93.966   2
  -3  -1  11 38.7443 53.8911   3
  -3  -1  11  5.8924 31.3072   4
   3  -1 -11 51.6297 54.6212   2
  -3   1  11 56.0017 39.9283   4
   3   1 -11 -18.042  48.510   1
   3   1 -11 -56.242  41.426   2
  -2  -1  11 133.479  46.981   4
   2  -1 -11 82.4445 52.8131   1
   2  -1 -11 180.880  74.375   2
  -2   1  11 106.311  45.391   4
   2   1 -11 197.495  66.742   2
   2   1 -11 205.973  67.857   1
   1  -1 -11 2220.91  187.81   1
  -1  -1  11 2000.36  167.81   4
   1  -1 -11 2246.92  227.27   2
   1   1 -11 2234.32  194.37   1
   1   1 -11 2340.94  200.18   2
  -1   1  11 2190.18  169.21   4
   0  -1 -11 1199.95  159.04   2
   0  -1 -11 1101.96  141.94   1
   0  -1  11 1263.46  131.79   4
   0   1  11 1136.20  123.45   4
   0   1 -11 1434.47  160.46   2
   0   1 -11 1238.66  153.63   1
  -1  -1 -11 1144.62  162.49   2
  -1  -1 -11 969.725 135.573   1
   1  -1  11 827.869 112.063   4
   1   1  11 976.194 114.391   4
  -1   1 -11 979.857 143.994   1
  -1   1 -11 984.490 145.459   2
   2  -1  11 117.493  58.100   4
  -2  -1 -11 151.138  88.086   2
  -2  -1 -11 159.125  72.680   1
  -2   1 -11  7.3288 72.1932   2
  -2   1 -11 -14.350  60.401   1
   2   1  11 79.6340 48.7665   4
  -3  -1 -11 361.569 122.274   2
   3  -1  11 483.643  92.400   4
  -3  -1 -11 449.217 104.308   1
   3   1  11 330.693  76.107   4
  -3   1 -11 487.980 110.635   1
  -3   1 -11 238.766 101.956   2
  -4  -1 -11 362.752 135.156   2
  -4  -1 -11 395.641 103.127   1
   4  -1  11 279.839  80.269   4
   4   1  11 324.217  78.088   4
  -4   1 -11 246.143  90.692   1
   5  -1  11 346.700  90.250   4
  -5  -1 -11 276.013 134.899   2
   5   1  11 381.436 104.192   1
  -5   1 -11 490.819 114.351   1
   7  -2 -11 154.771  85.940   2
  -7  -2  11 -116.35   73.06   3
  -7   2  11 74.6722 99.6268   3
   7   2 -11 50.6891 75.6805   2
   6  -2 -11 632.417 119.880   2
  -6  -2  11 675.945 130.310   3
   6   2 -11 611.450 115.997   2
  -6   2  11 501.401 122.967   3
   5  -2 -11 -27.820  49.720   2
  -5  -2  11 18.9756 62.7737   3
   5   2 -11 -67.347  44.719   2
  -5   2  11 -20.813  67.559   3
  -4  -2  11 506.628 106.021   3
   4  -2 -11 871.451 122.147   2
  -4   2  11 793.540 122.324   3
  -4   2  11 628.251  95.002   4
   4   2 -11 680.139 105.818   2
  -3  -2  11 367.354  79.610   3
  -3  -2  11 276.250  57.383   4
   3  -2 -11 443.770  90.027   2
   3   2 -11 245.793  72.393   1
  -3   2  11 146.869  52.093   4
   3   2 -11 187.637  63.577   2
   2  -2 -11 3153.97  249.89   2
  -2  -2  11 2610.27  200.20   4
   2   2 -11 3003.84  228.80   2
   2   2 -11 2724.00  224.89   1
  -2   2  11 2815.91  205.72   4
   1  -2 -11 10.9879 63.2316   2
   1  -2 -11 118.173  58.832   1
  -1  -2  11 183.359  52.738   4
   1   2 -11  4.3071 57.5636   2
   1   2 -11 -49.892  48.032   1
  -1   2  11 41.9267 40.9284   4
   0  -2 -11 113.181  59.411   1
   0  -2 -11 105.423  67.201   2
   0  -2  11 48.4789 46.5221   4
   0   2 -11 255.865  73.418   2
   0   2 -11 193.392  75.557   1
   0   2  11 15.4150 40.4801   4
  -1  -2 -11 90.1752 59.0548   1
  -1  -2 -11 -33.518  71.156   2
   1  -2  11 -12.610  43.890   4
  -1   2 -11 17.2663 62.3430   2
  -1   2 -11 -13.993  60.813   1
   1   2  11 14.9114 41.4059   4
  -2  -2 -11 1192.49  184.25   2
   2  -2  11 1138.77  137.91   4
  -2  -2 -11 1190.24  149.89   1
  -2   2 -11 878.436 144.129   1
   2   2  11 1040.72  121.18   4
  -3  -2 -11 -24.169  86.879   2
   3  -2  11 47.0155 54.0115   4
  -3  -2 -11 -37.287  52.097   1
  -3   2 -11 31.8668 61.9470   1
   3   2  11 26.7670 42.3923   4
  -4  -2 -11 -4.0408 62.4776   1
  -4  -2 -11 20.4964 97.2094   2
   4  -2  11 62.4472 60.8026   4
  -4   2 -11 16.9576 57.2118   1
   4   2  11 -4.9731 45.5789   4
   5  -2  11 152.826  71.905   4
  -5  -2 -11 -50.498 112.022   2
   5   2  11 149.384  84.641   1
  -5   2 -11 15.5610 68.2781   1
  -7  -3  11 -140.65   58.89   3
   7  -3 -11 -65.147  61.029   2
  -7   3  11 12.4037 88.3678   3
   7   3 -11 -33.155  63.652   2
   6  -3 -11 61.1947 73.1593   2
  -6  -3  11 205.228  92.573   3
  -6   3  11 322.618 112.790   3
   6   3 -11 421.249  99.906   2
  -5  -3  11 86.1683 72.7262   3
   5  -3 -11 48.8661 64.0949   2
  -5   3  11 171.132  87.897   3
  -5   3  11 141.373  60.815   4
   5   3 -11 -28.071  49.869   2
  -4  -3  11 1997.16  205.58   3
   4  -3 -11 2106.32  213.45   2
  -4   3  11 2057.33  176.51   4
  -4   3  11 2478.48  208.80   3
   4   3 -11 2253.22  213.02   1
   4   3 -11 2118.53  183.08   2
  -3  -3  11 20.8183 49.6962   3
   3  -3 -11 89.4192 57.4050   2
  -3  -3  11 84.9729 40.4124   4
   3   3 -11 30.4787 49.2414   2
  -3   3  11 95.7712 50.2150   4
   3   3 -11 -8.3702 52.2054   1
   2  -3 -11 67.6215 68.6048   2
  -2  -3  11 -14.865  34.166   4
  -2   3  11  7.6843 34.8588   4
   2   3 -11 -53.192  43.151   2
   2   3 -11 12.4568 54.6797   1
   1  -3 -11 -4.6350 63.3521   2
  -1  -3  11 -1.9389 41.2537   4
   1  -3 -11 -36.698  45.631   1
   1   3 -11 41.2077 53.5399   1
  -1   3  11 43.5183 38.8260   4
   0  -3 -11 1787.10  178.75   1
   0  -3  11 1965.23  165.00   4
   0  -3 -11 1856.66  209.33   2
   0   3  11 1830.03  153.96   4
   0   3 -11 1843.72  199.19   1
  -1  -3 -11 151.642  89.821   2
   1  -3  11 57.9105 51.9670   4
  -1  -3 -11 83.4872 57.9638   1
   1   3  11 80.1383 46.8629   4
  -1   3 -11 95.5100 67.2491   1
   2  -3  11 29.1992 51.2441   4
  -2  -3 -11 19.0430 87.0543   2
  -2  -3 -11 24.8211 54.7824   1
  -2   3 -11  0.8834 59.9200   1
   2   3  11 -0.6439 37.1672   4
   3  -3  11 52.6633 60.4077   4
  -3  -3 -11 53.4523 69.1548   1
  -3  -3 -11  63.820 102.001   2
  -3   3 -11 32.6944 70.2313   1
   3   3  11 43.6281 45.5988   4
   4  -3  11 1241.10  156.38   4
  -4  -3 -11 1549.73  232.98   2
  -4   3 -11 747.002 141.255   1
   4   3  11 1093.60  157.56   1
   4   3  11 1090.91  128.33   4
  -5  -3 -11 -135.52  107.51   2
   5  -3  11 -25.416  65.457   4
   5   3  11 178.116  88.714   1
  -5   3 -11 10.5291 72.2034   1
  -7  -4  11 570.304 124.686   3
   7   4 -11 413.922 112.168   2
  -7   4  11 428.488 132.449   3
  -6  -4  11 888.947 147.003   3
   6  -4 -11 944.276 146.575   2
   6   4 -11 785.520 131.593   2
  -6   4  11 882.038 158.470   3
   5  -4 -11 25.6684 58.3842   2
  -5  -4  11 52.8650 65.6470   3
  -5   4  11 84.6278 79.5515   3
  -5   4  11 198.898  71.113   4
  -4  -4  11 11.2657 59.3300   3
   4  -4 -11 41.9701 60.3020   2
   4   4 -11 -47.776  54.310   1
  -4   4  11 38.8487 65.8095   3
  -4   4  11 62.9594 50.9213   4
   3  -4 -11 455.462 102.268   2
  -3  -4  11 454.220  89.456   3
  -3  -4  11 409.936  71.518   4
   3   4 -11 607.339 106.026   1
  -3   4  11 474.922  86.347   4
  -2  -4  11 364.347  71.838   4
   2  -4 -11 531.204 121.414   2
  -2   4  11 503.807  82.892   4
   2   4 -11 441.539  97.236   1
  -1  -4  11 315.671  71.589   4
   1  -4 -11 222.706  92.489   2
   1   4 -11 374.150  88.477   1
  -1   4  11 364.848  73.587   4
   0  -4 -11 30.4435 50.4322   1
   0  -4  11 82.1766 54.4144   4
   0  -4 -11 27.8583 73.0125   2
   0   4 -11 47.4024 63.4035   1
   0   4  11 50.9448 41.7140   4
  -1  -4 -11 1036.93  174.38   2
   1  -4  11 1103.12  142.72   4
  -1  -4 -11 997.947 131.927   1
  -1   4 -11 1138.20  162.48   1
   1   4  11 1173.40  125.24   4
  -2  -4 -11 1147.11  145.62   1
  -2  -4 -11 1248.72  199.62   2
   2  -4  11 1398.84  161.36   4
  -2   4 -11 911.792 150.273   1
   2   4  11 1002.59  118.96   4
  -3  -4 -11 842.819 180.056   2
   3  -4  11 824.980 132.832   4
  -3   4 -11 658.916 128.417   1
   3   4  11 777.136 125.371   1
   3   4  11 736.735 102.988   4
  -4  -4 -11 -22.901 112.190   2
   4  -4  11 -16.100  61.337   4
   4   4  11 34.2976 64.8877   1
  -4   4 -11 83.2791 73.8308   1
   5  -4  11 159.388  88.269   4
  -5  -4 -11 224.804 147.658   2
   5   4  11 221.183  89.050   1
  -5   4 -11 -66.542  69.948   1
  -7   5  11 83.7608 97.7733   3
   6  -5 -11  2.1108 66.9279   2
  -6  -5  11 67.9488 70.1993   3
  -6   5  11 53.0231 86.7825   3
   5  -5 -11 1332.13  173.26   2
  -5  -5  11 1192.84  158.83   3
  -5   5  11 1417.51  185.26   3
  -5   5  11 1291.37  153.70   4
   5   5 -11 1306.15  169.37   1
  -4  -5  11 -6.8147 53.0168   3
   4  -5 -11  5.9064 53.2475   2
   4   5 -11 -8.3686 67.3332   1
  -4   5  11 -32.495  43.787   4
  -3  -5  11 437.412  90.653   3
  -3  -5  11 594.787  83.046   4
   3  -5 -11 500.057 106.928   2
   3   5 -11 550.645 111.393   1
  -3   5  11 472.987  88.086   4
  -2  -5  11 -24.068  43.931   3
  -2  -5  11 41.1750 42.4730   4
   2  -5 -11 -26.895  62.246   2
   2   5 -11 50.7656 63.4557   1
  -2   5  11 -50.205  37.592   4
   1  -5 -11 1476.46  183.83   2
  -1  -5  11 1207.10  139.74   4
  -1   5  11 1158.86  133.30   4
   1   5 -11 1441.51  168.43   1
   0  -5  11 42.6966 52.1191   4
   0  -5 -11 103.290  82.418   2
   0   5 -11  5.3135 63.9077   1
   0   5  11 16.5677 43.5380   4
  -1  -5 -11 464.184 124.496   2
   1  -5  11 350.419  91.394   4
  -1  -5 -11 304.029  79.066   1
  -1   5 -11 325.705  97.807   1
   1   5  11 267.140  63.698   4
   2  -5  11  9.7302 54.0183   4
  -2  -5 -11 10.7296 87.9166   2
   2   5  11 -16.384  40.535   4
  -2   5 -11 -34.393  63.489   1
   2   5  11 32.9189 51.2639   1
   3  -5  11 1107.49  161.91   4
  -3  -5 -11 1340.09  217.36   2
   3   5  11 957.136 122.109   4
   3   5  11 1351.51  160.83   1
  -3   5 -11 1210.02  171.27   1
  -4  -5 -11 -16.132 106.045   2
   4  -5  11 32.7942 74.9867   4
   4   5  11 10.6008 58.1230   1
  -4   5 -11 86.1581 77.8930   1
   5  -5  11 1750.54  211.06   4
  -6  -6  11 421.621 107.381   3
   6  -6 -11 479.722 112.454   2
  -6   6  11 74.1391 91.4313   3
  -5  -6  11 36.1923 63.5748   3
   5  -6 -11 30.7838 66.9045   2
   5   6 -11 89.9728 74.2474   1
  -5   6  11 37.0211 62.0195   4
  -5   6  11 69.1273 84.4816   3
   4  -6 -11 -19.075  55.091   2
  -4  -6  11 65.8975 61.7942   3
   4   6 -11 -22.963  63.227   1
  -4   6  11 18.7697 58.6864   4
   3  -6 -11 996.836 150.748   2
  -3  -6  11 883.672 123.315   3
   3   6 -11 805.006 137.080   1
  -3   6  11 1080.53  132.15   4
  -2  -6  11 401.459  77.973   4
  -2  -6  11 377.650  77.165   3
   2  -6 -11 323.408 102.537   2
  -2   6  11 443.962  82.877   4
   2   6 -11 303.056  88.997   1
   1  -6 -11 476.122 114.151   2
  -1  -6  11 519.758  93.676   4
  -1   6  11 370.913  78.513   4
   1   6 -11 377.814  98.434   1
   0  -6 -11 24.5999 70.5113   2
   0  -6  11 -13.320  50.385   4
   0   6  11  7.6725 42.9076   4
   0   6 -11 -7.1364 58.2661   1
  -1  -6 -11 1144.46  188.02   2
   1  -6  11 1014.96  142.49   4
  -1   6 -11 787.338 141.327   1
   1   6  11 826.765 112.734   4
   1   6  11 841.437 115.057   1
   2  -6  11 633.548 122.158   4
  -2  -6 -11 385.233 136.670   2
   2   6  11 602.721 101.459   1
  -2   6 -11 462.566 118.670   1
   2   6  11 480.707  83.448   4
  -3  -6 -11 432.519 155.197   2
   3  -6  11 511.637 116.743   4
   3   6  11 547.860 101.737   1
   3   6  11 788.324 103.389   4
  -3   6 -11 473.665 116.807   1
   4  -6  11 -71.476  61.504   4
  -4  -6 -11  46.764 123.804   2
   4   6  11 -31.663  49.871   1
  -4   6 -11 -32.244  71.577   1
  -6  -7  11 282.821  96.446   3
   6  -7 -11 229.528  93.661   2
  -6   7  11 138.202 108.264   3
   6   7 -11 165.266  89.817   1
   5  -7 -11 105.374  81.025   2
  -5  -7  11 55.6104 68.8135   3
  -5   7  11 240.730  83.819   4
  -5   7  11 102.871  91.424   3
   5   7 -11 68.2785 80.7159   1
   4  -7 -11 1474.71  179.18   2
  -4  -7  11 901.703 136.413   3
   4   7 -11 995.274 156.661   1
  -4   7  11 1124.12  147.28   4
  -3  -7  11 -1.2539 51.5568   3
   3  -7 -11 15.7982 63.2474   2
   3   7 -11 15.4747 63.4668   1
  -3   7  11 12.1639 53.3732   4
  -2  -7  11 15.4358 48.6588   3
   2  -7 -11 42.9817 75.4867   2
  -2  -7  11 25.1250 49.3773   4
  -2   7  11 22.5574 51.8300   4
   2   7 -11 -8.4748 69.4243   1
   1  -7 -11 388.228  96.207   2
  -1  -7  11 249.576  73.930   4
  -1   7  11 263.201  71.796   4
   1   7 -11 136.146  77.767   1
   0  -7  11 1519.94  174.27   4
   0  -7 -11 1659.83  207.67   2
   0   7 -11 1160.09  173.15   1
   0   7  11 1161.78  143.49   4
  -1  -7 -11 -37.385  83.226   2
   1  -7  11 183.691  85.800   4
   1   7  11  5.7430 46.4522   4
  -1   7 -11 280.444  94.295   1
   2  -7  11 27.5507 67.6827   4
  -2  -7 -11  80.694 103.657   2
   2   7  11 -26.240  44.618   1
  -2   7 -11 -87.184  54.680   1
   2   7  11  3.6206 44.5267   4
   3  -7  11 138.206  90.037   4
  -3  -7 -11 -60.698 105.584   2
  -3   7 -11 95.6502 79.1213   1
   3   7  11 168.564  62.871   4
   3   7  11 119.497  67.613   1
   4  -7  11 959.699 162.273   4
  -4  -7 -11 777.593 212.636   2
   4   7  11 786.121 132.309   1
  -4   7 -11 720.581 146.728   1
  -6  -8  11 715.284 140.587   3
  -6   8  11 1065.92  158.17   4
  -6   8  11 818.787 166.112   3
   6   8 -11 788.501 146.161   1
  -5  -8  11 10.8358 60.5220   3
   5  -8 -11 -49.784  65.259   2
  -5   8  11 17.8361 64.4798   4
  -5   8  11 49.2060 89.4613   3
   5   8 -11 77.3203 81.5652   1
  -4  -8  11 85.6417 67.8525   3
   4  -8 -11 117.412  84.106   2
   4   8 -11 86.9939 79.8718   1
  -4   8  11 251.201  82.556   4
  -3  -8  11 87.9235 62.3560   3
   3  -8 -11  9.9971 74.3502   2
   3   8 -11 -6.6824 68.9441   1
  -3   8  11 -0.8893 57.8111   4
   2  -8 -11 1614.60  218.25   2
  -2  -8  11 1684.17  170.08   4
  -2  -8  11 1886.59  175.48   3
  -2   8  11 1461.18  174.06   4
   2   8 -11 1259.60  185.38   1
  -1  -8  11 -7.3780 56.6753   4
   1  -8 -11 17.7587 68.7024   2
  -1   8  11 -28.583  49.768   4
   1   8 -11 51.5716 71.1540   1
   0  -8  11 40.2034 62.3198   4
   0  -8 -11 16.0222 72.6221   2
   0   8 -11  5.8044 61.5865   1
   0   8  11 14.5347 53.5140   4
   1  -8  11 -99.216  59.253   4
  -1  -8 -11 42.5762 82.1652   2
   1   8  11  7.3990 48.7771   4
  -1   8 -11 -12.509  63.955   1
   2  -8  11 1691.61  216.21   4
  -2  -8 -11 1575.70  249.93   2
   2   8  11 2106.10  174.56   4
  -2   8 -11 1704.26  216.05   1
   3  -8  11 25.2530 80.6623   4
  -3  -8 -11  -5.632 103.488   2
   3   8  11 54.8197 59.5771   1
  -3   8 -11 66.1013 72.6626   1
  -4   8 -11 106.425  88.311   1
   4   8  11 153.643  75.882   1
   5  -9 -11 284.954 101.536   2
  -5  -9  11 144.593  82.749   3
   5   9 -11 332.446 110.720   1
  -5   9  11 401.342 108.447   4
   4  -9 -11 612.333 132.983   2
  -4  -9  11 405.724 102.951   3
   4   9 -11 560.708 122.489   1
  -4   9  11 697.733 127.241   4
  -3  -9  11 55.0485 62.9633   3
   3  -9 -11 162.403  99.071   2
   3   9 -11 98.0146 77.8241   1
  -3   9  11 93.3517 68.4191   4
  -2  -9  11 64.8075 63.5068   3
   2  -9 -11 50.5930 80.8710   2
  -2  -9  11 131.197  74.451   4
   2   9 -11 172.934  89.422   1
  -2   9  11 131.988  73.806   4
   1  -9 -11 700.636 143.286   2
  -1  -9  11 914.553 137.893   4
   1   9 -11 928.825 156.347   1
  -1   9  11 860.195 128.709   4
   0  -9 -11 1704.98  220.74   2
   0  -9  11 1550.64  183.29   4
   0   9 -11 1089.88  169.10   1
   0   9  11 909.666 138.470   4
  -1  -9 -11 666.703 157.996   2
   1  -9  11 872.575 146.603   4
  -1   9 -11 303.485 103.155   1
   1   9  11 582.711 107.461   4
  -2  -9 -11 -77.932 108.668   2
   2  -9  11 91.8513 86.5413   4
   2   9  11 -14.438  54.807   4
  -2   9 -11 132.997  86.231   1
   3  -9  11 -32.111  83.113   4
  -3  -9 -11  25.315 129.791   2
   3   9  11 58.7115 62.8073   1
  -3   9 -11 -1.4291 85.7198   1
   5 -10 -11 75.0308 83.8200   2
  -5 -10  11 -8.2182 71.9277   3
  -5  10  11 -10.317  84.497   4
   5  10 -11 134.157  93.327   1
   4 -10 -11 30.0010 88.2073   2
  -4 -10  11 195.176  81.277   3
   4  10 -11 -24.809  74.713   1
  -4  10  11 95.5672 76.2488   4
   3 -10 -11 1529.52  222.51   2
  -3 -10  11 1399.58  170.72   3
  -3  10  11 1448.35  187.67   4
   3  10 -11 1695.48  211.45   1
   2 -10 -11 120.949  95.105   2
  -2 -10  11 101.881  63.297   3
   2  10 -11 165.408  87.587   1
  -2  10  11 247.787  85.918   4
   1 -10 -11 499.076 126.191   2
  -1 -10  11 498.755 114.822   4
  -1  10  11 621.857 118.935   4
   1  10 -11 466.628 119.042   1
   0 -10 -11 -99.380  73.883   2
   0 -10  11  8.9306 75.8679   4
   0  10  11 -7.3563 57.1938   4
   0  10 -11 212.137  96.618   1
   1 -10  11 631.455 142.428   4
  -1 -10 -11 857.018 177.176   2
   1  10  11 879.352 127.457   4
  -1  10 -11 532.972 125.161   1
  -2 -10 -11 -32.361 108.822   2
   2 -10  11 13.5320 83.9020   4
  -2  10 -11 106.381  81.158   1
   2  10  11 -110.79   54.35   4
  -3  10 -11 613.885 140.542   1
  -4 -11  11 107.651  78.427   3
   4 -11 -11 77.9353 99.8038   2
  -4  11  11 44.3125 80.7346   4
   4  11 -11 85.4263 90.4209   1
  -3 -11  11 65.6055 68.4196   3
   3 -11 -11 74.7813 99.9000   2
   3  11 -11 -28.602  74.110   1
  -3  11  11 -27.332  65.474   4
   2 -11 -11 -82.778  72.622   2
  -2 -11  11 74.4280 64.0654   3
  -2  11  11 -10.937  61.410   4
   2  11 -11 96.4199 75.8999   1
   1 -11 -11 905.612 174.764   2
  -1 -11  11 1585.28  191.19   4
  -1  11  11 1350.59  174.81   4
   1  11 -11 1148.55  179.27   1
   0 -11  11 351.442 111.326   4
   0 -11 -11 597.334 151.138   2
   0  11  11 446.327 106.160   4
   0  11 -11 329.042 109.979   1
  -1 -11 -11 351.908 146.593   2
   1 -11  11 342.176 124.328   4
   1  11  11 535.013 106.881   4
  -1  11 -11 716.181 145.163   1
   2 -11  11 -21.637  86.201   4
  -2 -11 -11 -48.032  92.793   2
   2  11  11 49.5145 68.2685   4
  -2  11 -11 57.1454 89.0723   1
   3 -12 -11  72.492 107.137   2
  -3 -12  11 121.873  80.158   3
   3  12 -11 10.9992 81.5424   1
   2 -12 -11 1012.28  170.24   2
  -2 -12  11 783.166 130.853   3
  -2  12  11 745.630 146.441   4
   2  12 -11 774.665 150.792   1
  -1 -12  11 -15.545  56.586   3
  -1 -12  11 -41.200  77.548   4
   1 -12 -11 -84.155  83.873   2
  -1  12  11 21.2604 72.7923   4
   1  12 -11 -51.414  61.276   1
   0 -12  11 -75.959  76.027   4
   0 -12 -11 -39.312  82.022   2
   0  12  11 -60.283  68.447   4
   0  12 -11 -14.051  74.238   1
   1 -12  11 107.629 107.891   4
  -1 -12 -11 484.660 151.659   2
   1  12  11 221.975  98.342   4
  -1  12 -11 48.6651 88.2058   1
   2 -13 -11 -95.312  83.839   2
  -2 -13  11 17.2482 72.6329   3
  -1 -13  11 -11.992  66.439   3
   1 -13 -11 -53.795  90.943   2
   0 -13 -11 733.196 175.763   2
   0 -13  11 1294.39  196.74   4
   0  13  11 873.686 155.506   4
   7   0 -12 30.1279 72.0067   2
  -7   0  12 -26.266  79.549   3
  -6   0  12 533.242 127.319   3
   6   0 -12 461.246 104.832   2
  -5   0  12 24.7729 68.0526   3
   5   0 -12 -65.899  51.440   2
   4   0 -12 596.297 107.105   2
  -4   0  12 626.911  91.223   4
  -3   0  12 -44.766  33.583   4
   3   0 -12 13.1368 55.0848   2
   2   0 -12 841.636 121.347   1
   2   0 -12 802.076 136.651   2
  -2   0  12 930.731 108.288   4
  -1   0  12 -39.518  32.815   4
   1   0 -12 59.5740 59.5043   1
   1   0 -12 -56.708  51.940   2
   0   0 -12 369.122  95.072   2
   0   0  12 380.311  73.235   4
   0   0 -12 506.479 100.859   1
   1   0  12 37.5905 45.7470   4
  -1   0 -12 -71.579  48.304   1
  -1   0 -12 -34.523  66.847   2
   2   0  12 1393.36  159.96   4
  -2   0 -12 1707.90  203.52   1
  -2   0 -12 1888.10  220.46   2
  -3   0 -12 41.1515 91.2030   2
  -3   0 -12 -10.673  71.552   1
   3   0  12 -2.6238 50.8061   4
  -4   0 -12 265.215  92.208   1
  -4   0 -12 161.092 117.240   2
   4   0  12 181.393  74.784   4
  -7  -1  12 34.0950 83.3224   3
   7   1 -12 -26.911  63.619   2
  -7   1  12  0.4264 90.5893   3
   6  -1 -12 232.998  84.131   2
  -6  -1  12 415.182 113.371   3
  -6   1  12 493.780 121.890   3
   6   1 -12 405.248  97.224   2
   5  -1 -12 244.190  80.616   2
  -5  -1  12 147.863  83.025   3
   5   1 -12 368.027  90.103   2
  -5   1  12 246.615  92.444   3
  -4  -1  12 786.984 100.586   4
   4  -1 -12 662.373 113.674   2
  -4  -1  12 942.260 136.257   3
  -4   1  12 730.570 100.979   4
   4   1 -12 794.901 119.160   2
  -3  -1  12 120.177  46.250   4
   3  -1 -12 101.534  64.998   2
  -3   1  12 83.7980 48.3221   4
   3   1 -12 -9.8524 53.7536   2
  -2  -1  12 297.341  63.102   4
   2  -1 -12 265.731  94.396   2
   2   1 -12 253.286  75.990   1
  -2   1  12 187.932  55.863   4
   2   1 -12 243.772  88.246   2
   1  -1 -12 883.017 126.230   1
   1  -1 -12 812.835 135.115   2
  -1  -1  12 801.727 101.251   4
   1   1 -12 909.160 132.528   2
  -1   1  12 820.183 104.350   4
   1   1 -12 756.349 123.931   1
   0  -1 -12 1099.91  146.01   1
   0  -1  12 1104.44  128.54   4
   0  -1 -12 1229.49  164.06   2
   0   1  12 1158.68  127.36   4
   0   1 -12 1026.02  146.67   2
   0   1 -12 1280.36  161.79   1
   1  -1  12 -12.860  35.986   4
  -1  -1 -12 95.7622 65.0270   1
  -1  -1 -12 50.1231 75.2997   2
  -1   1 -12 -23.994  63.874   2
   1   1  12 -28.731  38.527   4
  -1   1 -12 12.3537 57.9859   1
  -2  -1 -12 97.4055 74.3611   1
  -2  -1 -12 92.3095 88.0073   2
   2  -1  12 112.831  57.690   4
  -2   1 -12 213.385  82.770   1
   2   1  12 200.078  63.742   4
  -3  -1 -12 740.079 131.887   1
  -3  -1 -12 525.118 140.860   2
   3  -1  12 603.287 100.678   4
   3   1  12 567.032  98.396   4
  -3   1 -12 578.274 127.463   1
   4  -1  12 781.193 119.084   4
  -4  -1 -12 628.103 161.857   2
  -4  -1 -12 484.866 114.272   1
  -4   1 -12 514.272 119.827   1
   4   1  12 606.586 107.173   4
  -5  -1 -12 177.797 131.968   2
  -7  -2  12 338.103 121.387   3
   7   2 -12 366.013 108.527   2
  -7   2  12 320.665 125.778   3
  -6  -2  12 53.5945 74.2225   3
   6  -2 -12 51.4366 63.0371   2
   6   2 -12 58.7469 64.6745   2
  -6   2  12 11.0607 84.2080   3
   5  -2 -12 33.1443 62.5056   2
  -5  -2  12 71.7208 77.1271   3
  -5   2  12 133.395  84.229   3
   5   2 -12 58.2431 59.3089   2
  -4  -2  12 204.303  87.828   3
   4  -2 -12 421.363  99.115   2
   4   2 -12 297.807  80.238   2
  -4   2  12 536.303  88.839   4
  -3  -2  12 1713.12  139.40   4
   3  -2 -12 1851.72  197.14   2
   3   2 -12 1695.62  179.34   2
  -3   2  12 1621.82  159.58   4
   3   2 -12 1355.86  168.33   1
   2  -2 -12 921.708 146.364   2
  -2  -2  12 600.075  87.525   4
   2   2 -12 500.942 109.931   2
   2   2 -12 673.090 115.289   1
  -2   2  12 814.053  98.364   4
   1  -2 -12 37.5711 54.2396   1
  -1  -2  12 22.2471 41.1048   4
   1  -2 -12 43.2015 61.9100   2
   1   2 -12 36.5758 56.9921   1
   1   2 -12 72.1783 61.4380   2
  -1   2  12 41.3853 42.1374   4
   0  -2  12 52.2233 48.3937   4
   0  -2 -12 169.452  86.847   2
   0  -2 -12 172.219  70.258   1
   0   2 -12 113.844  76.174   1
   0   2  12 134.803  48.921   4
  -1  -2 -12 1713.53  187.93   1
   1  -2  12 1375.16  161.05   4
  -1  -2 -12 1710.40  213.98   2
   1   2  12 1821.18  153.56   4
  -1   2 -12 1864.22  207.86   1
  -2  -2 -12 165.651  96.300   2
   2  -2  12  9.3578 48.8338   4
  -2  -2 -12 77.7690 65.6260   1
   2   2  12  6.2001 40.6573   4
  -2   2 -12 -78.857  57.690   1
  -3  -2 -12 126.057  77.278   1
   3  -2  12 335.566  86.875   4
  -3  -2 -12 508.788 148.914   2
  -3   2 -12 257.125  92.308   1
   3   2  12 318.699  74.126   4
  -4  -2 -12   5.543 108.593   2
  -4  -2 -12 295.836  98.781   1
   4  -2  12 229.486  82.710   4
   4   2  12 242.963  69.924   4
  -4   2 -12 189.022  91.541   1
  -7   3  12 160.233 116.882   3
   7   3 -12 149.270  87.164   2
  -6  -3  12 -39.782  69.640   3
   6  -3 -12 -32.998  57.442   2
   6   3 -12 109.283  69.663   2
  -6   3  12 41.3166 86.0251   3
  -5  -3  12 749.084 132.720   3
   5  -3 -12 1018.99  148.00   2
  -5   3  12 977.339 126.981   4
  -5   3  12 1056.48  164.49   3
   5   3 -12 937.355 131.327   2
  -4  -3  12 11.8023 58.0778   3
   4  -3 -12 112.074  68.444   2
  -4   3  12 23.1501 44.3120   4
   3  -3 -12 -33.780  52.023   2
  -3  -3  12  9.6415 38.1273   4
   3   3 -12 -63.115  51.377   1
  -3   3  12  8.1408 42.2940   4
  -2  -3  12 98.5496 47.7085   4
   2  -3 -12 27.5389 77.0171   2
  -2   3  12 35.5440 45.4315   4
   2   3 -12 -76.166  52.040   1
  -1  -3  12 2579.75  194.25   4
   1  -3 -12 2380.93  246.02   2
  -1   3  12 2316.51  186.28   4
   1   3 -12 2139.17  228.63   1
   0  -3  12 99.1703 54.6935   4
   0  -3 -12 61.1062 61.7962   1
   0  -3 -12 72.7100 75.0551   2
   0   3 -12 57.3037 66.9185   1
   0   3  12 71.3931 45.2420   4
  -1  -3 -12 -5.3407 79.6937   2
  -1  -3 -12 118.790  69.960   1
   1  -3  12 60.6646 56.9772   4
  -1   3 -12 300.886  96.398   1
   1   3  12 31.9446 45.8075   4
   2  -3  12 73.8434 59.5036   4
  -2  -3 -12 -62.868  55.018   1
  -2  -3 -12 58.0704 90.9756   2
  -2   3 -12 37.0370 67.3032   1
   2   3  12 47.7616 47.6613   4
   3  -3  12 1471.19  170.03   4
  -3  -3 -12 1297.66  168.38   1
  -3  -3 -12 1049.71  206.29   2
   3   3  12 1187.28  139.70   4
  -3   3 -12 1356.95  187.89   1
   4  -3  12 174.512  77.686   4
  -4  -3 -12  85.169 115.887   2
   4   3  12 210.706  86.278   1
  -4   3 -12 61.1212 77.0042   1
   4   3  12 35.7860 55.9866   4
  -6  -4  12 614.413 127.805   3
   6  -4 -12 259.138  93.585   2
  -6   4  12 598.080 134.097   3
   5  -4 -12 -19.359  62.516   2
  -5  -4  12 -4.7294 65.5969   3
  -5   4  12 81.2379 61.1768   4
   4  -4 -12 294.704  95.448   2
  -4  -4  12 360.028  92.077   3
   4   4 -12 304.684  92.376   1
  -4   4  12 324.203  75.951   4
   3  -4 -12 723.278 134.537   2
  -3  -4  12 782.692  98.988   4
  -3   4  12 837.176 111.633   4
   3   4 -12 981.860 142.852   1
   2  -4 -12 310.976 109.965   2
  -2  -4  12 434.288  76.808   4
   2   4 -12 363.258  98.691   1
  -2   4  12 553.635  89.889   4
  -1  -4  12 -47.046  43.305   4
   1  -4 -12 93.5038 74.6530   2
  -1   4  12  6.9743 42.9838   4
   1   4 -12 22.4639 67.4206   1
   0  -4 -12 280.706  98.360   2
   0  -4  12 60.9558 58.1294   4
   0   4  12 148.112  57.182   4
   0   4 -12 294.145  92.468   1
   1  -4  12 704.432 116.453   4
  -1  -4 -12 805.785 119.050   1
  -1  -4 -12 843.060 164.151   2
  -1   4 -12 579.003 126.159   1
   1   4  12 873.211 111.066   4
   2  -4  12 836.062 131.378   4
  -2  -4 -12 939.289 187.236   2
  -2  -4 -12 919.666 138.820   1
  -2   4 -12 839.067 143.629   1
   2   4  12 855.794 111.659   4
  -3  -4 -12   8.442 110.640   2
   3  -4  12 -11.285  61.524   4
   3   4  12 162.488  61.661   4
   3   4  12 103.768  71.838   1
  -3   4 -12 97.4482 79.3343   1
  -4  -4 -12 -33.376 123.452   2
   4  -4  12 -12.739  66.633   4
  -4   4 -12 -14.031  73.945   1
   4   4  12 26.5084 67.2916   1
  -6  -5  12 970.285 162.583   3
   6  -5 -12 1300.87  177.92   2
  -6   5  12 1227.39  193.42   3
  -5  -5  12 88.5616 71.3219   3
   5  -5 -12 92.1056 75.6770   2
  -5   5  12 -52.685  56.659   4
   4  -5 -12 615.579 127.397   2
  -4  -5  12 724.313 120.652   3
  -4   5  12 653.338 108.025   4
   4   5 -12 787.263 130.855   1
  -3  -5  12 -11.639  39.804   4
   3  -5 -12 52.1793 70.7489   2
  -3   5  12  0.9403 45.7241   4
   3   5 -12 -41.010  60.001   1
  -2  -5  12 693.842  97.337   4
   2  -5 -12 443.685 125.589   2
  -2   5  12 479.431  88.715   4
   2   5 -12 481.038 110.187   1
  -1  -5  12 49.3406 53.4928   4
   1  -5 -12 -23.026  67.602   2
  -1   5  12 -5.7393 43.1813   4
   1   5 -12  6.2308 58.3544   1
   0  -5 -12 1460.20  200.45   2
   0  -5  12 1444.89  162.53   4
   0   5  12 1351.83  149.48   4
   0   5 -12 1146.93  167.33   1
   1  -5  12 -44.812  50.597   4
  -1  -5 -12 37.6093 60.9330   1
  -1  -5 -12 -23.786  69.569   2
  -1   5 -12 -59.399  62.000   1
   1   5  12 32.5667 45.1734   4
   2  -5  12 85.7816 71.3820   4
  -2  -5 -12  89.412 103.662   2
  -2   5 -12 77.2380 78.2399   1
   2   5  12 -12.870  44.362   4
   2   5  12 78.3276 61.7611   1
  -3  -5 -12 138.477 126.499   2
   3  -5  12 130.079  80.985   4
   3   5  12 23.7638 51.8088   4
  -3   5 -12 160.518  90.013   1
   3   5  12 -25.309  62.240   1
   4  -5  12 886.642 147.134   4
  -4  -5 -12 1076.55  225.33   2
  -4   5 -12 820.242 150.270   1
   4   5  12 678.406 132.265   1
  -6  -6  12 411.182 109.310   3
  -6   6  12 278.195 124.504   3
   5  -6 -12 74.9707 71.2076   2
  -5  -6  12 50.9973 66.6200   3
   5   6 -12 -44.123  69.627   1
  -5   6  12 -36.561  57.644   4
   4  -6 -12 837.563 140.862   2
  -4  -6  12 555.705 109.815   3
  -4   6  12 555.202 107.546   4
   4   6 -12 336.871 102.859   1
  -3  -6  12 564.042 103.399   3
   3  -6 -12 440.305 116.931   2
  -3   6  12 566.385  98.408   4
   3   6 -12 526.086 115.861   1
   2  -6 -12 824.736 155.218   2
  -2  -6  12 832.330 111.179   4
  -2   6  12 676.491 109.666   4
   2   6 -12 575.489 121.965   1
  -1  -6  12 19.8868 51.7278   4
   1  -6 -12 -26.366  72.831   2
   1   6 -12  4.4934 63.0161   1
  -1   6  12 13.2171 47.9586   4
   0  -6 -12 89.4276 80.5749   2
   0  -6  12 224.321  80.238   4
   0   6  12 187.649  63.118   4
   0   6 -12 145.935  81.116   1
   1  -6  12 407.519  99.310   4
  -1  -6 -12 109.626 103.210   2
  -1   6 -12 221.888  90.721   1
   1   6  12 205.090  68.816   4
  -2  -6 -12 816.720 184.021   2
   2  -6  12 573.941 123.469   4
   2   6  12 843.161 126.078   1
  -2   6 -12 635.595 137.218   1
   2   6  12 695.558 105.979   4
  -3  -6 -12 179.001 132.602   2
   3  -6  12 80.7531 77.3236   4
   3   6  12 -41.677  47.851   4
   3   6  12 -24.658  59.751   1
  -3   6 -12  3.9291 73.5243   1
   4  -6  12 158.949  96.447   4
   4   6  12 -48.748  62.549   1
  -6  -7  12 137.291  84.115   3
  -5  -7  12 602.774 120.889   3
   5  -7 -12 895.171 151.843   2
  -5   7  12 833.956 136.138   4
   5   7 -12 519.262 126.544   1
   4  -7 -12 82.7808 88.7714   2
  -4  -7  12 114.282  72.673   3
  -4   7  12 148.795  77.056   4
   4   7 -12 96.2940 81.8593   1
   3  -7 -12 26.7199 78.3639   2
  -3  -7  12 20.3784 56.4623   3
   3   7 -12 64.9286 77.6966   1
  -3   7  12 11.2986 51.6939   4
  -2  -7  12 54.4197 59.5687   4
   2  -7 -12 62.8406 86.1314   2
   2   7 -12 96.8933 76.9141   1
  -2   7  12 50.2461 63.1421   4
  -1  -7  12 1647.02  175.65   4
   1  -7 -12 1302.10  194.07   2
  -1   7  12 1582.27  168.47   4
   1   7 -12 1354.15  187.94   1
   0  -7 -12 165.062  97.386   2
   0  -7  12 144.406  79.505   4
   0   7  12 90.8434 57.3346   4
   0   7 -12 198.425  93.222   1
   1  -7  12 89.1035 78.7645   4
  -1  -7 -12 237.577 112.223   2
  -1   7 -12 127.254  82.955   1
   1   7  12 83.7641 54.5330   4
   2  -7  12 -11.599  68.891   4
  -2  -7 -12 -64.767 104.963   2
  -2   7 -12 -15.670  60.973   1
   2   7  12  0.7394 49.1856   4
   3  -7  12 723.947 146.152   4
  -3  -7 -12 518.803 168.623   2
   3   7  12 691.963 108.646   4
  -3   7 -12 374.190 116.813   1
   3   7  12 680.133 117.820   1
  -5  -8  12 52.3500 77.3619   3
   5  -8 -12 -82.212  70.666   2
  -5   8  12 -74.559  65.690   4
   5   8 -12 -2.3614 81.5668   1
  -4  -8  12 29.0930 70.5023   3
   4  -8 -12 198.167 101.772   2
  -4   8  12 104.939  73.673   4
   4   8 -12 276.525  99.818   1
   3  -8 -12 1266.42  197.33   2
  -3  -8  12 916.730 135.975   3
  -3   8  12 917.764 142.435   4
   3   8 -12 1111.59  170.02   1
   2  -8 -12 158.916  99.686   2
  -2  -8  12 203.456  75.790   4
   2   8 -12 55.2898 79.5325   1
  -2   8  12 92.3179 68.2446   4
  -1  -8  12 -31.904  52.325   4
   1  -8 -12 -25.539  67.362   2
   1   8 -12 39.1923 75.2694   1
  -1   8  12 20.5298 53.9619   4
   0  -8  12 63.0629 70.4748   4
   0  -8 -12 23.1453 85.0554   2
   0   8 -12 239.893  94.089   1
   0   8  12 13.9121 54.5446   4
  -1  -8 -12 2250.84  282.67   2
   1  -8  12 1851.60  224.11   4
   1   8  12 2264.79  193.06   4
  -1   8 -12 1903.80  235.42   1
  -2  -8 -12  51.342 119.047   2
   2  -8  12 18.6923 77.3477   4
   2   8  12 52.5730 60.5353   4
  -2   8 -12 -95.065  59.838   1
   3  -8  12 353.540 119.662   4
  -3  -8 -12 201.039 155.454   2
  -3   8 -12 325.534 117.473   1
   3   8  12 365.155  93.854   1
  -5  -9  12 488.462 116.878   3
   5   9 -12 349.752 121.327   1
  -5   9  12 392.113 115.140   4
  -4  -9  12 387.696 101.402   3
   4  -9 -12 160.192 102.946   2
  -4   9  12 366.505 103.772   4
   4   9 -12 318.063 110.153   1
   3  -9 -12 86.9602 98.3565   2
  -3  -9  12 66.6215 67.1684   3
  -3   9  12 109.088  74.067   4
   3   9 -12 -43.941  70.148   1
  -2  -9  12 150.628  75.803   4
   2  -9 -12 408.105 122.461   2
  -2   9  12 318.601  91.603   4
   2   9 -12 61.7153 80.8344   1
  -1  -9  12 922.627 136.365   4
   1  -9 -12 566.299 134.448   2
   1   9 -12 608.269 136.836   1
  -1   9  12 640.883 117.074   4
   0  -9  12 457.571 114.386   4
   0  -9 -12 541.959 145.055   2
   0   9 -12 550.730 132.124   1
   0   9  12 332.450  92.677   4
  -1  -9 -12  21.899 105.859   2
   1  -9  12 60.8208 77.8409   4
   1   9  12 61.9537 63.5505   4
  -1   9 -12 -5.1388 66.0491   1
   2  -9  12 243.349 102.208   4
  -2  -9 -12 148.995 132.631   2
   2   9  12 140.535  70.318   4
  -2   9 -12 104.100  86.138   1
  -4 -10  12 531.570 116.891   3
   4 -10 -12 424.448 134.809   2
  -4  10  12 387.001 114.527   4
   4  10 -12 412.644 126.163   1
  -3 -10  12 286.936  86.683   3
   3 -10 -12 243.799 124.069   2
   3  10 -12 14.5686 80.5369   1
  -3  10  12 262.365  90.608   4
   2 -10 -12 842.729 163.168   2
  -2  10  12 687.377 133.480   4
   2  10 -12 715.144 142.341   1
  -1 -10  12 -39.371  69.701   4
   1 -10 -12 -21.611  73.121   2
   1  10 -12  2.0336 69.8786   1
  -1  10  12 -68.203  56.636   4
   0 -10  12 267.649  99.327   4
   0 -10 -12  23.640 102.785   2
   0  10  12 57.2495 70.9066   4
   0  10 -12 316.479 102.673   1
  -1 -10 -12  11.759 103.175   2
   1 -10  12 -0.4980 77.2955   4
   1  10  12 17.1575 63.3571   4
  -1  10 -12 -14.506  75.585   1
   2  10  12 531.061 108.262   4
  -3 -11  12 35.3569 69.1619   3
   3 -11 -12 -43.774  83.495   2
   3  11 -12 -23.770  82.522   1
   2 -11 -12 190.316 106.848   2
  -2  11  12 95.3844 82.2496   4
   2  11 -12 204.798 105.658   1
  -1 -11  12 159.107  87.746   4
   1 -11 -12 -45.106  88.674   2
   1  11 -12 157.300  94.980   1
  -1  11  12 20.2870 69.5337   4
   0 -11 -12 545.633 160.719   2
   0 -11  12 490.902 125.399   4
   0  11  12 837.312 140.578   4
   0  11 -12 540.307 130.914   1
   1 -11  12 -52.899  74.405   4
   1  11  12 84.4367 75.2492   4
  -1 -12  12 110.791  93.357   4
   0 -12  12 -57.260  96.458   4
  -6   0  13 55.5313 88.6347   3
   6   0 -13 37.1427 71.2322   2
   5   0 -13 292.060  88.009   2
   4   0 -13 -57.793  55.553   2
  -4   0  13 -58.759  44.894   4
   3   0 -13 1188.65  162.02   2
  -3   0  13 1206.16  129.15   4
   2   0 -13 22.6735 71.8703   2
  -2   0  13 -26.582  34.029   4
  -1   0  13 151.149  53.776   4
   1   0 -13 150.338  76.884   2
   1   0 -13 92.3789 68.6819   1
   0   0  13 16.4843 43.1262   4
   0   0 -13 76.7707 67.8769   1
   0   0 -13 22.9105 69.3131   2
   1   0  13 1857.68  187.25   4
  -1   0 -13 1789.18  210.22   1
  -1   0 -13 2117.61  236.23   2
  -2   0 -13 -15.946  65.016   1
  -2   0 -13 57.9870 93.1287   2
   2   0  13 54.5867 58.0734   4
   3   0  13 40.8540 55.7643   4
  -3   0 -13 35.7629 79.8592   1
   4   0  13 -57.899  58.196   4
   6  -1 -13 151.130  87.699   2
  -6  -1  13 238.964 106.183   3
   6   1 -13 179.723  87.969   2
  -6   1  13 350.485 119.061   3
   5  -1 -13 544.846 115.695   2
   5   1 -13 681.062 120.060   2
  -4  -1  13 121.022  56.772   4
   4  -1 -13  7.5419 62.7355   2
   4   1 -13 173.764  75.302   2
  -4   1  13 100.775  54.201   4
  -3  -1  13 47.6935 44.4203   4
   3  -1 -13 123.181  74.389   2
  -3   1  13 118.758  53.060   4
   3   1 -13 91.4377 71.4817   2
  -2  -1  13 126.373  52.774   4
   2  -1 -13 234.745  95.731   2
  -2   1  13 201.192  59.004   4
   2   1 -13 258.872  84.485   1
   2   1 -13 173.033  87.651   2
   1  -1 -13 691.549 128.562   2
  -1  -1  13 674.953  98.347   4
   1  -1 -13 801.302 124.994   1
   1   1 -13 776.496 127.923   1
  -1   1  13 607.785  94.511   4
   1   1 -13 759.181 129.220   2
   0  -1  13 70.6492 52.4504   4
   0  -1 -13 19.2961 66.0894   1
   0  -1 -13 231.216  88.288   2
   0   1 -13 134.438  77.971   2
   0   1  13 149.578  56.613   4
   0   1 -13 90.3784 76.7350   1
  -1  -1 -13 145.918  88.639   2
  -1  -1 -13 90.2187 72.8711   1
   1  -1  13 144.207  62.746   4
   1   1  13 157.463  59.891   4
  -1   1 -13 281.826  93.029   1
  -2  -1 -13 142.749 106.730   2
  -2  -1 -13 278.865  93.815   1
   2  -1  13 254.411  74.735   4
  -2   1 -13 212.414  91.925   1
   2   1  13 129.840  60.725   4
   3  -1  13 1700.80  180.49   4
  -3  -1 -13 1343.79  221.47   2
  -3  -1 -13 1341.07  190.45   1
  -3   1 -13 1657.56  210.30   1
   3   1  13 1345.62  157.01   4
   4  -1  13 139.497  77.106   4
  -4  -1 -13 119.174  83.680   1
  -4  -1 -13 213.390 135.799   2
   4   1  13 71.9367 62.9751   4
   6  -2 -13 158.700  82.959   2
  -6  -2  13 46.1643 86.5424   3
   6   2 -13 76.9527 73.4928   2
   5  -2 -13 144.489  78.971   2
   5   2 -13 127.019  74.591   2
   4  -2 -13 1122.63  162.85   2
   4   2 -13 1328.94  162.25   2
  -4   2  13 1170.64  136.85   4
   3  -2 -13 236.364  85.152   2
  -3  -2  13 225.183  57.082   4
  -3   2  13 224.120  67.197   4
  -2  -2  13 283.779  65.680   4
   2  -2 -13 233.201 102.580   2
   2   2 -13 328.574  91.540   1
  -2   2  13 359.540  74.562   4
   1  -2 -13 -35.413  61.518   2
  -1  -2  13 42.4561 42.8626   4
   1   2 -13  9.4931 62.0864   1
  -1   2  13  7.6431 38.6203   4
   0  -2  13 606.989  96.451   4
   0  -2 -13 531.745 123.879   2
   0  -2 -13 713.638 120.839   1
   0   2 -13 508.918 115.181   1
   0   2  13 521.225  88.514   4
   1  -2  13 178.637  59.240   4
  -1  -2 -13 226.915 109.281   2
  -1  -2 -13 110.497  74.632   1
  -1   2 -13 207.592  91.899   1
   1   2  13 174.991  62.716   4
  -2  -2 -13 306.825 121.826   2
   2  -2  13 164.763  65.920   4
  -2  -2 -13 436.771 103.268   1
  -2   2 -13 248.944  98.240   1
   2   2  13 285.480  73.098   4
  -3  -2 -13 -52.291  64.837   1
  -3  -2 -13  15.513 103.776   2
   3  -2  13 -65.543  48.603   4
   3   2  13 33.6642 51.9062   4
  -3   2 -13 41.7777 75.2856   1
   4  -2  13 697.121 124.478   4
  -4  -2 -13 812.687 192.168   2
   4   2  13 847.698 125.327   4
   6  -3 -13 792.268 147.566   2
  -6  -3  13 927.828 160.243   3
   5  -3 -13  1.0253 67.6485   2
  -5  -3  13 85.2760 76.3550   3
   4  -3 -13 117.792  75.139   2
  -4   3  13 109.065  61.184   4
  -3  -3  13  5.3076 42.3529   4
   3  -3 -13 34.9977 72.1831   2
  -3   3  13 -49.879  37.727   4
   3   3 -13 -72.621  61.263   1
  -2  -3  13 856.071 108.197   4
   2  -3 -13 591.429 141.868   2
   2   3 -13 1074.95  149.09   1
  -2   3  13 938.571 117.866   4
   1  -3 -13 93.8888 77.5239   2
  -1  -3  13 181.600  59.824   4
   1   3 -13 131.612  74.831   1
  -1   3  13 32.4157 46.8853   4
   0  -3  13 349.582  80.762   4
   0  -3 -13 508.239 100.473   1
   0  -3 -13 246.657 102.515   2
   0   3 -13 354.982 106.624   1
   0   3  13 259.465  67.864   4
  -1  -3 -13 144.141 103.100   2
  -1  -3 -13 35.3234 62.7147   1
   1  -3  13 -0.0969 47.5536   4
   1   3  13 48.3655 47.2184   4
  -1   3 -13 -31.429  70.088   1
  -2  -3 -13 951.146 177.440   2
  -2  -3 -13 712.328 127.585   1
   2  -3  13 608.984 114.595   4
   2   3  13 708.784 105.717   4
  -2   3 -13 526.852 131.923   1
  -3  -3 -13 44.8659 75.4367   1
  -3  -3 -13 -24.668 105.089   2
   3  -3  13 59.7435 63.8882   4
  -3   3 -13 27.6703 68.7945   1
   3   3  13 137.123  60.639   4
  -4  -3 -13 193.460 137.310   2
   4  -3  13 263.063  91.743   4
   4   3  13 383.132  88.520   4
  -6  -4  13 113.253  85.313   3
  -5  -4  13 177.461  86.700   3
   5  -4 -13 125.230  85.088   2
  -5   4  13 141.114  73.020   4
   4  -4 -13 291.708 100.548   2
  -4   4  13 342.002  84.281   4
   3  -4 -13 1018.59  162.24   2
  -3  -4  13 662.755  95.404   4
   3   4 -13 722.334 132.959   1
  -3   4  13 799.274 113.024   4
  -2  -4  13 -38.224  37.713   4
   2  -4 -13 89.1003 82.5925   2
   2   4 -13 173.471  79.702   1
  -2   4  13 39.4114 48.4263   4
   1  -4 -13 198.493  92.448   2
  -1  -4  13 137.841  61.029   4
   1   4 -13 117.021  80.162   1
  -1   4  13 219.493  65.506   4
   0  -4  13 514.792 101.845   4
   0  -4 -13 549.602 135.030   2
   0   4  13 549.768  93.257   4
   0   4 -13 775.359 139.343   1
  -1  -4 -13 1121.70  195.11   2
   1  -4  13 1104.02  148.00   4
  -1  -4 -13 1302.83  155.75   1
   1   4  13 976.988 129.516   4
  -1   4 -13 1350.22  188.83   1
  -2  -4 -13 349.474 136.953   2
  -2  -4 -13 195.235  81.957   1
   2  -4  13 474.156 105.089   4
  -2   4 -13 398.071 112.068   1
   2   4  13 234.100  69.584   4
   3  -4  13 48.1525 70.2458   4
  -3  -4 -13   0.112 119.571   2
   3   4  13 47.7636 54.6013   4
  -3   4 -13 102.735  84.443   1
   3   4  13  7.1201 65.1632   1
  -6  -5  13  3.3985 80.8946   3
   5  -5 -13 450.950 114.015   2
  -5  -5  13 114.627  85.637   3
  -5   5  13 65.3709 68.9957   4
   4  -5 -13 45.5195 75.4511   2
   4   5 -13 -58.064  70.678   1
  -4   5  13 -48.663  49.344   4
   3  -5 -13 728.001 154.755   2
  -3  -5  13 780.883 104.483   4
  -3   5  13 663.201 112.346   4
   3   5 -13 715.296 136.303   1
   2  -5 -13 40.4306 78.7722   2
  -2  -5  13  1.6710 42.9005   4
   2   5 -13 -11.418  66.714   1
  -2   5  13 -0.9992 47.1930   4
  -1  -5  13 2800.61  226.28   4
   1  -5 -13 2832.82  291.62   2
  -1   5  13 2892.77  226.07   4
   1   5 -13 2784.89  278.65   1
   0  -5  13 10.1811 56.3933   4
   0  -5 -13 59.6997 78.9441   2
   0   5 -13 23.3769 74.0760   1
   0   5  13 -10.936  48.411   4
   1  -5  13  4.9051 56.7231   4
  -1  -5 -13 -33.180  88.202   2
   1   5  13 -6.5959 45.3169   4
  -1   5 -13 -33.135  61.269   1
  -2  -5 -13  83.428 115.958   2
   2  -5  13 -48.710  57.562   4
  -2   5 -13 21.7203 75.9357   1
   2   5  13 17.8981 48.8500   4
   2   5  13 -7.5424 59.1458   1
   3  -5  13 777.703 140.039   4
  -3  -5 -13 747.821 197.552   2
   3   5  13 768.740 115.444   4
   3   5  13 792.784 135.338   1
  -3   5 -13 1018.68  167.11   1
  -5  -6  13 405.184 107.612   3
   5  -6 -13 340.503 107.709   2
  -5   6  13 186.958  84.988   4
   4  -6 -13 148.348  93.150   2
   4   6 -13 250.133  96.316   1
  -4   6  13 167.033  73.563   4
   3  -6 -13 1093.33  186.41   2
  -3   6  13 787.639 127.323   4
   3   6 -13 1063.02  162.16   1
   2  -6 -13 167.735 103.592   2
  -2  -6  13 79.6764 57.0317   4
   2   6 -13 -4.8231 71.9513   1
  -2   6  13 53.2161 54.3402   4
   1  -6 -13 201.855 102.259   2
  -1  -6  13 106.353  62.135   4
  -1   6  13 125.564  61.511   4
   1   6 -13 213.290  93.237   1
   0  -6  13 294.588  90.580   4
   0  -6 -13 555.492 136.114   2
   0   6  13 354.443  82.114   4
   0   6 -13 431.720 116.085   1
   1  -6  13 1250.43  165.49   4
  -1  -6 -13 942.027 191.526   2
   1   6  13 952.231 132.737   4
  -1   6 -13 1214.88  176.50   1
  -2  -6 -13 539.017 161.650   2
   2  -6  13 269.676  98.314   4
  -2   6 -13 254.559 106.951   1
   2   6  13 145.306  65.919   4
  -3  -6 -13 260.051 149.811   2
   3   6  13 -23.912  56.206   4
   3   6  13  7.1050 63.1787   1
  -5  -7  13 84.7287 76.4645   3
   5   7 -13 -59.077  83.749   1
  -5   7  13 35.6002 76.0637   4
   4  -7 -13 237.448 108.958   2
   4   7 -13 114.801  86.258   1
  -4   7  13 41.9382 69.8197   4
   3  -7 -13 190.395 109.552   2
  -3   7  13 75.4815 72.9275   4
   3   7 -13 269.561 104.239   1
   2  -7 -13 650.431 156.085   2
  -2  -7  13 880.389 126.876   4
  -2   7  13 780.661 123.908   4
   2   7 -13 846.869 151.263   1
  -1  -7  13 380.163  91.197   4
   1  -7 -13 214.550 104.579   2
  -1   7  13 296.280  86.958   4
   1   7 -13 375.607 110.214   1
   0  -7  13 144.952  81.543   4
   0  -7 -13 290.592 121.881   2
   0   7 -13 149.120  94.879   1
   0   7  13 154.032  68.440   4
  -1  -7 -13 29.3509 95.4015   2
   1  -7  13 -37.761  62.313   4
  -1   7 -13 -73.954  70.147   1
   1   7  13 57.9777 57.0154   4
   2  -7  13 795.188 144.713   4
  -2  -7 -13 475.624 170.137   2
   2   7  13 665.261 111.557   4
  -2   7 -13 896.438 155.605   1
   3   7  13 130.664  76.713   1
   3   7  13 109.608  68.990   4
   4  -8 -13 1061.46  187.86   2
  -4   8  13 920.519 146.958   4
   4   8 -13 823.148 158.487   1
   3  -8 -13 -32.730  92.977   2
   3   8 -13 13.9624 81.0590   1
  -3   8  13 -30.072  62.232   4
   2  -8 -13 95.7650 92.6254   2
  -2  -8  13 222.978  77.231   4
   2   8 -13 142.302 102.928   1
  -2   8  13 182.222  78.005   4
  -1  -8  13 -13.396  63.617   4
   1  -8 -13 91.4314 83.9123   2
  -1   8  13 10.1135 59.9134   4
   1   8 -13 -23.123  69.768   1
   0  -8 -13 635.288 158.285   2
   0  -8  13 605.802 122.814   4
   0   8 -13 547.846 133.360   1
   0   8  13 548.189 107.669   4
   1  -8  13 106.317  83.065   4
  -1  -8 -13  -5.863 105.359   2
   1   8  13 48.5446 60.9310   4
  -1   8 -13 56.8806 87.7326   1
   2   8  13 195.906  84.023   4
  -4  -9  13 73.3293 73.6702   3
   4   9 -13 271.851 112.351   1
   3  -9 -13 231.046 125.371   2
  -3   9  13 22.9015 71.7639   4
   3   9 -13 108.518  94.761   1
   2  -9 -13 62.1191 97.5125   2
   2   9 -13 91.1637 90.6530   1
  -2   9  13 236.819  90.586   4
   1  -9 -13 516.319 137.735   2
  -1  -9  13 332.872  98.820   4
   1   9 -13 458.352 118.775   1
  -1   9  13 304.841  93.318   4
   0  -9 -13  49.058 106.294   2
   0  -9  13  4.4948 76.5813   4
   0   9  13 69.0112 70.4290   4
   0   9 -13 -140.70   70.03   1
  -1  -9 -13 -51.758 106.687   2
   1  -9  13 112.834  82.897   4
   1   9  13 66.5785 74.7567   4
  -1   9 -13 -2.7597 79.3934   1
   2   9  13 152.662  81.314   4
   2 -10 -13  87.191 104.203   2
   2  10 -13 76.6872 91.1835   1
  -1 -10  13 -37.595  74.535   4
   1 -10 -13 175.550 111.601   2
  -1  10  13 20.2096 69.6916   4
   1  10 -13 13.5028 81.0453   1
   0 -10  13 -23.636  74.608   4
   0  10  13 63.1396 66.6988   4
   1  10  13 800.190 137.108   4
  -1 -11  13 609.205 135.602   4
   5   0 -14 13.9426 68.4746   2
   4   0 -14 759.200 138.498   2
  -4   0  14 952.048 120.597   4
  -3   0  14 -22.399  42.558   4
   3   0 -14 -58.806  68.320   2
  -2   0  14 -30.369  36.727   4
   2   0 -14 -1.9547 80.2355   2
   1   0 -14 -108.66   62.39   2
  -1   0  14 39.7786 48.3439   4
   1   0 -14 -2.0530 65.9592   1
   0   0 -14 1963.75  223.10   2
   0   0 -14 1942.07  212.67   1
   0   0  14 1510.49  166.54   4
  -1   0 -14 90.7252 82.9343   1
   1   0  14 -9.6953 46.9301   4
  -2   0 -14 80.1104 85.1617   1
   2   0  14 161.953  69.172   4
   3   0  14 -52.173  55.537   4
  -3   0 -14 -0.6819 75.0057   1
   5  -1 -14 12.7628 64.2901   2
   5   1 -14 51.4519 72.3684   2
   4  -1 -14 -33.116  66.433   2
  -4   1  14 -12.188  47.182   4
   4   1 -14  0.6510 65.5135   2
   3  -1 -14 472.142 129.270   2
  -3  -1  14 538.646  87.712   4
   3   1 -14 555.440 129.123   2
  -3   1  14 470.697  88.283   4
   2  -1 -14 247.650 108.711   2
  -2  -1  14 467.729  81.479   4
  -2   1  14 331.346  73.837   4
   1  -1 -14 784.575 139.080   2
  -1  -1  14 478.983  86.961   4
   1   1 -14 633.619 125.437   1
  -1   1  14 597.692  94.109   4
   0  -1 -14 -38.649  64.773   1
   0  -1 -14 31.6523 78.3070   2
   0  -1  14 19.9254 50.5316   4
   0   1  14 44.5570 48.3135   4
   0   1 -14 -63.299  67.909   1
  -1  -1 -14 163.505  96.970   2
   1  -1  14 13.3875 57.8587   4
  -1  -1 -14 36.0566 70.9421   1
  -1   1 -14 38.5612 77.6388   1
   1   1  14 36.1037 50.7992   4
   2  -1  14 657.849 115.601   4
  -2  -1 -14 937.364 151.577   1
  -2  -1 -14 870.587 175.273   2
  -2   1 -14 718.702 146.979   1
   2   1  14 745.076 115.306   4
  -3  -1 -14 197.361  99.184   1
   3  -1  14 227.329  85.553   4
   3   1  14 102.980  66.119   4
  -3   1 -14 144.533  99.678   1
   5  -2 -14 683.729 137.980   2
   4  -2 -14 23.6860 68.9630   2
  -4   2  14 -13.702  48.239   4
  -3  -2  14 595.781  91.670   4
   3  -2 -14 566.398 134.402   2
  -3   2  14 563.119  97.668   4
   2  -2 -14 -14.169  78.932   2
  -2  -2  14 14.7275 44.7855   4
  -2   2  14 74.1608 53.3413   4
   2   2 -14 18.9691 72.8405   1
   1  -2 -14 441.188 117.767   2
  -1  -2  14 461.084  87.847   4
  -1   2  14 573.896  92.912   4
   1   2 -14 636.291 126.226   1
   0  -2 -14 189.530  94.624   2
   0  -2  14 243.767  69.351   4
   0  -2 -14 136.199  76.912   1
   0   2  14 191.337  63.638   4
   0   2 -14 134.953  86.152   1
   1  -2  14 1104.05  142.54   4
  -1  -2 -14 919.648 148.033   1
  -1  -2 -14 1041.89  188.16   2
  -1   2 -14 935.574 159.819   1
   1   2  14 1048.44  132.18   4
   2  -2  14 45.4554 56.6011   4
  -2  -2 -14 -46.967  91.474   2
  -2  -2 -14  6.4654 68.8047   1
   2   2  14 40.8747 50.6691   4
  -2   2 -14 41.2212 76.0838   1
   3  -2  14 101.428  73.454   4
  -3  -2 -14  39.457 113.281   2
  -3  -2 -14 -70.690  73.545   1
   3   2  14 16.9201 57.8142   4
   5  -3 -14 334.645 110.029   2
   4  -3 -14 78.0714 71.5557   2
  -4   3  14 33.4394 56.2732   4
  -3  -3  14 700.211  98.197   4
   3  -3 -14 415.684 130.889   2
  -3   3  14 607.133 102.072   4
  -2  -3  14 64.4855 49.3208   4
   2  -3 -14 -43.478  81.457   2
  -2   3  14 19.9247 49.2680   4
   2   3 -14 101.880  76.545   1
  -1  -3  14 730.927 106.047   4
   1  -3 -14 605.416 134.924   2
  -1   3  14 667.094 101.332   4
   1   3 -14 513.725 120.523   1
   0  -3  14 61.3145 52.0456   4
   0  -3 -14 -17.106  76.843   2
   0   3  14 49.3817 51.4819   4
   0   3 -14 100.512  84.157   1
  -1  -3 -14 648.623 153.650   2
   1  -3  14 623.943 106.792   4
  -1  -3 -14 533.187 113.548   1
   1   3  14 473.724  90.403   4
  -1   3 -14 588.633 133.148   1
   2  -3  14 71.9327 63.9904   4
  -2  -3 -14 60.0693 76.4377   1
  -2  -3 -14 153.257 118.455   2
  -2   3 -14 16.5158 82.8375   1
   2   3  14 19.5838 49.2951   4
  -3  -3 -14 902.779 211.221   2
  -3  -3 -14 1300.29  183.24   1
   3   3  14 1128.66  142.78   4
   5  -4 -14 207.919 103.844   2
  -5   4  14 325.574  95.034   4
   4  -4 -14 639.743 141.023   2
  -4   4  14 751.285 120.336   4
  -3  -4  14 204.057  66.889   4
   3  -4 -14 403.595 118.282   2
  -3   4  14 210.445  72.383   4
   3   4 -14 208.003  94.257   1
  -2  -4  14 36.2848 53.1144   4
   2  -4 -14  1.2741 84.5326   2
   2   4 -14 44.4364 75.3133   1
  -2   4  14 -32.197  46.352   4
   1  -4 -14 171.721  97.849   2
  -1  -4  14 250.738  69.874   4
   1   4 -14 338.142 108.411   1
  -1   4  14 183.279  69.140   4
   0  -4 -14 157.404 105.574   2
   0  -4  14 423.765  93.546   4
   0   4  14 367.983  83.014   4
   0   4 -14 532.530 125.468   1
   1  -4  14 260.075  79.882   4
  -1  -4 -14 379.922 140.481   2
   1   4  14 385.183  84.253   4
  -1   4 -14 301.162 109.262   1
  -2  -4 -14 -67.255  66.017   1
   2  -4  14 121.153  73.184   4
  -2  -4 -14 104.622 122.481   2
   2   4  14 -29.895  55.453   4
  -2   4 -14 -29.942  74.825   1
   3   4  14 39.9791 59.9579   4
   3   4  14 13.4556 72.0696   1
  -5   5  14 -19.579  65.732   4
   4  -5 -14 90.5418 98.2173   2
  -4   5  14 60.9973 62.1882   4
   3  -5 -14 -67.338  76.834   2
   3   5 -14 -26.910  73.374   1
  -3   5  14 -62.128  54.251   4
  -2  -5  14 941.084 124.755   4
   2  -5 -14 1174.21  187.65   2
  -2   5  14 1145.93  142.25   4
   2   5 -14 1198.98  173.43   1
   1  -5 -14  6.7631 79.0455   2
  -1  -5  14 -57.752  48.589   4
   1   5 -14 58.1363 82.4004   1
  -1   5  14 22.3068 54.9917   4
   0  -5 -14 57.1183 93.7007   2
   0  -5  14 -31.219  53.389   4
   0   5 -14  5.2918 80.7240   1
   0   5  14 -13.373  53.295   4
  -1  -5 -14  64.412 110.532   2
   1  -5  14 -20.386  63.122   4
   1   5  14 71.8601 60.9946   4
  -1   5 -14 42.9708 87.2004   1
   2  -5  14 1038.22  161.83   4
  -2  -5 -14 1565.12  246.94   2
  -2   5 -14 1014.25  174.81   1
   2   5  14 1024.62  138.29   4
   4  -6 -14 894.457 166.695   2
   4   6 -14 594.205 140.186   1
  -4   6  14 609.497 116.282   4
   3  -6 -14 154.109 114.652   2
  -3   6  14 116.843  73.679   4
   3   6 -14 83.8294 87.8256   1
   2  -6 -14 -65.576  77.049   2
  -2  -6  14 54.8494 53.4517   4
  -2   6  14 84.1362 61.0877   4
   2   6 -14 -16.506  69.516   1
   1  -6 -14 20.3775 79.1427   2
  -1  -6  14 270.985  83.801   4
   1   6 -14 128.941  94.151   1
  -1   6  14 232.120  78.213   4
   0  -6 -14 671.033 158.859   2
   0  -6  14 380.016 101.614   4
   0   6 -14 519.756 132.826   1
   0   6  14 589.035 103.125   4
   1  -6  14 236.104  82.343   4
  -1  -6 -14 104.255 114.103   2
   1   6  14 91.1594 62.6632   4
  -1   6 -14 143.075 103.208   1
   2   6  14 131.446  70.928   4
   4   7 -14 -22.664  80.726   1
  -4   7  14 -41.928  63.350   4
   3  -7 -14 235.348 115.330   2
   3   7 -14 270.510 112.337   1
  -3   7  14 145.437  76.612   4
  -2  -7  14 376.265  91.255   4
   2  -7 -14 354.132 119.793   2
  -2   7  14 398.603  97.099   4
   2   7 -14 477.354 127.404   1
  -1  -7  14 652.642 112.918   4
   1  -7 -14 550.180 139.020   2
   1   7 -14 337.505 111.012   1
  -1   7  14 289.262  88.709   4
   0  -7  14 -34.737  64.901   4
   0  -7 -14 20.7933 97.7731   2
   0   7  14 -6.1999 56.0976   4
   0   7 -14 22.9933 77.7918   1
  -1  -7 -14 244.448 144.763   2
   1  -7  14 375.499 105.759   4
   1   7  14 528.616 106.317   4
  -1   7 -14 694.896 149.353   1
   3   8 -14 542.386 135.006   1
   2  -8 -14 17.9379 86.9123   2
  -2  -8  14 13.4251 66.5702   4
   2   8 -14 59.8108 90.6066   1
  -2   8  14 34.0577 66.1663   4
  -1  -8  14 375.705  98.207   4
   1  -8 -14 296.631 120.973   2
   1   8 -14 422.434 130.489   1
  -1   8  14 574.040 112.677   4
   0  -8  14 293.748  97.952   4
   0  -8 -14  99.479 113.630   2
   0   8 -14 121.933  91.084   1
   0   8  14 -10.690  61.427   4
  -1  -9  14 491.281 115.719   4
   5   0 -15 645.127 135.974   2
   4   0 -15 90.3884 89.8141   2
  -4   0  15 -95.263  44.728   4
  -3   0  15 161.762  68.887   4
   3   0 -15 156.877  97.950   2
   2   0 -15 24.0658 73.7900   2
  -2   0  15 -38.528  39.522   4
  -1   0  15 1568.52  166.89   4
   0   0  15 -33.062  42.209   4
   0   0 -15 -39.532  63.250   1
   1   0  15 430.481  94.414   4
  -1   0 -15 531.274 123.402   1
  -2   0 -15 -68.809  80.418   1
   4  -1 -15 199.682 106.892   2
  -4   1  15 274.969  76.729   4
  -3  -1  15 706.086 107.071   4
   3  -1 -15 793.035 160.393   2
  -3   1  15 836.362 117.027   4
  -2  -1  15 149.447  60.399   4
   2  -1 -15 253.822  98.746   2
  -2   1  15 212.898  67.827   4
   1  -1 -15 335.171 116.918   2
  -1  -1  15 174.308  68.852   4
   1   1 -15 247.463  96.482   1
  -1   1  15 300.553  72.645   4
   0  -1  15 74.9396 52.6439   4
   0  -1 -15 -6.5379 84.5380   2
   0  -1 -15 -4.1717 72.1272   1
   0   1  15 83.7446 54.9320   4
   0   1 -15 -61.230  78.485   1
   1  -1  15 391.247  96.046   4
  -1  -1 -15 534.095 126.084   1
  -1   1 -15 535.729 125.785   1
   1   1  15 519.678  98.800   4
  -2  -1 -15 343.164 116.867   1
  -2   1 -15 567.877 142.083   1
   4  -2 -15 453.336 127.182   2
  -4   2  15 349.589  84.666   4
  -3  -2  15 13.1115 46.6807   4
   3  -2 -15 39.2816 99.3095   2
  -3   2  15 68.9523 55.0198   4
  -2  -2  15 341.453  76.800   4
   2  -2 -15 180.478 104.552   2
  -2   2  15 346.122  79.106   4
  -1  -2  15 74.8316 56.1019   4
   1  -2 -15 54.6834 84.1003   2
  -1   2  15 137.554  62.679   4
   1   2 -15 83.8044 85.2810   1
   0  -2  15 793.158 121.387   4
   0  -2 -15 976.071 171.568   2
   0   2 -15 857.835 154.494   1
   0   2  15 771.679 117.589   4
  -1  -2 -15 156.488 107.200   2
   1  -2  15 90.6206 63.4386   4
  -1  -2 -15 66.9559 81.0977   1
   1   2  15 61.1590 59.3986   4
  -1   2 -15 11.4202 83.7244   1
  -2  -2 -15 -66.246  73.725   1
  -2  -2 -15 -88.032 102.717   2
   4  -3 -15 195.103 105.702   2
  -4   3  15 80.6519 62.8078   4
  -3  -3  15 51.8689 56.3937   4
   3  -3 -15 15.5060 89.6364   2
  -3   3  15 -39.859  50.670   4
  -2  -3  15 322.299  79.009   4
   2  -3 -15 328.080 116.902   2
  -2   3  15 619.200 103.774   4
   2   3 -15 238.593 108.457   1
  -1  -3  15 17.1725 48.4831   4
   1  -3 -15 21.6267 88.7464   2
   1   3 -15 -26.998  75.732   1
  -1   3  15 20.6927 47.2187   4
   0  -3  15 55.8048 61.4862   4
   0  -3 -15 142.984 107.192   2
   0   3 -15 260.198 107.944   1
   0   3  15 149.921  65.648   4
  -1  -3 -15 231.952 119.619   2
   1  -3  15 208.467  75.674   4
   1   3  15 113.202  61.762   4
  -1   3 -15 84.3532 88.6977   1
  -2  -3 -15 965.104 206.201   2
  -2  -3 -15 1021.43  162.25   1
  -4   4  15 127.833  73.539   4
   3  -4 -15 207.140 122.262   2
  -3  -4  15 196.903  64.457   4
  -3   4  15 247.377  78.862   4
   2  -4 -15 -37.840  82.593   2
  -2  -4  15  6.2677 50.4488   4
   2   4 -15 196.417  96.046   1
  -2   4  15 23.6800 56.1268   4
  -1  -4  15 322.459  86.537   4
   1  -4 -15 256.587 114.246   2
  -1   4  15 238.608  75.884   4
   1   4 -15 363.216 112.909   1
   0  -4 -15  77.262 100.644   2
   0  -4  15 148.200  67.480   4
   0   4 -15 271.281 105.078   1
   0   4  15 121.146  66.754   4
  -1  -4 -15  63.684 115.247   2
  -1   4 -15 153.224 100.378   1
   1   4  15 102.227  60.388   4
   3  -5 -15 1459.84  218.60   2
  -3   5  15 895.305 138.004   4
   3   5 -15 945.280 167.937   1
  -2  -5  15 31.9787 53.1151   4
   2  -5 -15 76.7422 92.2624   2
   2   5 -15 -82.351  78.802   1
  -2   5  15 -8.1605 54.6531   4
   1  -5 -15 134.637  99.956   2
  -1  -5  15 198.938  75.080   4
  -1   5  15 132.354  69.035   4
   1   5 -15 233.262 108.893   1
   0  -5  15 33.3025 58.2091   4
   0  -5 -15  44.629 104.641   2
   0   5  15 22.2226 58.1104   4
   0   5 -15  6.2658 91.9818   1
  -1  -5 -15 430.082 153.943   2
   3   6 -15 65.9688 94.0834   1
  -2  -6  15 13.7120 57.5365   4
   2  -6 -15 28.8955 95.6015   2
   2   6 -15 -25.303  79.312   1
   1  -6 -15 413.153 136.588   2
  -1  -6  15 702.391 117.191   4
   1   6 -15 448.022 134.878   1
   0   6 -15 75.4286 85.1559   1
  -2  -7  15 397.104  90.754   4
   2   7 -15 404.806 132.679   1
  -1  -7  15 12.3816 67.4558   4
  -3   0  16 -3.0588 54.5578   4
  -2   0  16 408.446  89.549   4
  -1   0  16 -78.167  43.542   4
  -3  -1  16 163.394  67.102   4
   3  -1 -16  14.992 104.251   2
  -3   1  16 199.062  74.166   4
   2  -1 -16 177.549 104.453   2
  -2  -1  16 119.936  64.159   4
  -2   1  16 265.894  76.368   4
  -1  -1  16 -16.521  51.625   4
   0   1 -16 298.598 108.977   1
   3  -2 -16  41.016 108.315   2
  -3  -2  16 -36.643  47.700   4
  -3   2  16 -68.547  50.845   4
  -2  -2  16 104.133  63.037   4
   2  -2 -16 288.063 108.965   2
  -2   2  16 44.7066 61.1646   4
   1  -2 -16 566.526 139.185   2
  -1  -2  16 863.013 121.478   4
   1   2 -16 865.455 159.485   1
   0  -2 -16  60.648 111.478   2
   0   2 -16 146.572  95.827   1
  -3  -3  16 817.147 118.552   4
   2  -3 -16 15.2335 90.8628   2
  -2  -3  16 -71.647  46.199   4
   1  -3 -16 114.527 106.072   2
   1   3 -16 82.7112 93.7860   1
   0   3 -16 147.232 104.458   1
  -2  -4  16 369.826  87.339   4
   2   4 -16 425.302 129.379   1
   1   4 -16 566.711 145.445   1
   0   0   0    0.00    0.00   0
;
loop_
_symmetry_equiv_pos_as_xyz
'x, y, z'
'-x+1/2, y+1/2, -z+1/2'
'-x, -y, -z'
'x-1/2, -y-1/2, z-1/2'
loop_
_atom_site_label
_atom_site_type_symbol
_atom_site_fract_x
_atom_site_fract_y
_atom_site_fract_z
_atom_site_U_iso_or_equiv
_atom_site_adp_type
_atom_site_occupancy
_atom_site_symmetry_multiplicity
_atom_site_calc_flag
_atom_site_refinement_flags
_atom_site_disorder_assembly
_atom_site_disorder_group
Th1 Th 0.63627(5) 0.65303(3) 0.18022(3) 0.01365(12) Uani 1 1 d . . .
P1 P 0.1781(4) 0.6601(2) 0.2943(2) 0.0222(6) Uani 1 1 d . . .
P2 P 0.2787(4) 0.4494(2) 0.0873(2) 0.0203(6) Uani 1 1 d . . .
P3 P 0.7489(5) 0.4210(2) 0.3393(2) 0.0245(6) Uani 1 1 d . . .
P4 P 0.7506(4) 0.7513(2) 0.4595(2) 0.0236(6) Uani 1 1 d . . .
O1 O 0.0715(12) 0.4537(7) 0.1194(7) 0.045(2) Uani 1 1 d . . .
O2 O 0.2388(15) 0.5638(7) 0.3573(8) 0.057(3) Uani 1 1 d . . .
O3 O 0.3561(10) 0.6997(6) 0.2554(6) 0.0273(18) Uani 1 1 d . . .
O4 O 0.3712(11) 0.5492(5) 0.0971(6) 0.0240(17) Uani 1 1 d . . .
O5 O 0.4371(10) 0.7545(5) 0.0391(6) 0.0261(17) Uani 1 1 d . . .
O6 O 0.4974(10) 0.1416(6) 0.2922(6) 0.0257(17) Uani 1 1 d . . .
O7 O 0.5370(15) 0.9360(7) 0.1008(8) 0.058(3) Uani 1 1 d . . .
O8 O 0.5674(12) 0.7409(7) 0.5151(7) 0.046(2) Uani 1 1 d . . .
O9 O 0.7069(11) 0.4938(5) 0.2493(6) 0.0262(18) Uani 1 1 d . . .
O10 O 0.7313(12) 0.3152(5) 0.3067(7) 0.0301(19) Uani 1 1 d . . .
O11 O 0.7398(12) 0.5994(6) 0.0206(6) 0.031(2) Uani 1 1 d . . .
O12 O 0.7427(10) 0.6765(5) 0.3721(6) 0.0229(17) Uani 1 1 d . . .
loop_
_atom_site_aniso_label
_atom_site_aniso_U_11
_atom_site_aniso_U_22
_atom_site_aniso_U_33
_atom_site_aniso_U_23
_atom_site_aniso_U_13
_atom_site_aniso_U_12
Th1 0.01367(19) 0.01236(18) 0.01419(18) -0.00148(17) 0.00012(12) 0.00000(17)
P1 0.0172(14) 0.0290(16) 0.0211(13) -0.0031(13) 0.0048(11) -0.0024(13)
P2 0.0250(15) 0.0162(14) 0.0199(14) -0.0065(12) 0.0041(11) -0.0049(12)
P3 0.0333(17) 0.0153(14) 0.0231(15) 0.0012(12) -0.0007(13) 0.0009(12)
P4 0.0184(15) 0.0320(17) 0.0187(14) -0.0080(12) -0.0019(12) 0.0039(12)
O1 0.038(5) 0.042(5) 0.059(6) -0.021(5) 0.025(5) -0.013(4)
O2 0.059(7) 0.053(7) 0.055(6) 0.031(5) -0.006(5) -0.001(5)
O3 0.016(4) 0.036(5) 0.030(4) -0.009(4) 0.006(3) -0.009(3)
O4 0.027(4) 0.016(4) 0.029(4) -0.002(3) 0.002(3) -0.004(3)
O5 0.017(4) 0.029(4) 0.030(4) 0.007(4) -0.004(3) -0.003(3)
O6 0.013(4) 0.038(5) 0.025(4) 0.007(4) -0.002(3) -0.001(3)
O7 0.068(7) 0.050(6) 0.046(6) -0.010(5) -0.018(5) 0.014(5)
O8 0.022(5) 0.074(7) 0.045(5) -0.021(5) 0.007(4) -0.004(5)
O9 0.033(5) 0.014(4) 0.028(4) 0.000(3) -0.003(4) 0.005(3)
O10 0.036(5) 0.009(4) 0.043(5) 0.004(3) -0.001(4) 0.007(3)
O11 0.037(5) 0.028(5) 0.030(4) -0.018(4) 0.014(4) -0.011(4)
O12 0.022(4) 0.026(4) 0.019(4) -0.007(3) 0.000(3) 0.001(3)
loop_
_atom_type_symbol
_atom_type_description
_atom_type_scat_dispersion_real
_atom_type_scat_dispersion_imag
_atom_type_scat_source
O O 0.0106 0.0060 'International Tables Vol C Tables 4.2.6.8 and 6.1.1.4'
H H 0.0000 0.0000 'International Tables Vol C Tables 4.2.6.8 and 6.1.1.4'
P P 0.1023 0.0942 'International Tables Vol C Tables 4.2.6.8 and 6.1.1.4'
Th Th -7.2400 8.8979 'International Tables Vol C Tables 4.2.6.8 and 6.1.1.4'
loop_
_geom_angle_atom_site_label_1
_geom_angle_atom_site_label_2
_geom_angle_atom_site_label_3
_geom_angle
_geom_angle_site_symmetry_1
_geom_angle_site_symmetry_3
O11 Th1 O9 87.3(3) . .
O11 Th1 O3 143.5(3) . .
O9 Th1 O3 103.5(3) . .
O11 Th1 O10 100.4(3) . 2_655
O9 Th1 O10 140.7(3) . 2_655
O3 Th1 O10 93.0(3) . 2_655
O11 Th1 O4 76.4(3) . .
O9 Th1 O4 73.4(3) . .
O3 Th1 O4 73.7(2) . .
O10 Th1 O4 145.9(3) 2_655 .
O11 Th1 O12 143.4(3) . .
O9 Th1 O12 75.3(2) . .
O3 Th1 O12 72.8(2) . .
O10 Th1 O12 76.0(3) 2_655 .
O4 Th1 O12 126.3(2) . .
O11 Th1 O5 77.1(3) . .
O9 Th1 O5 146.5(3) . .
O3 Th1 O5 74.9(3) . .
O10 Th1 O5 72.1(3) 2_655 .
O4 Th1 O5 74.2(2) . .
O12 Th1 O5 132.7(2) . .
O11 Th1 O6 69.9(3) . 2_655
O9 Th1 O6 75.5(3) . 2_655
O3 Th1 O6 146.5(2) . 2_655
O10 Th1 O6 71.4(3) 2_655 2_655
O4 Th1 O6 134.6(2) . 2_655
O12 Th1 O6 74.7(2) . 2_655
O5 Th1 O6 124.3(2) . 2_655
O3 P1 O6 115.6(4) . 2
O3 P1 O2 107.7(5) . .
O6 P1 O2 109.9(5) 2 .
O11 P2 O4 116.7(4) 3_665 .
O11 P2 O1 107.9(5) 3_665 .
O4 P2 O1 110.0(5) . .
O9 P3 O10 116.0(5) . .
O9 P3 O7 109.1(5) . 2_645
O10 P3 O7 106.6(5) . 2_645
O12 P4 O5 112.2(4) . 4_676
O12 P4 O8 109.5(5) . .
O5 P4 O8 111.9(5) 4_676 .
P1 O3 Th1 143.1(5) . .
P2 O4 Th1 148.3(4) . .
P4 O5 Th1 139.7(4) 4_575 .
P1 O6 Th1 139.8(4) 2_545 2_645
P3 O9 Th1 153.1(5) . .
P3 O10 Th1 149.3(5) . 2_645
P2 O11 Th1 156.5(5) 3_665 .
P4 O12 Th1 142.2(4) . .
loop_
_geom_bond_atom_site_label_1
_geom_bond_atom_site_label_2
_geom_bond_distance
_geom_bond_site_symmetry_2
Th1 O11 2.347(7) .
Th1 O9 2.357(7) .
Th1 O3 2.371(7) .
Th1 O10 2.387(7) 2_655
Th1 O4 2.408(7) .
Th1 O12 2.415(7) .
Th1 O5 2.474(7) .
Th1 O6 2.498(7) 2_655
P1 O3 1.494(8) .
P1 O6 1.507(7) 2
P1 O2 1.552(9) .
P2 O11 1.492(7) 3_665
P2 O4 1.500(7) .
P2 O1 1.548(8) .
P3 O9 1.493(8) .
P3 O10 1.498(8) .
P3 O7 1.555(10) 2_645
P4 O12 1.489(7) .
P4 O5 1.494(7) 4_676
P4 O8 1.545(9) .
O5 P4 1.494(7) 4_575
O6 P1 1.507(7) 2_545
O6 Th1 2.498(7) 2_645
O7 P3 1.555(10) 2_655
O10 Th1 2.387(7) 2_645
O11 P2 1.492(7) 3_665
