#------------------------------------------------------------------------------
#$Date: 2021-04-30 12:13:07 +0300 (Fri, 30 Apr 2021) $
#$Revision: 264724 $
#$URL: file:///home/coder/svn-repositories/cod/cif/1/56/23/1562324.cif $
#------------------------------------------------------------------------------
#
# This file is available in the Crystallography Open Database (COD),
# http://www.crystallography.net/
#
# All data on this site have been placed in the public domain by the
# contributors.
#
data_1562324
loop_
_publ_author_name
'Oh, George N.'
'Burns, Peter C.'
_publ_section_title
;
 Solid-state actinide acid phosphites from phosphorous acid melts
;
_journal_name_full               'Journal of Solid State Chemistry'
_journal_page_first              50
_journal_page_last               56
_journal_paper_doi               10.1016/j.jssc.2014.03.029
_journal_volume                  215
_journal_year                    2014
_chemical_formula_sum            'H8 O12 P4 Th'
_chemical_formula_weight         555.98
_chemical_name_systematic
; 
Beta-Thorium (IV) tetra(hydrogenphosphonate) 
;
_space_group_crystal_system      monoclinic
_space_group_IT_number           15
_space_group_name_Hall           '-C 2yc'
_space_group_name_H-M_alt        'C 1 2/c 1'
_atom_sites_solution_hydrogens   .
_atom_sites_solution_primary     direct
_atom_sites_solution_secondary   difmap
_audit_creation_method           SHELXL-97
_cell_angle_alpha                90.00
_cell_angle_beta                 102.253(12)
_cell_angle_gamma                90.00
_cell_formula_units_Z            4
_cell_length_a                   11.437(7)
_cell_length_b                   7.808(7)
_cell_length_c                   12.558(8)
_cell_measurement_temperature    296(2)
_cell_volume                     1095.9(14)
_computing_cell_refinement       SAINT
_computing_data_collection       APEX2
_computing_data_reduction        SAINT
_computing_molecular_graphics    'CrystalMaker(R) (Palmer, 2011)'
_computing_structure_refinement  'SHELXL-97 (Sheldrick, 2008)'
_computing_structure_solution    'SHELXS-97 (Sheldrick, 2008)'
_diffrn_ambient_temperature      296(2)
_diffrn_measured_fraction_theta_full 1
_diffrn_measured_fraction_theta_max 0.934
_diffrn_measurement_device_type  'Bruker QUAZAR'
_diffrn_measurement_method       sphere
_diffrn_radiation_monochromator  graphite
_diffrn_radiation_source         'fine-focus sealed tube'
_diffrn_radiation_type           MoK\a
_diffrn_radiation_wavelength     0.71073
_diffrn_reflns_av_R_equivalents  0.1011
_diffrn_reflns_av_sigmaI/netI    0.0969
_diffrn_reflns_limit_h_max       15
_diffrn_reflns_limit_h_min       -15
_diffrn_reflns_limit_k_max       10
_diffrn_reflns_limit_k_min       -10
_diffrn_reflns_limit_l_max       16
_diffrn_reflns_limit_l_min       -14
_diffrn_reflns_number            5771
_diffrn_reflns_theta_full        25
_diffrn_reflns_theta_max         29.03
_diffrn_reflns_theta_min         3.18
_exptl_absorpt_coefficient_mu    14.248
_exptl_absorpt_correction_T_max  0.542
_exptl_absorpt_correction_T_min  0.489
_exptl_absorpt_correction_type   numerical
_exptl_absorpt_process_details   SADABS
_exptl_crystal_colour            colorless
_exptl_crystal_density_diffrn    3.370
_exptl_crystal_density_meas      .
_exptl_crystal_density_method    'not measured'
_exptl_crystal_description       tablet
_exptl_crystal_F_000             1016
_refine_diff_density_max         1.814
_refine_diff_density_min         -1.814
_refine_diff_density_rms         0.396
_refine_ls_extinction_method     none
_refine_ls_goodness_of_fit_ref   1.005
_refine_ls_hydrogen_treatment    .
_refine_ls_matrix_type           full
_refine_ls_number_parameters     78
_refine_ls_number_reflns         1369
_refine_ls_number_restraints     0
_refine_ls_restrained_S_all      1.005
_refine_ls_R_factor_all          0.0723
_refine_ls_R_factor_gt           0.0442
_refine_ls_shift/su_max          0.000
_refine_ls_shift/su_mean         0.000
_refine_ls_structure_factor_coef Fsqd
_refine_ls_weighting_details
; calc 
 [1.00000+0.00000exp(0.00(sin\q/\l)^2^)]/ 
   [\s^2^(Fo^2^)+0.0000+0.0000*P+(0.0292P)^2^+0.0000sin\q/\l] 
 where P = 1.00000Fo^2^ + 0.00000Fc^2^ 
;
_refine_ls_weighting_scheme      calc
_refine_ls_wR_factor_gt          0.0781
_refine_ls_wR_factor_ref         0.0863
_reflns_number_gt                976
_reflns_number_total             1369
_reflns_threshold_expression     >2sigma(I)
_cod_data_source_file            JSSC-2014-215-50.cif
_cod_data_source_block           betathhpo
_cod_original_cell_volume        1095.9(13)
_cod_original_sg_symbol_H-M      'C 2/c'
_cod_database_code               1562324
_shelx_res_file
;
TITL beta-Th(H2PO3)4 in C2/c
CELL 0.71073  11.4369   7.8080  12.5583  90.000 102.253  90.000
ZERR   12.00   0.0066   0.0066   0.0083   0.000   0.012   0.000
LATT  7
SYMM -X, Y, 0.5-Z
SFAC O H P TH
UNIT 48 32 16 4
TEMP 23.000
 
L.S. 4
BOND
FMAP 2
ACTA
PLAN 20
 
WGHT    0.029200    0.000000    0.000000    0.000000    0.000000    1.000000
FVAR       0.22635
TH1   4    0.500000    0.007544    0.250000    10.50000    0.01027    0.01160 =
         0.00941    0.00000    0.00330    0.00000
P1    3    0.433027   -0.250731    0.483957    11.00000    0.01813    0.01234 =
         0.01047   -0.00026    0.00456   -0.00191
P2    3    0.727624   -0.337085    0.336505    11.00000    0.01669    0.01461 =
         0.01770    0.00026    0.00471    0.00368
O5    1    0.336622   -0.395662    0.457153    11.00000    0.03934    0.01563 =
         0.02153    0.00642    0.00497   -0.00572
O7    1    0.639025   -0.486278    0.293915    11.00000    0.02135    0.02483 =
         0.04392    0.00163    0.00881   -0.00479
O1    1    0.419887   -0.127890    0.389709    11.00000    0.01927    0.02014 =
         0.01693    0.00972    0.00265    0.00472
O2    1    0.572238    0.173136    0.408491    11.00000    0.05548    0.02752 =
         0.01021   -0.00629    0.01524   -0.00964
O3    1    0.653266   -0.176421    0.337045    11.00000    0.01961    0.02581 =
         0.01522    0.00380    0.01005    0.01084
O4    1    0.322860    0.177604    0.268888    11.00000    0.02474    0.02022 =
         0.02208    0.00667    0.01331    0.01153
HKLF 4
 
REM  beta-Th(H2PO3)4 in C2/c
REM R1 =  0.0442 for    976 Fo > 4sig(Fo)  and  0.0723 for all   1369 data
REM     78 parameters refined using      0 restraints
 
END  
     
WGHT      0.0292      0.0000 
REM Highest difference peak  1.814,  deepest hole -1.814,  1-sigma level  0.396
Q1    1   0.5041 -0.3104  0.5016  11.00000  0.05    1.81
Q2    1   0.5140 -0.0004  0.4647  11.00000  0.05    1.60
Q3    1   0.5789  0.0067  0.3390  11.00000  0.05    1.53
Q4    1   0.4408  0.1633  0.2729  11.00000  0.05    1.50
Q5    1   0.7988 -0.3456  0.4232  11.00000  0.05    1.49
Q6    1   0.6080 -0.5025  0.3505  11.00000  0.05    1.45
Q7    1   0.4371 -0.1391  0.2599  11.00000  0.05    1.40
Q8    1   0.5446 -0.5062  0.2705  11.00000  0.05    1.35
Q9    1   0.4360 -0.4927  0.5694  11.00000  0.05    1.34
Q10   1   0.5383 -0.1253  0.3170  11.00000  0.05    1.32
Q11   1   0.5039 -0.0020  0.3741  11.00000  0.05    1.30
Q12   1   0.3696  0.0877  0.1868  11.00000  0.05    1.30
Q13   1   0.7803 -0.4441  0.3034  11.00000  0.05    1.30
Q14   1   0.5962 -0.3417  0.4619  11.00000  0.05    1.29
Q15   1   0.6637 -0.6052  0.2822  11.00000  0.05    1.29
Q16   1   0.5394 -0.3003  0.3748  11.00000  0.05    1.27
Q17   1   0.5381 -0.4278  0.3925  11.00000  0.05    1.24
Q18   1   0.5241 -0.4189  0.4745  11.00000  0.05    1.24
Q19   1   0.6808 -0.5044  0.2394  11.00000  0.05    1.22
Q20   1   0.5491  0.3086  0.3760  11.00000  0.05    1.19
;
_shelx_hkl_file
;
   2   0   0 3099.97  115.97   1
   2   0   0 3076.92  109.17   2
  -2   0   0 3053.43  126.83   4
  -2   0   0 3218.50  152.19   3
   4   0   0 1967.69   94.89   1
  -4   0   0 1797.82  106.95   4
   4   0   0 1968.33   84.60   2
  -4   0   0 1606.07  148.94   3
   6   0   0 1827.13   93.39   2
   6   0   0 1819.41  109.28   1
  -6   0   0 1894.20  121.97   4
  -6   0   0 1746.85  189.00   3
  -8   0   0 1307.00  195.03   3
   8   0   0 909.911  99.091   1
  -8   0   0 1118.08  118.21   4
   8   0   0 922.694  81.911   2
 -10   0   0 810.180 190.023   3
  10   0   0 724.054  79.846   2
  10   0   0 471.397  84.533   1
 -12   0   0 1810.82  300.93   3
  12   0   0 1420.49  153.55   1
 -14   0   0 1238.90  298.45   3
  14   0   0 1517.56  180.50   1
  -1  -1   0 5170.86  190.23   2
  -1  -1   0 5270.32  214.76   3
   1  -1   0 5413.19  194.20   1
   1  -1   0 5251.03  178.29   2
   1   1   0 5427.42  188.59   4
  -1   1   0 5307.45  196.21   3
  -1   1   0 5281.54  212.24   4
   1   1   0 5163.44  183.39   1
  -3  -1   0 5861.15  283.70   3
  -3  -1   0 6100.31  233.92   2
   3  -1   0 6165.41  211.02   2
   3  -1   0 6041.28  228.78   1
  -3   1   0 6114.24  270.52   3
  -3   1   0 6308.38  264.02   4
  -5  -1   0 2166.17  126.06   2
  -5  -1   0 2409.60  210.66   3
   5  -1   0 2291.70  103.54   2
  -5  -1   0 2191.36  102.88   4
   5  -1   0 2427.62  123.96   1
  -5   1   0 2279.75  169.34   3
   5   1   0 2299.27  113.27   1
  -5   1   0 2020.59  143.14   4
   7  -1   0 1943.74  101.74   2
  -7  -1   0 1830.97  215.83   3
   7  -1   0 1821.06  118.48   1
  -7   1   0 1899.44  207.84   3
  -7   1   0 2177.51  180.85   4
   7   1   0 1796.65  114.97   1
   7   1   0 1646.56   98.95   2
   9  -1   0 1331.01  129.66   1
   9  -1   0 1223.06  101.17   2
  -9  -1   0 1027.48  198.72   3
  -9   1   0 1516.76  225.47   3
  -9   1   0 922.052 137.127   4
   9   1   0 1088.80  114.09   1
   9   1   0 1291.59  106.75   2
  11  -1   0 2060.52  185.24   1
 -11  -1   0 2442.26  322.96   3
  11   1   0 1905.79  173.53   1
  11   1   0 1910.72  130.49   2
 -11   1   0 2177.41  300.78   3
  13  -1   0 793.067 128.116   1
 -13  -1   0 986.078 252.446   3
 -13   1   0 646.980 216.057   3
  13   1   0 606.081 116.826   1
  15   1   0 1068.46  166.82   1
   0  -2   0 702.014  50.895   3
   0  -2   0 786.212  62.606   2
   0  -2   0 745.962  73.804   1
   0   2   0 871.649  79.564   4
   2  -2   0 3319.92  154.95   1
   2  -2   0 3259.44  132.68   2
  -2  -2   0 3361.56  154.43   2
  -2  -2   0 3259.84  177.21   3
   2   2   0 3313.24  133.99   4
  -2   2   0 3088.28  141.45   3
   2   2   0 3266.49  135.21   1
  -2   2   0 3290.11  176.90   4
   4  -2   0 2505.06  135.50   1
  -4  -2   0 2111.23  193.95   3
  -4  -2   0 2606.66  144.29   2
   4  -2   0 2790.68  113.00   2
   4   2   0 2536.19  121.49   1
  -4   2   0 2539.31  157.14   3
  -4   2   0 1997.39  173.80   4
   6  -2   0 4493.49  185.87   2
  -6  -2   0 4706.42  228.45   2
   6  -2   0 4787.06  223.44   1
  -6  -2   0 4524.64  301.27   3
  -6   2   0 4936.34  268.53   4
   6   2   0 4446.86  201.74   1
  -6   2   0 4463.29  269.76   3
   8  -2   0 3531.80  202.02   1
  -8  -2   0 3470.92  329.23   3
   8  -2   0 3792.86  166.74   2
  -8   2   0 3612.78  314.27   3
   8   2   0 3413.01  168.64   2
  -8   2   0 2885.84  252.06   4
   8   2   0 3535.57  182.41   1
 -10  -2   0 1955.35  284.26   3
  10  -2   0 1822.46  176.83   1
  10   2   0 2154.14  169.09   1
 -10   2   0 1897.85  264.47   3
 -10   2   0 1999.90  219.43   4
  10   2   0 2011.57  152.92   2
  12  -2   0 671.944 126.244   1
 -12  -2   0 472.157 184.261   3
  12   2   0 583.500 105.483   1
 -12   2   0 802.122 229.658   3
  12   2   0 712.690  98.427   2
 -14  -2   0 482.335 223.296   3
  14  -2   0 337.553 116.436   1
 -14   2   0 904.713 260.490   3
  14   2   0 470.872 119.345   1
  -1  -3   0 1097.03   94.76   2
  -1  -3   0 994.234 106.913   1
   1  -3   0 963.001 103.677   1
  -1  -3   0 1106.76   94.13   3
   1  -3   0 1148.41   89.78   2
  -1   3   0 996.962 110.369   4
   1   3   0 1122.15   99.16   4
  -3  -3   0 4566.59  253.30   3
   3  -3   0 4810.88  226.46   1
  -3  -3   0 4389.83  216.64   2
   3  -3   0 4772.48  194.22   2
   3   3   0 4767.77  191.64   4
  -3   3   0 4669.72  208.41   3
   3   3   0 4656.18  197.68   1
  -3   3   0 4717.55  258.77   4
   5  -3   0 4382.17  185.20   2
   5  -3   0 4215.04  220.83   1
  -5  -3   0 4260.45  225.94   2
  -5  -3   0 4484.62  284.82   3
   5   3   0 4496.01  198.49   1
  -5   3   0 4582.39  270.82   4
  -5   3   0 4586.89  243.20   3
  -7  -3   0 1211.02  185.29   3
   7  -3   0 1271.42   98.48   2
  -7  -3   0 1226.87  139.02   2
   7  -3   0 1396.87  139.63   1
  -7   3   0 1168.84  164.10   3
  -7   3   0 663.837 134.898   4
   7   3   0 1075.88  104.40   1
   9  -3   0 2950.98  201.63   1
  -9  -3   0 2801.12  231.47   2
  -9  -3   0 3014.62  335.35   3
   9   3   0 3237.22  183.35   1
  -9   3   0 2996.95  305.59   3
  -9   3   0 3009.16  278.97   4
  11  -3   0 599.929 119.070   1
 -11  -3   0 801.578 205.055   3
  11   3   0 695.724  99.481   2
  11   3   0 942.003 122.803   1
 -11   3   0 501.792 180.331   3
 -11   3   0 279.180 133.195   4
 -13  -3   0 1090.94  264.53   3
  13  -3   0 1071.09  171.09   1
  13   3   0 896.161 139.242   1
   0  -4   0 2005.63  123.36   2
   0  -4   0 1644.85  162.13   1
   0  -4   0 1943.54  105.72   3
   0   4   0 1830.04  161.24   4
   2  -4   0 4932.61  221.06   2
  -2  -4   0 5100.64  251.51   3
  -2  -4   0 5049.49  237.94   2
   2  -4   0 4675.68  253.56   1
   2   4   0 4758.39  214.52   1
  -2   4   0 4919.06  278.32   4
   2   4   0 4901.14  234.11   4
  -4  -4   0 1706.77  183.55   3
   4  -4   0 1590.46  156.18   1
  -4  -4   0 1268.36  138.26   2
   4  -4   0 1734.05  110.42   2
   4   4   0 1663.51   98.74   4
  -4   4   0 1724.09  184.83   4
   4   4   0 1657.65  109.80   1
  -4   4   0 1849.77  121.50   3
   6  -4   0 1712.06  110.33   2
  -6  -4   0 1942.35  179.49   2
  -6  -4   0 1324.66  195.43   3
   6  -4   0 1365.28  151.40   1
  -6   4   0 2447.14  237.21   4
  -6   4   0 1671.94  173.42   3
   6   4   0 1613.41  134.25   1
   8  -4   0 1286.16  152.69   1
   8  -4   0 940.281  98.620   2
  -8  -4   0 952.845 195.045   3
  -8  -4   0 1275.59  157.01   2
   8   4   0 1069.34  116.64   1
  -8   4   0 1078.51  174.12   4
 -10  -4   0 1131.46  164.95   2
  10  -4   0 882.424 141.415   1
 -10  -4   0 607.005 186.418   3
  10   4   0 918.636 120.929   1
 -10   4   0 1008.98  182.89   4
 -12  -4   0 602.856 220.675   3
  12  -4   0 886.480 157.951   1
  12   4   0 567.541 113.612   1
  12   4   0 1071.14  127.09   2
  14   4   0 831.803 147.964   1
   1  -5   0 2264.49  147.19   2
  -1  -5   0 2441.71  151.77   3
  -1  -5   0 2364.72  160.45   2
   1  -5   0 2570.42  217.11   1
  -1  -5   0 2688.43  231.30   1
  -1   5   0 2369.14  214.68   4
   1   5   0 2331.20  141.95   1
   1   5   0 2343.99  194.66   4
   3  -5   0 1449.81  130.96   2
  -3  -5   0 1527.45  165.31   3
   3  -5   0 1433.17  163.11   1
  -3  -5   0 1398.32  146.57   2
   3   5   0 1462.76  126.43   1
   3   5   0 1283.65  127.72   4
  -3   5   0 1547.53  185.80   4
  -5  -5   0 2024.00  191.55   2
   5  -5   0 2098.63  159.67   2
   5  -5   0 2181.07  207.41   1
  -5  -5   0 2299.69  236.95   3
  -5   5   0 1913.50  223.23   4
  -7  -5   0 2217.97  208.09   2
  -7  -5   0 1800.12  245.58   3
   7  -5   0 1783.77  189.55   1
   7  -5   0 1761.72  146.67   2
   7   5   0 1574.79  149.44   1
  -7   5   0 1909.55  229.43   4
  -9  -5   0 772.226 144.584   2
  -9  -5   0 639.844 189.543   3
   9  -5   0 642.250 126.334   1
   9   5   0 648.836 105.401   1
  -9   5   0 529.752 156.038   4
 -11  -5   0 1245.20  190.37   2
 -11  -5   0 1367.03  278.33   3
  11  -5   0 896.084 160.900   1
  11   5   0 1036.34  140.59   1
 -11   5   0 998.333 214.681   4
  13  -5   0 510.574 150.549   1
  13   5   0 716.277 127.856   2
  13   5   0 488.911 128.642   1
   0  -6   0 3065.00  193.99   2
   0  -6   0 2828.30  263.36   1
   0   6   0 2627.19  242.97   4
  -2  -6   0 398.211  94.472   2
   2  -6   0 576.503 128.236   1
   2  -6   0 430.854  81.573   2
   2   6   0 526.641 104.313   4
   2   6   0 456.601  75.474   1
  -2   6   0 576.684 133.306   4
  -4  -6   0 2254.28  207.80   2
   4  -6   0 2153.55  176.44   2
   4  -6   0 2192.61  225.76   1
  -4   6   0 2049.88  237.32   4
   4   6   0 1699.35  153.77   1
  -6  -6   0 1892.73  239.88   3
   6  -6   0 1357.17  182.26   1
  -6  -6   0 1683.72  191.80   2
   6  -6   0 1555.32  150.35   2
  -6   6   0 1485.96  222.63   4
   6   6   0 1609.47  154.20   1
  -8  -6   0 1614.80  199.86   2
  -8  -6   0 1886.27  266.86   3
   8  -6   0 1573.68  201.18   1
  -8   6   0 1876.92  264.11   4
   8   6   0 1889.22  177.58   1
 -10  -6   0 850.991 164.440   2
 -10  -6   0 928.551 234.122   3
  10  -6   0 820.314 167.794   1
  10   6   0 1060.79  144.99   1
 -10   6   0 668.673 193.939   4
  12  -6   0 257.355 137.176   1
 -12  -6   0 699.741 252.716   3
 -12  -6   0 578.332 154.199   2
 -12   6   0 338.062 188.825   4
  12   6   0 534.396 124.004   1
  -1  -7   0 1534.05  173.69   2
   1  -7   0 1357.66  156.41   2
   1  -7   0 1457.30  206.06   1
  -1   7   0 1541.90  210.27   4
   1   7   0 1258.81  172.74   4
   1   7   0 1158.89  134.30   1
   3  -7   0 1306.44  197.16   1
  -3  -7   0 1814.78  198.63   2
   3  -7   0 1426.86  159.69   2
   3   7   0 2038.56  178.32   1
  -3   7   0 1939.98  249.79   4
   5  -7   0 534.240 134.961   1
   5  -7   0 880.009 123.668   2
  -5  -7   0 804.391 142.716   2
   5   7   0 1000.64  128.83   1
  -5   7   0 691.212 169.630   4
  -7  -7   0 825.223 156.181   2
   7  -7   0 677.725 153.808   1
  -7   7   0 777.383 183.485   4
   7   7   0 947.734 132.729   1
  -9  -7   0 134.557 100.112   2
   9  -7   0 228.499 123.130   1
  -9   7   0 529.858 188.064   4
   9   7   0 528.354 112.791   1
  11  -7   0 1156.09  214.52   1
   0  -8   0 1317.02  174.25   2
   0   8   0 1517.49  161.32   1
   0   8   0 1230.37  200.32   4
   2  -8   0 1955.71  251.53   1
   2  -8   0 1700.96  191.97   2
  -2  -8   0 1263.06  184.74   2
  -2   8   0 1782.41  248.26   4
   2   8   0 1735.96  172.60   1
  -4  -8   0 541.722 123.741   2
   4  -8   0 443.274 109.944   2
   4  -8   0 628.422 156.919   1
   4   8   0 494.856 102.093   1
  -4   8   0 776.270 191.246   4
   6  -8   0 600.249 160.930   1
  -6  -8   0 694.818 150.378   2
  -6   8   0 664.631 191.918   4
   6   8   0 472.176 105.750   1
   8  -8   0 411.032 155.603   1
  -8  -8   0 227.724 122.444   2
  -8   8   0 160.245 150.917   4
   8   8   0 543.254 122.108   1
   1  -9   0 462.910 122.305   2
  -1  -9   0 437.545 135.320   2
   1  -9   0 549.424 172.895   1
  -1   9   0 559.133 111.247   1
  -1   9   0 618.456 179.088   4
   1   9   0 754.918 124.002   1
   3  -9   0 920.647 165.226   2
   3  -9   0 867.013 191.451   1
  -3  -9   0 762.305 160.224   2
  -3   9   0 1113.06  222.71   4
   3   9   0 1025.82  146.99   1
  -5  -9   0 761.647 175.260   2
   5  -9   0 509.885 157.865   1
  -5   9   0 374.577 177.559   4
   5   9   0 735.973 138.133   1
   7  -9   0 500.549 172.800   1
   0 -10   0 271.736 144.222   2
   0  10   0 153.103  83.248   1
  -2 -10   0 403.338 151.560   2
   2 -10   0 398.051 166.220   1
   2 -10   0 235.887 133.023   2
  -2  10   0 639.987 129.826   1
  -2  10   0 601.046 201.765   4
  -4  10   0 343.682 195.578   4
 -14   0   1  79.300 182.800   3
  14   0  -1 59.9859 76.5426   1
  12   0  -1 -66.398  45.966   1
 -12   0   1 145.889 145.798   3
 -10   0   1  31.733 101.480   3
  10   0  -1 -4.8062 36.1527   1
  10   0  -1 -21.570  25.506   2
  -8   0   1 -49.198  68.286   3
  -8   0   1 -19.642  48.190   4
   8   0  -1  8.2279 21.8705   2
   8   0  -1 -19.941  29.727   1
   6   0  -1 -19.630  13.283   2
   6   0  -1 17.4675 25.7994   1
  -6   0   1 28.4479 40.0803   4
  -6   0   1 84.0225 63.8202   3
   4   0  -1 -40.391  14.700   1
  -4   0   1  5.1907 26.7889   4
  -4   0   1 -28.589  37.988   3
   4   0  -1 -4.3311 11.0224   2
  -2   0   1 -1.5797  9.6889   2
  -2   0   1 -14.380  26.610   3
   2   0  -1  2.8807 13.0136   1
   0   0  -1 -10.992  10.880   3
   0   0   1 -6.6396  3.1454   2
   2   0   1 -27.618   8.217   2
  -2   0  -1 11.1826 34.8144   3
  -2   0  -1 -11.118  22.811   4
   2   0   1 -4.6317 12.4964   1
  -4   0  -1 -12.851  29.784   4
   4   0   1 -10.481  16.681   1
   4   0   1 -11.622  13.167   2
  -4   0  -1 -17.024  47.923   3
   6   0   1  3.2700 18.2951   2
  -6   0  -1 28.2668 66.1618   3
  -6   0  -1  5.9692 41.8926   4
   6   0   1 -38.702  19.942   1
   8   0   1 -30.787  21.583   2
   8   0   1 -31.217  25.870   1
  -8   0  -1 -64.232  74.327   3
  10   0   1 -32.233  31.260   2
 -10   0  -1 -48.349 104.860   3
  10   0   1 -17.016  41.832   1
  12   0   1 99.6753 65.4106   1
 -12   0  -1  15.540 140.044   3
 -14   0  -1   3.637 176.723   3
  15  -1  -1 -54.913  84.042   1
 -15   1   1  72.658 206.198   3
  15   1  -1 -36.184  75.584   1
  13  -1  -1 146.618  75.038   1
 -13  -1   1 -23.046 157.734   3
 -13   1   1 164.916 174.068   3
  13   1  -1 245.342  82.812   1
  11  -1  -1 -35.180  44.938   1
 -11  -1   1  73.019 123.320   3
  11   1  -1 -13.586  44.552   1
 -11   1   1 155.457 125.731   3
   9  -1  -1 251.763  48.538   2
  -9  -1   1 326.540 125.983   3
   9  -1  -1 248.338  59.945   1
   9   1  -1 301.507  64.985   1
   9   1  -1 352.174  54.794   2
  -9   1   1 668.471 153.249   3
  -9   1   1 281.529  93.000   4
  -7  -1   1 141.066  43.893   4
   7  -1  -1 188.320  33.685   2
   7  -1  -1 108.539  40.774   1
  -7  -1   1 251.913  92.138   3
  -7   1   1 314.761  93.378   3
  -7   1   1 102.313  62.822   4
   7   1  -1 127.259  31.582   2
   7   1  -1 163.674  44.158   1
   5  -1  -1 301.447  34.870   2
  -5  -1   1 304.558  50.625   2
  -5  -1   1 335.208  45.516   4
   5  -1  -1 333.676  51.427   1
  -5  -1   1 315.238  80.833   3
  -5   1   1 290.759  65.221   4
  -5   1   1 331.692  77.969   3
   5   1  -1 314.330  45.691   1
  -3  -1   1 2789.56  126.44   2
   3  -1  -1 2678.79  123.89   1
   3  -1  -1 2734.15  100.12   2
  -3  -1   1 2854.91  162.89   3
  -3   1   1 2981.61  155.65   4
  -3   1   1 2725.98  151.43   3
   3   1  -1 2704.74  117.14   1
  -1  -1   1 20.2277 23.1143   3
   1  -1  -1  8.8409 10.8584   2
   1  -1  -1 28.6531 18.6170   1
  -1  -1   1 36.2334 16.2580   2
   1   1  -1 -1.1558 18.2510   4
   1   1  -1 -8.4975  8.8788   1
  -1   1   1 -12.985  14.637   3
   1  -1   1 80.3200 17.0681   2
  -1  -1  -1 12.9362 30.4878   3
  -1  -1  -1 83.4106 24.3140   2
   1  -1   1 69.2057 21.3708   1
   1   1   1 87.7350 15.8693   1
  -1   1  -1 42.8136 28.5331   4
  -1   1  -1 60.5929 24.6476   3
  -3  -1  -1 706.193  71.395   2
   3  -1   1 900.686  54.494   2
  -3  -1  -1 1083.70  118.92   3
   3  -1   1 846.493  59.370   1
  -3  -1  -1 853.394  52.747   4
  -3   1  -1 835.787  88.323   4
   3   1   1 888.715  52.543   1
  -3   1  -1 896.934  97.740   3
   5  -1   1 173.997  36.503   1
  -5  -1  -1 188.671  36.037   4
   5  -1   1 148.796  32.814   2
  -5  -1  -1 105.141  70.994   3
  -5   1  -1 108.124  53.611   4
   5   1   1 156.962  33.427   1
   5   1   1 160.108  32.466   2
  -5   1  -1 146.459  70.494   3
  -7  -1  -1 81.9234 73.7828   3
   7  -1   1 14.8924 29.1117   1
   7  -1   1 25.1433 26.3756   2
  -7   1  -1 20.1959 55.2460   4
   7   1   1 25.3608 31.6570   1
   7   1   1 -2.4866 21.5978   2
  -7   1  -1 124.863  84.145   3
  -9  -1  -1 22.9625 87.0122   3
   9  -1   1 45.2067 32.5124   2
   9  -1   1 45.7804 47.3703   1
   9   1   1 109.651  39.302   2
   9   1   1 29.9553 40.0070   1
  -9   1  -1 -22.016 100.879   3
  -9   1  -1 61.6219 78.2646   4
 -11  -1  -1 700.522 204.514   3
  11  -1   1 546.162  97.998   1
 -11   1  -1 723.994 200.600   3
  11   1   1 340.295  67.574   2
  11   1   1 357.943  84.022   1
 -13  -1  -1 -130.16  150.76   3
  13  -1   1  4.6154 75.6198   1
 -13   1  -1  39.543 140.590   3
  13   1   1 29.5061 65.6781   1
  14  -2  -1 97.6193 87.7475   1
 -14  -2   1 -133.00  155.60   3
 -14   2   1 188.010 176.707   3
  14   2  -1 -23.531  68.398   1
  12  -2  -1 -47.208  57.942   1
 -12  -2   1 -126.69  118.92   3
  12   2  -1  3.2921 54.6813   1
 -12   2   1 207.833 154.212   3
  10  -2  -1 37.8121 51.2221   1
 -10  -2   1 169.006 125.208   3
  10   2  -1 97.8001 41.9847   2
 -10   2   1 -26.461  74.076   4
 -10   2   1  88.369 101.523   3
  10   2  -1 46.2460 47.3105   1
   8  -2  -1 125.422  34.475   2
  -8  -2   1 81.6814 50.0572   2
   8  -2  -1 116.073  50.252   1
  -8  -2   1 89.9784 88.2526   3
  -8   2   1 20.0077 71.9750   3
   8   2  -1 57.0190 41.7732   1
  -8   2   1 106.088  71.694   4
  -6  -2   1 138.281  48.918   2
  -6  -2   1 75.5448 63.8514   3
   6  -2  -1 140.999  30.870   2
   6  -2  -1 119.089  42.416   1
   6   2  -1 186.871  43.622   1
  -6   2   1 -10.495  57.408   3
  -6   2   1 23.2251 53.8921   4
  -4  -2   1 1590.29  155.01   3
   4  -2  -1 1507.06   74.35   2
  -4  -2   1 1473.28  117.57   2
   4  -2  -1 1360.92   96.26   1
  -4   2   1 1448.17  143.55   4
  -4   2   1 1461.07  127.51   3
   4   2  -1 1613.40   89.62   1
  -2  -2   1 179.771  51.614   3
   2  -2  -1 149.826  28.559   2
  -2  -2   1 102.884  31.832   2
   2  -2  -1 219.580  42.887   1
  -2   2   1 182.656  50.069   4
   2   2  -1 135.307  26.880   1
  -2   2   1 115.241  33.324   3
   2   2  -1 206.256  36.651   4
   0  -2  -1 764.599  65.233   2
   0  -2  -1 702.675  71.191   3
   0  -2   1 726.997  61.982   2
   0  -2   1 685.401  71.400   1
   0  -2   1 729.554  42.267   3
   0  -2  -1 651.659  71.031   1
   0   2  -1 876.210  80.660   4
   0   2   1 868.572  82.106   4
   2  -2   1 262.825  47.356   1
   2  -2   1 259.782  36.885   2
  -2  -2  -1 174.855  40.483   2
  -2  -2  -1 147.022  56.789   3
  -2   2  -1 326.675  64.525   4
  -2   2  -1 293.305  43.588   3
   2   2   1 354.767  40.040   1
  -4  -2  -1 13.1497 27.7986   2
   4  -2   1 -31.857  19.799   1
   4  -2   1  4.1973 20.0273   2
  -4  -2  -1 -37.862  47.310   3
  -4   2  -1 -6.5627 44.3935   3
  -4   2  -1  4.2406 45.0293   4
   4   2   1 -13.743  15.572   1
  -6  -2  -1 16.9872 66.9689   3
  -6  -2  -1 67.5487 40.5841   2
   6  -2   1 56.6441 36.7326   1
   6  -2   1 -7.5014 21.7650   2
  -6   2  -1 -51.926  60.144   3
  -6   2  -1 114.038  65.381   4
   6   2   1 24.5536 25.5255   1
   8  -2   1 286.204  53.502   2
   8  -2   1 363.174  72.501   1
  -8  -2  -1 159.480 105.027   3
  -8   2  -1 425.498 124.371   3
  -8   2  -1 438.445 107.308   4
   8   2   1 395.777  61.530   2
   8   2   1 377.388  65.030   1
 -10  -2  -1  39.432 111.006   3
  10  -2   1 -2.2851 50.3324   1
  10  -2   1 22.2440 37.1898   2
 -10   2  -1  23.893 121.880   3
  10   2   1 -39.141  29.477   2
  10   2   1 41.8147 44.0945   1
 -10   2  -1 -14.140  78.856   4
 -12  -2  -1  77.948 153.476   3
  12  -2   1 14.4385 69.1394   1
  12   2   1 61.7056 59.7758   1
  12   2   1 105.006  51.803   2
 -12   2  -1 -68.312 137.935   3
 -14   2  -1   1.895 164.379   3
  13  -3  -1 168.363  97.495   1
 -13  -3   1  46.792 161.498   3
  13   3  -1 207.218  91.504   1
 -11  -3   1  -5.425 120.945   3
  11  -3  -1 27.1501 60.6379   1
 -11   3   1 -17.791  93.286   4
  11   3  -1 117.379  58.899   1
 -11   3   1  96.904 144.193   3
  11   3  -1 82.7224 46.9690   2
  -9  -3   1  99.716 108.682   3
   9  -3  -1 232.325  74.237   1
  -9  -3   1 52.4533 59.7623   2
  -9   3   1 215.580  97.975   4
   9   3  -1 105.184  48.704   1
  -9   3   1 93.8181 96.6892   3
  -7  -3   1 59.0764 84.7084   3
   7  -3  -1 97.2374 52.8520   1
   7  -3  -1 141.074  37.641   2
  -7  -3   1 66.6434 47.3031   2
  -7   3   1 25.4267 68.6882   3
  -7   3   1 108.366  74.059   4
   7   3  -1 22.3745 31.4907   1
  -5  -3   1 111.696  77.164   3
   5  -3  -1 49.9753 27.5223   2
  -5  -3   1 98.6827 45.1924   2
   5  -3  -1 150.681  51.297   1
  -5   3   1 88.1890 56.4463   3
  -5   3   1 122.616  66.335   4
   5   3  -1 88.0879 31.4013   1
   3  -3  -1 70.8769 36.3726   1
   3  -3  -1  5.1044 22.5635   2
  -3  -3   1 32.2134 50.2635   3
  -3  -3   1 -24.059  27.962   2
   3   3  -1 28.1493 31.1996   4
  -3   3   1 -1.0845 42.5112   4
   3   3  -1 -7.3453 18.7842   1
  -3   3   1 13.8011 32.6330   3
   1  -3  -1 -14.735  32.601   1
  -1  -3   1 51.0939 29.2760   2
  -1  -3   1  5.1068 30.8198   3
   1  -3  -1 37.4527 26.3115   2
  -1   3   1 128.216  53.740   4
   1   3  -1 50.8650 23.2073   1
  -1   3   1 32.4993 23.2007   3
   1   3  -1 -1.9077 33.0379   4
   1  -3   1 -13.486  19.188   2
  -1  -3  -1 -10.291  37.013   3
   1  -3   1 44.1103 34.0636   1
  -1  -3  -1 18.3680 28.6030   2
  -1  -3  -1 -27.334  31.024   1
  -1   3  -1  4.9603 31.7986   4
   1   3   1 29.8203 31.4552   4
  -3  -3  -1 402.974  69.109   2
  -3  -3  -1 447.896  94.179   3
   3  -3   1 523.007  76.018   1
   3  -3   1 479.573  57.010   2
   3   3   1 481.960  56.540   1
   3   3   1 624.335  58.938   4
  -3   3  -1 449.750  88.510   4
  -3   3  -1 459.773  62.334   3
  -5  -3  -1 541.588 123.171   3
  -5  -3  -1 568.352  89.314   2
   5  -3   1 511.330  81.614   1
   5  -3   1 509.757  63.483   2
  -5   3  -1 658.084 103.687   3
  -5   3  -1 486.367 105.176   4
   5   3   1 476.749  62.156   1
   7  -3   1 37.0426 31.5205   2
  -7  -3  -1 13.6926 78.8327   3
   7  -3   1 13.1057 42.3504   1
  -7  -3  -1 -4.2556 41.1200   2
  -7   3  -1 29.8173 73.7104   3
  -7   3  -1 57.9254 69.0188   4
   7   3   1 84.5111 38.8351   1
   9  -3   1 -9.2085 34.2584   2
   9  -3   1 -7.8026 46.2641   1
  -9  -3  -1 170.121 120.765   3
  -9   3  -1 81.8892 84.5237   4
   9   3   1 -6.8434 40.7245   1
  -9   3  -1 -25.712 101.002   3
   9   3   1 -15.075  30.234   2
  11  -3   1 184.397  87.768   1
 -11  -3  -1 -29.612 126.909   3
  11   3   1  1.8275 55.7078   1
 -11   3  -1 -35.226 126.456   3
  11   3   1 10.1792 40.6422   2
 -13  -3  -1 -164.31  152.32   3
  13   3   1 78.6190 65.3907   2
  13   3   1 55.9689 73.2395   1
  14  -4  -1 -72.466 106.028   1
  12  -4  -1 -59.182  75.249   1
 -12  -4   1  12.238 150.936   3
 -12   4   1 107.621 125.158   4
  12   4  -1 -32.666  62.954   1
  12   4  -1 23.1339 54.1499   2
  10  -4  -1 111.317  83.042   1
 -10  -4   1 -95.411  51.414   2
 -10  -4   1 120.702 127.013   3
 -10   4   1 139.506 110.003   4
  10   4  -1 51.2602 51.3288   1
  -8  -4   1 41.7492 91.7710   3
   8  -4  -1 303.962  87.118   1
  -8  -4   1 328.650  87.713   2
  -8   4   1 227.926 105.713   4
   8   4  -1 405.988  77.121   1
   6  -4  -1 127.510  41.640   2
   6  -4  -1 60.0726 52.0144   1
  -6  -4   1 232.663 101.016   3
  -6  -4   1 173.949  65.512   2
   6   4  -1 69.3792 38.6081   1
  -6   4   1 196.829  76.824   3
  -6   4   1 71.0099 78.5530   4
   4  -4  -1 69.7790 35.6700   2
  -4  -4   1 17.4431 38.7273   2
   4  -4  -1 16.9227 48.7821   1
  -4  -4   1 12.3400 59.4225   3
   4   4  -1 30.5726 28.0477   1
  -4   4   1 19.7603 54.3974   4
   4   4  -1 59.6483 38.0531   4
  -4   4   1 -14.587  43.485   3
  -2  -4   1 279.445  59.712   2
   2  -4  -1 167.449  59.003   1
  -2  -4   1 274.183  66.243   3
   2  -4  -1 253.468  50.800   2
  -2   4   1 270.492  42.609   3
   2   4  -1 224.688  57.864   4
  -2   4   1 335.052  80.644   4
   2   4  -1 205.397  43.132   1
   0  -4   1 16.6461 36.3349   1
   0  -4  -1 41.2368 41.9482   3
   0  -4  -1 -0.0645 42.6430   1
   0  -4  -1 -5.5160 27.2144   2
   0  -4   1 -21.383  27.561   2
   0   4  -1 30.9381 45.6473   4
   0   4   1  8.0910 42.1051   4
  -2  -4  -1 607.619 103.014   3
  -2  -4  -1 535.551  82.339   2
   2  -4   1 568.959  75.405   2
   2  -4   1 493.862  89.424   1
   2   4   1 695.494  75.702   1
   2   4   1 662.496  82.862   4
  -2   4  -1 673.728 111.232   4
  -4  -4  -1 102.545  70.057   3
   4  -4   1 37.5717 31.7608   2
   4  -4   1  9.1328 37.2626   1
  -4  -4  -1 -8.3167 37.9497   2
   4   4   1 -17.186  21.490   1
  -4   4  -1 -21.005  49.636   4
  -4   4  -1 13.9833 43.3008   3
   4   4   1 27.4185 33.9679   4
  -6  -4  -1 332.618  88.595   2
  -6  -4  -1 369.760 117.165   3
   6  -4   1 377.337  62.515   2
   6  -4   1 657.482 103.516   1
   6   4   1 436.877  69.511   1
  -6   4  -1 363.007 110.280   4
  -8  -4  -1 -9.6424 54.5496   2
  -8  -4  -1 104.071 105.067   3
   8  -4   1  6.9512 58.4453   1
   8  -4   1 -14.479  33.931   2
  -8   4  -1 81.3831 87.8670   4
   8   4   1 36.4626 43.1426   1
 -10  -4  -1  85.759 126.595   3
  10  -4   1 47.4450 66.9966   1
  10   4   1 39.5488 45.8273   2
  10   4   1 -1.0354 47.7162   1
 -10   4  -1 -27.648 100.080   4
 -12  -4  -1 115.332 158.824   3
  12  -4   1 -30.424  83.473   1
  12   4   1 50.5963 65.6329   1
  12   4   1 26.5868 60.1090   2
  13  -5  -1  -7.821 103.238   1
  13   5  -1 -62.277  70.722   1
  13   5  -1 89.7999 71.4596   2
  11  -5  -1 28.4037 82.7505   1
 -11  -5   1 26.5340 86.0505   2
 -11  -5   1 -104.49  122.35   3
  11   5  -1 110.481  70.707   1
 -11   5   1  38.746 128.329   4
   9  -5  -1 107.738  74.350   1
  -9  -5   1 162.900  88.616   2
  -9  -5   1 188.169 136.008   3
  -9   5   1  69.078 107.739   4
   9   5  -1 174.128  68.137   1
  -7  -5   1 -34.031  52.025   2
   7  -5  -1  2.1898 57.6187   1
  -7  -5   1 -28.308  94.797   3
   7   5  -1 48.0968 47.1415   1
  -7   5   1 43.9955 80.6216   4
   5  -5  -1 603.897  85.415   2
  -5  -5   1 719.800 142.773   3
   5  -5  -1 722.535 121.732   1
  -5  -5   1 528.980 101.000   2
  -5   5   1 974.520 162.588   4
   5   5  -1 499.393  79.581   1
  -3  -5   1 23.1073 46.5925   2
   3  -5  -1 74.5620 41.4642   2
   3  -5  -1 52.4548 56.5949   1
  -3  -5   1 86.4887 68.6955   3
   3   5  -1 72.1370 37.8974   1
   3   5  -1 37.1802 51.3084   4
  -3   5   1 87.2899 75.0062   4
   1  -5  -1 566.526 111.058   1
  -1  -5   1 440.549  79.876   2
   1  -5  -1 381.707  71.831   2
   1   5  -1 461.136  71.391   1
   1   5  -1 523.046  93.874   4
  -1   5   1 335.185  88.650   4
  -1  -5  -1 12.1608 56.1614   3
   1  -5   1  7.5422 36.6034   2
  -1  -5  -1 45.5810 38.8258   2
  -1  -5  -1 -38.426  38.320   1
   1  -5   1 -0.9117 45.4832   1
  -1   5  -1 -28.022  48.262   4
   1   5   1 -49.507  44.668   4
   3  -5   1 97.8438 50.9391   2
   3  -5   1 47.6014 53.2404   1
  -3  -5  -1 163.293  76.268   3
  -3  -5  -1 121.066  57.401   2
  -3   5  -1 40.0614 62.2413   4
   3   5   1 98.3318 40.3933   1
   3   5   1 52.8163 49.9622   4
  -5  -5  -1 -11.573  47.844   2
   5  -5   1 38.8895 55.8005   1
  -5  -5  -1 82.1311 88.0795   3
   5  -5   1 14.6196 38.4699   2
   5   5   1 -0.7446 34.7700   1
  -5   5  -1 -67.967  66.407   4
   7  -5   1 -23.916  61.238   1
  -7  -5  -1 31.6169 98.6984   3
   7  -5   1 -54.275  38.309   2
  -7  -5  -1 -55.770  57.347   2
   7   5   1 33.6828 43.3138   1
  -7   5  -1 -47.192  71.463   4
  -9  -5  -1 346.591 158.069   3
   9  -5   1 370.173 106.833   1
  -9  -5  -1 140.840  86.017   2
   9   5   1 272.108  72.992   1
  -9   5  -1 235.731 120.487   4
 -11  -5  -1 239.332 168.771   3
  11  -5   1 115.809 102.909   1
  11   5   1 151.533  62.377   2
  11   5   1 22.4030 64.8687   1
 -11   5  -1  -5.326 126.141   4
  13   5   1 457.203 129.641   1
  12  -6  -1 100.107 119.294   1
 -12  -6   1 135.362 191.507   3
 -12  -6   1 -35.779  99.740   2
  12   6  -1 117.745  90.242   1
 -12   6   1 147.025 165.037   4
 -10  -6   1 -23.058 136.880   3
 -10  -6   1 248.762 102.360   2
  10  -6  -1 150.731 106.095   1
  10   6  -1 53.8146 70.3096   1
 -10   6   1  64.754 121.790   4
  -8  -6   1 -16.798  69.616   2
  -8  -6   1  94.734 117.245   3
   8  -6  -1 249.220  97.983   1
   8   6  -1 121.389  64.986   1
  -8   6   1  90.213 113.154   4
  -6  -6   1 232.293  90.339   2
   6  -6  -1 58.8110 71.0046   1
  -6   6   1 40.9480 79.5009   4
   6   6  -1 216.731  65.772   1
   4  -6  -1 80.4425 50.8200   2
   4  -6  -1 -75.300  55.452   1
  -4  -6   1 28.7198 58.2276   2
   4   6  -1 86.4095 49.5185   1
  -4   6   1 -22.294  71.186   4
   2  -6  -1 181.532  64.855   2
  -2  -6   1 77.9521 59.4955   2
   2  -6  -1 304.901  95.235   1
   2   6  -1 209.223  78.819   4
   2   6  -1 177.356  52.964   1
  -2   6   1 65.3609 83.7914   4
   0  -6  -1 397.528 108.748   1
   0  -6   1 251.652  68.442   2
   0  -6   1 340.638 103.206   1
   0  -6  -1 151.339  62.320   2
   0   6   1 260.681  86.842   4
   0   6  -1 220.253  85.967   4
  -2  -6  -1 74.5101 60.6931   2
   2  -6   1 342.840 106.426   1
   2  -6   1 322.524  75.573   2
   2   6   1 265.237  64.875   1
  -2   6  -1 272.816 102.290   4
   2   6   1 159.362  76.030   4
   4  -6   1 138.042  57.647   2
   4  -6   1 26.7274 70.9019   1
  -4  -6  -1 219.112  76.393   2
   4   6   1 230.330  62.303   1
  -4   6  -1 156.741  95.507   4
   6  -6   1 103.134  60.145   2
  -6  -6  -1 126.469 115.074   3
  -6  -6  -1 37.8224 66.3859   2
   6  -6   1 92.2072 72.0975   1
  -6   6  -1 130.367 104.673   4
   6   6   1 82.3965 50.0090   1
  -8  -6  -1  97.353 137.641   3
   8  -6   1 112.655  88.124   1
  -8  -6  -1 -30.259  65.959   2
   8   6   1 -39.437  42.063   1
  -8   6  -1  34.719 100.086   4
 -10  -6  -1 114.785  97.258   2
 -10  -6  -1 -139.76  140.44   3
  10  -6   1 74.2056 99.7703   1
  10   6   1  7.3099 61.9875   1
 -10   6  -1 -23.841 127.110   4
  12   6   1 113.964  91.551   1
  11  -7  -1 683.872 183.741   1
 -11  -7   1 418.669 144.643   2
  -9  -7   1 150.353  97.422   2
   9  -7  -1 -5.3101 99.2976   1
  -9   7   1 -205.05  103.92   4
   9   7  -1 57.7884 67.5107   1
   7  -7  -1 223.794 107.515   1
  -7  -7   1 -16.928  74.360   2
  -7   7   1 -13.107 107.931   4
   7   7  -1 42.4323 60.0574   1
   5  -7  -1 -17.996  72.224   1
  -5  -7   1 22.0770 70.6482   2
   5  -7  -1 -24.248  50.005   2
  -5   7   1  10.226 105.135   4
   5   7  -1 21.9388 48.8790   1
  -3  -7   1 138.979  71.278   2
   3  -7  -1 278.528 105.271   1
   3  -7  -1 241.919  78.214   2
   3   7  -1 82.4661 52.3331   1
  -3   7   1  43.440 101.378   4
  -1  -7   1 -37.614  46.660   2
   1  -7  -1 52.2517 61.4234   2
   1  -7  -1 -62.005  61.441   1
   1   7  -1 41.6557 44.1757   1
  -1   7   1 -8.8634 87.1902   4
   1   7  -1 -3.6304 77.2536   4
   1  -7   1 1153.84  143.03   2
   1  -7   1 647.790 141.758   1
  -1  -7  -1 1055.19  143.88   2
  -1   7  -1 739.727 154.447   4
   1   7   1 592.340  99.140   1
   1   7   1 581.957 130.244   4
   3  -7   1 615.696 106.981   2
  -3  -7  -1 635.892 121.174   2
   3  -7   1 514.892 131.276   1
  -3   7  -1 342.643 134.406   4
   3   7   1 421.061  87.624   1
   5  -7   1 125.222  72.261   2
   5  -7   1 92.1542 92.4054   1
  -5  -7  -1 188.193  80.963   2
   5   7   1 355.591  83.897   1
  -5   7  -1 -96.192  87.076   4
   7  -7   1 22.9138 92.9471   1
  -7  -7  -1 46.4531 72.7266   2
   7   7   1 30.3647 52.9833   1
  -7   7  -1 -10.755  99.804   4
  -9  -7  -1 24.4480 97.3730   2
   9  -7   1  47.159 107.713   1
  -9   7  -1  42.269 134.510   4
   9   7   1 74.9655 75.4994   1
  11  -7   1 -75.008 121.136   1
  -8  -8   1 115.616 104.229   2
   8  -8  -1  92.617 105.972   1
  -8   8   1 192.496 161.363   4
   8   8  -1 72.9766 77.9155   1
   6  -8  -1  31.868 103.436   1
  -6  -8   1 72.5390 84.1473   2
  -6   8   1   3.727 136.339   4
   6   8  -1 90.7572 67.2469   1
  -4  -8   1 259.532 108.183   2
   4  -8  -1 111.124  96.478   1
   4  -8  -1 167.196  83.970   2
  -4   8   1 116.425 123.213   4
   4   8  -1 371.801  94.116   1
   2  -8  -1 287.586 115.936   1
  -2  -8   1 209.272  98.365   2
   2  -8  -1 103.626  75.649   2
  -2   8   1 226.472 127.964   4
   2   8  -1 41.1922 51.0321   1
   0  -8  -1 478.581 139.588   1
   0  -8  -1 529.546 119.561   2
   0  -8   1 325.911  98.360   2
   0   8  -1 302.050  80.125   1
   0   8   1 331.756  83.861   1
   0   8  -1 209.319 120.219   4
   0   8   1 269.221 129.343   4
  -2  -8  -1 87.1789 77.4861   2
   2  -8   1 44.8261 71.7601   2
   2  -8   1 -7.1157 93.0202   1
  -2   8  -1  30.361 105.751   4
   2   8   1 -3.1860 47.6257   1
   4  -8   1 413.554 128.968   1
  -4  -8  -1 455.622 125.837   2
   4  -8   1 333.969  98.995   2
   4   8   1 299.914  86.118   1
  -4   8  -1 428.393 162.933   4
  -6  -8  -1  9.3299 77.8626   2
   6  -8   1 124.441 102.056   1
   6   8   1 50.4263 60.0961   1
  -6   8  -1 -153.58  115.67   4
  -8  -8  -1 241.777 124.154   2
   8  -8   1 145.909 123.224   1
   8   8   1 56.4923 77.4166   1
  -8   8  -1 294.072 172.127   4
   7  -9  -1 472.560 164.163   1
  -5  -9   1 305.334 130.164   2
   5  -9  -1 347.449 156.790   1
   5   9  -1 376.977 106.003   1
  -5   9   1 535.279 207.131   4
   3  -9  -1 330.545 139.311   1
   3  -9  -1 429.171 130.415   2
  -3  -9   1 625.656 147.197   2
  -3   9   1 564.184 180.635   4
   3   9  -1 333.416  93.775   1
   1  -9  -1 69.3067 96.1820   2
   1  -9  -1  96.611 113.086   1
  -1  -9   1 133.539  98.693   2
   1   9  -1 12.9316 58.3257   1
  -1   9   1  60.378 122.863   4
   1  -9   1 33.4233 83.2605   2
  -1  -9  -1 14.5379 86.0248   2
   1   9   1 -23.865  55.095   1
  -1   9  -1 -2.7941 53.4886   1
  -1   9  -1 -47.688 111.906   4
   3  -9   1 82.5910 92.2266   2
   3  -9   1 139.730 116.282   1
  -3  -9  -1 185.739 113.575   2
  -3   9  -1 111.906 142.872   4
   3   9   1 83.3355 67.8647   1
  -5  -9  -1 214.057 117.130   2
   5  -9   1  21.521 104.767   1
  -5   9  -1  73.225 154.458   4
   5   9   1 74.3249 74.8194   1
   7  -9   1 -69.091 122.928   1
  -4  10   1 138.413 173.617   4
   2 -10  -1 185.299 124.595   2
  -2 -10   1 129.050 118.803   2
  -2  10   1 -41.196 146.817   4
   0 -10   1  94.918 117.436   2
   0 -10  -1  93.926 120.190   2
   0  10   1 93.4955 80.0857   1
   0  10  -1  2.9576 64.2438   1
   2 -10   1 579.606 158.626   2
  -2 -10  -1 354.973 140.789   2
  -2  10  -1 155.798  84.689   1
  -2  10  -1 334.899 174.732   4
  14   0  -2 867.709 143.475   1
 -14   0   2 558.564 231.811   3
 -12   0   2 470.135 177.377   3
  12   0  -2 384.726  88.532   1
 -10   0   2 2775.12  310.49   3
  10   0  -2 3315.64  193.31   1
  -8   0   2 3385.61  304.72   3
  -8   0   2 3828.88  211.67   4
   8   0  -2 3557.24  150.73   2
   8   0  -2 3493.52  189.64   1
   6   0  -2 5847.00  244.30   1
  -6   0   2 5749.96  316.06   3
  -6   0   2 5850.26  270.57   4
   6   0  -2 5774.79  207.49   2
   4   0  -2 2163.66  110.29   1
  -4   0   2 2228.16   96.40   2
  -4   0   2 2360.17  154.68   3
   2   0  -2 1675.99   76.19   1
  -2   0   2 1661.30  103.03   3
  -2   0   2 1710.62   64.30   2
   0   0  -2 4638.03  201.40   3
   0   0  -2 4571.77  149.56   1
   0   0   2 4558.44  154.93   2
   2   0   2 528.039  32.742   1
  -2   0  -2 495.369  76.117   3
   2   0   2 665.724  48.086   2
  -2   0  -2 487.032  58.978   4
   4   0   2 5313.58  196.91   2
  -4   0  -2 4897.07  225.97   4
  -4   0  -2 5309.16  282.75   3
   4   0   2 5002.35  194.31   1
  -6   0  -2 3762.61  269.30   3
   6   0   2 4044.71  174.69   2
   6   0   2 4097.78  180.46   1
  -6   0  -2 4101.24  211.54   4
   8   0   2 3556.91  184.62   1
  -8   0  -2 3621.77  341.16   3
   8   0   2 3876.04  178.55   2
 -10   0  -2 543.849 172.157   3
  10   0   2 585.017  91.997   1
  10   0   2 595.957  83.309   2
  12   0   2 1260.33  129.61   2
 -12   0  -2 753.616 221.429   3
 -14   0  -2 102.072 188.401   3
  15  -1  -2 288.941 117.891   1
 -15   1   2 206.902 230.794   3
  15   1  -2 657.301 138.214   1
 -13  -1   2 803.354 240.021   3
  13  -1  -2 910.641 140.103   1
 -13   1   2 453.226 192.935   3
  13   1  -2 1163.52  149.06   1
 -11  -1   2 1755.91  267.34   3
  11  -1  -2 1248.07  149.92   1
  11   1  -2 1723.54  163.49   1
 -11   1   2 2000.92  273.25   3
  -9  -1   2 1507.34  214.16   3
   9  -1  -2 1235.65  129.91   1
   9   1  -2 1232.76   85.00   2
  -9   1   2 1442.34  164.65   4
   9   1  -2 1434.51  132.03   1
  -9   1   2 1183.36  189.03   3
   7  -1  -2 3708.03  148.46   2
  -7  -1   2 3702.03  182.24   2
  -7  -1   2 3921.04  184.64   4
   7  -1  -2 3819.48  192.94   1
  -7  -1   2 3764.16  267.37   3
  -7   1   2 3473.08  221.39   4
  -7   1   2 3634.61  250.87   3
   7   1  -2 3704.77  183.65   1
  -5  -1   2 3298.53  151.31   2
   5  -1  -2 3164.20  118.76   2
   5  -1  -2 3143.54  155.13   1
  -5  -1   2 3635.00  217.57   3
  -5   1   2 3123.65  198.99   3
  -5   1   2 3089.46  188.75   4
   5   1  -2 3064.04  147.89   1
   3  -1  -2 4017.63  171.35   1
  -3  -1   2 4115.00  213.03   3
  -3  -1   2 4204.77  167.92   2
   3  -1  -2 4234.79  137.12   2
   3   1  -2 4230.74  165.33   1
  -3   1   2 4262.68  205.13   3
  -1  -1   2 3126.90  122.82   2
   1  -1  -2 3290.83  114.65   2
  -1  -1   2 3115.53  143.30   3
   1  -1  -2 3051.54  129.20   1
   1   1  -2 2962.07  143.05   4
   1   1  -2 3216.06  117.83   1
  -1   1   2 3210.66  147.14   3
  -1  -1  -2 5356.62  250.40   3
   1  -1   2 5482.20  195.51   1
   1  -1   2 5321.62  191.73   2
   1   1   2 5401.23  186.24   1
  -1   1  -2 5170.21  230.30   4
  -1   1  -2 5376.59  228.51   3
   3  -1   2 3084.11  128.64   2
   3  -1   2 2859.37  126.94   1
  -3  -1  -2 3031.38  190.91   3
   3   1   2 2962.17  120.95   1
  -3   1  -2 2689.15  170.58   3
   3   1   2 3100.38  126.38   2
  -3   1  -2 3093.64  164.15   4
   5  -1   2 4821.89  191.85   1
   5  -1   2 4555.17  185.04   2
  -5  -1  -2 4470.41  193.99   4
  -5  -1  -2 4210.33  275.01   3
   5   1   2 4261.74  183.25   2
  -5   1  -2 4380.60  265.24   3
  -5   1  -2 4070.16  229.61   4
   5   1   2 4369.16  180.53   1
   7  -1   2 1620.86  115.31   1
   7  -1   2 1833.50  112.56   2
  -7  -1  -2 2216.83  243.66   3
  -7   1  -2 1990.15  226.74   3
   7   1   2 1863.85  113.85   1
   7   1   2 2081.95  117.44   2
  -7   1  -2 2082.93  183.70   4
   9  -1   2 869.652 106.070   1
  -9  -1  -2 1201.99  214.56   3
   9  -1   2 1151.11  107.72   2
   9   1   2 1262.31  113.55   2
   9   1   2 1137.52  113.25   1
  -9   1  -2 1139.70  207.99   3
 -11  -1  -2 1293.60  242.55   3
  11  -1   2 1337.12  128.57   2
  11  -1   2 1532.17  152.87   1
 -11   1  -2 1075.11  225.45   3
  11   1   2 1418.65  132.13   2
  11   1   2 1432.31  143.92   1
 -13  -1  -2 566.450 217.182   3
 -13   1  -2 692.755 237.731   3
 -14  -2   2 1047.46  281.76   3
  14  -2  -2 805.251 150.092   1
 -14   2   2 922.728 263.317   3
  14   2  -2 982.390 148.948   1
 -12  -2   2 1607.25  284.88   3
  12  -2  -2 1257.17  163.85   1
 -12   2   2 877.641 214.788   3
  12   2  -2 1234.36  146.21   1
  10  -2  -2 897.681 125.891   1
 -10  -2   2 583.616 165.670   3
 -10   2   2 955.117 185.024   3
 -10   2   2 1003.61  158.95   4
  10   2  -2 1031.94   98.34   2
  10   2  -2 733.102 103.324   1
  -8  -2   2 1684.96  146.49   2
  -8  -2   2 1546.52  212.89   3
   8  -2  -2 1140.10  131.84   1
  -8   2   2 1554.24  178.60   4
  -8   2   2 1849.52  207.22   3
   8   2  -2 1639.95  132.95   1
  -6  -2   2 1141.41  110.14   2
   6  -2  -2 1121.96   61.72   2
  -6  -2   2 887.702 144.356   3
   6  -2  -2 1048.18  109.37   1
  -6   2   2 1315.26  153.13   4
   6   2  -2 1096.25   97.47   1
  -6   2   2 895.302 125.553   3
   4  -2  -2 3198.49  156.06   1
   4  -2  -2 2947.83  116.87   2
  -4  -2   2 2979.82  189.43   3
  -4  -2   2 3042.18  153.13   2
  -4   2   2 2612.97  182.40   4
   4   2  -2 2825.89  138.48   1
  -4   2   2 3135.48  175.14   3
   2  -2  -2 6482.39  265.00   1
  -2  -2   2 6730.10  284.53   3
   2  -2  -2 6685.82  230.46   2
  -2  -2   2 6497.81  248.44   2
   2   2  -2 6434.99  262.64   4
   2   2  -2 6447.96  242.11   1
  -2   2   2 6589.52  272.35   3
   0  -2   2 6287.69  252.76   1
   0  -2  -2 6046.12  279.27   3
   0  -2  -2 6234.42  256.40   1
   0  -2   2 6358.92  240.90   3
   0  -2   2 6369.49  236.34   2
   0  -2  -2 6597.85  241.67   2
   0   2  -2 6148.20  269.04   4
   2  -2   2 7004.20  264.38   2
  -2  -2  -2 7441.70  287.72   2
   2  -2   2 7299.03  283.11   1
  -2  -2  -2 7293.98  345.14   3
  -2   2  -2 7224.92  297.11   3
   2   2   2 7216.36  261.99   1
  -2   2  -2 7367.39  321.69   4
  -4  -2  -2 2260.06  207.19   3
   4  -2   2 2012.40  117.43   1
   4  -2   2 2109.37  107.84   2
  -4  -2  -2 1977.02  128.90   2
  -4   2  -2 1683.21  157.09   3
  -4   2  -2 2311.96  157.39   4
   4   2   2 1956.44  100.95   1
  -6  -2  -2 1467.40  193.48   3
   6  -2   2 1840.49  117.89   1
   6  -2   2 1564.92  100.10   2
   6   2   2 1455.19   95.55   1
   6   2   2 1456.13   98.44   2
  -6   2  -2 1571.24  179.64   3
  -6   2  -2 1545.14  162.75   4
   8  -2   2 850.318 107.021   1
  -8  -2  -2 548.653 156.125   3
   8  -2   2 723.860  84.123   2
   8   2   2 935.669  96.894   1
   8   2   2 1395.55  116.95   2
  -8   2  -2 1116.80  178.93   3
  -8   2  -2 1192.25  164.11   4
 -10  -2  -2 1277.21  243.61   3
  10  -2   2 1471.35  129.00   2
  10  -2   2 1148.77  140.06   1
  10   2   2 1252.42  125.50   2
  10   2   2 1181.85  126.30   1
 -10   2  -2 1685.52  255.31   3
 -12  -2  -2 983.529 253.773   3
  12   2   2 830.540 122.787   1
  12   2   2 832.689 113.336   2
 -12   2  -2 650.946 221.022   3
  13  -3  -2 1255.36  179.76   1
 -13  -3   2 1160.65  263.99   3
  13   3  -2 718.621 124.575   1
 -11  -3   2 788.751 210.153   3
  11  -3  -2 1177.88  155.89   1
 -11   3   2 1024.86  188.80   4
  11   3  -2 1289.76  142.26   1
 -11   3   2 1088.10  221.04   3
  11   3  -2 1222.47  121.46   2
  -9  -3   2 2012.98  268.61   3
  -9  -3   2 1960.78  181.75   2
   9  -3  -2 2286.19  198.91   1
  -9   3   2 2223.79  239.95   4
   9   3  -2 2209.01  151.54   1
  -9   3   2 2052.96  239.59   3
  -7  -3   2 503.661  87.758   2
   7  -3  -2 691.052 100.145   1
  -7  -3   2 597.352 138.288   3
  -7   3   2 650.651 126.482   4
  -7   3   2 429.811 105.210   3
   7   3  -2 554.391  78.526   1
   5  -3  -2 4298.35  227.19   1
   5  -3  -2 4549.22  181.26   2
  -5  -3   2 4408.11  273.36   3
  -5  -3   2 4563.98  223.34   2
  -5   3   2 4137.01  265.92   4
   5   3  -2 4395.72  202.47   1
  -5   3   2 4633.63  244.32   3
   3  -3  -2 2865.44  133.35   2
  -3  -3   2 2931.41  180.78   3
   3  -3  -2 3039.85  168.52   1
  -3  -3   2 2991.95  157.79   2
  -3   3   2 2950.10  195.64   4
   3   3  -2 3056.57  144.58   1
  -3   3   2 3072.52  160.73   3
   3   3  -2 2889.95  150.60   4
  -1  -3   2 2851.83  147.50   2
   1  -3  -2 3174.45  173.03   1
  -1  -3   2 3118.18  145.13   3
   1  -3  -2 3012.22  143.79   2
   1   3  -2 2861.22  135.85   1
   1   3  -2 2707.34  162.29   4
  -1   3   2 3010.53  148.80   3
  -1   3   2 2961.71  182.06   4
   1  -3   2 2106.44  135.22   1
  -1  -3  -2 2178.15  145.30   1
  -1  -3  -2 1891.57  123.83   2
   1  -3   2 1980.99  113.61   2
  -1  -3  -2 2331.96  155.77   3
  -1   3  -2 1923.04  161.98   4
   1   3   2 2165.17  132.06   4
   3  -3   2 7286.58  309.50   1
   3  -3   2 7103.61  278.45   2
  -3  -3  -2 7377.85  371.06   3
  -3  -3  -2 6760.27  306.31   2
   3   3   2 7475.14  278.12   1
  -3   3  -2 7084.23  349.16   4
  -3   3  -2 7264.02  305.20   3
  -5  -3  -2 544.982 123.023   3
   5  -3   2 1218.26  100.35   2
  -5  -3  -2 528.747  92.681   2
   5  -3   2 1009.90  108.16   1
  -5   3  -2 1097.90  144.47   4
  -5   3  -2 837.972 118.001   3
   5   3   2 868.095  81.394   1
   7  -3   2 1265.97  137.21   1
  -7  -3  -2 1583.94  163.09   2
   7  -3   2 1343.04  116.46   2
  -7  -3  -2 1562.28  224.11   3
  -7   3  -2 1861.22  207.31   3
   7   3   2 1376.96  116.42   1
  -7   3  -2 1250.60  168.91   4
   9  -3   2 2121.05  193.34   1
   9  -3   2 2270.50  147.40   2
  -9  -3  -2 1620.84  259.80   3
   9   3   2 2285.12  147.91   2
  -9   3  -2 1959.76  236.22   4
   9   3   2 2451.90  155.03   1
  -9   3  -2 2536.07  285.31   3
 -11  -3  -2 875.096 223.882   3
  11  -3   2 774.240 132.296   1
  11   3   2 622.717 107.667   1
  11   3   2 669.817 104.102   2
 -13  -3  -2 782.524 260.549   3
  13   3   2 804.949 124.980   2
  14  -4  -2 319.370 134.645   1
 -12  -4   2 1497.54  274.75   3
 -12  -4   2 1033.48  163.36   2
  12  -4  -2 1029.82  168.58   1
 -12   4   2 911.591 196.581   4
  12   4  -2 827.311 133.266   1
 -10  -4   2 1252.71  165.70   2
 -10  -4   2 1030.33  222.03   3
  10  -4  -2 905.012 149.449   1
  10   4  -2 1229.49  137.46   1
 -10   4   2 1030.96  191.36   4
  -8  -4   2 3215.60  215.12   2
   8  -4  -2 2958.85  243.54   1
  -8  -4   2 3627.55  342.93   3
   8   4  -2 3117.16  186.75   1
  -8   4   2 3032.21  294.83   4
  -8   4   2 3129.46  280.22   3
   6  -4  -2 2728.83  221.98   1
   6  -4  -2 2658.78  139.84   2
  -6  -4   2 2110.44  236.97   3
  -6  -4   2 2766.83  184.46   2
   6   4  -2 3014.40  164.31   1
  -6   4   2 2349.69  243.20   4
  -6   4   2 2683.50  189.93   3
  -4  -4   2 1870.47  179.11   3
   4  -4  -2 1812.14  166.74   1
   4  -4  -2 1788.44  110.10   2
  -4  -4   2 1656.67  151.00   2
  -4   4   2 1829.93  197.41   4
  -4   4   2 2038.36  133.81   3
   4   4  -2 1917.11  122.02   4
  -2  -4   2 2658.08  152.78   3
   2  -4  -2 2341.56  133.09   2
  -2  -4   2 2579.07  148.69   2
   2  -4  -2 1948.44  178.41   1
   2   4  -2 2365.23  152.58   4
  -2   4   2 2501.75  211.72   4
   2   4  -2 2349.39  131.14   1
  -2   4   2 2388.98  133.46   3
   0  -4   2 1829.79  165.24   1
   0  -4  -2 1905.00  128.83   2
   0  -4   2 1883.86  146.01   2
   0  -4  -2 1861.36  137.20   3
   0  -4  -2 2107.16  182.45   1
   0   4  -2 1851.34  165.25   4
   0   4   2 2143.44  151.98   4
  -2  -4  -2 1422.40  135.91   2
   2  -4   2 1385.51  144.58   1
   2  -4   2 1485.08  122.13   2
  -2  -4  -2 1742.07  173.61   3
   2   4   2 1438.61  128.52   4
   2   4   2 1648.27  102.63   1
  -2   4  -2 1498.12  160.34   4
   4  -4   2 1332.21  141.50   1
  -4  -4  -2 1458.87  148.53   2
  -4  -4  -2 1072.24  163.13   3
   4  -4   2 1364.68  116.15   2
  -4   4  -2 1176.95  161.24   4
   4   4   2 1212.84  103.69   1
   6  -4   2 3720.06  188.66   2
  -6  -4  -2 3344.82  227.17   2
   6  -4   2 3308.77  216.48   1
  -6  -4  -2 3972.22  339.57   3
   6   4   2 4076.09  194.03   1
  -6   4  -2 3638.05  266.99   4
  -8  -4  -2 1511.78  182.33   2
  -8  -4  -2 2072.12  273.93   3
   8  -4   2 1512.62  138.28   2
   8  -4   2 2063.46  193.15   1
  -8   4  -2 2051.20  239.90   4
   8   4   2 1936.46  156.49   1
 -10  -4  -2 740.937 203.468   3
  10  -4   2 1358.68  174.68   1
  10   4   2 1099.96  130.24   1
  10   4   2 1585.80  152.03   2
 -10   4  -2 1478.21  234.24   4
 -12  -4  -2 399.278 202.941   3
  12   4   2 459.328 110.395   1
  12   4   2 705.045 115.460   2
 -13  -5   2 510.904 235.235   3
  13  -5  -2 597.339 159.261   1
 -13   5   2 616.314 212.150   4
  13   5  -2 656.722 133.079   1
 -11  -5   2 1251.35  178.53   2
  11  -5  -2 800.252 159.471   1
 -11  -5   2 930.482 239.281   3
  11   5  -2 899.287 136.088   1
 -11   5   2 1194.40  229.10   4
  -9  -5   2 906.467 140.612   2
   9  -5  -2 714.612 132.998   1
  -9  -5   2 839.864 195.896   3
  -9   5   2 905.688 189.092   4
   9   5  -2 770.801 117.513   1
  -7  -5   2 1782.50  228.19   3
   7  -5  -2 1528.33  178.30   1
  -7  -5   2 1461.17  172.10   2
  -7   5   2 1233.09  197.42   4
   7   5  -2 1300.92  136.91   1
   5  -5  -2 1801.09  196.50   1
   5  -5  -2 1959.81  148.64   2
  -5  -5   2 1907.11  184.03   2
  -5  -5   2 2018.66  218.64   3
  -5   5   2 2104.94  232.07   4
   3  -5  -2 3151.06  175.51   2
  -3  -5   2 3151.11  195.95   2
   3  -5  -2 3090.15  216.65   1
  -3  -5   2 3000.30  202.05   3
  -3   5   2 3244.49  272.38   4
   3   5  -2 3392.70  195.71   4
   3   5  -2 3497.77  178.24   1
  -1  -5   2 1763.63  153.55   2
   1  -5  -2 1633.56  143.67   2
   1  -5  -2 1528.58  171.55   1
   1   5  -2 1765.91  169.37   4
  -1   5   2 1605.40  175.14   4
  -1   5   2 1534.54  108.46   3
   1   5  -2 1604.89  130.96   1
  -1  -5  -2 2462.36  191.10   2
  -1  -5  -2 2581.08  224.17   1
  -1  -5  -2 2091.17  190.59   3
   1  -5   2 2583.78  225.56   1
   1  -5   2 2169.18  149.53   2
  -1   5  -2 2052.90  203.30   4
   1   5   2 2395.33  172.54   4
   3  -5   2 1362.40  160.26   1
  -3  -5  -2 1603.37  190.00   3
   3  -5   2 1410.94  133.08   2
  -3  -5  -2 1610.57  165.01   2
   3   5   2 1355.69  133.13   4
  -3   5  -2 1250.64  170.60   4
   3   5   2 1567.47  131.79   1
   5  -5   2 1714.50  148.68   2
  -5  -5  -2 1919.27  236.35   3
   5  -5   2 1687.21  181.94   1
  -5  -5  -2 1319.42  160.55   2
   5   5   2 1655.19  139.52   1
  -5   5  -2 1506.92  205.36   4
   7  -5   2 1310.50  169.28   1
  -7  -5  -2 1004.91  199.64   3
  -7  -5  -2 850.378 141.831   2
   7  -5   2 933.032 110.426   2
  -7   5  -2 859.642 170.116   4
   7   5   2 1161.85  122.90   1
  -9  -5  -2 1079.82  238.50   3
  -9  -5  -2 1219.00  177.60   2
   9  -5   2 1070.82  161.73   1
   9   5   2 1048.02  128.44   1
  -9   5  -2 796.812 179.099   4
 -11  -5  -2 1163.58  271.74   3
  11   5   2 1068.85  141.18   1
 -11   5  -2 1139.11  240.32   4
  11   5   2 1086.99  143.76   2
 -12  -6   2 284.005 224.002   3
  12  -6  -2 329.997 132.484   1
 -12  -6   2 433.491 136.011   2
  12   6  -2 105.837  80.480   1
 -12   6   2  90.961 149.715   4
  10  -6  -2 672.887 153.302   1
 -10  -6   2 490.606 127.386   2
 -10  -6   2 497.977 187.050   3
 -10   6   2 494.605 176.448   4
  10   6  -2 676.250 123.306   1
  -8  -6   2 650.235 168.487   3
  -8  -6   2 512.495 121.661   2
   8  -6  -2 212.336  96.099   1
  -8   6   2 566.262 166.027   4
   8   6  -2 380.129  90.922   1
   6  -6  -2 1741.29  205.01   1
  -6  -6   2 1370.88  173.51   2
  -6   6   2 1788.87  240.25   4
   6   6  -2 1366.96  145.99   1
   4  -6  -2 1091.27  124.99   2
  -4  -6   2 973.263 142.483   2
   4  -6  -2 1150.84  164.53   1
  -4   6   2 1065.31  182.14   4
   4   6  -2 1270.80  127.84   1
   2  -6  -2 2424.10  191.30   2
   2  -6  -2 2616.71  247.49   1
  -2  -6   2 2262.34  198.00   2
   2   6  -2 2102.84  149.36   1
  -2   6   2 2404.02  248.07   4
   2   6  -2 2652.89  217.89   4
   0  -6   2 4774.46  252.23   2
   0  -6   2 4579.13  292.71   1
   0  -6  -2 4025.11  333.07   1
   0  -6  -2 4749.04  258.16   2
   0   6   2 4359.22  284.11   4
   0   6  -2 4753.57  289.49   4
  -2  -6  -2 628.231 111.954   2
   2  -6   2 609.998 123.930   1
   2  -6   2 774.796 112.426   2
   2   6   2 641.026 113.926   4
   2   6   2 494.586  82.368   1
  -2   6  -2 652.025 138.290   4
   4  -6   2 1537.76  152.27   2
  -4  -6  -2 1588.68  211.91   3
  -4  -6  -2 2037.89  197.04   2
   4  -6   2 1295.33  177.71   1
  -4   6  -2 1585.45  213.70   4
   4   6   2 1452.64  138.02   1
   6  -6   2 746.400 142.573   1
   6  -6   2 483.392  92.614   2
  -6  -6  -2 723.006 131.732   2
  -6  -6  -2 558.435 165.616   3
  -6   6  -2 340.987 131.111   4
   6   6   2 586.906  94.284   1
  -8  -6  -2 634.325 143.152   2
   8  -6   2 891.502 122.909   2
  -8  -6  -2 1081.68  233.66   3
   8  -6   2 1163.69  181.23   1
  -8   6  -2 372.465 156.317   4
   8   6   2 882.618 121.672   1
 -10  -6  -2 118.136 183.621   3
  10  -6   2 412.185 138.626   1
 -10  -6  -2 226.665 119.278   2
 -10   6  -2 412.083 188.592   4
  10   6   2 357.609  97.991   1
 -11  -7   2 852.963 180.299   2
  11  -7  -2 720.139 186.836   1
  -9  -7   2 672.153 152.369   2
   9  -7  -2 234.842 126.459   1
  -9   7   2 584.600 181.545   4
   9   7  -2 751.637 132.946   1
  -7  -7   2 1331.11  190.27   2
   7  -7  -2 855.876 163.516   1
   7   7  -2 1669.01  175.27   1
  -7   7   2 983.339 209.867   4
   5  -7  -2 1122.28  183.19   1
  -5  -7   2 594.655 126.250   2
  -5   7   2 637.954 167.192   4
   5   7  -2 770.701 117.568   1
   3  -7  -2 1604.18  166.90   2
   3  -7  -2 1493.26  207.63   1
  -3  -7   2 1316.90  170.71   2
  -3   7   2 1830.28  239.45   4
   3   7  -2 1564.42  151.70   1
   1  -7  -2 687.548 152.081   1
  -1  -7   2 790.712 126.087   2
   1  -7  -2 461.801 103.948   2
   1   7  -2 603.785 134.855   4
  -1   7   2 549.653 137.221   4
   1   7  -2 749.431 104.024   1
  -1  -7  -2 1358.32  170.33   2
   1  -7   2 1996.44  234.99   1
   1  -7   2 1844.05  185.33   2
  -1   7  -2 1885.62  224.41   4
   1   7   2 1636.51  161.73   1
   1   7   2 1487.76  192.26   4
   3  -7   2 885.407 166.575   1
   3  -7   2 1027.41  139.49   2
  -3  -7  -2 1179.04  161.49   2
  -3   7  -2 1424.12  217.44   4
   3   7   2 1171.81  135.18   1
   5  -7   2 917.116 134.310   2
  -5  -7  -2 898.918 153.264   2
   5  -7   2 1323.51  192.02   1
  -5   7  -2 1291.14  225.85   4
   5   7   2 1067.13  131.64   1
  -7  -7  -2 585.693 138.622   2
   7  -7   2 874.969 135.038   2
   7  -7   2 537.806 145.209   1
  -7   7  -2 361.233 162.628   4
   7   7   2 892.157 127.413   1
   9  -7   2 452.234 154.085   1
  -9  -7  -2 594.912 146.941   2
   9   7   2 499.865 115.967   1
  -9   7  -2 853.540 228.677   4
   8  -8  -2 1300.36  222.28   1
  -8  -8   2 1279.89  201.23   2
  -8   8   2 1140.94  241.29   4
   8   8  -2 1295.51  172.65   1
  -6  -8   2 1101.47  179.57   2
   6  -8  -2 878.207 181.929   1
  -6   8   2 613.796 187.309   4
   6   8  -2 1091.33  147.08   1
  -4  -8   2 662.199 143.737   2
   4  -8  -2 597.182 153.174   1
   4   8  -2 746.773 119.162   1
  -4   8   2 876.768 210.180   4
  -2  -8   2 835.071 145.638   2
   2  -8  -2 406.025 126.435   1
   2  -8  -2 564.889 120.866   2
   2   8  -2 699.835 110.999   1
  -2   8   2 511.922 159.246   4
   0  -8  -2 311.797 130.930   1
   0  -8  -2 467.465 119.244   2
   0  -8   2 351.051 107.867   2
   0   8  -2 333.731 133.644   4
   0   8   2 273.181 120.914   4
   0   8  -2 259.215  79.977   1
   2  -8   2 1240.22  160.65   2
   2  -8   2 1152.21  200.37   1
  -2  -8  -2 1100.75  172.38   2
   2   8   2 1102.74  138.89   1
  -2   8  -2 1101.05  211.54   4
   4  -8   2 692.106 127.217   2
   4  -8   2 909.344 183.827   1
  -4  -8  -2 854.533 160.255   2
   4   8   2 1119.56  140.64   1
  -4   8  -2 1203.95  220.61   4
   6  -8   2 1150.12  167.65   2
  -6  -8  -2 1259.11  192.42   2
   6  -8   2 1457.77  215.55   1
   6   8   2 1211.10  157.85   1
  -6   8  -2 747.547 209.531   4
   8  -8   2 1022.17  200.71   1
  -8  -8  -2 1047.48  205.60   2
   8   8   2 873.799 149.284   1
  -8   8  -2 462.914 208.088   4
   5  -9  -2 697.451 179.928   1
  -5  -9   2 1184.98  201.73   2
  -5   9   2 1071.91  248.40   4
   5   9  -2 1159.31  165.89   1
   3  -9  -2 398.427 141.963   1
  -3  -9   2 483.947 144.033   2
   3   9  -2 531.700 111.397   1
  -3   9   2 523.273 180.229   4
   1  -9  -2 934.897 203.005   1
  -1  -9   2 1120.95  181.11   2
   1  -9  -2 716.869 150.488   2
   1   9  -2 1060.59  143.62   1
  -1   9   2 1062.42  211.33   4
   1  -9   2 565.978 132.525   2
  -1  -9  -2 302.087 119.334   2
  -1   9  -2 491.327 172.130   4
  -1   9  -2 636.238 119.360   1
   1   9   2 130.945  75.579   1
  -3  -9  -2 943.480 171.723   2
   3  -9   2 1252.42  222.58   1
   3  -9   2 880.076 153.103   2
  -3   9  -2 1552.76  270.56   4
   3   9   2 1299.06  167.99   1
   5  -9   2 316.054 150.279   1
   5  -9   2 515.180 130.821   2
  -5  -9  -2 517.926 150.349   2
  -5   9  -2 586.646 224.993   4
   5   9   2 592.915 127.475   1
   7  -9   2 260.463 157.500   1
  -4  10   2 319.700 190.293   4
   0 -10   2 862.185 170.927   2
   0 -10  -2 804.300 171.582   2
   0  10   2 362.573 110.549   1
   0  10  -2 565.547 122.768   1
   2 -10   2 1015.32  187.76   2
  -2 -10  -2 1138.09  206.80   2
  -2  10  -2 509.808 118.532   1
  -2  10  -2 1115.62  248.24   4
   4 -10   2 279.509 129.952   2
  14   0  -3 56.2911 72.7695   1
 -14   0   3  61.313 172.631   3
 -12   0   3  20.240 126.101   3
  12   0  -3 -7.8752 45.2155   1
 -10   0   3  63.929 108.698   3
  10   0  -3 77.5683 50.1749   1
   8   0  -3 14.7316 34.3761   1
  -8   0   3 -35.373  48.836   4
   8   0  -3 -14.443  16.094   2
  -8   0   3 11.7928 65.7451   3
  -6   0   3 -83.927  49.041   3
   6   0  -3 16.2279 26.0964   1
   6   0  -3 -0.7250 12.6518   2
   4   0  -3 -21.872  20.241   1
  -4   0   3 -16.446  14.376   2
  -4   0   3 12.7987 43.1432   3
  -2   0   3 -25.458  28.097   3
   2   0  -3 -3.0864 14.9662   1
  -2   0   3  0.4603 10.8837   2
   0   0  -3 -46.851  31.923   3
   0   0   3 21.7235 12.3374   2
   0   0  -3 8.06845 8.92933   1
  -2   0  -3 -22.792  29.286   4
   2   0   3 -1.9363 13.6406   2
  -2   0  -3 -29.771  39.090   3
   2   0   3 -3.1218 10.1501   1
  -4   0  -3 17.1382 37.7412   4
   4   0   3 -20.073  14.342   2
   4   0   3 -12.820  16.887   1
  -4   0  -3 34.9314 56.9840   3
  -6   0  -3 -42.574  43.389   4
   6   0   3 -0.2769 24.7586   1
   6   0   3 15.6476 25.8997   2
  -6   0  -3 -54.202  55.340   3
   8   0   3 16.6189 32.6353   2
  -8   0  -3 -53.443  70.051   3
   8   0   3 23.8922 31.6648   1
 -10   0  -3 -59.443 103.369   3
  10   0   3 18.8718 42.8101   2
  10   0   3 29.6386 49.0923   1
  12   0   3 21.4591 51.3963   2
 -12   0  -3 148.973 149.001   3
  15  -1  -3 -43.161  82.418   1
  15   1  -3 -18.941  70.758   1
 -15   1   3  64.872 207.322   3
 -13  -1   3 -30.222 131.928   3
  13  -1  -3 70.4887 68.2607   1
 -13   1   3 214.042 163.818   3
  13   1  -3 45.6553 61.4915   1
 -11  -1   3 173.907 130.768   3
  11  -1  -3 285.018  79.481   1
  11   1  -3 309.923  77.446   1
 -11   1   3 206.641 126.002   3
  -9  -1   3 -74.031  75.311   3
   9  -1  -3 -2.3489 41.9214   1
  -9   1   3 -23.369  83.654   3
   9   1  -3 43.3949 24.6932   2
  -9   1   3 10.2350 63.2362   4
   9   1  -3 17.8286 39.6502   1
  -7  -1   3 -4.6497 63.3871   3
   7  -1  -3 14.5090 15.9898   2
  -7  -1   3 -8.4720 29.9592   2
   7  -1  -3 -10.399  29.131   1
  -7   1   3 -64.357  52.550   3
   7   1  -3 25.0184 30.5183   1
  -7   1   3 -1.0833 49.1884   4
  -5  -1   3 -10.878  52.040   3
  -5  -1   3 27.1194 27.5791   2
   5  -1  -3  3.6588 10.9184   2
   5  -1  -3 -25.584  21.846   1
  -5   1   3 -4.8183 46.3248   3
   5   1  -3  4.4502 24.4293   1
   3  -1  -3 109.250  29.472   1
  -3  -1   3 10.7240 38.9933   3
  -3  -1   3 135.288  29.075   2
   3   1  -3 93.6381 25.7224   1
  -3   1   3 87.1249 41.0378   3
  -1  -1   3 632.842  68.780   3
   1  -1  -3 726.220  59.649   1
  -1  -1   3 771.406  50.147   2
   1   1  -3 710.299  41.452   1
   1   1  -3 644.201  73.999   4
  -1   1   3 609.384  72.672   3
  -1   1   3 783.277  37.401   2
   1  -1   3 2558.49  106.92   1
  -1  -1  -3 2798.57  170.83   3
   1  -1   3 2598.18  112.73   2
   1   1   3 2670.97   99.95   1
  -1   1  -3 2705.18  149.49   4
  -1   1  -3 2581.09  151.56   3
   1   1   3 2545.29  106.10   2
  -3  -1  -3 211.198  71.827   3
   3  -1   3 103.503  28.010   2
   3  -1   3 85.2751 26.5866   1
  -3   1  -3 122.719  53.327   4
  -3   1  -3 48.1723 43.9742   3
   3   1   3 74.5745 19.3844   1
   3   1   3 45.6188 21.2538   2
   5  -1   3 206.186  41.853   2
  -5  -1  -3 237.871  56.113   4
  -5  -1  -3 183.261  80.633   3
   5  -1   3 222.078  42.610   1
  -5   1  -3 250.033  83.279   3
  -5   1  -3 151.881  63.515   4
   5   1   3 179.686  35.781   1
   5   1   3 110.573  32.863   2
  -7  -1  -3 77.4200 83.1744   3
   7  -1   3  6.2058 28.2375   2
   7  -1   3 -14.497  31.573   1
   7   1   3 -11.310  22.838   2
  -7   1  -3 -30.198  75.312   3
  -7   1  -3 -23.718  59.404   4
   7   1   3 -29.959  26.692   1
   9  -1   3  5.3645 35.5634   2
   9  -1   3 20.1458 41.0737   1
  -9  -1  -3  36.762 111.722   3
   9   1   3 -15.537  35.112   1
  -9   1  -3  67.114 116.807   3
   9   1   3 30.6046 38.6904   2
  11  -1   3 -24.171  40.387   2
 -11  -1  -3 102.970 146.660   3
 -11   1  -3 173.364 150.413   3
  11   1   3 88.6392 48.7353   2
 -13  -1  -3 -140.36  153.15   3
 -13   1  -3   9.888 186.762   3
  13   1   3 64.3420 67.2409   2
  14  -2  -3 66.4566 72.2858   1
 -14  -2   3 -38.691 160.578   3
  14   2  -3 -4.1572 72.9450   1
 -14   2   3  21.748 158.057   3
  12  -2  -3 -25.609  60.609   1
 -12  -2   3 297.783 153.221   3
 -12   2   3 142.840 132.760   3
  12   2  -3 13.1580 52.6230   1
 -10  -2   3 18.2851 89.3138   3
  10  -2  -3 227.064  71.475   1
 -10  -2   3 100.375  61.545   2
  10   2  -3 145.075  62.399   1
 -10   2   3 196.220 124.827   3
 -10   2   3 265.511 100.461   4
  -8  -2   3 73.7634 49.9573   2
   8  -2  -3 126.606  51.780   1
  -8  -2   3 304.049 109.934   3
  -8   2   3 91.9324 76.8755   4
  -8   2   3 56.7186 74.1895   3
   8   2  -3 167.584  49.852   1
   6  -2  -3 267.618  31.477   2
  -6  -2   3 224.727  88.701   3
  -6  -2   3 155.376  48.609   2
   6  -2  -3 275.131  61.101   1
  -6   2   3 125.574  66.489   3
   6   2  -3 275.073  51.318   1
  -6   2   3 220.201  76.646   4
  -4  -2   3 19.3435 28.4880   2
  -4  -2   3  4.1690 50.7670   3
   4  -2  -3 -17.158  21.729   1
   4  -2  -3 -1.3546 14.1192   2
  -4   2   3  3.1448 36.4559   3
   4   2  -3 20.6855 22.9190   1
   2  -2  -3 168.477  31.218   2
  -2  -2   3 155.681  37.195   2
   2  -2  -3 150.773  40.202   1
  -2  -2   3 137.366  46.793   3
   2   2  -3 144.684  46.575   4
  -2   2   3 181.193  44.370   3
   2   2  -3 161.868  29.346   1
   0  -2   3 75.4172 30.9852   3
   0  -2  -3 10.9633 44.2154   3
   0  -2   3 43.7425 25.3687   2
   0  -2  -3 42.9270 27.5773   2
   0  -2  -3 79.0336 37.5548   1
   0   2  -3 41.6408 19.1563   1
   0   2  -3 14.0392 36.4362   4
  -2  -2  -3 -15.022  51.327   3
  -2  -2  -3 -31.006  20.563   2
   2  -2   3 -4.9713 25.7496   1
   2  -2   3 10.6667 21.0474   2
  -2   2  -3 -47.913  36.516   3
  -2   2  -3 33.2245 49.3602   4
   2   2   3 -9.0446 12.7717   1
  -4  -2  -3  4.8017 60.4678   3
   4  -2   3 18.5450 31.3265   1
   4  -2   3 35.8987 27.3954   2
  -4  -2  -3 17.2044 33.4161   2
   4   2   3 43.6765 22.1740   1
  -4   2  -3 14.8540 51.0964   4
  -4   2  -3 10.7947 50.9397   3
   4   2   3  6.6507 19.3061   2
  -6  -2  -3 -25.075  69.890   3
   6  -2   3 -15.316  29.734   1
   6  -2   3 13.6714 30.7087   2
  -6   2  -3 -16.239  57.883   4
  -6   2  -3 26.1351 66.3715   3
   6   2   3 34.2865 28.8369   2
   6   2   3 36.4289 27.5139   1
  -8  -2  -3 239.431 111.722   3
   8  -2   3 217.173  61.501   1
   8  -2   3 264.386  57.925   2
   8   2   3 281.455  61.586   1
  -8   2  -3 296.610  99.981   4
   8   2   3 151.990  50.230   2
  -8   2  -3 -63.337  77.940   3
 -10  -2  -3  85.833 136.933   3
  10  -2   3 12.7473 41.3499   2
 -10   2  -3 -35.933 121.555   3
  10   2   3 -17.409  35.508   2
  10   2   3 -17.022  43.424   1
 -12  -2  -3 -42.732 148.258   3
 -12   2  -3 -96.145 155.093   3
  12   2   3 74.5612 53.1451   2
  13  -3  -3 -19.988  72.779   1
 -13  -3   3  95.256 158.878   3
  13   3  -3 14.3263 58.9529   1
 -13   3   3 196.554 145.887   3
  11  -3  -3 22.4580 62.9261   1
 -11  -3   3  14.620 124.253   3
 -11   3   3 70.9582 93.4067   4
 -11   3   3  78.009 116.485   3
  11   3  -3 13.0160 45.3628   1
   9  -3  -3 18.6403 45.9697   1
  -9  -3   3  5.6697 92.8117   3
  -9  -3   3 -33.674  48.715   2
  -9   3   3  8.2796 73.3079   4
   9   3  -3 83.2032 45.6471   1
  -9   3   3 65.7351 97.6957   3
   7  -3  -3 83.2767 42.9545   1
  -7  -3   3 39.1587 69.3124   3
  -7  -3   3 31.2009 47.8690   2
  -7   3   3 151.542  82.253   4
   7   3  -3 16.8631 32.3696   1
  -7   3   3 117.978  72.090   3
   5  -3  -3 683.621  60.432   2
  -5  -3   3 493.422  76.863   2
   5  -3  -3 684.942  94.876   1
  -5  -3   3 456.369 102.315   3
  -5   3   3 433.219 102.817   4
   5   3  -3 569.405  71.721   1
  -5   3   3 535.211  94.593   3
   3  -3  -3 486.657  54.778   2
   3  -3  -3 425.272  74.346   1
  -3  -3   3 452.036  79.652   3
  -3  -3   3 559.810  72.952   2
   3   3  -3 561.521  63.333   1
  -3   3   3 398.951  83.973   4
  -3   3   3 442.895  71.520   3
   3   3  -3 481.382  71.941   4
  -1  -3   3 130.032  41.782   3
  -1  -3   3 178.595  43.902   2
   1  -3  -3 79.6665 34.7276   2
   1  -3  -3 215.205  56.590   1
   1  -3  -3 223.004  66.108   3
   1   3  -3 139.756  34.233   1
   1   3  -3 204.527  61.708   4
  -1  -3  -3 46.4198 42.5811   1
   1  -3   3 29.2728 26.6141   2
  -1  -3  -3 65.8048 39.0424   2
   1  -3   3 37.6934 26.2661   3
  -1  -3  -3 94.6479 62.5582   3
   1  -3   3 95.2118 42.8639   1
  -1   3  -3 40.1834 50.0314   4
   3  -3   3 98.8924 46.7921   1
   3  -3   3 81.1572 34.1297   2
  -3  -3  -3 148.996  52.125   2
  -3  -3  -3 130.818  76.434   3
  -3   3  -3 65.7188 50.7418   3
   3   3   3 182.958  34.465   1
  -3   3  -3 118.943  66.177   4
  -5  -3  -3 39.3630 88.3205   3
   5  -3   3 12.3376 37.5915   1
  -5  -3  -3 50.5533 50.3852   2
   5  -3   3 -10.569  27.703   2
  -5   3  -3 54.2823 69.6116   4
  -5   3  -3 81.5639 66.5036   3
   5   3   3 20.7249 23.6571   1
   7  -3   3 17.0643 42.7894   1
  -7  -3  -3 802.660 168.493   3
   7  -3   3 71.7616 42.2549   2
   7   3   3 58.0770 37.1130   1
  -7   3  -3 54.6301 78.5851   4
   7   3   3 10.2802 31.4205   2
  -7   3  -3 33.9666 78.3658   3
   9  -3   3 219.856  61.968   2
   9  -3   3 184.099  75.305   1
  -9  -3  -3 355.191 142.664   3
  -9   3  -3  16.803 111.128   3
   9   3   3 102.350  51.252   2
   9   3   3 172.981  61.838   1
  -9   3  -3 114.245 102.917   4
 -11  -3  -3 -36.415 148.334   3
  11   3   3 255.530  73.956   2
  13   3   3 -92.767  59.639   2
 -12  -4   3  61.746 149.227   3
  12  -4  -3 112.630  91.957   1
 -12   4   3  -3.672 119.914   4
  12   4  -3 14.7439 57.9331   1
  10  -4  -3 40.9645 63.3618   1
 -10  -4   3 76.8002 73.1650   2
 -10  -4   3   7.364 113.802   3
 -10   4   3 -43.589  90.106   4
  10   4  -3 -37.132  39.807   1
  -8  -4   3 481.941 100.822   2
   8  -4  -3 498.704 106.086   1
  -8  -4   3 649.641 161.376   3
  -8   4   3 507.086 126.366   3
  -8   4   3 494.179 131.997   4
   8   4  -3 356.977  73.366   1
   6  -4  -3 99.7708 58.7694   1
  -6  -4   3  4.7037 65.7620   3
  -6  -4   3 262.122  71.070   2
  -6   4   3 136.913  74.657   3
   6   4  -3 158.127  49.943   1
  -6   4   3 20.0426 65.6503   4
   4  -4  -3 69.1203 47.2687   1
  -4  -4   3 41.3905 62.4055   3
   4  -4  -3  9.1368 28.3660   2
  -4  -4   3 40.5966 43.0603   2
   4   4  -3 56.0551 49.1838   4
   4   4  -3 71.3387 34.2388   1
  -4   4   3 56.9902 52.3404   3
  -4   4   3 73.0772 58.6516   4
   2  -4  -3 580.582 100.069   1
  -2  -4   3 628.662  83.247   2
   2  -4  -3 629.548  77.486   2
  -2  -4   3 623.228  85.073   3
  -2   4   3 638.042  82.025   3
  -2   4   3 441.181  98.922   4
   2   4  -3 580.160  91.562   4
   2   4  -3 619.051  71.217   1
   0  -4   3 73.0677 40.5699   2
   0  -4   3 -1.2209 40.8085   1
   0  -4   3 80.6992 31.3171   3
   0  -4  -3 -14.877  43.524   1
   0  -4  -3 74.6248 60.2930   3
   0  -4  -3 134.305  47.349   2
   0   4  -3 84.9326 59.2299   4
   0   4   3 50.7904 51.9640   4
  -2  -4  -3 181.347  84.945   3
  -2  -4  -3 38.5677 44.0198   2
   2  -4   3 135.576  55.538   1
   2  -4   3 71.5398 37.3067   2
  -2   4  -3 109.893  74.108   4
   2   4   3 66.6711 46.9940   4
   2   4   3 102.484  34.756   1
   4  -4   3 184.832  49.954   2
  -4  -4  -3 84.3150 53.6889   2
  -4  -4  -3 130.475 101.811   3
   4  -4   3 72.0524 52.4499   1
   4   4   3 90.0704 34.7179   1
  -4   4  -3 184.292  82.815   4
   6  -4   3 28.7084 37.1320   2
  -6  -4  -3 131.228 108.642   3
  -6  -4  -3 151.404  65.452   2
   6  -4   3 198.823  72.926   1
  -6   4  -3 48.1223 79.6272   4
   6   4   3 98.8750 41.6684   1
  -8  -4  -3 -10.645  56.454   2
   8  -4   3 38.9937 64.1429   1
   8  -4   3 55.3558 45.9232   2
  -8  -4  -3 -18.351  97.805   3
  -8   4  -3 33.1129 93.0856   4
   8   4   3 41.3305 41.4955   2
   8   4   3 45.2613 43.4889   1
  10  -4   3 192.627  70.558   2
 -10  -4  -3 -21.418 129.628   3
  10   4   3 262.254  74.314   1
  10   4   3 270.886  78.619   2
 -10   4  -3 177.641 124.586   4
 -12  -4  -3 -164.19  155.02   3
  12   4   3 30.8467 65.3113   2
 -13  -5   3 100.829 188.013   3
  13  -5  -3  55.390 108.159   1
 -13   5   3  91.781 162.798   4
 -11  -5   3 97.1469 93.2957   2
 -11  -5   3 173.034 167.024   3
  11  -5  -3 149.998 102.836   1
  11   5  -3 101.384  69.700   1
 -11   5   3 149.822 127.180   4
  -9  -5   3 118.705 127.584   3
   9  -5  -3 259.778  94.612   1
  -9  -5   3 181.769  87.893   2
   9   5  -3 310.569  77.606   1
  -9   5   3 231.830 118.772   4
   7  -5  -3  0.4100 54.6032   1
  -7  -5   3 -45.828  51.201   2
  -7  -5   3 -93.006  90.615   3
  -7   5   3 49.3240 84.1258   4
   7   5  -3 34.0173 39.7286   1
   5  -5  -3 -7.1949 49.7222   1
  -5  -5   3 10.8225 47.6451   2
  -5  -5   3 75.2685 78.1824   3
   5   5  -3 -31.949  29.109   1
  -5   5   3 74.0331 68.3410   4
  -3  -5   3 57.6059 44.6002   2
   3  -5  -3 28.4780 54.6971   1
   3  -5  -3 58.8656 45.4756   2
  -3  -5   3 166.434  72.246   3
  -3   5   3 60.3894 65.3116   4
   3   5  -3 52.6531 57.9519   4
   3   5  -3 49.0784 35.0152   1
  -3   5   3 90.9809 51.2499   3
  -1  -5   3 518.760  86.947   2
   1  -5  -3 298.315  68.426   2
   1  -5  -3 321.672  93.487   1
  -1   5   3 399.558  95.342   4
   1   5  -3 386.495  62.976   1
  -1   5   3 508.009  81.268   3
   1   5  -3 520.289 102.540   4
   1  -5   3 61.9277 45.4826   2
   1  -5   3 26.2778 51.3611   1
  -1  -5  -3  7.8253 63.5132   3
  -1  -5  -3 64.7956 60.3186   1
  -1  -5  -3  4.1207 44.3188   2
   1   5   3 37.6685 42.1844   4
  -1   5  -3 -33.325  52.073   4
  -3  -5  -3 1472.30  202.07   3
   3  -5   3 1847.42  185.12   1
   3  -5   3 1579.45  143.86   2
  -3  -5  -3 1736.19  173.73   2
  -3   5  -3 1778.06  211.51   4
   3   5   3 1855.16  124.52   1
   3   5   3 1693.43  154.20   4
  -5  -5  -3 175.542  68.228   2
  -5  -5  -3 124.709  89.589   3
   5  -5   3 97.2174 51.2468   2
   5  -5   3 42.6016 61.1654   1
  -5   5  -3 124.316  93.807   4
   5   5   3 43.4685 40.2113   1
  -7  -5  -3 159.512  81.023   2
   7  -5   3 36.2871 43.5237   2
  -7  -5  -3  41.101 122.360   3
   7  -5   3 96.2842 80.0307   1
   7   5   3 20.3524 44.6542   1
  -7   5  -3  25.737 101.456   4
   9  -5   3 28.9928 53.2813   2
  -9  -5  -3 36.5491 77.1661   2
  -9  -5  -3 -25.494 132.857   3
   9   5   3 29.2964 50.8317   2
   9   5   3  5.3332 49.0102   1
  -9   5  -3 -134.07  106.62   4
 -11  -5  -3 -20.706 156.494   3
  11   5   3  0.3024 60.5499   2
 -11   5  -3  14.143 144.862   4
 -12  -6   3 115.871 105.731   2
 -12  -6   3   1.603 185.210   3
  12  -6  -3 -11.554 102.197   1
 -12   6   3 -69.109 150.212   4
 -10  -6   3 20.6336 76.8079   2
 -10  -6   3  91.306 135.657   3
  10  -6  -3 39.2595 91.9275   1
 -10   6   3  62.768 117.505   4
  10   6  -3 115.201  74.903   1
  -8  -6   3 128.449  83.237   2
   8  -6  -3 147.170  89.104   1
  -8  -6   3 104.792 128.498   3
  -8   6   3 150.849 120.667   4
   8   6  -3 141.617  68.220   1
  -6  -6   3 121.278  78.564   2
   6  -6  -3 190.731  88.620   1
   6   6  -3 378.162  77.833   1
  -6   6   3 196.304 114.408   4
  -4  -6   3 102.225  65.756   2
   4  -6  -3 355.215 101.895   1
   4  -6  -3 143.179  61.273   2
   4   6  -3 239.107  59.793   1
  -4   6   3 169.116  93.182   4
   2  -6  -3 15.1834 63.6838   1
   2  -6  -3 29.7459 50.0171   2
  -2  -6   3 -20.426  43.533   2
   2   6  -3 20.8201 34.8924   1
  -2   6   3 23.5963 78.1237   4
   2   6  -3 13.0231 71.5488   4
   0  -6  -3 41.5434 55.0445   2
   0  -6  -3 201.089  87.443   1
   0  -6   3 288.602  76.110   2
   0   6   3 46.5674 67.7742   4
   0   6  -3 301.250  65.749   1
   0   6  -3 185.503  93.844   4
   2  -6   3 154.943  87.284   1
  -2  -6  -3 114.153  60.228   2
   2  -6   3 185.410  64.034   2
   2   6   3 205.562  57.128   1
   2   6   3 103.295  69.252   4
  -2   6  -3 207.264 106.597   4
  -4  -6  -3 -28.521  52.652   2
   4  -6   3  8.7401 70.8496   1
   4  -6   3 76.5541 52.2998   2
  -4  -6  -3 -15.663  95.257   3
   4   6   3 33.9818 39.3453   1
  -4   6  -3 164.642 107.529   4
   6  -6   3 231.683  74.580   2
  -6  -6  -3 386.409 102.485   2
  -6  -6  -3  66.743 132.222   3
   6  -6   3 221.450  97.845   1
   6   6   3 309.169  74.121   1
  -6   6  -3 327.528 134.447   4
   8  -6   3 -7.1179 85.1993   1
  -8  -6  -3 23.8672 69.3248   2
  -8  -6  -3 203.460 164.614   3
   8  -6   3 80.2385 62.2488   2
  -8   6  -3 139.529 136.458   4
   8   6   3 103.470  66.524   1
 -10  -6  -3 -114.02  167.92   3
 -10  -6  -3 140.822 103.519   2
  10   6   3  8.1134 64.9215   2
 -10   6  -3  80.197 155.839   4
  10   6   3 19.3427 69.1772   1
 -11  -7   3  15.269 102.074   2
   9  -7  -3 20.2265 96.7752   1
  -9  -7   3 69.0655 88.4453   2
  -9   7   3 -63.362 122.777   4
   9   7  -3 29.9035 66.7496   1
  -7  -7   3 176.902  91.570   2
   7  -7  -3 252.667 114.345   1
  -7   7   3 372.366 149.722   4
   7   7  -3 428.332  96.181   1
   5  -7  -3 284.562 107.242   1
  -5  -7   3 576.227 127.624   2
   5   7  -3 520.168  99.189   1
  -5   7   3 645.587 166.929   4
   3  -7  -3 369.553 121.743   1
  -3  -7   3 740.535 132.589   2
   3  -7  -3 653.442 111.933   2
  -3   7   3 741.186 160.691   4
   3   7  -3 562.205  94.992   1
  -1  -7   3 107.980  63.050   2
   1  -7  -3 -33.535  53.529   2
   1  -7  -3  9.5863 76.9315   1
  -1   7   3 -56.530  71.348   4
   1   7  -3 28.2614 84.6377   4
   1   7  -3 -31.446  33.230   1
  -1  -7  -3 287.429  87.941   2
   1  -7   3 101.901  69.806   2
   1  -7   3 -18.829  78.185   1
   1   7   3 77.0303 86.9747   4
  -1   7  -3 195.174 110.476   4
   1   7   3 104.658  52.772   1
   3  -7   3 113.580  91.506   1
  -3  -7  -3 17.5432 67.1858   2
   3  -7   3 -7.0291 57.8974   2
  -3   7  -3 -32.819 103.768   4
   3   7   3 -25.541  38.890   1
   5  -7   3 256.226  81.766   2
   5  -7   3 113.762 102.975   1
  -5  -7  -3 171.862  83.461   2
  -5   7  -3 109.739 130.626   4
   5   7   3 136.132  67.027   1
   7  -7   3 113.639 102.865   1
   7  -7   3 56.9951 73.4182   2
  -7  -7  -3  8.5997 86.6965   2
  -7   7  -3 -24.373 127.051   4
   7   7   3 100.327  66.178   1
  -9  -7  -3 366.498 137.627   2
  -9   7  -3 710.296 229.641   4
   9   7   3 260.644  97.714   1
   8  -8  -3 -60.346  83.296   1
  -8  -8   3 -77.222  86.863   2
  -8   8   3 148.102 144.976   4
   8   8  -3 -52.689  56.357   1
  -6  -8   3 647.272 147.075   2
   6  -8  -3 241.309 124.177   1
   6   8  -3 266.714  87.420   1
  -6   8   3 132.680 145.504   4
  -4  -8   3 99.2370 91.6798   2
   4  -8  -3 10.4341 74.1249   1
   4   8  -3 126.076  67.356   1
  -4   8   3 109.383 126.104   4
   2  -8  -3 94.2883 80.9111   2
  -2  -8   3 114.233  82.945   2
   2  -8  -3 137.000 112.459   1
  -2   8   3 135.761 123.819   4
   2   8  -3 118.511  60.346   1
   0  -8  -3 157.174  85.958   2
   0  -8   3 258.418  95.988   2
   0  -8  -3 614.351 158.275   1
   0   8  -3 212.504  69.161   1
   0   8  -3 132.219 117.668   4
   0   8   3  86.867 102.097   4
  -2  -8  -3 11.3538 67.5768   2
   2  -8   3 23.1996 70.6590   2
   2  -8   3 206.404 119.181   1
  -2   8  -3  94.256 131.473   4
   2   8   3 46.0684 58.9479   1
   4  -8   3 160.165  88.369   2
  -4  -8  -3 127.255  90.587   2
   4  -8   3 -37.817  84.371   1
  -4   8  -3  62.499 139.139   4
   4   8   3 128.508  68.530   1
  -6  -8  -3 -46.316  91.279   2
   6  -8   3 186.198  96.403   2
   6  -8   3 57.9243 95.2856   1
   6   8   3 42.4368 71.5664   1
  -6   8  -3  -3.762 135.422   4
   8   8   3 375.292 108.514   1
  -5  -9   3  44.065 107.073   2
   5  -9  -3  55.242 106.606   1
  -5   9   3  90.664 135.249   4
   5   9  -3 43.2656 62.6067   1
  -3  -9   3 66.6830 95.9709   2
   3  -9  -3 -16.399  97.782   1
   3   9  -3 56.4588 67.7330   1
  -3   9   3 133.205 141.456   4
   1  -9  -3   8.061 110.626   1
   1  -9  -3  90.734 101.037   2
  -1  -9   3 -15.251  76.853   2
   1   9  -3 129.007  74.338   1
   1  -9   3 220.801  99.097   2
  -1  -9  -3 533.546 135.229   2
  -1   9  -3 306.965  89.083   1
   1   9   3 245.745  91.605   1
  -1   9  -3 549.170 173.866   4
  -3  -9  -3 167.176  98.489   2
   3  -9   3 340.325 115.026   2
   3  -9   3 506.162 164.795   1
  -3   9  -3 111.843 147.397   4
   3   9   3 474.381 115.201   1
   5  -9   3  48.748 128.093   1
  -5  -9  -3   5.641 102.763   2
   5  -9   3 229.809 112.444   2
  -5   9  -3 230.783 191.639   4
   5   9   3 138.929  86.084   1
  -4  10   3   8.316 143.592   4
   0 -10  -3 108.747 116.403   2
   0  10  -3 158.117  85.719   1
  -2 -10  -3 -54.001 100.818   2
  -2  10  -3 268.726 191.033   4
 -14   0   4 1021.16  256.96   3
  14   0  -4 1062.75  156.92   1
 -12   0   4 450.089 169.536   3
  12   0  -4 417.493  91.900   1
 -10   0   4 2106.92  258.41   3
  10   0  -4 1655.23  159.65   1
  -8   0   4 825.786 117.801   4
   8   0  -4 1205.40  118.41   1
  -8   0   4 739.815 138.880   3
  -6   0   4 4274.79  264.59   3
   6   0  -4 4140.31  196.99   1
  -6   0   4 4213.72  163.39   2
  -4   0   4 1287.90   63.02   2
  -4   0   4 1026.53  123.93   3
   4   0  -4 1281.68   83.85   1
  -2   0   4 9599.47  407.92   3
   2   0  -4 9587.00  337.06   1
  -2   0   4 9999.99  320.36   2
   0   0  -4 4487.82  239.32   3
   0   0  -4 4525.03  154.70   1
   0   0   4 4591.93  168.67   2
  -2   0  -4 1661.77  138.55   4
   2   0   4 1577.74   58.65   1
   2   0   4 1464.79   82.80   2
  -2   0  -4 1459.00  152.86   3
   4   0   4 3178.75  128.46   1
  -4   0  -4 3344.66  185.25   4
  -4   0  -4 2827.36  251.22   3
   4   0   4 2980.12  144.77   2
  -6   0  -4 2753.46  269.51   3
   6   0   4 2599.64  128.39   1
   6   0   4 2624.89  140.23   2
  -6   0  -4 2154.73  185.78   4
   8   0   4 1096.26  104.74   1
  -8   0  -4 1033.38  193.26   3
   8   0   4 1026.39  105.78   2
  10   0   4 581.628  87.000   2
 -10   0  -4 686.950 190.941   3
 -12   0  -4 1370.88  302.27   3
  12   0   4 1784.62  167.25   2
 -15   1   4 651.136 242.522   3
 -13  -1   4 968.241 240.133   3
  13  -1  -4 1031.12  146.41   1
  13   1  -4 951.982 139.097   1
 -13   1   4 1165.77  244.21   3
  11  -1  -4 1075.30  137.20   1
 -11  -1   4 899.022 203.828   3
 -11   1   4 1035.02  205.56   3
  11   1  -4 1293.06  147.35   1
  -9  -1   4 1472.67  211.84   3
   9  -1  -4 1629.59  153.54   1
  -9   1   4 1951.02  225.44   3
   9   1  -4 1765.33  153.81   1
  -9   1   4 1853.14  195.26   4
  -7  -1   4 1922.39  214.35   3
  -7  -1   4 2099.42  121.56   2
   7  -1  -4 2034.50  137.04   1
  -7   1   4 1839.91  201.44   3
   7   1  -4 2052.03  128.92   1
  -5  -1   4 5014.29  280.55   3
  -5  -1   4 4884.87  202.19   2
   5  -1  -4 4973.03  220.28   1
  -5   1   4 5040.81  273.45   3
   5   1  -4 4874.49  209.28   1
   3  -1  -4 4613.40  184.73   1
  -3  -1   4 4371.48  170.20   2
  -3  -1   4 4082.12  225.01   3
  -3   1   4 4179.76  225.00   3
   3   1  -4 4123.92  170.49   1
  -1  -1   4 897.085  56.760   2
  -1  -1   4 716.368  83.871   3
   1  -1  -4 901.003  68.795   1
  -1   1   4 725.604  88.076   3
  -1   1   4 815.843  44.292   2
   1   1  -4 836.223  46.217   1
  -1  -1  -4 4319.37  169.42   1
   1  -1   4 4462.78  174.94   2
  -1  -1  -4 3812.98  238.61   3
   1   1   4 4300.23  167.94   2
  -1   1  -4 4412.15  149.31   1
  -1   1  -4 4631.08  236.11   3
  -1   1  -4 4750.82  224.76   4
   3  -1   4 2703.89  141.46   2
   3  -1   4 3273.75  133.50   1
  -3  -1  -4 3470.23  231.46   3
   3   1   4 2949.82  141.15   2
  -3   1  -4 3494.45  198.04   4
   3   1   4 3345.20  124.47   1
  -3   1  -4 3148.46  212.03   3
   5  -1   4 3147.35  144.13   1
  -5  -1  -4 2949.20  275.51   3
   5  -1   4 2938.06  150.53   2
   5   1   4 3120.32  133.63   1
  -5   1  -4 2889.67  197.93   4
  -5   1  -4 2723.76  257.84   3
   5   1   4 2991.08  149.10   2
   7  -1   4 1817.69  119.42   2
  -7  -1  -4 1950.32  251.99   3
   7  -1   4 1658.94  114.05   1
   7   1   4 1571.66  103.07   1
  -7   1  -4 1619.09  179.07   4
  -7   1  -4 1127.44  190.86   3
   7   1   4 1456.69  121.96   2
   9  -1   4 2093.83  141.78   2
  -9  -1  -4 1743.93  271.33   3
  -9   1  -4 1756.35  264.38   3
   9   1   4 2476.03  148.79   2
 -11  -1  -4 537.955 204.820   3
  11  -1   4 804.638 109.920   2
 -11   1  -4 682.263 224.883   3
  11   1   4 710.954 106.799   2
 -13  -1  -4 484.509 246.901   3
  13   1   4 495.517 102.933   2
 -13   1  -4 298.503 232.677   3
 -14  -2   4 597.937 224.759   3
  14  -2  -4 365.537 114.308   1
  14   2  -4 630.129 121.304   1
 -14   2   4 174.518 186.643   3
  12  -2  -4 1211.23  160.01   1
 -12  -2   4 1204.66  241.07   3
  12   2  -4 1266.72  150.69   1
 -12   2   4 684.419 198.690   3
  10  -2  -4 1549.14  166.80   1
 -10  -2   4 1217.20  215.03   3
 -10   2   4 1745.30  233.93   3
  10   2  -4 1275.12  135.38   1
 -10   2   4 1320.18  189.95   4
  -8  -2   4 4046.94  297.12   3
   8  -2  -4 3868.54  223.62   1
  -8  -2   4 3701.83  203.25   2
  -8   2   4 4215.20  276.62   4
   8   2  -4 4243.34  210.32   1
  -8   2   4 4113.51  284.39   3
   6  -2  -4 2261.03  147.66   1
  -6  -2   4 2099.66  208.50   3
  -6  -2   4 2370.83  138.90   2
   6   2  -4 2347.63  132.88   1
  -6   2   4 1963.09  193.73   3
  -4  -2   4 2488.90  178.95   3
  -4  -2   4 2440.58  132.45   2
   4  -2  -4 2746.48  147.09   1
   4   2  -4 2657.91  130.99   1
  -4   2   4 2641.27  168.23   3
  -2  -2   4 2822.39  157.75   3
   2  -2  -4 2613.45  111.92   2
  -2  -2   4 2674.29  129.52   2
   2  -2  -4 2482.76  137.45   1
  -2   2   4 2400.60  154.03   3
   2   2  -4 2622.28  161.05   4
   2   2  -4 2494.84  116.09   1
   0  -2   4 3228.82  161.57   3
   0  -2  -4 3023.00  142.69   2
   0  -2   4 3122.06  140.56   2
   0  -2  -4 2834.29  193.34   3
   0  -2  -4 2861.64  150.20   1
   0   2  -4 2915.43  178.44   4
   0   2  -4 2871.38  121.79   1
  -2  -2  -4 1238.05  161.96   3
   2  -2   4 1634.07   97.97   2
   2  -2   4 1864.20  104.30   1
  -2   2  -4 1820.51  155.85   3
  -2   2  -4 1975.25  173.01   4
   2   2   4 1745.17   85.33   1
   2   2   4 1794.95   94.40   2
  -4  -2  -4 3051.99  278.74   3
   4  -2   4 3013.55  151.02   1
   4  -2   4 2986.64  151.29   2
   4   2   4 2908.69  144.87   2
  -4   2  -4 3059.33  212.45   4
  -4   2  -4 3167.37  211.74   3
   4   2   4 2989.83  133.02   1
   6  -2   4 3640.87  183.09   1
  -6  -2  -4 3529.25  332.23   3
   6  -2   4 3146.43  171.02   2
   6   2   4 3326.93  159.12   1
   6   2   4 3639.57  176.03   2
  -6   2  -4 3242.65  293.85   3
  -6   2  -4 3545.61  248.69   4
  -8  -2  -4 1542.60  247.00   3
   8  -2   4 2374.73  146.76   2
  -8   2  -4 2258.11  275.55   3
   8   2   4 2066.85  134.22   1
  -8   2  -4 1989.87  223.63   4
   8   2   4 2273.46  145.29   2
  10  -2   4 962.551 115.763   2
 -10  -2  -4 1206.43  252.59   3
  10   2   4 1489.18  142.72   2
 -10   2  -4 1177.01  242.95   3
 -12  -2  -4 354.017 216.430   3
  12  -2   4 629.736 105.891   2
  12   2   4 535.299 103.214   2
 -12   2  -4  17.612 164.721   3
  13  -3  -4 901.039 157.441   1
 -13  -3   4 773.375 234.612   3
  13   3  -4 872.842 132.396   1
 -13   3   4 1137.52  246.90   3
 -11  -3   4 1171.39  227.00   3
  11  -3  -4 1195.23  160.38   1
  11   3  -4 1578.51  160.34   1
 -11   3   4 1358.65  231.67   3
 -11   3   4 1097.04  197.31   4
  -9  -3   4 827.203 114.777   2
  -9  -3   4 918.368 182.522   3
   9  -3  -4 740.150 123.244   1
  -9   3   4 901.138 163.921   4
   9   3  -4 854.623 107.977   1
  -9   3   4 975.499 170.533   3
   7  -3  -4 2219.85  192.22   1
  -7  -3   4 2219.78  234.21   3
  -7  -3   4 2048.05  170.13   2
   7   3  -4 2218.30  138.83   1
  -7   3   4 1805.46  211.15   4
  -7   3   4 1666.52  195.00   3
  -5  -3   4 3095.74  211.01   3
   5  -3  -4 2838.53  176.64   1
  -5  -3   4 2867.45  165.35   2
  -5   3   4 2766.66  193.30   3
   5   3  -4 2852.82  153.48   1
  -5   3   4 2691.54  241.55   4
  -3  -3   4 2767.37  168.59   3
  -3  -3   4 2271.66  133.26   2
   3  -3  -4 2294.03  148.69   1
   3  -3  -4 2273.30  114.39   2
  -3   3   4 2365.08  155.68   3
   3   3  -4 1902.63  166.75   4
   3   3  -4 2360.25  123.65   1
   1  -3  -4 4853.59  278.73   3
   1  -3  -4 5218.21  221.46   2
  -1  -3   4 5688.56  234.02   2
  -1  -3   4 5175.85  240.68   3
   1  -3  -4 5340.40  252.00   1
   1   3  -4 5376.83  212.21   1
   1   3  -4 5039.41  264.25   4
   1  -3   4 2485.96  153.10   1
   1  -3   4 2634.14  141.22   3
  -1  -3  -4 2463.66  150.44   2
  -1  -3  -4 2714.42  162.81   1
   1  -3   4 2644.54  141.33   2
  -1  -3  -4 2827.62  204.25   3
  -1   3  -4 2903.49  190.91   4
   3  -3   4 4835.27  230.09   1
  -3  -3  -4 4644.89  307.70   3
   3  -3   4 4438.64  211.00   2
  -3  -3  -4 5044.27  245.15   2
  -3   3  -4 4798.75  281.51   4
   3   3   4 4557.91  195.81   1
  -3   3  -4 5139.89  253.60   3
   5  -3   4 475.793  80.777   1
  -5  -3  -4 588.439  98.600   2
   5  -3   4 365.691  62.658   2
  -5  -3  -4 445.961 131.433   3
   5   3   4 673.337  78.097   2
   5   3   4 523.866  63.382   1
  -5   3  -4 659.795 130.214   4
  -5   3  -4 282.799  95.602   3
   7  -3   4 2118.48  140.45   2
  -7  -3  -4 2226.21  280.58   3
   7  -3   4 1823.26  166.95   1
  -7   3  -4 2357.70  246.88   4
   7   3   4 2365.23  143.91   2
  -7   3  -4 1835.02  233.99   3
   7   3   4 1961.19  127.25   1
  -9  -3  -4 1605.27  272.01   3
   9  -3   4 1265.02  134.23   2
  -9   3  -4 1064.02  197.94   4
   9   3   4 1168.67  128.20   2
  11  -3   4 1528.08  158.12   2
 -11  -3  -4 1201.89  267.51   3
  11   3   4 1338.67  150.11   2
  12  -4  -4 940.789 163.021   1
 -12  -4   4 1127.84  263.83   3
  12   4  -4 1115.97  148.82   1
 -12   4   4 1160.55  215.46   4
 -10  -4   4 694.216 124.720   2
  10  -4  -4 499.676 114.801   1
 -10  -4   4 986.419 205.891   3
 -10   4   4 480.004 146.754   4
  10   4  -4 668.481 110.339   1
   8  -4  -4 936.683 140.481   1
  -8  -4   4 971.811 133.085   2
  -8  -4   4 1286.09  201.58   3
  -8   4   4 1178.28  174.68   3
  -8   4   4 1299.19  197.10   4
   8   4  -4 1314.02  134.62   1
  -6  -4   4 500.046  92.461   2
  -6  -4   4 508.633 121.219   3
   6  -4  -4 469.817  96.971   1
  -6   4   4 510.675 120.481   4
   6   4  -4 583.548  84.653   1
  -6   4   4 772.755 124.249   3
   4  -4  -4 2843.06  195.78   1
  -4  -4   4 2964.35  201.81   3
   4  -4  -4 3077.37  152.05   2
  -4  -4   4 3165.99  181.41   2
   4   4  -4 2835.65  187.88   4
  -4   4   4 3123.00  264.61   4
   4   4  -4 3220.50  166.05   1
  -4   4   4 3137.28  191.11   3
   2  -4  -4 3543.81  174.83   2
  -2  -4   4 3060.00  187.43   3
   2  -4  -4 3115.27  207.16   1
  -2  -4   4 3449.98  189.50   2
  -2   4   4 3509.10  199.16   3
   2   4  -4 3474.79  210.59   4
   2   4  -4 3733.09  171.01   1
   0  -4  -4 5709.31  304.58   3
   0  -4  -4 5594.78  252.51   2
   0  -4   4 5172.42  246.93   2
   0  -4  -4 5419.67  279.14   1
   0  -4   4 5572.02  232.71   3
   0   4  -4 5161.30  227.68   1
   0   4  -4 5084.05  292.96   4
   2  -4   4 3319.32  198.34   1
  -2  -4  -4 3229.75  190.72   2
   2  -4   4 3019.42  170.42   2
  -2  -4  -4 3270.85  245.76   3
   2   4   4 3162.01  158.79   1
  -2   4  -4 2629.61  244.24   4
   4  -4   4 912.893 122.438   1
  -4  -4  -4 1096.25  135.93   2
   4  -4   4 946.216 104.655   2
  -4  -4  -4 1037.13  179.53   3
  -4   4  -4 1143.96  167.39   4
   4   4   4 1247.17  102.05   1
   6  -4   4 676.551 114.999   1
  -6  -4  -4 875.160 185.502   3
  -6  -4  -4 1016.10  141.80   2
   6  -4   4 907.982 108.673   2
   6   4   4 891.609  95.891   1
  -6   4  -4 917.630 167.252   4
   8  -4   4 742.932 106.132   2
  -8  -4  -4 679.953 195.409   3
   8   4   4 481.612  82.879   1
  -8   4  -4 623.049 156.603   4
   8   4   4 572.169  94.966   2
  10  -4   4 936.919 127.163   2
 -10  -4  -4 1121.47  269.51   3
  10   4   4 789.347 122.390   2
 -10   4  -4 1098.60  220.04   4
 -12  -4  -4 627.989 258.797   3
  12   4   4 884.074 138.680   2
 -13  -5   4 1050.04  282.79   3
 -13   5   4 390.044 183.492   4
 -11  -5   4 863.674 155.096   2
 -11  -5   4 1314.87  264.35   3
  11  -5  -4 529.183 135.421   1
 -11   5   4 531.578 173.019   4
  11   5  -4 789.205 124.366   1
  -9  -5   4 934.453 142.653   2
  -9  -5   4 885.841 202.822   3
   9  -5  -4 1314.25  178.37   1
   9   5  -4 1197.32  141.86   1
  -9   5   4 1124.13  202.56   4
   7  -5  -4 1556.09  182.56   1
  -7  -5   4 1488.41  165.61   2
  -7  -5   4 1824.42  229.73   3
  -7   5   4 1615.82  230.11   4
   7   5  -4 1212.43  135.21   1
   5  -5  -4 980.490 144.170   1
  -5  -5   4 1319.93  151.18   2
  -5  -5   4 1441.31  175.87   3
  -5   5   4 1730.30  215.72   4
   5   5  -4 1399.63  130.95   1
   3  -5  -4 1346.24  166.69   1
  -3  -5   4 1561.06  150.94   2
   3  -5  -4 1509.75  132.95   2
   3   5  -4 1617.42  166.19   4
  -3   5   4 1493.69  189.66   4
   3   5  -4 1441.22  125.77   1
  -3   5   4 1858.22  161.38   3
   1  -5  -4 1573.97  144.75   2
   1  -5  -4 1643.11  183.96   1
  -1  -5   4 1450.89  148.99   2
   1   5  -4 2145.87  205.37   4
  -1   5   4 1413.16  178.70   4
   1   5  -4 1984.16  123.93   1
  -1   5   4 1798.63  158.56   3
   1  -5   4 2327.51  184.54   2
   1  -5   4 2404.58  213.09   1
  -1  -5  -4 2271.40  228.06   3
  -1  -5  -4 2351.47  191.71   2
  -1  -5  -4 2544.15  227.76   1
   1   5   4 2289.34  205.89   4
  -1   5  -4 2645.30  245.66   4
  -3  -5  -4 1525.41  210.67   3
   3  -5   4 1341.06  136.25   2
   3  -5   4 1405.83  162.77   1
  -3  -5  -4 1421.93  157.49   2
  -3   5  -4 1441.95  192.84   4
   3   5   4 1671.38  133.02   1
  -5  -5  -4 2335.16  223.84   2
   5  -5   4 2366.62  217.98   1
  -5  -5  -4 2102.07  273.52   3
   5  -5   4 2188.06  181.27   2
  -5   5  -4 3155.99  301.09   4
   5   5   4 2179.62  144.94   1
   7  -5   4 940.507 119.727   2
   7  -5   4 710.281 134.863   1
  -7  -5  -4 810.119 202.151   3
  -7  -5  -4 809.834 147.516   2
   7   5   4 609.745  91.995   1
  -7   5  -4 981.982 191.729   4
   9  -5   4 979.818 129.531   2
  -9  -5  -4 1077.23  258.11   3
  -9   5  -4 1017.50  214.34   4
   9   5   4 759.267 115.390   2
 -11  -5  -4 587.885 261.366   3
 -11   5  -4 513.550 196.283   4
  11   5   4 1015.85  145.10   2
 -12  -6   4 259.522 197.853   3
 -12   6   4 499.815 198.282   4
  10  -6  -4 2320.16  258.79   1
 -10  -6   4 2138.21  320.04   3
 -10  -6   4 1957.60  223.38   2
 -10   6   4 2218.24  305.81   4
  10   6  -4 2384.49  223.83   1
   8  -6  -4 1049.36  173.30   1
  -8  -6   4 852.544 142.842   2
  -8   6   4 815.008 187.547   4
   8   6  -4 1606.48  165.41   1
  -6  -6   4 2192.33  217.44   2
   6  -6  -4 2095.35  232.17   1
   6   6  -4 2559.38  202.78   1
  -6   6   4 2277.82  268.30   4
   4  -6  -4 408.175 107.657   1
  -4  -6   4 624.240 115.224   2
   4   6  -4 790.915 103.048   1
  -4   6   4 519.641 139.208   4
  -2  -6   4 1347.07  154.30   2
   2  -6  -4 1091.95  127.25   2
   2  -6  -4 1404.76  184.77   1
   2   6  -4 971.121 109.436   1
   2   6  -4 1093.22  154.10   4
  -2   6   4 1080.24  170.81   4
   0  -6  -4 567.090 121.998   1
   0  -6   4 529.147  99.554   2
   0  -6  -4 484.015  98.156   2
   0   6  -4 583.146  84.665   1
   0   6  -4 607.267 134.980   4
   0   6   4 217.363  89.989   4
  -2  -6  -4 1113.40  180.80   3
   2  -6   4 1396.29  152.32   2
   2  -6   4 1384.12  181.55   1
  -2  -6  -4 1294.94  159.60   2
   2   6   4 1326.14  130.67   1
  -2   6  -4 1318.60  202.64   4
   4  -6   4 1775.52  175.73   2
   4  -6   4 1897.56  213.30   1
  -4  -6  -4 2344.95  278.73   3
  -4  -6  -4 1898.65  208.83   2
  -4   6  -4 2101.43  261.37   4
   4   6   4 1950.15  159.96   1
   6  -6   4 2170.64  227.82   1
  -6  -6  -4 1860.39  215.66   2
   6  -6   4 1430.06  160.86   2
  -6  -6  -4 1733.58  277.39   3
  -6   6  -4 2277.40  287.54   4
   6   6   4 1727.23  156.79   1
   8  -6   4 1583.50  172.34   2
  -8  -6  -4 1195.10  188.55   2
  -8  -6  -4 1338.22  259.20   3
  -8   6  -4 1378.36  246.79   4
   8   6   4 1280.64  151.70   1
 -10  -6  -4 224.572 204.875   3
 -10   6  -4 391.988 194.678   4
  10   6   4 228.864  90.984   2
 -11  -7   4 402.436 136.446   2
  -9  -7   4 700.380 152.385   2
   9  -7  -4 603.243 163.281   1
   9   7  -4 919.681 146.047   1
  -9   7   4 780.199 207.516   4
  -7  -7   4 1214.61  179.56   2
   7  -7  -4 1052.64  193.41   1
  -7   7   4 910.106 202.776   4
   7   7  -4 840.013 131.893   1
  -5  -7   4 1305.60  177.08   2
   5  -7  -4 1144.72  186.00   1
  -5   7   4 1177.67  208.19   4
   5   7  -4 1190.03  139.18   1
  -3  -7   4 1529.21  184.04   2
   3  -7  -4 1321.09  198.83   1
  -3   7   4 806.679 169.104   4
   3   7  -4 1588.95  155.10   1
   1  -7  -4 477.313 104.473   2
   1  -7  -4 873.861 167.936   1
  -1  -7   4 593.085 116.201   2
  -1   7   4 901.567 166.582   4
   1   7  -4 967.514 114.910   1
   1   7  -4 664.036 150.394   4
  -1  -7  -4 1690.69  225.90   1
   1  -7   4 1605.92  178.86   2
  -1  -7  -4 1006.81  147.81   2
  -1   7  -4 1542.39  143.93   1
  -1   7  -4 1437.34  212.89   4
   1   7   4 1514.11  153.70   1
  -3  -7  -4 1026.47  152.31   2
   3  -7   4 772.754 156.982   1
   3  -7   4 524.935 114.159   2
  -3   7  -4 1066.30  205.15   4
   3   7   4 914.302 119.740   1
   5  -7   4 1311.15  160.00   2
  -5  -7  -4 1052.07  169.22   2
   5  -7   4 1271.77  189.38   1
  -5   7  -4 1222.76  227.36   4
   5   7   4 1168.41  139.15   1
   7  -7   4 365.741 103.374   2
  -7  -7  -4 265.584 107.890   2
   7   7   4 554.789 108.529   1
  -7   7  -4 657.025 202.982   4
  -9  -7  -4 874.929 269.281   3
  -9   7  -4 1294.39  283.01   4
   8  -8  -4 492.989 154.795   1
  -8  -8   4 81.5298 95.6867   2
   8   8  -4 391.139 106.479   1
  -8   8   4 439.422 183.163   4
   6  -8  -4 373.423 142.653   1
  -6  -8   4 598.654 138.601   2
   6   8  -4 697.523 124.158   1
  -6   8   4 603.138 186.458   4
  -4  -8   4 1399.31  194.43   2
   4  -8  -4 1493.51  221.86   1
  -4   8   4 1105.57  222.67   4
   4   8  -4 1036.64  141.58   1
  -2  -8   4 1759.36  207.26   2
   2  -8  -4 1440.29  229.84   1
   2   8  -4 1509.99  159.92   1
   0  -8  -4 1307.43  179.08   2
   0  -8   4 1465.58  187.82   2
   0  -8  -4 1034.96  192.79   1
   0   8  -4 1253.93  211.70   4
   0   8  -4 1382.71  147.33   1
   2  -8   4 792.104 138.844   2
   2  -8   4 772.861 163.923   1
  -2  -8  -4 717.503 140.240   2
  -2   8  -4 738.019 190.391   4
   2   8   4 798.918 119.880   1
  -2   8  -4 601.094 104.949   1
   4  -8   4 688.578 162.770   1
   4  -8   4 374.254 107.072   2
  -4  -8  -4 613.810 145.982   2
   4   8   4 296.051  85.500   1
  -4   8  -4 444.860 181.951   4
  -6  -8  -4 62.5828 97.1188   2
   6  -8   4 316.180 110.489   2
   6   8   4 207.653  85.843   1
  -6   8  -4 281.518 183.915   4
   8   8   4 231.972 101.570   1
   5  -9  -4 968.743 204.356   1
  -5  -9   4 824.753 180.481   2
   5   9  -4 999.721 149.149   1
  -5   9   4 802.241 214.890   4
   3  -9  -4 477.203 160.614   1
  -3  -9   4 561.630 140.853   2
   3   9  -4 749.185 126.911   1
  -3   9   4 489.634 183.285   4
   1  -9  -4 868.032 201.186   1
  -1  -9   4 659.285 149.833   2
   1   9  -4 746.547 124.948   1
  -1  -9  -4 454.402 136.487   2
   1  -9   4 326.024 121.686   2
   1   9   4 529.982 114.014   1
  -1   9  -4 361.717 165.610   4
  -1   9  -4 313.584  90.699   1
   3  -9   4 1083.53  210.80   1
   3  -9   4 923.800 157.469   2
  -3  -9  -4 850.307 172.637   2
  -3   9  -4 945.779 237.275   4
  -3   9  -4 941.764 137.442   1
   3   9   4 791.733 135.351   1
   5  -9   4  93.472 134.699   1
  -5  -9  -4  44.023 101.646   2
   5  -9   4 136.592 110.051   2
  -5   9  -4 155.568 170.195   4
   5   9   4 147.068  86.833   1
   0  10  -4 385.339 111.247   1
  -2  10  -4 221.093 176.248   4
  14   0  -5 86.4853 72.2252   1
 -14   0   5 -116.39  141.90   3
  12   0  -5 14.4561 58.0650   1
 -12   0   5 -33.128 108.604   3
 -10   0   5 21.3223 91.1223   3
  10   0  -5 -14.633  34.230   1
   8   0  -5 -0.3173 33.2658   1
  -8   0   5 17.7053 77.3453   3
  -6   0   5 -27.947  53.474   3
  -6   0   5 15.0718 21.9702   2
   6   0  -5 -19.527  26.890   1
  -4   0   5 11.8977 16.9304   2
  -4   0   5 -24.552  44.402   3
   4   0  -5 52.7739 28.4961   1
  -2   0   5 -6.6398 13.7143   2
   2   0  -5  6.0461 17.4929   1
  -2   0   5 21.9803 38.6864   3
   0   0   5 -4.8549 14.2743   2
   0   0  -5 -8.9873 46.3510   3
   0   0  -5 18.5779 13.7140   1
  -2   0  -5 -36.782  51.003   3
   2   0   5 -16.690  18.472   2
   4   0   5 -1.1144 24.8478   2
  -4   0  -5 -58.678  56.542   3
   4   0   5 -3.6569 17.8676   1
  -4   0  -5 41.8861 53.6272   4
  -6   0  -5 42.1177 58.3867   4
   6   0   5 -13.249  25.526   2
  -6   0  -5 22.7585 83.9207   3
   8   0   5 -8.8484 35.2938   2
  -8   0  -5 -11.033  94.635   3
 -10   0  -5 -114.03  114.85   3
  10   0   5 -68.126  39.807   2
 -12   0  -5 -26.659 196.982   3
  12   0   5 -26.220  55.536   2
 -13  -1   5 101.441 140.420   3
  13  -1  -5 102.547  71.440   1
 -13   1   5 -63.344 119.079   3
  13   1  -5 59.2545 64.4360   1
  11  -1  -5 68.0386 63.4117   1
 -11  -1   5  91.962 108.008   3
  11   1  -5 168.090  72.329   1
 -11   1   5 -13.327 102.006   3
  -9  -1   5 134.812  95.553   3
   9  -1  -5 103.708  52.024   1
  -9   1   5 148.362  81.110   4
  -9   1   5 75.9255 93.4770   3
   9   1  -5 118.906  50.876   1
  -7  -1   5 -21.143  30.281   2
   7  -1  -5 -4.8310 32.8445   1
  -7  -1   5 68.9278 73.2817   3
   7   1  -5 -9.2163 26.7035   1
  -7   1   5 29.0084 61.2352   3
   5  -1  -5 373.389  61.472   1
  -5  -1   5 573.713 103.588   3
  -5  -1   5 324.029  48.923   2
  -5   1   5 234.007  78.322   3
   5   1  -5 434.076  60.439   1
   3  -1  -5 53.1542 28.4274   1
  -3  -1   5 56.4269 25.6749   2
  -3  -1   5 54.9581 46.3909   3
  -3   1   5 82.5923 14.8756   2
   3   1  -5 71.8370 26.2384   1
  -3   1   5 131.623  55.698   3
  -1  -1   5 62.8211 24.5564   2
  -1  -1   5 -26.861  33.077   3
   1  -1  -5 62.7361 26.1667   1
   1   1  -5 25.0119 17.1359   1
  -1   1   5 155.335  51.185   3
  -1   1   5 45.2657 17.4266   2
   1  -1   5 309.219  43.787   2
  -1  -1  -5 352.156  91.238   3
   1   1   5 343.444  42.989   2
   1   1   5 321.343  28.427   1
  -1   1  -5 379.887  80.535   3
  -1   1  -5 292.406  19.259   1
  -1   1  -5 336.523  81.233   4
   3  -1   5 225.712  34.835   1
  -3  -1  -5 138.201  86.386   3
   3  -1   5 225.525  44.416   2
   3   1   5 243.204  42.212   2
   3   1   5 287.654  30.351   1
  -3   1  -5 296.555  75.185   4
  -3   1  -5 224.657  79.354   3
  -5  -1  -5 -31.392  68.001   3
   5  -1   5 67.4584 35.4908   1
   5  -1   5 124.218  40.032   2
   5   1   5 42.9547 27.4513   1
  -5   1  -5 36.9803 61.2610   4
  -5   1  -5 85.3631 80.4730   3
   5   1   5 49.7811 29.5576   2
  -7  -1  -5 -31.955  86.531   3
   7  -1   5 -25.666  30.493   2
  -7   1  -5 22.0367 68.8408   4
  -7   1  -5  21.505 102.816   3
   7   1   5 -20.148  25.813   2
   9  -1   5 53.9946 50.7002   2
  -9  -1  -5 107.178 136.674   3
  -9   1  -5  18.917 130.786   3
   9   1   5 120.549  49.746   2
  11  -1   5 -15.362  41.990   2
 -11  -1  -5 -39.870 153.131   3
 -11   1  -5  84.621 164.311   3
  11   1   5 -15.278  47.359   2
  13  -1   5 92.1872 74.4373   2
  13   1   5 -8.3650 63.8920   2
 -13   1  -5  82.348 222.029   3
 -14  -2   5 169.375 172.351   3
  14  -2  -5 -16.394  68.538   1
  14   2  -5 34.5925 69.7190   1
 -14   2   5 -81.208 150.097   3
  12  -2  -5 -4.1003 60.7394   1
 -12  -2   5  22.156 120.519   3
 -12   2   5 -93.883 103.710   3
  12   2  -5 116.466  60.329   1
 -10  -2   5 14.9957 93.3002   3
  10  -2  -5 253.037  77.094   1
  10   2  -5 100.534  55.911   1
 -10   2   5 312.387 109.144   4
 -10   2   5 143.432 113.544   3
   8  -2  -5 78.0324 49.3350   1
  -8  -2   5 12.3982 45.9926   2
  -8  -2   5 34.1576 79.4498   3
   8   2  -5 60.4413 43.4423   1
  -8   2   5 15.7742 74.7027   3
  -8   2   5 46.6254 71.4916   4
   6  -2  -5 563.522  89.462   1
  -6  -2   5 515.261  72.738   2
  -6  -2   5 545.007 119.637   3
   6   2  -5 486.303  66.661   1
  -6   2   5 409.999  96.846   3
   4  -2  -5 551.429  73.845   1
  -4  -2   5 452.880  94.159   3
  -4  -2   5 510.123  63.844   2
  -4   2   5 581.235  97.000   3
   4   2  -5 629.861  67.645   1
   2  -2  -5 37.3691 31.9769   1
  -2  -2   5 19.5342 40.4614   3
  -2  -2   5 90.7472 31.9919   2
   2   2  -5 61.9538 49.1263   4
  -2   2   5 -26.398  35.382   3
   2   2  -5 76.7097 24.2231   1
  -2   2   5 26.5750 14.6116   2
   0  -2   5 385.431  53.807   2
   0  -2  -5 301.624  55.190   1
   0  -2   5 235.138  59.415   3
   0  -2  -5 351.745  89.171   3
   0   2  -5 367.948  37.427   1
   0   2  -5 216.911  65.833   4
   0   2   5 313.963  38.070   2
  -2  -2  -5 485.714 113.105   3
   2  -2   5 528.822  61.432   1
   2  -2   5 628.610  71.846   2
  -2   2  -5 691.323 102.579   3
  -2   2  -5 377.089  90.741   4
   2   2   5 585.848  50.625   1
   2   2   5 579.526  60.769   2
   4  -2   5 14.7488 36.0252   1
  -4  -2  -5 16.8048 75.2113   3
   4  -2   5 29.0435 29.0974   2
   4   2   5  4.6102 21.2704   1
  -4   2  -5 -52.171  56.136   3
   4   2   5 20.4988 23.1456   2
  -4   2  -5 67.8061 64.8988   4
  -6  -2  -5 242.682 113.601   3
   6  -2   5 377.342  66.762   2
  -6   2  -5 81.5544 94.3595   3
   6   2   5 234.372  51.870   2
   6   2   5 217.501  45.929   1
  -6   2  -5 143.582  84.370   4
  -8  -2  -5  26.297 120.190   3
   8  -2   5 47.4785 38.9701   2
  -8   2  -5 -47.258 116.371   3
  -8   2  -5  2.0819 79.9618   4
   8   2   5 -17.552  34.883   2
 -10  -2  -5 -29.740 141.622   3
  10  -2   5 51.8326 49.4486   2
  10   2   5 -3.2692 48.2783   2
 -10   2  -5  19.885 131.467   3
  12  -2   5 47.1637 62.7750   2
 -12  -2  -5  53.170 192.768   3
  12   2   5 14.2953 54.1796   2
 -12   2  -5  45.853 197.863   3
  13  -3  -5 133.655  92.777   1
 -13  -3   5  58.923 158.941   3
  13   3  -5 74.3770 70.8271   1
 -13   3   5   8.540 160.399   3
  11  -3  -5 148.876  74.852   1
 -11  -3   5  98.060 134.277   3
 -11   3   5 181.260 132.517   3
 -11   3   5 190.486 117.863   4
  11   3  -5 167.011  71.644   1
   9  -3  -5 295.442  85.933   1
  -9  -3   5 92.4862 64.7079   2
  -9  -3   5 139.672 101.673   3
  -9   3   5 151.266  93.778   4
  -9   3   5 203.772 117.485   3
   9   3  -5 172.070  61.966   1
   7  -3  -5 56.2846 48.6378   1
  -7  -3   5 68.5934 75.1438   3
  -7  -3   5 19.4476 44.2995   2
  -7   3   5 65.6482 74.8589   4
   7   3  -5 -11.426  30.416   1
  -7   3   5 36.0662 66.7494   3
  -5  -3   5 174.188  50.858   2
  -5  -3   5 211.483  84.281   3
   5  -3  -5 92.7928 53.3591   1
   5   3  -5 114.686  40.372   1
  -5   3   5 154.250  74.691   3
  -3  -3   5  3.4940 35.0103   2
   3  -3  -5 12.4959 25.7790   2
  -3  -3   5 -42.043  42.186   3
   3  -3  -5 -55.744  32.130   1
   3   3  -5 20.1516 49.0176   4
  -3   3   5  5.6664 41.0352   3
   3   3  -5  8.7329 22.2395   1
   1  -3  -5 -15.971  36.970   1
   1  -3  -5 29.3919 31.0890   2
  -1  -3   5 15.0367 29.4747   2
   1  -3  -5 -33.276  54.208   3
  -1  -3   5 35.8274 41.4290   3
   1   3  -5 28.7310 51.6057   4
   1   3  -5  4.8547 19.8140   1
   1  -3   5 236.474  49.969   2
   1  -3   5 250.940  58.881   3
  -1  -3  -5 387.561  75.216   1
  -1  -3  -5 152.489  49.131   2
  -1  -3  -5 303.345  94.077   3
  -1   3  -5 311.986  87.364   4
  -1   3  -5 372.669  45.638   1
   3  -3   5 850.596  97.421   1
  -3  -3  -5 865.533 107.664   2
   3  -3   5 984.545 101.045   2
  -3  -3  -5 923.360 166.005   3
  -3   3  -5 775.355 136.570   4
   3   3   5 782.450  72.240   1
   3   3   5 985.987  89.013   2
  -3   3  -5 933.627 126.463   3
  -5  -3  -5 171.737 111.346   3
   5  -3   5 195.559  64.665   1
   5  -3   5 137.704  46.928   2
   5   3   5 177.103  41.086   1
  -5   3  -5 351.153 103.265   3
   5   3   5 168.462  47.525   2
  -5   3  -5 356.969 107.955   4
   7  -3   5 14.5040 37.8620   2
  -7  -3  -5 -47.869  95.430   3
   7   3   5 -16.426  33.659   2
  -7   3  -5 210.568 125.125   3
  -7   3  -5 48.7319 91.2923   4
  -9  -3  -5  87.415 142.202   3
   9  -3   5 92.5062 52.9221   2
   9   3   5 42.5092 49.9657   2
  -9   3  -5 -93.841  95.019   4
  11  -3   5 33.2978 59.9752   2
 -11  -3  -5 -57.854 164.657   3
  11   3   5 42.2890 52.8862   2
  12  -4  -5 45.9621 79.9198   1
 -12  -4   5 184.678 149.967   3
  12   4  -5 -37.873  59.422   1
 -12   4   5 140.378 131.822   4
 -10  -4   5  79.752 125.561   3
  10  -4  -5 -29.122  58.138   1
 -10  -4   5 -33.260  65.009   2
 -10   4   5 89.9442 98.3413   4
 -10   4   5 105.700 114.039   3
  10   4  -5 -27.597  40.649   1
   8  -4  -5 284.701  85.755   1
  -8  -4   5 192.938 115.444   3
  -8  -4   5 213.278  79.306   2
  -8   4   5 275.635 115.048   3
   8   4  -5 351.086  79.086   1
  -8   4   5 271.083 105.160   4
   6  -4  -5 -12.998  43.600   1
  -6  -4   5 26.4014 72.3151   3
  -6  -4   5 -17.874  43.660   2
  -6   4   5 -39.385  66.725   3
   6   4  -5 41.5955 36.9263   1
  -6   4   5 -3.6305 62.9041   4
  -4  -4   5 596.544 109.185   3
  -4  -4   5 557.618  85.171   2
   4  -4  -5 614.138 100.841   1
   4   4  -5 479.260  69.870   1
   4   4  -5 488.575  99.534   4
  -4   4   5 735.671 111.395   3
   2  -4  -5 105.899  63.344   1
  -2  -4   5 101.668  58.800   3
   2  -4  -5 113.246  44.904   2
  -2  -4   5 174.120  57.928   2
   2   4  -5 115.642  60.909   4
  -2   4   5 102.619  53.077   3
   2   4  -5 144.879  41.426   1
   0  -4  -5 187.029  66.307   1
   0  -4   5 112.913  44.220   2
   0  -4  -5 130.594  51.397   2
   0  -4  -5 85.8835 76.9917   3
   0  -4   5 91.8309 46.4683   3
   0   4  -5 -25.723  52.625   4
   0   4  -5 82.4119 31.9047   1
  -2  -4  -5 118.342  88.984   3
  -2  -4  -5 13.6402 46.5840   2
   2  -4   5 48.6235 50.1053   1
   2  -4   5  8.8473 28.9239   2
  -2   4  -5 31.5396 53.4371   4
   2   4   5 27.7780 28.1424   1
  -4  -4  -5 412.844  92.057   2
   4  -4   5 212.938  69.600   1
  -4  -4  -5 290.139 122.777   3
   4  -4   5 273.897  64.233   2
  -4   4  -5 257.118 104.018   4
   4   4   5 217.025  48.038   1
   6  -4   5  3.4529 27.3076   2
  -6  -4  -5 113.133 118.505   3
  -6   4  -5 -41.301  75.128   4
   6   4   5 -19.643  31.883   2
   6   4   5 32.7357 38.4735   1
   8  -4   5 121.740  58.983   2
  -8  -4  -5 -12.773 120.304   3
   8   4   5 131.889  56.329   2
  -8   4  -5 -12.545 104.331   4
 -10  -4  -5 256.321 191.082   3
  10  -4   5 67.7039 62.3579   2
 -10   4  -5 191.809 145.922   4
  10   4   5 69.0168 57.4313   2
 -13  -5   5 142.292 214.710   3
 -13   5   5 272.322 177.396   4
 -11  -5   5 -48.515 135.605   3
  11  -5  -5 -2.8583 75.8159   1
 -11   5   5  24.020 117.429   4
  11   5  -5 -34.542  57.800   1
  -9  -5   5 21.0429 68.8486   2
   9  -5  -5 -10.335  64.870   1
  -9  -5   5  54.428 113.681   3
  -9   5   5 -10.592  91.414   4
   9   5  -5 -40.970  44.201   1
  -7  -5   5 236.085  78.661   2
  -7  -5   5 476.793 138.425   3
   7  -5  -5 335.112 100.653   1
   7   5  -5 691.441 104.049   1
  -7   5   5 441.273 132.475   4
  -5  -5   5 441.882  95.275   2
   5  -5  -5 336.652  95.338   1
  -5  -5   5 615.594 126.461   3
   5   5  -5 544.745  81.515   1
  -5   5   5 442.652 124.533   4
  -5   5   5 498.863 112.195   3
   3  -5  -5 853.585 100.592   2
  -3  -5   5 866.526 115.023   2
   3  -5  -5 850.478 138.326   1
  -3   5   5 892.458 154.936   4
   3   5  -5 552.294 116.369   4
   3   5  -5 806.667  93.232   1
  -3   5   5 828.803 120.177   3
   1  -5  -5 101.345  50.678   2
  -1  -5   5 83.3681 52.3820   2
   1  -5  -5 49.2364 58.7979   1
  -1   5   5 174.904  75.254   4
  -1   5   5 143.935  64.130   3
   1   5  -5 104.434  73.390   4
   1   5  -5 86.9788 39.9487   1
   1  -5   5 119.562  52.045   2
  -1  -5  -5 190.148 101.651   3
  -1  -5  -5 288.563  76.342   2
  -1  -5  -5 283.157  86.065   1
  -1   5  -5 149.767  43.658   1
  -1   5  -5 64.1054 82.6508   4
   3  -5   5 -10.519  58.322   1
  -3  -5  -5 127.499  56.042   2
  -3  -5  -5 34.7530 99.9404   3
   3  -5   5 36.6781 46.3454   2
  -3   5  -5 111.645  86.613   4
   3   5   5 18.6526 35.0984   1
   5  -5   5 20.5058 47.4446   2
  -5  -5  -5 117.561 127.018   3
   5  -5   5 41.2641 64.3501   1
  -5  -5  -5 36.5139 61.1741   2
   5   5   5 17.1066 38.8798   1
  -5   5  -5 -15.745  84.365   4
  -7  -5  -5 515.067 187.664   3
   7  -5   5 283.736  75.540   2
   7   5   5 482.793  91.732   2
  -7   5  -5 416.755 139.975   4
   7   5   5 293.470  70.690   1
  -9  -5  -5  15.191 151.605   3
   9  -5   5 194.194  76.376   2
  -9   5  -5 320.506 159.416   4
   9   5   5 117.938  65.996   2
 -11   5  -5 159.067 186.879   4
 -12  -6   5 314.520 228.172   3
 -12   6   5  64.271 166.939   4
 -10  -6   5 -37.971  81.420   2
  10  -6  -5 137.829  93.627   1
  10   6  -5 31.5931 70.2318   1
 -10   6   5 -60.339 100.841   4
   8  -6  -5 112.998  91.327   1
  -8  -6   5  7.9322 72.4220   2
   8   6  -5 140.771  63.463   1
  -8   6   5 35.3785 99.3917   4
   6  -6  -5 29.2290 71.1761   1
  -6  -6   5 32.6122 66.9012   2
  -6   6   5 -55.685  81.736   4
   6   6  -5 49.5876 49.8263   1
  -4  -6   5 180.619  73.029   2
   4  -6  -5 43.5546 75.1039   1
  -4   6   5 236.572 108.072   4
   4   6  -5 217.751  62.875   1
   2  -6  -5 141.974  63.959   2
   2  -6  -5 120.455  79.293   1
  -2  -6   5 82.9419 57.4933   2
   2   6  -5 119.136  44.502   1
   2   6  -5 293.858 105.986   4
  -2   6   5 183.445  97.276   4
   0  -6   5 87.8074 57.6851   2
   0  -6  -5 39.8765 81.8658   1
   0  -6  -5 162.042  69.322   2
   0   6  -5 50.3329 36.8128   1
   0   6  -5 160.647 103.565   4
   0   6   5 86.5752 81.8706   4
   2  -6   5 -23.982  72.216   1
   2  -6   5 74.9407 58.3039   2
  -2  -6  -5 -12.242  53.597   2
  -2  -6  -5  86.747 101.617   3
  -2   6  -5 -107.56   80.12   4
   2   6   5 38.1090 44.3020   1
  -4  -6  -5 250.502 136.644   3
   4  -6   5 87.0931 83.7765   1
  -4  -6  -5 73.7575 70.8570   2
   4  -6   5 33.1795 46.7948   2
   4   6   5 159.921  57.896   1
  -4   6  -5  62.429 110.060   4
  -6  -6  -5 151.572  81.672   2
   6  -6   5 12.8933 57.8886   2
  -6  -6  -5  63.623 137.105   3
  -6   6  -5 154.678 119.470   4
   6   6   5 37.5819 52.3867   1
   8  -6   5 182.398  86.154   2
  -8  -6  -5  10.925 155.267   3
   8   6   5 159.169  67.198   2
  -8   6  -5 129.460 138.969   4
 -10  -6  -5 141.255 222.618   3
 -10   6  -5 -40.826 171.020   4
 -11  -7   5 287.048 134.030   2
  -9  -7   5 56.9866 96.2975   2
   9  -7  -5 234.605 117.671   1
   9   7  -5 74.3119 76.3832   1
  -9   7   5 -12.534 129.946   4
   7  -7  -5 -57.932  78.349   1
  -7  -7   5 49.6262 83.0878   2
  -7   7   5 -21.437 110.669   4
   7   7  -5 31.4378 61.1319   1
   5  -7  -5 160.169  98.369   1
  -5  -7   5 215.620  87.728   2
   5   7  -5 110.365  54.858   1
  -5   7   5  82.494 119.783   4
   3  -7  -5 31.0382 88.9078   1
  -3  -7   5 -71.578  57.917   2
  -3   7   5 29.3220 84.2100   4
   3   7  -5 -2.4333 41.4025   1
   1  -7  -5  3.5160 86.8646   1
   1  -7  -5 78.2625 71.9157   2
  -1  -7   5 160.446  77.285   2
  -1   7   5 184.090 106.128   4
   1   7  -5 45.5546 47.3476   1
   1   7  -5  99.780 110.584   4
   1  -7   5 1077.62  152.73   2
  -1  -7  -5 964.619 145.328   2
  -1   7  -5 1361.85  216.60   4
  -1   7  -5 836.128 109.287   1
   1   7   5 914.367 121.427   1
   3  -7   5 10.3957 59.5644   2
   3  -7   5 78.6627 91.1329   1
  -3  -7  -5 154.107  80.685   2
   3   7   5 153.500  65.520   1
  -3   7  -5 101.804 129.379   4
  -5  -7  -5 374.204 119.908   2
   5  -7   5 510.590 111.911   2
  -5   7  -5 516.454 172.881   4
   5   7   5 426.163  92.862   1
   7  -7   5 39.1854 72.8997   2
  -7  -7  -5 20.4134 97.5502   2
  -7   7  -5 -47.668 118.965   4
   9  -7   5 -3.7131 85.2104   2
  -9  -7  -5  96.390 226.422   3
   8  -8  -5 -30.392 103.343   1
  -8  -8   5  91.896 101.392   2
  -8   8   5 151.304 155.199   4
   8   8  -5 36.2410 75.5382   1
   6  -8  -5 156.569 117.209   1
  -6  -8   5 137.629  93.074   2
   6   8  -5 209.349  85.870   1
  -6   8   5 245.340 156.971   4
  -4  -8   5 100.138  83.893   2
   4  -8  -5  82.617 104.456   1
  -4   8   5  -2.893 107.214   4
   4   8  -5 -3.1466 53.4879   1
   2  -8  -5 301.279 131.686   1
  -2  -8   5 455.483 128.008   2
   2   8  -5 214.501  74.526   1
  -2   8   5 214.626 125.470   4
   0  -8  -5  59.841 102.473   1
   0  -8   5 13.2132 72.3675   2
   0  -8  -5 68.5568 76.8130   2
   0   8  -5  -3.087 114.913   4
   0   8  -5 144.363  64.071   1
  -2  -8  -5 376.833 115.657   2
   2  -8   5 118.798  84.128   2
  -2   8  -5 278.080  79.325   1
   2   8   5 314.661  86.855   1
  -2   8  -5 481.919 163.724   4
  -4  -8  -5 -13.434  79.678   2
   4  -8   5 14.8219 76.1165   2
   4   8   5 54.1498 60.5524   1
  -4   8  -5  59.393 136.473   4
   6  -8   5 24.9355 83.6679   2
  -6  -8  -5 -39.489  95.412   2
   6   8   5 195.793  86.996   1
  -6   8  -5 487.991 210.393   4
   5  -9  -5  59.043 118.629   1
  -5  -9   5 188.683 123.471   2
   5   9  -5 425.205 109.519   1
  -5   9   5 232.625 166.063   4
   3  -9  -5 175.276 128.117   1
  -3  -9   5 39.0692 94.9623   2
  -3   9   5 186.826 142.641   4
   3   9  -5 218.058  89.074   1
   1  -9  -5 154.939 125.770   1
  -1  -9   5 157.415 103.714   2
   1   9  -5 85.1248 68.4693   1
  -1  -9  -5  94.647 107.169   2
   1  -9   5 82.8447 93.2912   2
  -1   9  -5 142.073 144.863   4
   1   9   5 10.7423 69.0978   1
  -1   9  -5 24.7087 65.5457   1
   3  -9   5 56.7590 90.9058   2
  -3  -9  -5 -49.028  98.030   2
   3   9   5 97.1002 81.1573   1
  -3   9  -5 -21.716 165.171   4
   5   9   5 61.9878 82.0277   1
  14   0  -6 290.279 100.098   1
 -14   0   6 613.022 216.149   3
  12   0  -6 1569.25  170.63   1
 -12   0   6 816.702 199.335   3
  10   0  -6 2804.93  186.60   1
 -10   0   6 2917.75  306.33   3
  -8   0   6 1399.45  197.84   3
   8   0  -6 1172.01  121.67   1
   6   0  -6 2116.61  132.92   1
  -6   0   6 2236.96  216.09   3
  -4   0   6 2312.83  100.74   2
  -4   0   6 2364.17  177.03   3
   4   0  -6 2274.10  123.09   1
  -2   0   6 3720.12  220.35   3
   2   0  -6 3617.60  150.03   1
  -2   0   6 3635.99  146.38   2
   0   0   6 1655.67   87.55   2
   0   0  -6 1406.08   65.30   1
   0   0  -6 1403.24  163.82   3
   2   0   6 4714.71  201.12   2
  -2   0  -6 4952.27  304.37   3
   4   0   6 1501.42  101.46   2
  -4   0  -6 1214.86  187.87   3
  -4   0  -6 1486.38  164.38   4
  -6   0  -6 3739.99  351.62   3
   6   0   6 3539.92  182.30   2
  -6   0  -6 2978.01  256.17   4
  -8   0  -6 1521.03  258.90   3
   8   0   6 1241.36  127.84   2
  10   0   6 1346.07  144.74   2
 -10   0  -6 814.259 239.246   3
  12   0   6 546.112 110.284   2
 -12   0  -6 559.954 269.164   3
 -13  -1   6 890.466 232.923   3
  13  -1  -6 1099.87  156.14   1
  13   1  -6 1499.41  173.81   1
 -13   1   6 902.165 214.243   3
  11  -1  -6 987.108 139.631   1
 -11  -1   6 954.644 205.598   3
 -11   1   6 1186.61  214.08   3
  11   1  -6 1034.97  135.11   1
   9  -1  -6 1344.04  146.53   1
  -9  -1   6 2160.57  253.79   3
   9   1  -6 1831.72  160.41   1
  -9   1   6 1978.24  242.19   3
  -7  -1   6 1203.85  170.12   3
   7  -1  -6 1294.77  127.54   1
  -7   1   6 1210.28  170.56   3
   7   1  -6 1457.55  128.32   1
  -5  -1   6 3245.62  149.49   2
   5  -1  -6 3594.35  177.10   1
  -5  -1   6 3442.01  234.20   3
   5   1  -6 3675.53  166.12   1
  -5   1   6 2880.77  218.21   3
  -3  -1   6 2880.21  196.18   3
   3  -1  -6 2860.19  144.74   1
  -3  -1   6 3069.20  136.62   2
  -3   1   6 2828.29  111.66   2
  -3   1   6 3213.42  204.23   3
   3   1  -6 2965.27  134.13   1
  -1  -1   6 4051.05  229.73   3
  -1  -1   6 3842.57  168.41   2
   1  -1  -6 4030.92  170.69   1
   1   1  -6 3904.69  150.00   1
  -1   1   6 4025.10  235.22   3
  -1   1   6 4147.84  158.14   2
   1  -1   6 3720.76  164.65   2
  -1  -1  -6 3343.89  244.97   3
  -1   1  -6 3475.85  232.50   3
   1   1   6 3615.94  130.84   1
  -1   1  -6 3862.50  231.53   4
   1   1   6 3537.46  154.53   2
  -3  -1  -6 2119.33  232.13   3
   3  -1   6 2308.11  130.46   2
   3   1   6 2275.10  124.98   2
  -3   1  -6 2578.11  219.02   4
   3   1   6 2394.77   94.00   1
  -3   1  -6 2409.04  234.16   3
  -5  -1  -6 1932.98  251.03   3
   5  -1   6 1865.63  123.70   2
  -5   1  -6 1851.70  193.92   4
  -5   1  -6 1667.05  222.84   3
   5   1   6 2014.44  122.00   2
   7  -1   6 954.792 109.102   2
  -7  -1  -6 890.527 198.774   3
   7   1   6 922.921 102.131   2
  -7   1  -6 851.453 146.737   4
  -7   1  -6 665.183 170.637   3
   9  -1   6 1435.86  147.55   2
   9   1   6 1616.03  153.13   2
  -9   1  -6 1551.52  275.97   3
 -11  -1  -6 823.334 268.306   3
  11  -1   6 836.891 127.644   2
  11   1   6 830.178 124.081   2
 -11   1  -6 564.967 235.332   3
  14  -2  -6 1195.26  179.34   1
 -14  -2   6 956.686 257.859   3
 -14   2   6 1222.17  278.93   3
  14   2  -6 1366.77  179.52   1
  12  -2  -6 518.597 119.822   1
 -12  -2   6 716.424 204.521   3
 -12   2   6 651.423 179.962   3
  12   2  -6 842.441 130.167   1
 -10  -2   6 912.805 191.763   3
  10  -2  -6 618.799 112.144   1
  10   2  -6 649.988 105.362   1
 -10   2   6 851.179 164.203   4
 -10   2   6 956.919 189.550   3
   8  -2  -6 1768.93  172.67   1
  -8  -2   6 1662.68  219.91   3
   8   2  -6 1791.42  152.95   1
  -8   2   6 1789.40  218.45   3
   6  -2  -6 1881.82  159.31   1
  -6  -2   6 1636.75  129.39   2
  -6  -2   6 1557.37  188.97   3
   6   2  -6 1516.09  124.43   1
  -6   2   6 1655.78  191.25   3
   4  -2  -6 3551.18  187.34   1
  -4  -2   6 3317.72  229.25   3
  -4  -2   6 3684.25  172.91   2
   4   2  -6 3600.00  166.63   1
  -4   2   6 3723.26  237.47   3
   2  -2  -6 4769.54  215.97   1
  -2  -2   6 4422.67  250.70   3
  -2  -2   6 4758.03  207.08   2
  -2   2   6 4833.15  173.67   2
  -2   2   6 4530.88  262.66   3
   2   2  -6 4629.67  187.12   1
   0  -2   6 4976.69  212.96   2
   0  -2   6 4926.76  258.50   3
   0  -2  -6 4938.71  304.40   3
   0  -2  -6 5041.99  219.10   1
   0   2  -6 4723.29  180.52   1
   0   2   6 4842.34  192.15   2
   0   2  -6 4920.74  280.55   4
   2  -2   6 1249.79  109.08   2
  -2  -2  -6 1669.89  203.70   3
  -2   2  -6 1327.65   64.19   1
  -2   2  -6 976.313 139.908   4
   2   2   6 1264.61   71.12   1
  -2   2  -6 1561.26  169.81   3
   2   2   6 1233.61   83.29   2
   4  -2   6 2034.64  128.55   2
  -4  -2  -6 1886.70  237.52   3
  -4   2  -6 2058.54  213.29   4
  -4   2  -6 1780.49  207.19   3
   4   2   6 1948.98   98.65   1
   4   2   6 1855.21  119.60   2
   6  -2   6 913.826 104.403   2
  -6  -2  -6 918.619 192.923   3
  -6   2  -6 998.125 165.751   4
   6   2   6 1117.32  111.01   2
  -6   2  -6 710.066 167.729   3
  -8  -2  -6 849.301 215.969   3
   8  -2   6 947.311 116.050   2
  -8   2  -6 713.063 156.090   4
  -8   2  -6 1086.97  219.75   3
   8   2   6 770.179 101.394   2
 -10  -2  -6 562.056 216.496   3
  10  -2   6 690.433 110.783   2
  10   2   6 782.875 114.078   2
 -10   2  -6 955.846 236.383   3
  12  -2   6 1026.88  141.83   2
 -12  -2  -6 772.749 279.652   3
  12   2   6 788.229 130.243   2
 -13  -3   6 1014.70  253.18   3
  13  -3  -6 696.492 144.877   1
  13   3  -6 734.138 135.629   1
 -13   3   6 1106.96  256.82   3
  11  -3  -6 1643.21  192.82   1
 -11  -3   6 1853.54  278.50   3
 -11   3   6 1168.18  207.85   4
  11   3  -6 1554.27  165.74   1
 -11   3   6 954.321 204.314   3
  -9  -3   6 850.446 177.295   3
   9  -3  -6 626.468 114.980   1
   9   3  -6 902.259 115.268   1
  -9   3   6 407.720 131.586   4
  -9   3   6 732.421 166.878   3
   7  -3  -6 4066.40  241.66   1
  -7  -3   6 4322.99  303.97   3
  -7  -3   6 4486.90  229.74   2
  -7   3   6 4353.17  289.77   3
   7   3  -6 4152.70  216.58   1
   5  -3  -6 1686.48  157.03   1
  -5  -3   6 1674.10  138.40   2
  -5  -3   6 1533.19  179.81   3
   5   3  -6 1816.19  117.33   1
  -5   3   6 1734.39  180.37   3
   3  -3  -6 2465.33  160.69   1
  -3  -3   6 2181.14  196.51   3
  -3  -3   6 2373.22  145.72   2
   3   3  -6 2403.45  127.55   1
  -3   3   6 2394.25  101.27   2
  -3   3   6 2227.26  200.00   3
  -1  -3   6 1300.72  132.45   3
   1  -3  -6 1355.57  132.20   1
   1  -3  -6 1414.62  181.63   3
  -1  -3   6 1399.01  119.24   2
   1   3  -6 1346.37  162.47   4
  -1   3   6 1399.50   79.95   2
   1   3  -6 1368.28   84.05   1
  -1  -3  -6 2227.52  231.30   3
   1  -3   6 1884.99  143.82   3
  -1  -3  -6 2043.86  160.68   1
   1  -3   6 2029.74  126.74   2
  -1   3  -6 1926.53   99.43   1
  -1   3  -6 2420.00  224.52   4
   1   3   6 1771.48  106.21   2
   3  -3   6 2729.15  159.08   2
   3  -3   6 2669.82  158.72   1
  -3  -3  -6 2691.83  286.40   3
  -3   3  -6 2457.75  222.76   3
   3   3   6 2828.46  146.62   2
   3   3   6 2567.94  128.99   1
  -3   3  -6 3101.46  271.66   4
   5  -3   6 1483.12  135.34   2
  -5  -3  -6 1231.69  214.35   3
  -5   3  -6 1535.35  203.92   4
   5   3   6 1415.70  128.72   2
  -5   3  -6 1266.46  181.24   3
   7  -3   6 2616.55  173.17   2
  -7  -3  -6 2572.41  328.84   3
  -7   3  -6 2644.27  299.25   3
  -7   3  -6 2664.48  282.06   4
   7   3   6 2748.31  171.83   2
   9  -3   6 1005.76  128.15   2
  -9  -3  -6 765.466 223.460   3
  -9   3  -6 789.640 175.221   4
   9   3   6 576.087 103.211   2
  11  -3   6 878.605 135.416   2
 -11  -3  -6 1080.86  289.92   3
  11   3   6 919.744 135.328   2
 -12  -4   6 959.598 238.422   3
  12  -4  -6 705.314 149.806   1
 -12   4   6 798.665 195.672   4
  12   4  -6 698.514 125.384   1
 -10  -4   6 1517.57  254.84   3
  10  -4  -6 1669.97  205.22   1
 -10   4   6 1661.26  247.52   4
 -10   4   6 1680.40  246.43   3
  10   4  -6 2038.06  189.84   1
   8  -4  -6 3786.89  248.92   1
  -8  -4   6 3328.71  210.95   2
  -8  -4   6 2497.65  286.07   3
   8   4  -6 3045.82  195.14   1
  -8   4   6 3003.82  287.85   3
  -8   4   6 2994.64  310.52   4
  -6  -4   6 1825.74  212.78   3
  -6  -4   6 1840.56  165.82   2
   6  -4  -6 2019.70  196.47   1
  -6   4   6 2215.58  222.46   3
  -6   4   6 2248.89  246.77   4
   6   4  -6 1786.77  150.45   1
   4  -4  -6 1240.58  149.01   1
  -4  -4   6 1254.67  156.73   3
  -4  -4   6 1441.27  135.83   2
   4   4  -6 1370.34  117.69   1
  -4   4   6 1268.36  158.01   3
   2  -4  -6 980.056  99.452   2
  -2  -4   6 991.846 122.581   3
   2  -4  -6 1115.65  139.15   1
  -2  -4   6 1031.22  113.57   2
  -2   4   6 722.881 117.458   3
   2   4  -6 874.931  85.350   1
   2   4  -6 831.268 135.185   4
   0  -4  -6 1240.30  144.77   1
   0  -4   6 1255.07  126.46   3
   0  -4  -6 1437.44  133.56   2
   0  -4  -6 1250.58  180.03   3
   0  -4   6 1348.33  132.97   2
   0   4  -6 1457.35   93.57   1
   0   4  -6 1256.65  170.64   4
   2  -4   6 971.432 107.406   2
  -2  -4  -6 684.828 105.552   2
  -2  -4  -6 989.239 175.828   3
   2  -4   6 763.516 108.375   1
  -2   4  -6 785.759 146.723   4
   2   4   6 861.661  85.386   1
   4  -4   6 3623.67  204.25   2
  -4  -4  -6 3983.26  367.30   3
   4   4   6 3773.54  182.61   1
   4   4   6 3825.29  196.62   2
  -4   4  -6 3458.12  316.44   4
   6  -4   6 2336.99  191.18   2
  -6  -4  -6 2270.62  314.74   3
   6   4   6 2271.52  180.89   2
  -6   4  -6 2274.15  271.78   4
  -8  -4  -6 1194.00  257.58   3
   8  -4   6 1662.17  168.62   2
   8   4   6 1571.20  158.74   2
  -8   4  -6 1755.04  258.22   4
  10  -4   6 429.019 106.364   2
 -10  -4  -6 666.601 228.380   3
  10   4   6 397.862  99.521   2
 -10   4  -6 606.838 196.357   4
 -13  -5   6 825.185 266.845   3
 -13   5   6 867.720 234.812   4
  11  -5  -6 938.485 169.985   1
 -11  -5   6 596.507 202.177   3
 -11   5   6 892.138 204.835   4
  11   5  -6 1205.01  157.03   1
  -9  -5   6 884.658 205.211   3
  -9  -5   6 999.388 149.225   2
   9  -5  -6 1363.83  190.98   1
  -9   5   6 978.015 197.779   4
   9   5  -6 1367.19  153.99   1
  -7  -5   6 886.525 130.350   2
   7  -5  -6 744.915 139.898   1
  -7  -5   6 726.203 159.949   3
   7   5  -6 822.810 113.973   1
  -7   5   6 814.724 173.615   4
  -5  -5   6 2043.26  214.21   3
   5  -5  -6 2231.29  226.31   1
  -5  -5   6 2075.08  188.64   2
  -5   5   6 2691.63  232.62   3
   5   5  -6 2239.82  152.50   1
  -5   5   6 2212.76  256.52   4
   3  -5  -6 1345.07  168.08   1
  -3  -5   6 1231.47  137.80   2
  -3   5   6 983.108 143.048   3
   3   5  -6 1128.26  162.60   4
   3   5  -6 1220.29  114.27   1
  -1  -5   6 1232.22  141.67   2
   1  -5  -6 1595.47  180.06   1
   1  -5  -6 1229.97  134.07   2
  -1   5   6 1408.55  159.80   3
   1   5  -6 1160.60  107.07   1
   1   5  -6 1134.24  171.33   4
  -1  -5  -6 2289.07  259.28   3
  -1  -5  -6 2377.00  202.02   2
  -1  -5  -6 2116.32  211.33   1
   1  -5   6 2523.01  199.28   2
  -1   5  -6 2734.87  146.11   1
  -1   5  -6 2346.84  253.29   4
   3  -5   6 1418.43  171.05   1
  -3  -5  -6 1607.30  174.78   2
  -3  -5  -6 2227.58  272.43   3
   3  -5   6 1850.98  168.53   2
  -3   5  -6 1665.44  227.77   4
   3   5   6 1832.19  142.73   1
  -5  -5  -6 983.322 151.364   2
   5  -5   6 1102.22  134.35   2
  -5  -5  -6 847.046 195.337   3
   5   5   6 925.430 104.894   1
  -5   5  -6 1317.41  210.70   4
   5   5   6 1077.67  117.92   2
   7  -5   6 1138.22  142.03   2
  -7  -5  -6 488.448 197.773   3
  -7   5  -6 1090.62  223.64   4
   7   5   6 1114.98  138.55   2
  -9  -5  -6 948.467 267.963   3
   9  -5   6 846.146 132.812   2
   9   5   6 846.116 129.032   2
  -9   5  -6 808.117 223.590   4
  11  -5   6 395.964 112.552   2
 -11   5  -6 599.963 228.415   4
  10  -6  -6 1079.11  188.42   1
 -10  -6   6 629.226 135.419   2
  10   6  -6 653.748 126.893   1
 -10   6   6 456.133 162.657   4
   8  -6  -6 285.887 112.921   1
  -8  -6   6 403.325 108.221   2
   8   6  -6 354.337  90.834   1
  -8   6   6 327.708 136.906   4
  -6  -6   6 1159.87  158.11   2
   6  -6  -6 964.077 163.481   1
  -6   6   6 660.092 166.951   4
   6   6  -6 833.403 116.018   1
   4  -6  -6 1067.25  165.69   1
  -4  -6   6 1072.38  144.12   2
   4   6  -6 1137.99  124.94   1
  -4   6   6 839.408 169.984   4
   2  -6  -6 3781.81  310.58   1
  -2  -6   6 3632.88  234.01   2
   2   6  -6 3806.26  314.91   4
   2   6  -6 3433.96  198.20   1
   0  -6  -6 1528.70  209.31   3
   0  -6   6 1725.20  175.30   2
   0  -6  -6 1556.67  201.25   1
   0  -6  -6 1302.51  155.53   2
   0   6   6 1640.21  198.71   4
   0   6  -6 1183.16  196.18   4
   0   6  -6 1396.33  131.31   1
  -2  -6  -6 2203.63  276.72   3
  -2  -6  -6 2028.96  204.98   2
   2  -6   6 2160.51  199.80   2
  -2   6  -6 1949.81  156.20   1
   2   6   6 2065.44  167.00   1
  -2   6  -6 2560.91  287.36   4
  -4  -6  -6 369.162 102.083   2
  -4  -6  -6 364.160 155.098   3
   4  -6   6 565.552 107.860   2
   4   6   6 521.788  86.621   1
  -4   6  -6 333.524 142.695   4
  -6  -6  -6 890.200 161.387   2
   6  -6   6 780.029 132.947   2
  -6  -6  -6 722.416 218.938   3
  -6   6  -6 1182.22  220.49   4
   6   6   6 1019.15  130.92   2
   8  -6   6 60.0238 79.4525   2
  -8  -6  -6 313.716 192.928   3
  -8   6  -6 256.067 158.794   4
   8   6   6 174.638  75.424   2
  10  -6   6 754.742 146.560   2
  -9  -7   6 684.553 158.643   2
   9  -7  -6 723.015 175.846   1
   9   7  -6 999.794 153.290   1
  -9   7   6 810.863 215.399   4
   7  -7  -6 537.604 138.566   1
  -7  -7   6 573.162 132.824   2
   7   7  -6 379.480 102.141   1
  -7   7   6 599.660 180.612   4
   5  -7  -6 640.041 152.068   1
  -5  -7   6 1196.18  171.83   2
  -5   7   6 1050.36  212.81   4
   5   7  -6 1286.37  145.66   1
  -3  -7   6 431.793 112.427   2
   3  -7  -6 517.406 134.155   1
  -3   7   6 574.524 148.796   4
   3   7  -6 906.384 117.878   1
   1  -7  -6 1084.86  145.22   2
  -1  -7   6 1105.74  161.26   2
   1  -7  -6 1108.90  188.11   1
  -1   7   6 1177.35  194.03   4
   1   7  -6 1187.09  127.53   1
   1   7  -6 933.829 179.220   4
   1  -7   6 902.882 142.888   2
  -1  -7  -6 815.905 138.215   2
  -1   7  -6 1223.95  216.62   4
  -1   7  -6 1059.01  121.98   1
   1   7   6 1357.68  143.88   1
  -3  -7  -6 834.287 151.049   2
   3  -7   6 413.658 103.400   2
  -3   7  -6 792.043 200.369   4
   3   7   6 626.958 103.580   1
   5  -7   6 817.316 142.621   2
  -5  -7  -6 637.111 144.917   2
   5   7   6 587.717 104.327   1
  -5   7  -6 482.842 188.074   4
  -7  -7  -6 518.840 234.121   3
  -7  -7  -6 289.069 120.230   2
   7  -7   6 435.530 115.432   2
   7   7   6 721.297 121.709   2
  -7   7  -6 598.200 207.680   4
  -8  -8   6 1450.78  213.74   2
   8  -8  -6 1241.21  228.20   1
  -8   8   6 950.408 240.413   4
   8   8  -6 1560.61  197.32   1
  -6  -8   6 501.319 142.563   2
   6  -8  -6 798.641 189.188   1
  -6   8   6 605.663 185.897   4
   6   8  -6 767.739 127.454   1
   4  -8  -6 734.553 178.869   1
  -4  -8   6 919.625 162.863   2
  -4   8   6 502.263 174.784   4
   4   8  -6 683.895 115.311   1
   2  -8  -6 553.352 164.240   1
  -2  -8   6 373.700 120.802   2
   2   8  -6 652.266 109.445   1
  -2   8   6 259.310 137.680   4
   0  -8  -6 694.346 169.650   1
   0  -8   6 689.128 142.611   2
   0  -8  -6 434.805 120.039   2
   0   8  -6 257.700 139.690   4
   0   8  -6 525.767  99.430   1
   2  -8   6 413.844 122.026   2
  -2  -8  -6 350.331 117.913   2
  -2   8  -6 148.691 147.493   4
   2   8   6 241.925  81.936   1
   4  -8   6 595.599 134.279   2
  -4  -8  -6 781.695 163.220   2
  -4   8  -6 942.269 236.251   4
   4   8   6 984.239 135.103   1
   6  -8   6 727.447 149.108   2
  -6  -8  -6 649.533 165.253   2
  -5  -9   6 230.043 126.320   2
   5  -9  -6 251.543 144.470   1
  -5   9   6 384.829 176.757   4
   5   9  -6 358.322 108.763   1
   3  -9  -6 124.342 139.174   1
  -3  -9   6 958.898 178.554   2
  -3   9   6 851.716 212.477   4
   3   9  -6 865.901 136.107   1
   1  -9  -6 590.008 182.349   1
  -1  -9   6 544.534 142.328   2
   1   9  -6 597.456 115.485   1
  -1  -9  -6 550.291 148.509   2
   1  -9   6 504.264 138.399   2
   1   9   6 390.146 107.890   1
  -1   9  -6 323.565 166.422   4
  -3  -9  -6 768.227 174.443   2
   3   9   6 708.051 131.395   1
  -3   9  -6 453.781 209.234   4
  14   0  -7 -33.236  58.894   1
 -14   0   7  -7.621 143.719   3
  12   0  -7 81.2851 67.3215   1
 -12   0   7  58.783 125.932   3
 -10   0   7 -20.886  93.762   3
  10   0  -7 91.8669 53.8639   1
  -8   0   7 93.6137 86.3905   3
   8   0  -7 43.9508 43.0488   1
   6   0  -7 31.9826 36.0220   1
  -6   0   7 -56.451  48.955   3
  -4   0   7 -34.199  52.451   3
   4   0  -7  6.4000 24.8764   1
  -4   0   7 14.0967 22.5616   2
  -2   0   7 28.0301 50.4845   3
  -2   0   7  2.7819 19.1654   2
   2   0  -7 -13.188  20.977   1
   0   0  -7 -3.9890 17.4531   1
   0   0  -7 -23.916  54.478   3
   0   0   7 17.2315 21.5600   2
   2   0   7 -4.3397 26.1482   2
  -2   0  -7 16.2207 67.1587   3
   4   0   7  2.6004 27.8310   2
  -4   0  -7 -27.567  79.304   3
  -6   0  -7 31.3877 74.6971   4
  -6   0  -7 176.396 120.142   3
   6   0   7 -54.388  32.418   2
   8   0   7 -18.015  38.257   2
  -8   0  -7  31.300 140.213   3
 -10   0  -7  97.634 174.575   3
  10   0   7 51.2881 58.3328   2
 -12   0  -7 -119.54  187.79   3
  13  -1  -7 82.4443 73.9473   1
 -13  -1   7 294.566 163.295   3
  13   1  -7 127.973  78.208   1
 -13   1   7 111.993 142.122   3
  11  -1  -7 58.6877 57.6806   1
 -11  -1   7 -42.900  97.952   3
 -11   1   7 -34.037 102.256   3
  11   1  -7 71.6454 54.1464   1
  -9  -1   7 -46.650  81.024   3
   9  -1  -7 35.7976 43.7850   1
   9   1  -7  0.8168 46.0883   1
  -9   1   7  99.409 100.188   3
   7  -1  -7 274.177  63.166   1
  -7  -1   7 157.268  88.859   3
  -7   1   7 228.595 100.348   3
   7   1  -7 232.704  58.278   1
  -5  -1   7 50.8199 32.7824   2
   5  -1  -7 -14.894  29.248   1
  -5  -1   7 52.3174 63.2648   3
  -5   1   7 98.8672 66.8267   3
   5   1  -7 -17.578  28.901   1
   3  -1  -7 493.745  65.000   1
  -3  -1   7 473.988  58.945   2
  -3  -1   7 681.811 112.688   3
  -3   1   7 622.807 108.423   3
  -3   1   7 598.839  48.838   2
   3   1  -7 557.229  59.104   1
   1  -1  -7 523.064  60.600   1
  -1  -1   7 513.638  60.110   2
  -1  -1   7 454.455  93.311   3
   1   1  -7 575.250  46.762   1
  -1   1   7 581.280 106.392   3
  -1   1   7 614.387  57.534   2
   1  -1   7 234.259  46.228   2
  -1  -1  -7 303.320  97.472   3
  -1   1  -7 172.793  84.750   3
   1   1   7 180.510  38.046   2
   1   1   7 209.497  23.220   1
   3  -1   7 22.0145 28.8561   2
  -3  -1  -7  2.1633 71.8175   3
  -3   1  -7 16.3461 66.7378   4
  -3   1  -7 14.0683 73.7543   3
   3   1   7 28.3553 25.7297   2
   5  -1   7 -10.408  32.153   2
  -5  -1  -7 176.859 110.361   3
  -5   1  -7 28.3146 94.1534   3
  -5   1  -7 210.843  96.312   4
   5   1   7 41.9987 37.8823   2
   7  -1   7 -11.833  37.628   2
  -7  -1  -7  13.577 121.293   3
   7   1   7 24.1755 37.3524   2
  -7   1  -7  71.248 114.355   3
  -7   1  -7  2.0064 85.7440   4
   9  -1   7 32.6461 51.6435   2
  -9  -1  -7  62.214 139.071   3
   9   1   7 66.4187 52.0005   2
  -9   1  -7  85.697 158.547   3
 -11  -1  -7 177.507 201.006   3
  11  -1   7 81.8391 65.4082   2
  11   1   7 -7.6642 60.5336   2
 -11   1  -7  -2.351 193.251   3
 -14  -2   7 151.660 172.793   3
  14  -2  -7 24.8560 73.1566   1
 -14   2   7 168.215 183.417   3
  14   2  -7  4.0354 69.8823   1
  12  -2  -7 33.6198 64.7047   1
 -12  -2   7 -89.290 120.819   3
  12   2  -7 34.4696 62.4898   1
 -12   2   7 -76.291 112.876   3
 -10  -2   7  4.9781 92.9806   3
  10  -2  -7 10.6937 54.0090   1
 -10   2   7  27.993 115.570   3
 -10   2   7 -6.1775 86.9229   4
  10   2  -7 12.4829 43.9248   1
  -8  -2   7 11.6690 81.7466   3
   8  -2  -7 -37.193  41.345   1
  -8   2   7 -16.202  86.627   3
   8   2  -7 134.395  51.840   1
   6  -2  -7 38.1759 44.0824   1
  -6  -2   7 21.5589 64.2105   3
  -6  -2   7 61.8583 41.1798   2
  -6   2   7 21.9157 70.8726   3
   6   2  -7 22.0705 38.4975   1
  -4  -2   7 67.9208 36.8208   2
   4  -2  -7 56.5131 39.5169   1
  -4  -2   7 -41.908  53.573   3
   4   2  -7 -12.804  26.921   1
  -4   2   7 126.101  71.480   3
  -2  -2   7 227.633  74.086   3
  -2  -2   7 93.9818 37.4236   2
   2  -2  -7 97.8001 44.0112   1
  -2   2   7 107.342  25.542   2
   2   2  -7 108.825  30.292   1
  -2   2   7 22.8059 52.9449   3
   0  -2  -7 41.2806 35.9734   1
   0  -2  -7 56.3550 73.1155   3
   0  -2   7 -29.515  42.729   3
   0  -2   7 87.4551 34.4079   2
   0   2  -7 75.3194 23.1504   1
   0   2  -7 138.691  69.268   4
   0   2   7 16.6823 20.9871   2
  -2  -2  -7 283.569 109.030   3
   2  -2   7 141.307  46.618   2
   2   2   7 196.407  41.931   2
  -2   2  -7 80.4907 72.3314   3
  -2   2  -7 147.606  82.055   4
   2   2   7 180.075  30.622   1
   4  -2   7 58.2015 37.7527   2
  -4  -2  -7 74.6052 92.7582   3
   4   2   7 28.1430 31.8251   2
  -4   2  -7 176.037  96.615   3
  -4   2  -7 -42.755  60.635   4
  -6  -2  -7 155.287 133.170   3
   6  -2   7 421.961  77.895   2
   6   2   7 282.188  62.602   2
  -6   2  -7 493.174 153.021   3
  -6   2  -7 257.338 111.051   4
   8  -2   7 -33.643  42.664   2
  -8  -2  -7 -23.839 132.577   3
  -8   2  -7 -32.060 135.315   3
   8   2   7 62.0082 50.1673   2
  -8   2  -7 -47.114  95.328   4
  10  -2   7 12.2896 51.6592   2
 -10  -2  -7  -3.872 169.472   3
 -10   2  -7  18.558 166.499   3
  10   2   7  6.1170 51.5820   2
 -13  -3   7 278.070 179.325   3
  13  -3  -7 12.5227 74.1769   1
 -13   3   7 -100.96  140.51   3
  13   3  -7 -60.498  63.620   1
 -11  -3   7  11.792 120.524   3
  11  -3  -7 47.9996 71.3400   1
 -11   3   7 14.0838 97.3915   4
 -11   3   7 -52.800 104.190   3
  11   3  -7 15.6894 60.7110   1
  -9  -3   7 22.3899 91.3467   3
   9  -3  -7  6.6116 54.1528   1
  -9   3   7 73.1259 94.7280   4
   9   3  -7 -9.8617 50.3568   1
  -9   3   7   5.173 103.482   3
  -7  -3   7 403.855  79.820   2
   7  -3  -7 535.764  98.289   1
  -7  -3   7 430.188 125.984   3
   7   3  -7 436.869  76.484   1
  -7   3   7 679.466 145.216   3
  -5  -3   7 595.635 125.377   3
   5  -3  -7 466.271  90.830   1
  -5  -3   7 470.003  76.509   2
  -5   3   7 560.314 117.693   3
   5   3  -7 585.431  77.628   1
  -3  -3   7  7.8851 57.6708   3
  -3  -3   7 72.0164 41.1496   2
   3  -3  -7 -3.8390 34.4664   1
  -3   3   7 62.5575 24.1786   2
  -3   3   7 118.435  62.188   3
   3   3  -7 75.1750 35.0191   1
  -1  -3   7  8.6465 50.8610   3
   1  -3  -7  9.5786 42.8263   1
   1  -3  -7 61.1094 84.7572   3
  -1  -3   7 -29.577  25.012   2
  -1   3   7 -44.904  49.125   3
   1   3  -7 38.4786 26.0409   1
  -1   3   7 10.8409 20.9759   2
   1   3  -7 31.6202 60.1792   4
   1  -3   7 -6.0257 28.4685   2
  -1  -3  -7 74.6377 46.9327   1
   1  -3   7 81.8411 58.3994   3
  -1  -3  -7 117.674  91.174   3
   1   3   7 82.3233 31.7124   2
  -1   3  -7 -36.411  60.264   4
   3  -3   7 37.9214 36.4896   2
  -3  -3  -7 -15.785  83.220   3
  -3   3  -7 -7.9125 70.0381   3
   3   3   7 52.7846 32.5568   2
  -3   3  -7 148.983  87.331   4
   5  -3   7 35.7507 46.7042   2
  -5  -3  -7 -9.7634 99.6133   3
   5   3   7 44.3659 39.2565   2
  -5   3  -7 60.4583 83.4791   4
  -5   3  -7 -4.0391 99.7932   3
   7  -3   7 212.340  65.670   2
  -7  -3  -7  50.180 124.697   3
   7   3   7 23.2981 47.7731   2
  -7   3  -7  69.944 102.043   4
   9  -3   7 129.996  71.617   2
  -9  -3  -7 -73.876 135.764   3
   9   3   7 137.652  62.327   2
  -9   3  -7 171.959 134.347   4
  11  -3   7 105.232  78.068   2
  12  -4  -7 -52.568  74.660   1
 -12  -4   7  29.999 148.888   3
  12   4  -7 -52.492  58.606   1
 -12   4   7  32.634 129.818   4
 -10  -4   7  96.523 113.637   3
  10  -4  -7 286.902 102.237   1
 -10   4   7  78.972 103.250   4
 -10   4   7 108.995 128.329   3
  10   4  -7 186.653  78.258   1
  -8  -4   7 180.858 108.480   3
  -8  -4   7 56.9474 65.7967   2
   8  -4  -7 209.407  86.551   1
   8   4  -7 -4.9150 45.8554   1
  -8   4   7 106.418 111.500   3
  -8   4   7 88.8159 98.6246   4
   6  -4  -7 23.9284 52.7887   1
  -6  -4   7 -1.6242 79.8450   3
  -6  -4   7 20.9163 48.4511   2
  -6   4   7 29.0864 81.5387   3
   6   4  -7 52.2780 40.2976   1
   4  -4  -7 224.192  76.292   1
  -4  -4   7 114.441  78.923   3
  -4  -4   7 274.771  69.629   2
   4   4  -7 240.640  57.169   1
  -4   4   7 194.190  80.153   3
   2  -4  -7 -9.0699 38.0962   2
  -2  -4   7 21.9204 62.3880   3
   2  -4  -7 -6.2207 51.5120   1
  -2  -4   7  4.5682 38.8673   2
   2   4  -7 20.6916 29.2856   1
  -2   4   7 81.1979 58.6882   3
   2   4  -7 50.2445 75.7271   4
   0  -4   7 36.7042 41.4141   2
   0  -4  -7 135.442  62.620   1
   0  -4  -7 -30.535  85.406   3
   0   4   7 36.4004 25.6473   2
   0   4  -7  9.8683 26.6496   1
   0   4  -7 83.7068 81.0248   4
   2  -4   7 -27.491  39.074   2
  -2  -4  -7 -0.5733 92.3952   3
   2   4   7 -15.272  25.351   2
  -2   4  -7 38.2417 80.1646   4
   2   4   7 11.7056 28.1417   1
  -4  -4  -7 282.640 137.735   3
   4  -4   7 424.369  82.095   2
   4   4   7 388.470  71.368   2
  -4   4  -7 410.556 129.756   4
   6  -4   7 51.8202 57.4874   2
  -6  -4  -7  -1.185 118.631   3
   6   4   7 -36.633  39.127   2
  -6   4  -7 -2.6146 98.8519   4
   8  -4   7 32.2646 57.0828   2
  -8  -4  -7 166.345 175.087   3
   8   4   7 204.310  75.804   2
  -8   4  -7  42.688 113.423   4
 -10  -4  -7 -125.60  170.73   3
  10  -4   7 59.9453 69.9253   2
 -10   4  -7  10.897 148.650   4
  10   4   7 -42.445  55.750   2
 -11  -5   7 326.513 181.767   3
  11  -5  -7 145.168 103.028   1
  11   5  -7 241.559  92.974   1
 -11   5   7 410.408 167.886   4
  -9  -5   7  0.2777 71.7184   2
  -9  -5   7  55.082 109.276   3
   9  -5  -7 -67.362  64.593   1
  -9   5   7  4.8971 96.3409   4
   9   5  -7 -38.463  49.577   1
  -7  -5   7 -11.276  89.563   3
  -7  -5   7 148.013  78.160   2
   7  -5  -7 -23.617  75.155   1
   7   5  -7 43.6876 48.2965   1
  -7   5   7 211.848 109.059   3
  -7   5   7 47.8454 94.5516   4
   5  -5  -7 174.747  86.047   1
  -5  -5   7 103.590  66.216   2
  -5   5   7 174.499  93.400   3
  -5   5   7 237.911 113.031   4
   5   5  -7 84.0914 50.8617   1
  -3  -5   7 333.062  82.576   2
   3  -5  -7 81.2069 73.7573   1
  -3   5   7 179.062  88.703   3
   3   5  -7 166.133  52.274   1
   3   5  -7 171.116 101.094   4
  -1  -5   7 -2.7737 45.8053   2
   1  -5  -7 33.1094 51.8256   2
   1  -5  -7 -51.192  55.325   1
  -1   5   7 39.9216 71.3980   3
   1   5  -7 -12.834  31.398   1
   1   5  -7 60.4219 87.0244   4
  -1  -5  -7 661.377 125.441   1
  -1  -5  -7 686.060 165.960   3
   1  -5   7 630.613 107.176   2
  -1  -5  -7 642.023 107.125   2
  -1   5  -7 395.815 131.744   4
  -3  -5  -7 800.404 187.720   3
  -3  -5  -7 345.354  98.956   2
   3  -5   7 522.942  97.936   2
   3   5   7 559.419  82.475   2
  -3   5  -7 628.464 165.342   4
   3   5   7 380.350  69.993   1
   5  -5   7 56.1490 48.8154   2
  -5  -5  -7  23.732 135.570   3
   5   5   7 99.6119 49.7949   2
  -5   5  -7 -88.693  92.831   4
   7  -5   7 54.0947 60.2315   2
  -7  -5  -7 -18.291 120.319   3
   7   5   7 -13.360  43.147   2
  -7   5  -7 127.585 130.282   4
   9  -5   7 74.1218 73.8463   2
  -9  -5  -7  35.203 184.839   3
  -9   5  -7 -94.242 136.609   4
   9   5   7 66.0498 67.5951   2
  10  -6  -7  38.082 101.879   1
 -10   6   7 128.140 134.699   4
  10   6  -7 110.733  85.609   1
  -8  -6   7  2.4598 78.9274   2
   8  -6  -7 31.5937 97.9964   1
  -8   6   7 -20.429 104.726   4
   8   6  -7 51.7153 64.8470   1
  -6  -6   7 140.459  80.450   2
   6  -6  -7 72.9624 86.0971   1
  -6   6   7  74.162 107.957   4
   6   6  -7  2.6129 49.7779   1
  -4  -6   7 21.2016 64.0393   2
   4  -6  -7 17.5746 77.5248   1
   4   6  -7 -28.595  38.768   1
   4   6  -7  81.327 106.330   4
  -4   6   7 -35.674  91.827   4
  -2  -6   7 38.1221 59.5853   2
   2  -6  -7 34.9598 67.2730   1
  -2   6   7 225.638 112.525   4
   2   6  -7 70.3241 97.9709   4
   2   6  -7 234.730  60.108   1
   0  -6  -7 233.091  97.141   1
   0  -6  -7 432.409  98.177   2
   0  -6  -7 572.864 159.327   3
   0  -6   7 259.521  82.300   2
   0   6  -7 499.724 144.723   4
   0   6  -7 296.862  66.619   1
  -2  -6  -7 -14.086 107.164   3
  -2  -6  -7 128.597  80.434   2
   2  -6   7 98.5223 61.5257   2
   2   6   7 139.161  55.551   1
  -2   6  -7 175.723 114.402   4
  -4  -6  -7 45.8566 74.5533   2
  -4  -6  -7  94.285 143.534   3
   4  -6   7 -25.170  50.949   2
  -4   6  -7  41.707 110.315   4
  -6  -6  -7  42.987 156.793   3
   6  -6   7 223.406  88.852   2
   6   6   7 127.326  66.690   2
  -6   6  -7  80.377 133.180   4
   8  -6   7 74.4083 78.8685   2
  -8  -6  -7 171.807 204.077   3
   8   6   7 20.0727 60.7616   2
  -8   6  -7  12.278 155.869   4
  -9  -7   7 280.277 112.309   2
   9  -7  -7 204.343 127.218   1
   9   7  -7 172.805  95.842   1
  -9   7   7 159.547 139.761   4
   7  -7  -7 -12.907  95.709   1
  -7  -7   7 69.1296 90.8444   2
  -7   7   7  57.544 122.178   4
   7   7  -7 29.9565 74.7197   1
   5  -7  -7 410.367 127.975   1
  -5  -7   7 574.746 124.662   2
  -5   7   7 740.974 177.023   4
   5   7  -7 808.551 117.329   1
   3  -7  -7 -49.339  80.662   1
  -3  -7   7 234.925  96.543   2
   3   7  -7 94.5449 60.8825   1
   3   7  -7  89.729 108.732   4
  -3   7   7  -3.778 101.598   4
  -1  -7   7 198.641  83.211   2
   1  -7  -7 158.816 111.054   1
  -1   7   7 231.691 116.096   4
   1   7  -7 301.682 140.081   4
   1   7  -7 210.373  67.502   1
   1  -7   7 -7.2432 63.4790   2
  -1  -7  -7 105.403  79.322   2
  -1   7  -7 -142.69   90.83   4
   1   7   7 38.5944 55.3207   1
   3  -7   7 91.1112 78.8530   2
  -3  -7  -7 -21.477  75.121   2
  -3   7  -7  20.065 127.860   4
   3   7   7 -33.686  49.624   1
  -5  -7  -7 -64.883  80.487   2
   5  -7   7 59.8796 72.9687   2
  -5   7  -7 -52.988 118.265   4
   7  -7   7 141.087  97.368   2
  -7  -7  -7 -50.876 198.793   3
   7   7   7 146.178  75.962   2
  -8  -8   7  84.666 115.519   2
  -6  -8   7 54.0267 90.4947   2
   6  -8  -7  57.336 117.455   1
  -6   8   7  14.437 134.247   4
   6   8  -7 35.7479 72.3486   1
   4  -8  -7 146.757 122.872   1
  -4  -8   7 -46.749  75.134   2
   4   8  -7 18.1524 61.3885   1
  -4   8   7 214.467 134.983   4
   2  -8  -7 309.112 145.403   1
  -2  -8   7 190.110 103.159   2
   2   8  -7 183.629  76.290   1
  -2   8   7 192.814 137.198   4
   0  -8  -7  44.522 113.459   1
   0  -8   7 107.166  92.199   2
   0   8  -7  39.176 127.741   4
   2  -8   7 124.562  99.842   2
  -2  -8  -7 75.3536 98.8974   2
   2   8   7 139.933  74.577   1
  -2   8  -7 253.917 165.431   4
   4  -8   7 -10.244  71.864   2
  -4  -8  -7  88.897 100.050   2
  -4   8  -7 107.798 160.664   4
  -5   9   7  71.428 143.912   4
   5   9  -7 57.9685 82.2947   1
   3  -9  -7 -73.186 117.180   1
  -3  -9   7 45.6465 94.2823   2
   3   9  -7 45.4117 77.4720   1
  -3   9   7 144.645 150.762   4
   1  -9  -7 -17.885 136.580   1
  -1  -9   7 246.773 107.102   2
   1   9   7 361.049 106.997   1
  -1   9  -7 372.704 189.247   4
  -3  -9  -7 288.437 140.786   2
  14   0  -8 260.151 106.498   1
 -14   0   8 260.357 194.504   3
  12   0  -8 1366.28  171.25   1
 -12   0   8 1512.46  263.14   3
  10   0  -8 549.092 101.919   1
 -10   0   8 918.065 195.604   3
   8   0  -8 1266.97  128.38   1
  -8   0   8 813.781 170.316   3
   6   0  -8 1200.24  113.77   1
  -6   0   8 1168.75  172.02   3
   4   0  -8 4651.05  207.65   1
  -4   0   8 4665.82  300.51   3
  -4   0   8 4865.10  191.65   2
  -2   0   8 4994.75  294.45   3
  -2   0   8 4673.65  195.53   2
   2   0  -8 4703.31  191.30   1
   0   0   8 2740.17  139.92   2
   0   0  -8 3000.29  275.73   3
  -2   0  -8 3066.23  299.89   3
   2   0   8 3294.30  166.86   2
  -4   0  -8 772.638 165.986   3
   4   0   8 549.140  81.324   2
   6   0   8 1160.97  126.26   2
  -6   0  -8 1042.25  218.55   3
   8   0   8 185.964  68.526   2
  -8   0  -8 256.551 165.338   3
 -10   0  -8 1602.50  331.84   3
  10   0   8 1345.25  157.46   2
 -13  -1   8 1070.19  248.87   3
  13  -1  -8 909.293 151.093   1
 -13   1   8 1132.40  251.17   3
  13   1  -8 1090.61  158.56   1
 -11  -1   8 1346.43  233.72   3
  11  -1  -8 1111.15  153.73   1
 -11   1   8 989.660 221.143   3
  11   1  -8 1516.81  169.46   1
   9  -1  -8 1434.19  155.96   1
  -9  -1   8 1129.88  206.89   3
  -9   1   8 1593.03  230.59   3
   9   1  -8 1638.81  157.44   1
  -7  -1   8 985.479 165.886   3
   7  -1  -8 1426.45  136.14   1
   7   1  -8 1148.01  115.61   1
  -7   1   8 733.364 155.191   3
   5  -1  -8 4008.37  196.00   1
  -5  -1   8 3408.31  167.88   2
  -5  -1   8 3427.88  257.54   3
  -5   1   8 3910.86  269.12   3
   5   1  -8 3829.43  183.39   1
  -3  -1   8 1114.75   94.66   2
   3  -1  -8 1097.13   98.63   1
  -3  -1   8 1232.24  159.02   3
  -3   1   8 1100.79  155.56   3
   3   1  -8 1151.72   88.72   1
  -3   1   8 1097.33   68.69   2
  -1  -1   8 2734.63  138.84   2
  -1  -1   8 2276.29  216.88   3
   1  -1  -8 2710.52  133.78   1
  -1   1   8 2299.13  223.47   3
  -1   1   8 2633.43  127.88   2
  -1  -1  -8 2954.87  289.32   3
   1  -1   8 3142.58  161.16   2
  -1   1  -8 3401.86  291.15   3
   1   1   8 2954.57  150.54   2
   3  -1   8 2140.80  136.23   2
  -3  -1  -8 2149.53  264.31   3
   3   1   8 2280.71  136.58   2
  -3   1  -8 2076.38  231.26   4
  -3   1  -8 2034.63  241.91   3
  -5  -1  -8 783.122 186.576   3
   5  -1   8 797.197 103.518   2
  -5   1  -8 928.337 160.650   4
   5   1   8 826.927 100.676   2
  -5   1  -8 670.930 167.151   3
  -7  -1  -8 950.810 224.797   3
   7  -1   8 1862.02  165.68   2
  -7   1  -8 945.908 226.082   3
  -7   1  -8 1721.28  229.52   4
   7   1   8 1660.41  157.30   2
  -9  -1  -8 746.606 238.806   3
   9  -1   8 848.263 123.498   2
   9   1   8 773.849 115.299   2
  -9   1  -8 665.866 224.316   3
 -11  -1  -8 507.355 263.825   3
  11  -1   8 688.169 122.760   2
 -11   1  -8 490.251 263.204   3
  11   1   8 578.199 115.479   2
 -14   2   8 592.195 231.447   3
 -12  -2   8 808.990 221.883   3
  12  -2  -8 1073.45  168.95   1
  12   2  -8 633.959 124.528   1
 -12   2   8 559.860 189.795   3
 -10  -2   8 2717.27  317.29   3
  10  -2  -8 2411.11  226.71   1
 -10   2   8 2179.99  292.39   3
  10   2  -8 2570.10  214.39   1
   8  -2  -8 2926.92  198.74   1
  -8  -2   8 2334.64  271.22   3
   8   2  -8 2858.27  178.44   1
  -8   2   8 2765.87  290.13   3
  -6  -2   8 1496.89  196.43   3
  -6  -2   8 1877.53  120.81   2
   6  -2  -8 1591.10  153.34   1
   6   2  -8 1516.08  131.81   1
  -6   2   8 1790.59  205.50   3
  -4  -2   8 854.525  92.170   2
   4  -2  -8 819.291 100.981   1
  -4  -2   8 651.336 122.540   3
  -4   2   8 645.799 127.098   3
   4   2  -8 1068.59   92.41   1
   2  -2  -8 1959.35  129.25   1
  -2  -2   8 1651.49  182.54   3
  -2  -2   8 1784.59  118.66   2
  -2   2   8 1714.96   93.62   2
   2   2  -8 1840.09   98.19   1
  -2   2   8 1906.61  202.06   3
   0  -2   8 1205.01  153.07   3
   0  -2  -8 994.124 168.784   3
   0  -2   8 1155.58  109.97   2
   0   2  -8 1368.11  181.15   4
   0   2   8 1199.40   80.96   2
   2  -2   8 1603.21  133.51   2
  -2  -2  -8 1404.65  211.81   3
  -2   2  -8 1340.44  190.66   4
  -2   2  -8 1082.44  171.46   3
   2   2   8 1234.67  105.64   2
  -4  -2  -8 3721.43  374.48   3
   4  -2   8 3912.53  207.77   2
  -4   2  -8 3626.81  335.69   3
  -4   2  -8 3866.96  334.87   4
   4   2   8 3668.31  193.81   2
   6  -2   8 1625.30  157.78   2
  -6  -2  -8 2234.43  314.01   3
  -6   2  -8 2483.85  275.77   4
   6   2   8 1864.04  158.20   2
  -6   2  -8 1635.45  257.22   3
  -8  -2  -8 1213.41  265.51   3
   8  -2   8 1216.43  144.77   2
   8   2   8 1273.00  141.26   2
  -8   2  -8 1362.64  268.89   3
  -8   2  -8 1489.48  236.28   4
 -10  -2  -8 757.734 261.116   3
  10  -2   8 815.248 129.827   2
  10   2   8 588.298 116.508   2
 -13  -3   8 564.204 211.843   3
  13  -3  -8 958.860 171.690   1
 -13   3   8 1094.95  254.06   3
  13   3  -8 1017.39  158.88   1
 -11  -3   8 572.543 185.085   3
  11  -3  -8 774.916 142.857   1
  11   3  -8 995.739 145.843   1
 -11   3   8 1077.88  212.22   4
 -11   3   8 1030.71  222.68   3
  -9  -3   8 946.413 186.382   3
   9  -3  -8 759.575 131.553   1
   9   3  -8 969.919 128.895   1
  -9   3   8 971.210 187.377   3
   7  -3  -8 3809.78  231.67   1
  -7  -3   8 3153.73  194.59   2
  -7  -3   8 3497.12  318.21   3
  -7   3   8 3690.81  327.80   3
   7   3  -8 3210.84  192.65   1
  -5  -3   8 503.089 122.902   3
  -5  -3   8 725.080  94.637   2
   5  -3  -8 691.698 107.152   1
   5   3  -8 643.037  81.642   1
  -5   3   8 754.364 150.119   3
  -3  -3   8 2847.18  208.53   3
  -3  -3   8 2511.90  161.37   2
   3  -3  -8 2767.65  179.28   1
   3   3  -8 2707.06  141.22   1
  -3   3   8 2788.17  250.98   3
   1  -3  -8 1534.44  147.60   1
  -1  -3   8 1372.37  161.03   3
  -1  -3   8 1610.71  140.10   2
  -1   3   8 1472.13   91.07   2
  -1   3   8 1487.66  183.76   3
   1   3  -8 1225.82  181.70   4
   1  -3   8 2199.19  201.06   3
  -1  -3  -8 1728.30  235.12   3
   1  -3   8 2305.69  148.22   2
  -1   3  -8 2754.02  278.36   4
   1   3   8 2090.24  126.19   2
   3  -3   8 1298.65  132.11   2
  -3  -3  -8 1314.54  221.67   3
   3   3   8 1344.95  120.39   2
  -3   3  -8 1072.64  182.83   4
  -3   3  -8 1231.39  186.82   3
  -5  -3  -8 1808.53  288.05   3
   5  -3   8 1877.19  168.10   2
   5   3   8 2145.75  171.23   2
  -5   3  -8 2751.58  291.50   4
  -5   3  -8 2464.89  280.37   3
   7  -3   8 853.490 122.097   2
  -7  -3  -8 1240.16  260.63   3
  -7   3  -8 1178.69  207.25   4
   7   3   8 1004.02  127.60   2
   9  -3   8 943.715 137.064   2
  -9  -3  -8 1043.38  270.16   3
  -9   3  -8 995.791 220.928   4
   9   3   8 895.289 128.062   2
 -12  -4   8 270.069 185.201   3
  12  -4  -8 357.043 124.130   1
  12   4  -8 442.806 119.280   1
 -12   4   8 435.610 192.151   3
 -12   4   8 331.298 167.412   4
  10  -4  -8 1080.29  177.20   1
 -10  -4   8 715.639 189.480   3
 -10   4   8 484.519 178.782   3
 -10   4   8 720.361 194.104   4
  10   4  -8 578.307 118.557   1
   8  -4  -8 461.929 110.848   1
  -8  -4   8 680.988 166.152   3
  -8   4   8 344.277 130.382   4
   8   4  -8 723.504 108.351   1
  -8   4   8 830.298 171.904   3
  -6  -4   8 1434.35  148.47   2
   6  -4  -8 1612.27  178.20   1
  -6  -4   8 1184.72  190.08   3
   6   4  -8 1509.10  137.85   1
  -6   4   8 1775.96  213.68   3
  -4  -4   8 2450.73  199.43   2
   4  -4  -8 2553.39  219.67   1
  -4  -4   8 2569.79  239.99   3
  -4   4   8 2983.51  267.87   3
   4   4  -8 2300.36  146.70   1
  -2  -4   8 2878.49  212.01   3
  -2  -4   8 2828.64  186.26   2
   2  -4  -8 3089.64  208.86   1
   2   4  -8 2944.38  154.53   1
  -2   4   8 3047.34  265.37   3
   2   4  -8 3289.21  297.45   4
   0  -4   8 2336.03  188.77   2
   0  -4  -8 2220.72  264.74   3
   0  -4  -8 2315.29  202.43   1
   0   4   8 2503.45  136.26   2
   0   4  -8 2361.30  263.27   4
  -2  -4  -8 958.674 193.269   3
   2  -4   8 734.171 108.881   2
  -2   4  -8 1088.92  187.04   4
   2   4   8 944.083 101.609   2
  -4  -4  -8 1105.42  228.28   3
   4  -4   8 957.161 121.561   2
   4   4   8 918.301 106.563   2
  -4   4  -8 962.439 193.607   4
  -6  -4  -8 555.411 200.249   3
   6  -4   8 370.606  92.915   2
   6   4   8 354.063  84.710   2
  -6   4  -8 770.597 188.906   4
  -8  -4  -8 1130.15  280.67   3
   8  -4   8 888.133 137.825   2
   8   4   8 868.538 128.256   2
  -8   4  -8 733.935 198.017   4
  11  -5  -8 598.280 159.625   1
 -11  -5   8 666.524 215.430   3
  11   5  -8 593.066 125.928   1
 -11   5   8 474.333 191.522   4
   9  -5  -8 1059.86  173.80   1
  -9  -5   8 1098.40  215.14   3
   9   5  -8 1001.94  138.14   1
  -9   5   8 561.459 184.982   4
  -7  -5   8 969.676 180.119   3
   7  -5  -8 887.853 149.035   1
  -7  -5   8 928.386 135.958   2
  -7   5   8 936.440 187.719   3
   7   5  -8 879.441 120.822   1
  -7   5   8 1088.99  207.88   4
  -5  -5   8 2141.87  196.58   2
   5  -5  -8 2278.24  232.71   1
   5   5  -8 2070.49  170.62   1
  -5   5   8 2208.63  244.66   3
   3  -5  -8 1879.50  199.94   1
  -3  -5   8 1528.74  165.04   2
  -3   5   8 1258.67  183.90   3
   3   5  -8 1217.68  119.17   1
   3   5  -8 1324.39  198.41   4
  -1  -5   8 1719.56  172.64   2
   1  -5  -8 1668.06  189.89   1
  -1   5   8 1401.28  114.12   2
   1   5  -8 1737.94  225.45   4
  -1   5   8 1469.48  193.83   3
  -1  -5  -8 1154.45  209.36   3
   1  -5   8 1008.05  133.31   2
  -1   5  -8 1087.81  201.00   4
   1   5   8 1092.74  110.14   1
   1   5   8 980.303 102.783   2
   3  -5   8 1395.03  158.09   2
  -3  -5  -8 1175.90  227.79   3
   3   5   8 1212.45  123.50   2
  -3   5  -8 1252.22  227.07   4
   5  -5   8 958.555 136.971   2
  -5  -5  -8 840.070 228.585   3
  -5   5  -8 867.506 198.413   4
   5   5   8 695.758 107.750   2
   7  -5   8 804.796 136.189   2
  -7  -5  -8 720.113 249.021   3
  -7   5  -8 1122.04  241.40   4
   7   5   8 1077.51  139.59   2
   9  -5   8 753.135 140.747   2
  -9   5  -8 945.819 245.072   4
  10  -6  -8 1036.04  196.81   1
 -10   6   8 876.271 236.046   4
  10   6  -8 1002.63  152.97   1
  -8  -6   8 1559.58  193.83   2
   8  -6  -8 1384.76  213.66   1
   8   6  -8 1257.26  154.19   1
  -8   6   8 1322.97  246.03   4
  -6  -6   8 1021.94  154.22   2
   6  -6  -8 990.838 175.060   1
  -6   6   8 691.105 187.521   4
   6   6  -8 1217.28  141.55   1
  -4  -6   8 1200.17  162.74   2
   4  -6  -8 1506.38  203.43   1
   4   6  -8 1310.26  135.40   1
  -4   6   8 931.062 192.604   4
   4   6  -8 1494.04  216.48   4
  -2  -6   8 533.550 115.167   2
   2  -6  -8 596.109 138.068   1
  -2   6   8 535.232 126.242   3
   2   6  -8 684.071 167.883   4
   2   6  -8 517.479  84.289   1
   0  -6  -8 613.982 171.475   3
   0  -6  -8 420.668 121.911   1
   0  -6  -8 486.285 107.962   2
   0  -6   8 652.705 123.388   2
   0   6  -8 453.221 149.607   4
  -2  -6  -8 1901.37  276.47   3
  -2  -6  -8 1958.18  209.38   2
   2  -6   8 1741.03  189.37   2
   2   6   8 1216.19  128.60   2
  -2   6  -8 1600.87  258.22   4
   4  -6   8 728.199 130.745   2
  -4  -6  -8 862.305 229.170   3
  -4   6  -8 868.960 210.236   4
   4   6   8 765.433 107.149   2
   6  -6   8 1610.01  195.88   2
  -6  -6  -8 1890.29  337.92   3
  -6   6  -8 1476.28  278.01   4
   6   6   8 2082.37  192.50   2
  -8  -6  -8 487.063 259.436   3
  -9  -7   8 708.742 160.568   2
   9  -7  -8 810.877 189.864   1
   9   7  -8 747.277 141.005   1
  -9   7   8 727.807 223.633   4
  -7  -7   8 274.353 120.147   2
   7  -7  -8 413.651 157.380   1
   7   7  -8 564.316 113.044   1
  -7   7   8 257.994 140.817   4
  -5  -7   8 1091.76  167.76   2
   5  -7  -8 948.501 181.973   1
  -5   7   8 818.373 195.992   4
   5   7  -8 1028.14  136.22   1
  -3  -7   8 647.458 130.607   2
   3  -7  -8 620.306 150.539   1
   3   7  -8 523.045 163.091   4
   3   7  -8 635.300 103.313   1
  -3   7   8 712.450 177.191   4
  -1  -7   8 1625.49  198.90   2
   1  -7  -8 1265.47  203.30   1
   1   7  -8 948.970 207.904   4
   1  -7   8 839.899 148.185   2
  -1  -7  -8 1215.10  176.84   2
   1   7   8 817.625 121.832   1
  -1   7  -8 1116.03  228.71   4
  -3  -7  -8 1204.25  183.68   2
   3  -7   8 1087.45  164.95   2
  -3   7  -8 1065.01  240.58   4
   5  -7   8 726.881 142.677   2
   5   7   8 470.838  95.527   2
  -5   7  -8 882.804 227.785   4
  -7  -7  -8 503.359 258.416   3
  -8  -8   8 444.989 149.758   2
   6  -8  -8 287.641 156.521   1
  -6  -8   8 527.097 143.826   2
   6   8  -8 392.373 110.482   1
  -6   8   8 322.697 161.978   4
   4  -8  -8 229.720 138.326   1
  -4  -8   8 590.770 147.581   2
   4   8  -8 622.487 116.474   1
  -4   8   8 442.448 155.321   4
  -2  -8   8 1272.13  195.23   2
   2  -8  -8 1456.53  237.47   1
   2   8  -8 1106.31  211.68   4
  -2   8   8 933.782 205.663   4
   0  -8  -8 1214.88  226.76   1
   0  -8   8 1211.27  190.86   2
   0   8  -8 1029.93  231.66   4
   0   8   8 933.359 135.904   1
   2  -8   8 402.438 128.822   2
  -2  -8  -8 492.209 143.164   2
  -2   8  -8 422.340 192.958   4
  -4  -8  -8 801.029 179.885   2
   4   8   8 690.727 116.073   2
   3  -9  -8 507.767 183.602   1
  -3   9   8 216.029 165.269   4
   1  -9  -8 334.648 167.718   1
  -1   9  -8 1207.05  268.57   4
  12   0  -9 85.6191 79.2796   1
 -12   0   9 -66.242 124.673   3
 -10   0   9 -15.034 106.531   3
  10   0  -9 -32.861  45.994   1
  -8   0   9 -96.487  80.278   3
   8   0  -9 -14.785  44.697   1
  -6   0   9  2.2679 65.0457   3
   6   0  -9 -38.828  31.776   1
   4   0  -9  2.4204 31.2377   1
  -4   0   9 -17.628  66.394   3
  -2   0   9 -0.1058 26.7962   2
  -2   0   9 101.284  71.434   3
   0   0   9 16.0284 27.3535   2
   0   0  -9 -17.137  84.556   3
   0   0   9 14.7272 47.9516   3
   2   0   9 -23.460  27.900   2
  -2   0  -9 34.7949 90.3850   3
  -4   0  -9  10.820 107.638   3
   4   0   9 29.8093 44.0245   2
   6   0   9 -39.352  40.092   2
  -6   0  -9 -143.97  118.32   3
   8   0   9 -26.791  50.491   2
  -8   0  -9 -50.149 148.306   3
  10   0   9 27.3726 67.9428   2
 -10   0  -9 134.054 185.642   3
  13  -1  -9 143.122  90.703   1
 -13  -1   9  66.642 148.442   3
 -13   1   9 -30.008 136.247   3
  13   1  -9 139.277  81.652   1
 -11  -1   9 -130.57  109.16   3
  11  -1  -9 66.9846 62.6970   1
 -11   1   9  81.232 132.973   3
  11   1  -9 -36.191  53.262   1
  -9  -1   9 128.051 113.950   3
   9  -1  -9  2.0716 52.5936   1
   9   1  -9 -0.4485 48.8017   1
  -9   1   9 -78.867 102.172   3
   7  -1  -9 44.6176 43.5222   1
  -7  -1   9 -84.620  70.000   3
   7   1  -9 102.807  45.790   1
  -7   1   9 88.9732 90.2708   3
   5  -1  -9 702.134  92.745   1
  -5  -1   9 523.796 119.395   3
  -5   1   9 604.879 135.893   3
   5   1  -9 511.575  74.494   1
  -3  -1   9 71.9359 38.2471   2
   3  -1  -9 15.7709 36.8979   1
  -3  -1   9 -37.487  52.505   3
  -3   1   9 18.9849 27.4462   2
  -3   1   9 12.5854 71.2134   3
   3   1  -9 74.1374 33.9857   1
  -1  -1   9 -24.027  26.821   2
  -1  -1   9  8.4781 56.6575   3
  -1   1   9 -51.729  50.898   3
  -1   1   9 -9.4247 22.3461   2
  -1  -1  -9 387.966 133.797   3
   1  -1   9 552.829  78.216   2
   1   1   9 721.332  79.972   2
  -1   1  -9 383.500 131.964   3
   3  -1   9 -45.906  32.207   2
  -3  -1  -9  0.7386 94.0937   3
  -3   1  -9 -5.0723 90.8720   3
   3   1   9 11.7750 33.7331   2
  -5  -1  -9  58.934 127.725   3
   5  -1   9  5.7275 47.6479   2
  -5   1  -9  87.608 116.836   3
   5   1   9 -23.790  36.174   2
  -7  -1  -9 164.348 161.609   3
   7  -1   9 216.949  67.829   2
  -7   1  -9 293.762 137.451   4
   7   1   9 75.2440 59.3400   2
  -7   1  -9  10.921 149.388   3
   9  -1   9  2.5177 55.5628   2
  -9  -1  -9  30.272 182.584   3
   9   1   9 55.8297 57.7595   2
  -9   1  -9 -16.159 173.910   3
 -11   1  -9 336.081 241.011   3
  12  -2  -9 128.146  93.678   1
 -12  -2   9 -64.989 123.018   3
 -12   2   9 112.521 153.471   3
  12   2  -9 51.9145 72.8220   1
 -10  -2   9  33.040 118.011   3
  10  -2  -9 50.2034 72.0254   1
 -10   2   9 105.895 123.616   3
  10   2  -9 46.3563 65.0779   1
  -8  -2   9 278.415 122.299   3
   8  -2  -9 42.1892 58.3865   1
  -8   2   9  56.967 101.281   3
   8   2  -9 188.169  61.833   1
   6  -2  -9 -9.7430 42.9504   1
  -6  -2   9  7.5483 74.6609   3
   6   2  -9 -48.466  34.533   1
  -6   2   9 149.719  91.043   3
  -4  -2   9 264.904  60.050   2
   4  -2  -9 130.885  54.025   1
  -4  -2   9 101.610  80.823   3
  -4   2   9 75.2254 78.2468   3
   4   2  -9 280.112  54.546   1
  -2  -2   9 25.2405 63.7754   3
  -2  -2   9 17.9655 34.7253   2
  -2   2   9  1.3631 67.2003   3
  -2   2   9  0.1244 23.9293   2
   0  -2  -9 27.3375 88.9148   3
   0  -2   9  1.9553 34.1438   2
   0  -2   9 -11.467  58.185   3
   0   2   9 -11.037  22.507   2
  -2  -2  -9 39.9813 83.9896   3
   2  -2   9 17.6266 32.1833   2
  -2   2  -9 56.5910 83.2035   4
   2   2   9 -19.189  25.908   2
  -2   2  -9 72.0964 88.4077   3
  -4  -2  -9 109.922 112.364   3
   4  -2   9 -25.162  35.186   2
  -4   2  -9  88.039 109.090   3
   4   2   9 -40.173  28.974   2
  -4   2  -9 -64.127  87.695   4
   6  -2   9 221.907  66.287   2
  -6  -2  -9 -74.110 130.299   3
  -6   2  -9   3.405 138.175   3
  -6   2  -9 242.973 128.697   4
   6   2   9 210.879  70.702   2
  -8  -2  -9  64.047 165.127   3
   8  -2   9 10.0168 55.3560   2
  -8   2  -9 268.344 185.658   3
   8   2   9 -30.726  50.112   2
  -8   2  -9   0.272 132.578   4
  10  -2   9 96.6404 77.1892   2
 -10  -2  -9  93.859 210.761   3
  13  -3  -9 -46.217  88.111   1
 -13  -3   9 149.847 177.203   3
 -13   3   9  55.672 164.113   3
  13   3  -9 129.314  96.472   1
 -11  -3   9  68.689 130.162   3
  11  -3  -9 152.696  88.947   1
 -11   3   9 184.204 136.556   4
  11   3  -9 85.3692 73.1236   1
 -11   3   9  23.169 142.500   3
  -9  -3   9  57.803 119.517   3
   9  -3  -9 88.5766 71.2665   1
  -9   3   9 -118.76   91.76   3
   9   3  -9 -14.160  43.323   1
  -7  -3   9 181.176 105.359   3
   7  -3  -9 46.9323 62.2887   1
  -7   3   9 110.205  98.386   3
   7   3  -9 70.8905 57.4358   1
   5  -3  -9 -27.295  44.722   1
  -5  -3   9 41.1222 82.2995   3
  -5  -3   9 35.0202 46.1204   2
  -5   3   9 -4.8185 78.9394   3
   5   3  -9 -18.888  36.219   1
  -3  -3   9 -19.285  39.382   2
   3  -3  -9 -13.457  49.875   1
  -3  -3   9 -21.372  68.138   3
  -3   3   9  2.7338 70.8647   3
  -1  -3   9 116.050  52.354   2
  -1  -3   9 177.210  80.249   3
  -1   3   9 147.156  90.685   3
  -1   3   9 215.153  43.778   2
   1  -3   9 331.501  72.431   2
   1  -3   9 449.046 111.420   3
  -1  -3  -9 382.577 136.735   3
   1   3   9 272.025  53.323   2
  -1   3  -9 242.439 125.577   4
  -3  -3  -9  90.998 121.708   3
   3  -3   9 327.058  75.587   2
   3   3   9 260.155  57.708   2
  -3   3  -9 404.591 136.035   3
  -3   3  -9 355.183 126.532   4
  -5  -3  -9 211.198 141.262   3
   5  -3   9 58.2271 53.8110   2
  -5   3  -9 102.729 119.771   4
   5   3   9 -27.196  35.290   2
   7  -3   9 -35.685  48.249   2
  -7  -3  -9 -130.49  134.93   3
  -7   3  -9 -24.631 113.006   4
   7   3   9 -7.4507 48.2446   2
  -9  -3  -9 237.283 214.089   3
   9  -3   9 -2.6284 60.9049   2
   9   3   9  1.3323 55.6476   2
 -12  -4   9 115.785 163.419   3
  12  -4  -9 -28.213  96.850   1
 -12   4   9 -118.80  130.95   4
 -12   4   9  51.868 164.895   3
  12   4  -9 13.1151 71.9859   1
 -10  -4   9  52.489 131.203   3
  10  -4  -9 192.135 108.852   1
 -10   4   9  15.692 118.556   4
 -10   4   9 355.761 165.671   3
  10   4  -9 144.640  83.794   1
  -8  -4   9 -10.473  94.786   3
   8  -4  -9 28.0425 69.0051   1
   8   4  -9 46.6701 59.1040   1
  -8   4   9  43.592 116.916   3
  -6  -4   9 360.425 126.061   3
   6  -4  -9 181.248  80.853   1
  -6  -4   9 184.400  70.035   2
   6   4  -9 94.9402 50.2646   1
  -6   4   9 276.490 119.682   3
  -4  -4   9 21.3166 86.2901   3
  -4  -4   9 44.9086 56.3382   2
   4  -4  -9 -37.468  53.842   1
   4   4  -9 23.7791 39.7466   1
  -4   4   9 52.2477 91.1067   3
   2  -4  -9 98.0297 68.4182   1
  -2  -4   9 173.648  67.237   2
  -2  -4   9 59.6204 72.9757   3
  -2   4   9 320.181 111.994   3
   2   4  -9 122.548 101.712   4
   0  -4   9 39.6242 46.2058   2
   0  -4  -9 15.4313 97.6724   3
   0   4   9 25.6217 32.6000   2
   0   4  -9  21.678 101.329   4
  -2  -4  -9 135.836 122.982   3
   2  -4   9 33.6692 49.7192   2
  -2   4  -9 104.680 105.457   4
   2   4   9 26.9355 33.2989   2
  -4  -4  -9 135.265 148.731   3
   4  -4   9 136.722  63.339   2
   4   4   9 53.0154 51.4302   2
  -4   4  -9  38.481 113.148   4
   6  -4   9 -10.911  52.377   2
  -6  -4  -9  83.792 160.110   3
  -6   4  -9 151.002 129.894   4
   6   4   9  4.9723 48.5474   2
  -8  -4  -9  93.622 176.241   3
   8  -4   9 128.409  79.472   2
  -8   4  -9  19.243 144.082   4
   8   4   9 135.670  78.125   2
 -11  -5   9  66.496 172.521   3
  11  -5  -9 -28.783  89.675   1
  11   5  -9 -0.9751 81.1263   1
 -11   5   9  57.085 150.142   4
  -9  -5   9 172.660 141.122   3
   9  -5  -9 101.634  95.396   1
   9   5  -9 188.786  80.779   1
  -9   5   9 117.548 130.682   4
  -7  -5   9 359.524 101.705   2
   7  -5  -9 359.149 109.409   1
  -7   5   9 264.401 125.649   4
  -7   5   9 422.128 152.686   3
   7   5  -9 376.531  88.572   1
  -5  -5   9 46.1318 68.5359   2
   5  -5  -9 129.686  86.097   1
  -5   5   9  8.2352 95.0802   3
   5   5  -9 60.3602 50.5044   1
  -3  -5   9 278.146  87.501   2
   3  -5  -9 185.558  90.290   1
  -3   5   9 301.757 113.841   3
   3   5  -9  84.071 122.298   4
  -1  -5   9 -7.0738 51.2604   2
   1   5  -9 311.664 142.638   4
  -1   5   9 24.2908 81.6037   3
  -1  -5  -9  38.193 124.440   3
   1  -5   9 152.093  73.564   2
   1   5   9 140.859  50.856   2
  -1   5  -9  98.679 112.984   4
   3  -5   9 -36.171  55.312   2
  -3  -5  -9  45.540 125.112   3
  -3   5  -9  22.108 109.344   4
   3   5   9 18.5525 39.9472   2
  -5  -5  -9 -27.273 121.829   3
   5  -5   9 61.7376 63.4554   2
   5   5   9 76.6079 48.6205   2
  -5   5  -9 265.040 142.941   4
   7  -5   9 -29.151  70.520   2
  -7  -5  -9 -37.841 182.834   3
   7   5   9 -31.328  60.329   2
  -7   5  -9 290.088 168.644   4
  10  -6  -9 106.413 115.731   1
  10   6  -9 153.859  92.800   1
 -10   6   9 261.147 170.241   4
   8  -6  -9 117.626 103.778   1
  -8   6   9 152.251 135.739   4
   8   6  -9 61.6894 69.3057   1
  -6  -6   9  9.1487 74.4052   2
   6  -6  -9 102.145  96.073   1
   6   6  -9  0.5102 52.8579   1
  -6   6   9  49.007 105.705   4
   4  -6  -9 73.0406 92.2504   1
  -4  -6   9 52.5747 71.0485   2
   4   6  -9 31.5997 56.6533   1
   2  -6  -9 66.9719 85.5379   1
  -2  -6   9 203.144  84.077   2
  -2   6   9  53.095 100.879   3
   2   6  -9 -45.108 100.774   4
   0  -6   9 120.024  74.266   2
   0   6  -9  67.563 109.026   4
   0   6   9 41.8270 91.7113   3
  -2  -6  -9 -96.749 144.291   3
   2  -6   9 42.4418 79.1698   2
  -2   6  -9  59.945 125.831   4
   2   6   9 103.561  54.505   2
   4  -6   9 42.6060 70.6315   2
  -4  -6  -9 124.411 169.601   3
   4   6   9 71.5751 59.4746   2
  -4   6  -9  96.008 131.269   4
  -6  -6  -9 258.854 208.111   3
   6  -6   9 -29.485  70.200   2
   6   6   9 151.785  72.329   2
  -6   6  -9  35.678 134.067   4
   9   7  -9 37.0952 84.7392   1
  -7  -7   9 -34.197  85.787   2
   7  -7  -9  91.431 118.303   1
   7   7  -9 35.7106 73.9960   1
  -7   7   9  14.642 124.506   4
  -5  -7   9 -77.578  66.225   2
   5  -7  -9  89.979 106.241   1
  -5   7   9  40.720 109.655   4
   5   7  -9 119.184  79.902   1
  -3  -7   9 112.171  84.417   2
   3  -7  -9 118.521 102.995   1
   3   7  -9   5.121 124.552   4
  -3   7   9 -48.464 103.500   4
  -1  -7   9 508.180 132.868   2
   1   7  -9  89.182 135.021   4
  -1   7   9 482.122 152.733   4
   1  -7   9 133.799  93.701   2
  -1   7  -9 204.128 158.481   4
   3  -7   9 429.661 122.966   2
   3   7   9 353.336  83.650   2
  -3   7  -9 169.151 176.015   4
  -5  -7  -9  55.875 206.020   3
   5   7   9 29.3114 53.6304   2
  -6  -8   9 26.7776 96.2187   2
   6  -8  -9  24.487 119.316   1
   6   8  -9 -72.319  73.079   1
  -4  -8   9 284.571 124.834   2
   4  -8  -9  22.298 121.384   1
  -4   8   9 206.173 147.318   4
   2  -8  -9 -40.981 119.826   1
  -2  -8   9 -54.210  82.953   2
  -2   8   9  -3.480 131.582   4
   2   8  -9 234.401 157.229   4
   0  -8   9 41.4231 87.0343   2
   0   8  -9  85.908 143.511   4
  -2   8  -9 274.571 169.177   4
  -3   9   9 -10.908 150.902   4
 -12   0  10 1282.51  266.04   3
  12   0 -10 1729.48  202.33   1
 -10   0  10 1357.10  241.92   3
  10   0 -10 1780.23  182.57   1
   8   0 -10 2874.87  188.53   1
  -8   0  10 2644.99  303.49   3
  -6   0  10 1839.42  235.87   3
   6   0 -10 1758.62  149.91   1
  -4   0  10 2463.26  261.78   3
  -2   0  10 10.0891 62.4386   3
  -2   0  10 77.5139 37.2085   2
   0   0  10 1580.72  123.65   2
   0   0  10 1346.11  187.01   3
   2   0  10 1815.22  148.18   2
  -2   0 -10 1678.79  247.95   3
  -4   0 -10 2218.50  303.36   3
   4   0  10 2150.82  176.79   2
   6   0  10 2367.32  197.67   2
  -6   0 -10 2219.78  315.81   3
   8   0  10 706.061 120.180   2
  -8   0 -10 902.548 253.859   3
 -10   0 -10 454.784 257.666   3
 -13  -1  10 449.141 198.669   3
  13  -1 -10 705.121 151.404   1
 -13   1  10 533.496 225.823   3
  13   1 -10 373.867 115.669   1
  11  -1 -10 1089.92  158.98   1
 -11  -1  10 1234.89  247.72   3
  11   1 -10 1225.25  160.76   1
 -11   1  10 1424.40  265.85   3
   9  -1 -10 1021.42  141.57   1
  -9  -1  10 914.211 195.136   3
  -9   1  10 1296.62  223.30   3
   9   1 -10 1421.72  148.62   1
   7  -1 -10 1917.51  171.27   1
  -7  -1  10 1826.74  249.08   3
   7   1 -10 2109.90  170.29   1
  -7   1  10 2240.84  269.16   3
   5  -1 -10 1838.42  156.54   1
  -5  -1  10 2063.94  242.64   3
  -5   1  10 2006.41  244.25   3
   5   1 -10 2044.76  130.60   1
  -3  -1  10 1315.89  188.83   3
  -3  -1  10 1197.54  110.23   2
  -3   1  10 1233.70  185.47   3
  -1  -1  10 1974.77  221.51   3
  -1  -1  10 1707.69  134.94   2
  -1   1  10 1796.52  112.88   2
  -1   1  10 1897.34  224.54   3
   1  -1  10 1381.53  127.66   2
  -1  -1 -10 1421.60  226.70   3
  -1   1 -10 1506.04  225.89   3
   1   1  10 1181.46  109.21   2
   3  -1  10 2144.46  168.15   2
  -3  -1 -10 2460.59  308.46   3
   3   1  10 1742.07  149.58   2
  -3   1 -10 2051.38  270.60   3
   5  -1  10 966.594 118.874   2
  -5  -1 -10 702.138 211.727   3
  -5   1 -10 877.958 215.160   3
   5   1  10 1343.83  137.30   2
  -7  -1 -10 1682.80  320.70   3
   7  -1  10 1251.81  148.52   2
  -7   1 -10 950.695 247.543   3
   7   1  10 1268.07  148.37   2
  -9  -1 -10 576.106 237.364   3
   9  -1  10 453.888 103.453   2
  -9   1 -10 648.415 261.106   3
   9   1  10 725.085 128.057   2
  12  -2 -10 530.927 134.062   1
 -12  -2  10 852.641 230.636   3
 -12   2  10 659.487 216.882   3
  12   2 -10 589.332 126.214   1
  10  -2 -10 914.354 150.550   1
 -10  -2  10 553.294 190.126   3
 -10   2  10 696.529 197.180   3
  10   2 -10 767.108 121.228   1
   8  -2 -10 839.560 129.492   1
  -8  -2  10 567.534 163.871   3
   8   2 -10 749.078 110.441   1
  -8   2  10 785.629 187.115   3
   6  -2 -10 1512.50  158.07   1
  -6  -2  10 1866.36  238.77   3
   6   2 -10 1774.72  146.18   1
  -6   2  10 1397.90  211.08   3
  -4  -2  10 2421.58  153.77   2
  -4  -2  10 2284.28  248.54   3
   4  -2 -10 2554.79  169.75   1
  -4   2  10 2058.78  250.01   3
  -2  -2  10 4610.36  306.07   3
  -2  -2  10 4323.50  218.61   2
  -2   2  10 3729.04  333.18   3
   0  -2  10 1746.99  212.85   3
   0  -2  10 1860.68  154.46   2
   0  -2 -10 1695.66  249.72   3
   0   2  10 1934.16  119.39   2
  -2  -2 -10 1114.64  212.24   3
   2  -2  10 1704.33  148.25   2
   2   2  10 1074.56  110.89   2
  -2   2 -10 1249.00  208.77   3
   4  -2  10 816.111 116.640   2
  -4  -2 -10 495.866 176.267   3
  -4   2 -10 843.083 186.381   4
   4   2  10 795.646 101.545   2
  -4   2 -10 776.338 189.289   3
   6  -2  10 583.127 108.633   2
  -6  -2 -10 600.948 206.783   3
  -6   2 -10 578.889 200.273   3
  -6   2 -10 351.934 154.282   4
   6   2  10 578.232 103.242   2
   8  -2  10 844.504 133.478   2
  -8  -2 -10 460.635 228.644   3
   8   2  10 537.679 108.406   2
 -13   3  10 1050.47  252.63   3
 -11  -3  10 467.999 185.645   3
  11  -3 -10 596.782 139.560   1
  11   3 -10 481.568 114.271   1
 -11   3  10  94.812 158.083   3
 -11   3  10 518.709 171.947   4
  -9  -3  10 1292.66  240.22   3
   9  -3 -10 888.692 150.708   1
   9   3 -10 1101.47  137.60   1
  -9   3  10 1415.66  244.73   3
  -7  -3  10 1343.00  218.38   3
   7  -3 -10 1334.31  166.02   1
   7   3 -10 970.884 119.828   1
  -7   3  10 1506.33  233.32   3
  -5  -3  10 971.572 177.368   3
   5  -3 -10 1153.52  144.83   1
  -5  -3  10 1114.26  129.56   2
   5   3 -10 1170.82  116.27   1
  -5   3  10 1354.28  209.15   3
  -3  -3  10 2927.01  272.46   3
  -3  -3  10 2286.52  187.30   2
  -3   3  10 2738.58  276.00   3
  -1  -3  10 1936.57  214.54   3
  -1  -3  10 1550.24  149.25   2
  -1   3  10 1669.57  218.20   3
  -1   3  10 1808.70  111.76   2
   1  -3  10 1910.09  166.43   2
  -1  -3 -10 2246.41  295.01   3
   1  -3  10 2095.26  224.68   3
   1   3  10 1790.69  122.83   2
  -1   3 -10 1882.18  255.04   4
  -3  -3 -10 900.434 220.131   3
   3  -3  10 687.301 108.114   2
  -3   3 -10 691.644 166.345   3
  -3   3 -10 631.220 169.409   4
   3   3  10 578.724  88.001   2
  -5  -3 -10 584.925 214.268   3
   5  -3  10 1322.97  150.41   2
  -5   3 -10 1477.69  260.91   4
   5   3  10 1334.70  140.35   2
  -7  -3 -10 329.596 191.686   3
   7  -3  10 257.608  87.154   2
   7   3  10 298.415  88.730   2
  -7   3 -10 639.374 211.836   4
 -12  -4  10 802.616 243.044   3
  12   4 -10 544.614 132.243   1
 -12   4  10 1369.71  283.18   4
 -12   4  10 914.455 243.596   3
  10  -4 -10 1940.06  237.33   1
 -10  -4  10 1935.23  290.48   3
  10   4 -10 1621.96  184.22   1
 -10   4  10 1771.23  278.10   4
 -10   4  10 1983.11  297.11   3
   8  -4 -10 1137.48  172.06   1
  -8  -4  10 1292.33  227.14   3
   8   4 -10 1008.53  134.45   1
  -8   4  10 1070.17  220.90   3
  -6  -4  10 1000.50  132.92   2
  -6  -4  10 1028.06  191.88   3
   6  -4 -10 1208.99  163.22   1
  -6   4  10 880.909 175.596   3
   6   4 -10 1237.33  131.65   1
   4  -4 -10 642.994 122.318   1
  -4  -4  10 699.342 154.012   3
  -4  -4  10 465.780  97.990   2
  -4   4  10 578.881 157.368   3
  -2  -4  10 1644.43  169.53   2
  -2   4  10 1715.75  225.08   3
   0  -4  10 695.967 110.677   2
   0  -4 -10 722.989 184.543   3
   0   4  10 673.313  84.640   2
   0   4 -10 504.122 167.110   4
   2  -4  10 1710.19  172.09   2
  -2  -4 -10 1478.04  260.30   3
   2   4  10 1544.39  139.96   2
  -2   4 -10 1570.23  260.16   4
   4  -4  10 1749.33  180.17   2
  -4  -4 -10 1889.17  312.10   3
  -4   4 -10 1144.22  239.01   4
   4   4  10 1489.59  145.76   2
   6  -4  10 858.701 141.509   2
  -6  -4 -10 1195.50  276.70   3
   6   4  10 919.451 127.460   2
  -6   4 -10 833.694 211.775   4
  -8   4 -10 890.207 251.939   4
   8   4  10 902.712 137.475   2
 -11  -5  10 450.925 210.262   3
  11  -5 -10 821.001 186.387   1
 -11   5  10 591.858 211.856   4
  11   5 -10 1100.29  172.61   1
   9  -5 -10 818.578 171.201   1
  -9   5  10 491.790 181.559   4
   9   5 -10 766.494 134.116   1
   7  -5 -10 1240.44  190.86   1
  -7   5  10 962.186 200.378   3
   7   5 -10 1233.77  143.72   1
   5  -5 -10 1096.73  172.21   1
  -5  -5  10 1706.08  183.28   2
  -5   5  10 1712.37  241.16   3
  -3  -5  10 866.923 134.919   2
  -3   5  10 454.877 140.077   3
  -1  -5  10 1363.88  164.29   2
  -1   5  10 1263.25  204.02   3
   1   5 -10 1128.09  216.00   4
   1  -5  10 1228.94  158.80   2
  -1  -5 -10 1493.64  265.45   3
  -1   5 -10 1413.38  253.12   4
   1   5  10 1515.49  137.34   2
   3  -5  10 765.401 133.490   2
  -3  -5 -10 906.101 239.083   3
   3   5  10 1130.08  128.70   2
  -3   5 -10 913.266 207.308   4
   5  -5  10 338.538 102.861   2
  -5  -5 -10 467.590 224.501   3
   5   5  10 624.815 106.128   2
  -5   5 -10 470.860 185.405   4
  -7  -5 -10 678.454 286.414   3
   7   5  10 808.665 132.433   2
  -7   5 -10 1426.61  276.88   4
  10   6 -10 630.530 148.173   1
   8  -6 -10 796.028 179.459   1
   8   6 -10 663.584 124.037   1
  -8   6  10 783.489 204.471   4
  -6  -6  10 454.578 122.218   2
   6  -6 -10 643.239 157.440   1
  -6   6  10 280.650 136.588   4
  -4  -6  10 2135.83  221.09   2
   4  -6 -10 1744.06  229.72   1
  -2  -6  10 957.215 151.903   2
   2   6 -10 990.384 218.192   4
  -2   6  10 374.100 133.206   3
   0  -6  10 1397.99  183.45   2
   0   6 -10 1511.32  273.59   4
   0   6  10 2279.06  270.86   3
   2  -6  10 532.365 124.949   2
  -2  -6 -10 437.105 204.319   3
  -2   6 -10 299.505 163.601   4
   2   6  10 802.444 111.650   2
   4  -6  10 402.238 118.868   2
  -4  -6 -10 684.364 250.450   3
   4   6  10 507.103  97.413   2
  -4   6 -10 312.096 175.568   4
  -6  -6 -10 517.315 261.895   3
   6   6  10 444.571 105.625   2
  -7  -7  10 774.375 169.043   2
   7  -7 -10 688.911 186.687   1
  -7   7  10 700.103 213.022   4
   7   7 -10 912.517 146.231   1
  -5  -7  10 788.403 153.180   2
   5  -7 -10 346.164 149.782   1
  -5   7  10 786.527 219.902   4
  -3  -7  10 598.412 137.477   2
   3   7 -10 367.643 172.288   4
  -3   7  10 110.995 132.763   4
  -1  -7  10 1025.88  171.00   2
   1   7 -10 855.595 229.574   4
  -1   7  10 964.481 201.024   4
   1  -7  10 565.969 136.544   2
  -1   7 -10 572.612 206.151   4
   3  -7  10 903.331 167.992   2
  -3   7 -10 900.623 238.597   4
   3   7  10 809.360 123.556   2
  -5  -7 -10 392.012 251.460   3
  -4  -8  10 216.242 118.670   2
   4  -8 -10 269.711 151.521   1
  -4   8  10 289.784 181.718   4
  -2  -8  10 172.582 116.141   2
   2   8 -10 234.325 178.593   4
  -2   8  10 586.148 184.219   4
   0   8 -10 694.172 234.594   4
 -12   0  11  77.937 169.531   3
  12   0 -11 119.207  86.779   1
  10   0 -11 74.5667 72.3927   1
 -10   0  11  43.040 123.849   3
   8   0 -11 -14.668  52.051   1
  -8   0  11 118.468 107.817   3
  -6   0  11 44.9320 89.4467   3
  -4   0  11 -33.530  71.072   3
  -2   0  11 -57.737  66.531   3
  -2   0  11 31.6361 37.0233   2
   0   0  11 38.5219 81.4497   3
   0   0  11 40.4038 38.8470   2
  -2   0 -11  52.332 117.338   3
   2   0  11 -31.300  35.921   2
  -4   0 -11 -10.440 123.782   3
   4   0  11 -57.583  34.473   2
  -6   0 -11  40.463 157.459   3
   6   0  11 -15.258  51.875   2
   8   0  11 -23.578  67.052   2
  -8   0 -11 -27.795 183.923   3
 -11  -1  11  60.876 142.505   3
  11  -1 -11 111.498  86.056   1
  11   1 -11 199.437  90.645   1
 -11   1  11 187.255 152.873   3
   9  -1 -11 -85.514  56.945   1
  -9  -1  11  29.036 105.311   3
   9   1 -11 39.3242 59.4191   1
  -9   1  11  58.563 130.608   3
   7  -1 -11  2.5482 50.5245   1
  -7  -1  11  29.922 108.630   3
   7   1 -11 40.8736 49.2066   1
  -7   1  11 110.343 110.384   3
  -5  -1  11 61.0970 88.3747   3
  -5   1  11 140.349 110.662   3
  -3  -1  11 -17.397  76.436   3
  -3  -1  11 -44.107  35.905   2
  -3   1  11 66.6912 79.2933   3
  -1  -1  11 102.964  49.284   2
  -1  -1  11 41.2831 86.3871   3
  -1   1  11 18.5618 78.1929   3
  -1   1  11  1.6705 32.6728   2
  -1  -1 -11  27.075 113.704   3
   1  -1  11 163.109 102.584   3
   1  -1  11 198.257  60.755   2
   1   1  11 78.1527 46.6504   2
  -3  -1 -11 453.686 170.125   3
   3  -1  11 188.034  65.800   2
   3   1  11 153.262  55.640   2
  -3   1 -11 389.106 162.504   3
   5  -1  11 17.0197 46.1885   2
  -5  -1 -11 -121.28  124.71   3
   5   1  11 38.8434 52.1349   2
  -5   1 -11 -55.816 125.932   3
   7  -1  11 76.4657 64.6347   2
  -7  -1 -11  -6.800 160.987   3
   7   1  11 106.524  79.464   2
  -7   1 -11  44.516 176.500   3
  -9   1 -11 115.349 224.142   3
  12  -2 -11 -11.243  85.234   1
 -12  -2  11  17.441 154.710   3
 -12   2  11  -9.600 163.429   3
  12   2 -11  2.3107 74.3178   1
 -10  -2  11  35.501 136.282   3
  10  -2 -11 183.180  92.605   1
 -10   2  11 -117.24  114.02   3
  10   2 -11 42.8919 68.1911   1
  -8  -2  11 -56.872  98.819   3
   8  -2 -11 65.6591 69.2327   1
  -8   2  11  -5.804 106.841   3
   8   2 -11 54.0085 62.0362   1
   6  -2 -11 75.7639 64.1379   1
  -6  -2  11  53.714 105.476   3
  -6   2  11 133.461 107.791   3
  -4  -2  11 304.369 119.589   3
  -4   2  11 199.068 111.255   3
  -2  -2  11 21.9986 86.4028   3
  -2  -2  11 116.854  55.084   2
  -2   2  11 77.2746 94.0646   3
   0  -2 -11  77.812 114.054   3
   0  -2  11 155.098 100.728   3
   0  -2  11 237.792  65.085   2
   0   2  11 137.648 102.579   3
   0   2  11 140.278  48.496   2
   2  -2  11 20.9312 43.4940   2
   2  -2  11 15.9742 90.0884   3
  -2  -2 -11  81.271 124.196   3
  -2   2 -11  82.274 116.404   3
   2   2  11 28.8600 41.3293   2
   4  -2  11 123.149  66.350   2
  -4  -2 -11 -34.010 107.251   3
  -4   2 -11  40.689 127.526   3
   4   2  11 97.5884 53.7968   2
   6  -2  11 63.6178 62.1508   2
  -6  -2 -11 -33.716 152.231   3
  -6   2 -11 -120.30  155.65   3
   6   2  11 -33.813  51.488   2
  -8  -2 -11  96.395 204.763   3
   8  -2  11  2.1877 75.6242   2
   8   2  11 -5.2263 59.4646   2
  11  -3 -11 34.1990 93.6213   1
 -11  -3  11 -64.142 142.880   3
 -11   3  11  45.373 158.258   3
  11   3 -11 -15.931  75.037   1
   9  -3 -11 255.361 101.150   1
  -9  -3  11  22.752 122.605   3
  -9   3  11 -19.109 115.874   3
   9   3 -11 -3.1275 63.1493   1
   7  -3 -11 348.322  98.754   1
  -7  -3  11 129.879 123.054   3
  -7   3  11 155.311 122.305   3
  -5  -3  11  90.535 105.674   3
  -5   3  11  50.058 100.402   3
  -3  -3  11  4.1247 53.0337   2
  -3  -3  11 80.3632 96.4147   3
  -3   3  11  98.459 100.771   3
  -1  -3  11 90.9345 56.1915   2
  -1  -3  11 -79.953  76.884   3
  -1   3  11 10.7821 88.4834   3
   1  -3  11 -2.3203 48.8110   2
  -1  -3 -11 -47.539  99.331   3
   1  -3  11 42.1900 83.7329   3
   1   3  11  8.5848 39.6568   2
   3  -3  11  7.8453 57.4719   2
  -3  -3 -11  64.719 130.521   3
   3   3  11 -33.408  38.308   2
  -3   3 -11  93.910 129.189   4
   5  -3  11 80.5241 61.2820   2
  -5  -3 -11 232.408 151.960   3
  -5   3 -11 -32.542 113.574   4
   5   3  11 68.2201 56.7492   2
  -7  -3 -11  57.852 184.033   3
   7  -3  11 39.5070 64.9382   2
  -7   3 -11 139.735 181.676   4
   7   3  11 53.0598 71.3772   2
 -12   4  11  -8.817 191.125   3
  10  -4 -11 -45.991  92.278   1
 -10  -4  11  15.520 153.003   3
  10   4 -11 44.6434 80.5565   1
 -10   4  11 -146.25  115.49   3
   8  -4 -11 -23.177  81.214   1
  -8  -4  11 -113.15  122.98   3
   8   4 -11 -29.526  62.732   1
  -8   4  11 -21.923 117.212   3
  -6  -4  11 447.208 153.315   3
   6  -4 -11 162.567 100.766   1
  -6   4  11 310.132 145.553   3
  -4  -4  11 -16.013  62.506   2
  -4  -4  11 24.8586 99.4137   3
  -4   4  11 -55.067  87.620   3
  -2  -4  11 224.508  77.273   2
  -2   4  11 487.424 147.977   3
   0  -4 -11  43.107 133.285   3
   0  -4  11 -54.379  51.350   2
   0   4  11  9.7447 95.3062   3
  -2  -4 -11  84.839 136.754   3
   2  -4  11 89.0407 67.3106   2
   2   4  11 94.3312 49.9333   2
  -2   4 -11 101.120 131.188   4
   4  -4  11 -23.635  53.197   2
  -4  -4 -11 184.069 176.097   3
   4   4  11 -11.309  47.538   2
  -4   4 -11 -79.865 133.167   4
  -6  -4 -11 -131.49  157.73   3
   6  -4  11 58.7056 75.0314   2
   6   4  11 82.8309 66.3782   2
  -6   4 -11 -37.236 158.327   4
   9  -5 -11 19.7950 95.1636   1
   9   5 -11 20.9875 90.0530   1
  -9   5  11  38.356 124.610   4
  -9   5  11 -81.354 136.922   3
   7  -5 -11 74.5061 99.8591   1
  -7   5  11 -116.44  115.49   3
  -5  -5  11  8.2667 71.5136   2
  -5   5  11   4.266 121.106   3
  -3  -5  11 75.3574 74.2478   2
  -3   5  11  20.522 110.903   3
  -1  -5  11 168.919  84.082   2
  -1   5  11 136.857 112.308   3
   1   5 -11 188.212 135.736   4
  -1  -5 -11 216.749 141.422   3
   1  -5  11 246.468  93.440   2
  -1   5 -11 212.656 145.822   4
  -3  -5 -11  85.364 135.841   3
   3  -5  11 85.9991 72.1425   2
  -3   5 -11  72.886 153.842   4
   3   5  11 42.9657 57.2783   2
   5  -5  11 80.5591 84.2677   2
  -5  -5 -11 266.662 196.412   3
   5   5  11 120.309  65.917   2
  -5   5 -11 161.542 168.647   4
   8  -6 -11  34.931 109.294   1
  -8   6  11  39.379 129.067   4
   6  -6 -11  86.967 116.500   1
  -6  -6  11 40.8929 89.8317   2
  -4  -6  11 76.9999 89.0100   2
  -4   6  11 -46.572 115.377   3
  -2  -6  11 143.377  94.439   2
  -2   6  11  69.358 115.160   3
   2   6 -11  49.839 138.266   4
   0  -6  11 14.6883 76.2314   2
   0   6  11 34.8661 99.9490   3
   0   6 -11 -30.001 132.247   4
   2  -6  11 -73.045  68.983   2
  -2  -6 -11 175.847 178.456   3
  -2   6 -11 180.296 167.857   4
  -4  -6 -11 -196.84  164.30   3
   4  -6  11 152.223 101.002   2
  -4   6 -11 414.544 204.701   4
   4   6  11 11.5593 60.2178   2
   7  -7 -11 301.915 151.046   1
  -5  -7  11 215.715 106.181   2
  -5   7  11  82.327 132.955   4
  -3  -7  11 144.898 101.610   2
  -3   7  11  41.836 125.997   4
  -1  -7  11 -28.259  87.994   2
   1   7 -11 -34.824 127.003   4
   1  -7  11 -71.901  70.791   2
  -1   7 -11 153.400 175.273   4
   2   8 -11 151.283 181.992   4
  12   0 -12 480.192 128.934   1
  10   0 -12 611.262 124.780   1
 -10   0  12 542.039 191.138   3
  -8   0  12 337.384 159.443   3
  -6   0  12 1086.76  199.33   3
  -4   0  12 3163.09  328.73   3
  -2   0  12 1626.48  229.31   3
   0   0  12 2594.12  292.66   3
   0   0  12 2604.41  163.99   2
  -2   0 -12 577.230 185.893   3
   2   0  12 667.418  99.681   2
  -4   0 -12 859.045 233.757   3
   4   0  12 913.881 119.010   2
   6   0  12 346.334  91.596   2
  -6   0 -12 151.378 196.694   3
  -8   0 -12 1028.97  319.41   3
  11  -1 -12 1073.97  173.67   1
 -11  -1  12 1503.26  289.74   3
  11   1 -12 1138.07  164.12   1
 -11   1  12 946.168 243.100   3
  -9  -1  12 663.923 195.298   3
   9  -1 -12 654.246 124.391   1
  -9   1  12 631.475 201.595   3
   9   1 -12 855.294 130.939   1
  -7  -1  12 1671.92  257.09   3
  -7   1  12 1479.29  245.45   3
  -5  -1  12 1016.21  201.20   3
  -5   1  12 1215.76  216.28   3
  -3  -1  12 1071.56  196.73   3
  -3   1  12 1080.11  198.87   3
  -1  -1  12 1329.40  133.77   2
  -1  -1  12 1896.92  244.22   3
  -1   1  12 1486.36  220.06   3
   1  -1  12 2191.02  256.36   3
  -1  -1 -12 1897.87  293.36   3
   1  -1  12 1432.39  145.17   2
   1   1  12 1449.76  138.51   2
  -3  -1 -12 1093.31  242.50   3
   3  -1  12 941.775 124.204   2
  -3   1 -12 990.362 230.959   3
   3   1  12 784.605 110.089   2
  -5  -1 -12 378.959 200.391   3
   5  -1  12 614.743 111.106   2
  -5   1 -12 1008.89  252.58   3
   5   1  12 787.788 117.589   2
  -7  -1 -12 872.457 281.330   3
   7  -1  12 868.692 138.886   2
   7   1  12 1248.12  156.57   2
  -7   1 -12 898.811 269.641   3
  12  -2 -12 923.522 178.674   1
  12   2 -12 1070.92  167.06   1
  10  -2 -12 1536.16  192.66   1
 -10  -2  12 1618.67  289.74   3
  10   2 -12 1296.14  164.95   1
 -10   2  12 1470.71  272.75   3
  -8  -2  12 555.704 175.785   3
  -8   2  12 1097.67  219.46   3
  -6  -2  12 1206.03  220.79   3
  -6   2  12 900.275 197.793   3
  -4  -2  12 770.439 182.955   3
  -4   2  12 1016.11  198.30   3
  -2  -2  12 1262.31  135.91   2
  -2  -2  12 1053.07  192.78   3
  -2   2  12 1257.51  208.78   3
   0  -2  12 489.466  92.192   2
   0  -2  12 536.939 151.305   3
   0   2  12 517.666  80.625   2
   0   2  12 441.027 141.958   3
   2  -2  12 1672.98  165.92   2
  -2  -2 -12 1331.80  275.75   3
   2  -2  12 2038.61  256.36   3
   2   2  12 1454.71  141.70   2
  -4  -2 -12 1382.84  278.48   3
   4  -2  12 1323.66  154.72   2
  -4   2 -12 1376.37  266.72   3
   4   2  12 1114.00  135.50   2
  -6  -2 -12 754.113 242.219   3
   6  -2  12 982.058 149.657   2
   6   2  12 919.890 132.617   2
 -11  -3  12 334.929 200.040   3
  11  -3 -12 325.051 120.940   1
  11   3 -12 471.478 129.261   1
 -11   3  12 220.537 177.294   3
  -9  -3  12 1843.64  294.77   3
   9  -3 -12 1822.08  217.70   1
  -9   3  12 1756.62  293.07   3
  -7  -3  12 708.558 192.160   3
  -7   3  12 1172.99  216.34   3
  -5  -3  12 1515.25  234.42   3
  -5   3  12 1300.31  224.43   3
  -3  -3  12 1002.79  189.53   3
  -3  -3  12 1138.57  138.17   2
  -3   3  12 955.294 193.591   3
  -1  -3  12 1254.70  145.13   2
  -1  -3  12 1126.93  193.55   3
  -1   3  12 1582.48  234.26   3
  -1  -3 -12 570.175 184.501   3
   1  -3  12 852.127 120.948   2
   1   3  12 564.521  87.618   2
  -3  -3 -12 1131.35  263.68   3
   3  -3  12 1021.20  142.94   2
   3   3  12 941.353 119.988   2
  -5  -3 -12 268.454 191.835   3
   5  -3  12 910.813 142.732   2
   5   3  12 915.859 130.207   2
  10  -4 -12 536.644 150.069   1
 -10  -4  12 997.700 256.957   3
 -10   4  12 260.152 185.029   3
   8  -4 -12 722.122 157.386   1
  -8  -4  12 660.153 196.820   3
  -8   4  12 690.958 202.207   3
  -6  -4  12 1228.93  229.61   3
  -6   4  12 1189.92  236.02   3
  -4  -4  12 1046.89  147.69   2
  -4   4  12 1529.40  241.67   3
  -2  -4  12 2027.59  196.49   2
  -2   4  12 1582.85  243.54   3
   0  -4  12 833.583 134.547   2
   0   4  12 1133.06  211.34   3
  -2  -4 -12 1175.97  267.06   3
   2  -4  12 798.243 130.712   2
   2   4  12 923.557 115.547   2
  -2   4 -12 586.893 190.103   4
  -4  -4 -12  94.760 168.555   3
   4  -4  12 59.4617 71.6025   2
  -4   4 -12 334.385 193.946   4
   4   4  12 122.482  61.315   2
   6   4  12 527.610 115.142   2
   9  -5 -12 512.733 158.684   1
  -9   5  12 983.322 248.748   3
  -7   5  12 738.360 195.820   3
  -5   5  12 314.178 155.247   3
  -3  -5  12 907.947 146.987   2
  -3   5  12 786.126 187.439   3
  -1  -5  12 760.264 135.637   2
  -1   5  12 773.142 196.128   3
   1  -5  12 1293.36  171.70   2
  -1  -5 -12 1262.55  281.88   3
  -1   5 -12 975.803 244.988   4
  -3  -5 -12 787.226 246.461   3
   3  -5  12 832.942 147.462   2
   3   5  12 701.381 111.106   2
  -3   5 -12 1124.94  255.21   4
   5   5  12 633.488 116.065   2
  -4  -6  12 714.852 147.044   2
  -4   6  12 410.153 176.405   3
  -2  -6  12 221.189 108.630   2
  -2   6  12 424.289 169.291   3
   0  -6  12 1305.54  185.37   2
   0   6  12 627.851 192.679   3
   0   6 -12 1416.55  288.03   4
   2  -6  12 592.047 140.017   2
  -2  -6 -12 243.906 216.017   3
  -2   6 -12 272.810 196.863   4
   4   6  12 1069.59  148.43   2
  -5  -7  12 105.041  96.742   2
  -3  -7  12 588.833 143.198   2
   1   7 -12 370.869 205.703   4
  12   0 -13 -25.596  85.293   1
 -10   0  13  -1.600 147.890   3
  -8   0  13  64.255 115.486   3
  -6   0  13  -9.381 101.246   3
  -4   0  13 -50.437 100.063   3
  -2   0  13 -12.292  83.341   3
   0   0  13  5.7755 44.0003   2
   0   0  13 10.9857 96.7298   3
  -2   0 -13 188.817 151.053   3
   2   0  13 32.8665 51.9486   2
  -4   0 -13 -97.830 131.731   3
   4   0  13 -53.029  46.152   2
   6   0  13 -25.079  62.128   2
  -6   0 -13 -62.424 175.520   3
 -11  -1  13   1.129 154.911   3
 -11   1  13  75.657 158.743   3
  -9  -1  13   5.310 136.883   3
  -9   1  13  42.600 131.910   3
  -7  -1  13 279.926 147.104   3
  -7   1  13 139.271 127.025   3
  -5  -1  13  50.842 108.467   3
  -5   1  13 37.9450 99.9695   3
  -3  -1  13  61.557 111.761   3
  -3   1  13 167.677 117.613   3
  -1  -1  13 367.266 140.659   3
  -1  -1  13 296.359  75.350   2
  -1   1  13 313.431 130.316   3
   1  -1  13 -52.787  92.422   3
   1  -1  13 -5.6916 48.8672   2
   1   1  13 -15.395  90.771   3
   1   1  13 19.1757 45.7094   2
   3  -1  13 20.5767 51.7898   2
  -3  -1 -13 -65.982 141.624   3
  -3   1 -13 -73.790 138.696   3
   3   1  13  7.5423 54.3831   2
   5  -1  13 -3.2386 55.9275   2
  -5  -1 -13  54.917 173.924   3
  -5   1 -13 -197.92  167.56   3
   5   1  13 -71.862  54.006   2
  -7   1 -13 238.270 212.306   3
 -10  -2  13 313.682 189.272   3
 -10   2  13 -80.389 160.164   3
  -8  -2  13 -68.713 111.411   3
  -8   2  13  38.404 143.869   3
  -6  -2  13   2.355 123.906   3
  -6   2  13  16.654 121.326   3
  -4  -2  13 21.8378 99.1425   3
  -4   2  13 -44.682 107.036   3
  -2  -2  13  16.489 106.746   3
  -2  -2  13 29.1191 54.0202   2
  -2   2  13   1.558 106.105   3
   0  -2  13  24.807 110.097   3
   0  -2  13 47.9038 54.7880   2
   0   2  13  -0.380 106.249   3
   2  -2  13 17.1178 54.4401   2
   2  -2  13  14.125 111.032   3
  -2  -2 -13 -132.54  110.89   3
   2   2  13 -6.4600 50.6496   2
   4  -2  13 120.806  71.324   2
  -4  -2 -13  14.056 168.139   3
   4   2  13 149.593  72.152   2
  -4   2 -13 321.037 180.569   3
   6   2  13 23.3654 67.2990   2
  11  -3 -13  58.901 115.798   1
  -9  -3  13 155.041 159.647   3
  -9   3  13 174.555 164.262   3
  -7  -3  13  47.091 134.472   3
  -7   3  13 -115.40  121.58   3
  -5  -3  13 -113.20  103.78   3
  -5   3  13   1.076 119.422   3
  -3  -3  13 -26.455 104.089   3
  -3   3  13  68.699 112.573   3
  -1  -3  13 124.987 126.048   3
  -1  -3  13 170.225  74.963   2
  -1   3  13 162.243 128.985   3
  -1  -3 -13  20.399 140.489   3
   1  -3  13 -43.572  59.250   2
   1   3  13 218.468 133.835   3
  -3  -3 -13  77.729 178.745   3
   3  -3  13 -3.5065 59.9567   2
   3   3  13 90.2660 56.0789   2
   5  -3  13 33.5199 70.5293   2
   5   3  13 -28.255  62.059   2
 -10  -4  13  41.279 176.074   3
 -10   4  13 -108.33  139.10   3
  -8  -4  13 -44.439 154.854   3
  -8   4  13 107.174 162.751   3
  -6   4  13  -0.461 121.753   3
  -4   4  13  61.617 124.425   3
  -2  -4  13 183.757  79.865   2
  -2   4  13  68.209 129.995   3
   0  -4  13 -47.847  65.850   2
   0   4  13  11.767 113.005   3
   2  -4  13  9.5199 73.1941   2
  -2  -4 -13 -61.657 120.124   3
  -4  -4 -13 -123.60  177.22   3
   4  -4  13 -3.7823 64.1003   2
   4   4  13  6.7805 60.7781   2
  -9   5  13 106.141 173.823   3
  -7   5  13   6.894 149.925   3
  -5   5  13 268.702 168.573   3
  -3  -5  13 50.7429 79.9220   2
  -3   5  13 -77.213 123.212   3
  -1  -5  13 98.5168 84.2835   2
  -1   5  13 120.454 127.205   3
   1  -5  13 12.9551 77.6196   2
   1   5  13 144.310 135.264   3
  -4  -6  13  83.180 104.113   2
  -4   6  13 148.153 158.132   3
  -2  -6  13 196.991 109.434   2
  -2   6  13  27.103 136.078   3
   0  -6  13 78.9987 94.4825   2
   0   6  13 121.194 152.008   3
  -8   0  14 688.787 213.803   3
  -6   0  14 979.356 228.586   3
  -4   0  14 394.367 166.227   3
  -2   0  14 1227.20  231.54   3
   0   0  14 1432.61  248.79   3
   2   0  14 382.261 171.917   3
   2   0  14 638.597 107.958   2
  -4   0 -14 724.711 265.942   3
   4   0  14 997.115 141.757   2
  -9  -1  14 1009.09  249.10   3
  -9   1  14 597.822 230.975   3
  -7  -1  14 748.216 224.461   3
  -7   1  14 1190.44  234.61   3
  -5  -1  14 969.656 226.902   3
  -5   1  14 1030.22  225.99   3
  -3  -1  14 1787.12  273.85   3
  -3   1  14 1489.68  260.57   3
  -1  -1  14 892.670 200.660   3
  -1   1  14 820.784 202.148   3
   1  -1  14 1054.50  213.14   3
   1  -1  14 972.036 129.466   2
   1   1  14 1301.88  238.28   3
   3  -1  14 1022.54  223.87   3
   3  -1  14 476.808 104.549   2
  -3  -1 -14 462.400 211.371   3
   3   1  14 735.919 116.113   2
   5   1  14 453.508 107.988   2
  -5   1 -14 776.104 264.637   3
  -8  -2  14 531.136 214.198   3
  -8   2  14 637.648 216.877   3
  -6  -2  14 1596.13  275.56   3
  -6   2  14 1011.60  238.46   3
  -4  -2  14 1990.73  288.36   3
  -4   2  14 2144.72  303.26   3
  -2  -2  14 1301.25  251.46   3
  -2   2  14 1642.27  266.10   3
   0  -2  14 1178.93  226.84   3
   0  -2  14 663.974 114.347   2
   0   2  14 1102.02  229.72   3
  -2  -2 -14 338.671 211.773   3
   2  -2  14 737.066 202.577   3
   2   2  14 785.636 119.655   2
  -4  -2 -14 331.830 226.854   3
   4  -2  14 246.927  87.624   2
   4   2  14 425.137 100.292   2
  -9  -3  14 649.200 231.932   3
  -9   3  14 735.008 240.441   3
  -7  -3  14 831.314 238.425   3
  -7   3  14 528.050 194.463   3
  -5  -3  14 1080.24  237.22   3
  -5   3  14 1164.51  243.00   3
  -3  -3  14 258.125 157.296   3
  -3   3  14 249.554 148.070   3
  -1  -3  14 1342.66  165.78   2
  -1   3  14 1518.11  275.79   3
   1  -3  14 405.366  99.320   2
   1   3  14 409.982 172.167   3
   3  -3  14 890.026 147.921   2
  -3  -3 -14 1388.21  318.80   3
   3   3  14 1228.53  146.26   2
  -8   4  14 902.953 254.161   3
  -6   4  14 796.160 231.759   3
  -4   4  14 596.926 198.697   3
  -2  -4  14 469.101 115.153   2
  -2   4  14 363.596 168.852   3
   0  -4  14 319.162 105.266   2
   0   4  14 314.129 184.211   3
  -2  -4 -14 1225.57  321.97   3
   2  -4  14 855.699 149.334   2
   4   4  14 1063.33  152.05   2
  -7   5  14 1349.80  274.79   3
  -5   5  14 540.475 199.029   3
  -3   5  14 1091.54  248.12   3
  -1  -5  14 649.156 139.742   2
  -1   5  14 713.692 216.602   3
  -4   6  14 1377.96  282.07   3
  -8   0  15 -90.402 151.740   3
  -6   0  15  74.487 128.957   3
  -4   0  15  46.013 147.389   3
  -2   0  15  57.799 137.333   3
   0   0  15 258.731 156.281   3
   2   0  15 44.2330 61.7962   2
   2   0  15  60.245 143.446   3
  -7  -1  15  69.367 166.252   3
  -7   1  15 105.462 154.002   3
  -5  -1  15 -31.867 134.988   3
  -5   1  15 249.407 160.287   3
  -3  -1  15 231.981 161.848   3
  -3   1  15 -13.140 132.052   3
  -1  -1  15 119.975 142.136   3
  -1   1  15  -9.897 122.946   3
   1  -1  15 85.6774 70.6893   2
   1  -1  15 156.040 163.031   3
   1   1  15 376.902 176.594   3
   3  -1  15  36.413 143.820   3
   3  -1  15 -38.022  59.706   2
   3   1  15 43.8326 64.9547   2
  -8  -2  15 -21.063 158.999   3
  -6  -2  15 160.992 186.038   3
  -6   2  15 169.309 157.410   3
  -4  -2  15 -42.097 132.103   3
  -4   2  15 -61.303 133.947   3
  -2  -2  15 -75.712 126.624   3
  -2   2  15 -32.206 113.973   3
   0  -2  15 104.043 147.218   3
   0  -2  15 50.3497 71.0988   2
   0   2  15 267.489 161.733   3
   2  -2  15  0.4160 69.9926   2
   2  -2  15  38.460 147.393   3
  -7  -3  15  47.016 163.612   3
  -5  -3  15 -96.527 137.620   3
  -5   3  15  97.547 152.304   3
  -3  -3  15 204.531 164.777   3
  -3   3  15 -11.196 136.280   3
  -1   3  15  25.340 138.053   3
   1  -3  15 39.5336 74.4445   2
  -4   4  15  10.705 145.525   3
  -2   4  15  39.766 151.332   3
   0  -4  15  0.3128 83.0920   2
  -4   0  16 1293.72  272.51   3
  -2   0  16 1425.87  272.54   3
   0   0  16 283.593 183.551   3
  -5  -1  16 353.207 198.319   3
  -3  -1  16 718.371 217.394   3
  -3   1  16 461.075 190.017   3
  -1  -1  16 799.452 233.093   3
  -4  -2  16 510.672 199.782   3
  -2  -2  16 274.013 188.814   3
   0  -2  16 802.250 233.149   3
  -5  -3  16 786.536 241.168   3
   0   0   0    0.00    0.00   0
;
loop_
_symmetry_equiv_pos_as_xyz
'x, y, z'
'-x, y, -z+1/2'
'x+1/2, y+1/2, z'
'-x+1/2, y+1/2, -z+1/2'
'-x, -y, -z'
'x, -y, z-1/2'
'-x+1/2, -y+1/2, -z'
'x+1/2, -y+1/2, z-1/2'
loop_
_atom_site_label
_atom_site_type_symbol
_atom_site_fract_x
_atom_site_fract_y
_atom_site_fract_z
_atom_site_U_iso_or_equiv
_atom_site_adp_type
_atom_site_occupancy
_atom_site_symmetry_multiplicity
_atom_site_calc_flag
_atom_site_refinement_flags
_atom_site_disorder_assembly
_atom_site_disorder_group
Th1 Th 0.5000 0.00754(7) 0.2500 0.01025(15) Uani 1 2 d S . .
P1 P 0.4330(2) -0.2507(3) 0.4840(2) 0.0134(6) Uani 1 1 d . . .
P2 P 0.7276(2) -0.3371(3) 0.3365(2) 0.0162(6) Uani 1 1 d . . .
O5 O 0.3366(7) -0.3957(9) 0.4572(6) 0.0257(19) Uani 1 1 d . . .
O7 O 0.6390(6) -0.4863(10) 0.2939(7) 0.0298(18) Uani 1 1 d . . .
O1 O 0.4199(6) -0.1279(9) 0.3897(6) 0.0190(16) Uani 1 1 d . . .
O2 O 0.5722(7) 0.1731(9) 0.4085(6) 0.030(2) Uani 1 1 d . . .
O3 O 0.6533(6) -0.1764(9) 0.3370(6) 0.0193(17) Uani 1 1 d . . .
O4 O 0.3229(6) 0.1776(9) 0.2689(6) 0.0211(17) Uani 1 1 d . . .
loop_
_atom_site_aniso_label
_atom_site_aniso_U_11
_atom_site_aniso_U_22
_atom_site_aniso_U_33
_atom_site_aniso_U_23
_atom_site_aniso_U_13
_atom_site_aniso_U_12
Th1 0.0103(2) 0.0116(2) 0.0094(3) 0.000 0.00330(17) 0.000
P1 0.0181(14) 0.0123(12) 0.0105(14) -0.0003(10) 0.0046(11) -0.0019(10)
P2 0.0167(14) 0.0146(13) 0.0177(16) 0.0003(11) 0.0047(12) 0.0037(11)
O5 0.039(5) 0.016(4) 0.022(5) 0.006(3) 0.005(4) -0.006(3)
O7 0.021(4) 0.025(4) 0.044(5) 0.002(4) 0.009(3) -0.005(4)
O1 0.019(4) 0.020(4) 0.017(4) 0.010(3) 0.003(3) 0.005(3)
O2 0.055(6) 0.028(4) 0.010(4) -0.006(3) 0.015(4) -0.010(4)
O3 0.020(4) 0.026(4) 0.015(4) 0.004(3) 0.010(3) 0.011(3)
O4 0.025(4) 0.020(4) 0.022(4) 0.007(3) 0.013(3) 0.012(3)
loop_
_atom_type_symbol
_atom_type_description
_atom_type_scat_dispersion_real
_atom_type_scat_dispersion_imag
_atom_type_scat_source
O O 0.0106 0.0060 'International Tables Vol C Tables 4.2.6.8 and 6.1.1.4'
H H 0.0000 0.0000 'International Tables Vol C Tables 4.2.6.8 and 6.1.1.4'
P P 0.1023 0.0942 'International Tables Vol C Tables 4.2.6.8 and 6.1.1.4'
Th Th -7.2400 8.8979 'International Tables Vol C Tables 4.2.6.8 and 6.1.1.4'
loop_
_geom_angle_atom_site_label_1
_geom_angle_atom_site_label_2
_geom_angle_atom_site_label_3
_geom_angle
_geom_angle_site_symmetry_1
_geom_angle_site_symmetry_3
O3 Th1 O3 104.6(4) . 2_655
O3 Th1 O2 81.4(3) . .
O3 Th1 O2 144.8(3) 2_655 .
O3 Th1 O2 144.8(3) . 2_655
O3 Th1 O2 81.4(3) 2_655 2_655
O2 Th1 O2 113.9(4) . 2_655
O3 Th1 O1 75.7(2) . .
O3 Th1 O1 72.9(2) 2_655 .
O2 Th1 O1 75.2(3) . .
O2 Th1 O1 137.5(3) 2_655 .
O3 Th1 O1 72.9(2) . 2_655
O3 Th1 O1 75.7(2) 2_655 2_655
O2 Th1 O1 137.5(3) . 2_655
O2 Th1 O1 75.2(3) 2_655 2_655
O1 Th1 O1 127.5(3) . 2_655
O3 Th1 O4 145.9(2) . .
O3 Th1 O4 80.1(2) 2_655 .
O2 Th1 O4 76.9(3) . .
O2 Th1 O4 69.0(2) 2_655 .
O1 Th1 O4 73.6(2) . .
O1 Th1 O4 139.1(2) 2_655 .
O3 Th1 O4 80.1(2) . 2_655
O3 Th1 O4 145.9(2) 2_655 2_655
O2 Th1 O4 69.0(2) . 2_655
O2 Th1 O4 76.9(3) 2_655 2_655
O1 Th1 O4 139.1(2) . 2_655
O1 Th1 O4 73.6(2) 2_655 2_655
O4 Th1 O4 115.1(3) . 2_655
O2 P1 O1 115.9(4) 5_656 .
O2 P1 O5 109.0(4) 5_656 .
O1 P1 O5 110.1(4) . .
O3 P2 O4 114.1(4) . 3_545
O3 P2 O7 107.1(4) . .
O4 P2 O7 110.8(4) 3_545 .
P1 O1 Th1 150.3(4) . .
P1 O2 Th1 155.1(5) 5_656 .
P2 O3 Th1 150.2(4) . .
P2 O4 Th1 135.3(4) 3_455 .
loop_
_geom_bond_atom_site_label_1
_geom_bond_atom_site_label_2
_geom_bond_distance
_geom_bond_site_symmetry_2
Th1 O3 2.349(7) .
Th1 O3 2.349(7) 2_655
Th1 O2 2.370(7) .
Th1 O2 2.370(7) 2_655
Th1 O1 2.391(7) .
Th1 O1 2.391(7) 2_655
Th1 O4 2.475(7) .
Th1 O4 2.475(7) 2_655
P1 O2 1.493(7) 5_656
P1 O1 1.506(7) .
P1 O5 1.566(7) .
P2 O3 1.516(7) .
P2 O4 1.521(7) 3_545
P2 O7 1.562(8) .
O2 P1 1.493(7) 5_656
O4 P2 1.521(7) 3_455
