#------------------------------------------------------------------------------
#$Date: 2021-05-10 10:20:27 +0300 (Mon, 10 May 2021) $
#$Revision: 265064 $
#$URL: file:///home/coder/svn-repositories/cod/cif/1/56/24/1562444.cif $
#------------------------------------------------------------------------------
#
# This file is available in the Crystallography Open Database (COD),
# http://www.crystallography.net/
#
# All data on this site have been placed in the public domain by the
# contributors.
#
data_1562444
loop_
_publ_author_name
'Sun, Li-Zhi'
'Sun, Wei'
'Ren, Wei-Jian'
'Zhang, Jia-Ying'
'Huang, Ya-Xi'
'Sun, Zhi-Mei'
'Pan, Yuanming'
'Mi, Jin-Xiao'
_publ_section_title
;
 Synthesis and characterization of novel barium iron phosphates: Insight
 into new structure types tailored by hydrogen atoms
;
_journal_name_full               'Journal of Solid State Chemistry'
_journal_page_first              48
_journal_page_last               57
_journal_paper_doi               10.1016/j.jssc.2014.01.010
_journal_volume                  212
_journal_year                    2014
_chemical_formula_sum            'Ba Fe H2 O11 P3'
_chemical_formula_weight         464.12
_space_group_crystal_system      triclinic
_space_group_IT_number           2
_space_group_name_Hall           '-P 1'
_space_group_name_H-M_alt        'P -1'
_atom_sites_solution_hydrogens   difmap
_atom_sites_solution_primary     direct
_atom_sites_solution_secondary   difmap
_cell_angle_alpha                101.237(4)
_cell_angle_beta                 96.874(3)
_cell_angle_gamma                106.472(4)
_cell_formula_units_Z            2
_cell_length_a                   7.6547(13)
_cell_length_b                   8.6601(15)
_cell_length_c                   6.8717(12)
_cell_measurement_reflns_used    3510
_cell_measurement_temperature    173(2)
_cell_measurement_theta_max      28.203
_cell_measurement_theta_min      2.527
_cell_volume                     420.98(13)
_computing_cell_refinement       'SAINT (Bruker, 2001)'
_computing_data_collection       'SMART (Bruker, 2001)'
_computing_data_reduction        'SAINT (Bruker, 2001)'
_computing_molecular_graphics
'DIAMOND (Brandenburg, 2011) & ATOMS (Dowty, 2004)'
_computing_publication_material  'SHELXL-2013 (Sheldrick, 2013)'
_computing_structure_refinement  'SHELXL-2013 (Sheldrick, 2013)'
_computing_structure_solution    'SHELXL-2013 (Sheldrick, 2013)'
_diffrn_ambient_temperature      173(2)
_diffrn_measured_fraction_theta_full 0.974
_diffrn_measured_fraction_theta_max 0.900
_diffrn_measurement_device_type
'Bruker SMART APEX CCD area-detector diffractometer'
_diffrn_measurement_method
'1800 images,\f = 0, 90, 180\%, \c = 54.74\%, \D\w=0.3\%, Exp time: 15 s.'
_diffrn_radiation_type           MoK\a
_diffrn_radiation_wavelength     0.71073
_diffrn_reflns_av_R_equivalents  0.0241
_diffrn_reflns_av_unetI/netI     0.0344
_diffrn_reflns_Laue_measured_fraction_full 0.974
_diffrn_reflns_Laue_measured_fraction_max 0.900
_diffrn_reflns_limit_h_max       10
_diffrn_reflns_limit_h_min       -10
_diffrn_reflns_limit_k_max       11
_diffrn_reflns_limit_k_min       -11
_diffrn_reflns_limit_l_max       9
_diffrn_reflns_limit_l_min       -8
_diffrn_reflns_number            3510
_diffrn_reflns_point_group_measured_fraction_full 0.974
_diffrn_reflns_point_group_measured_fraction_max 0.900
_diffrn_reflns_theta_full        26.500
_diffrn_reflns_theta_max         28.203
_diffrn_reflns_theta_min         2.527
_diffrn_source                   'fine-focus sealed tube'
_exptl_absorpt_coefficient_mu    6.997
_exptl_absorpt_correction_T_max  0.335
_exptl_absorpt_correction_T_min  0.193
_exptl_absorpt_correction_type   multi-scan
_exptl_absorpt_process_details   'SADABS (Bruker, 2001)'
_exptl_crystal_colour            'light pink'
_exptl_crystal_density_diffrn    3.661
_exptl_crystal_description       prism
_exptl_crystal_F_000             434
_exptl_crystal_size_max          0.350
_exptl_crystal_size_mid          0.250
_exptl_crystal_size_min          0.200
_refine_diff_density_max         1.230
_refine_diff_density_min         -1.486
_refine_diff_density_rms         0.179
_refine_ls_extinction_coef       0.0450(19)
_refine_ls_extinction_expression Fc^*^=kFc[1+0.001xFc^2^\l^3^/sin(2\q)]^-1/4^
_refine_ls_extinction_method     SHELXL
_refine_ls_goodness_of_fit_ref   1.000
_refine_ls_hydrogen_treatment    refxyz
_refine_ls_matrix_type           full
_refine_ls_number_parameters     158
_refine_ls_number_reflns         1862
_refine_ls_number_restraints     3
_refine_ls_restrained_S_all      0.999
_refine_ls_R_factor_all          0.0250
_refine_ls_R_factor_gt           0.0248
_refine_ls_shift/su_max          0.001
_refine_ls_shift/su_mean         0.000
_refine_ls_structure_factor_coef Fsqd
_refine_ls_weighting_details
;
 w=1/[\s^2^(Fo^2^)+(0.0478P)^2^+0.7771P]
 where P=(Fo^2^+2Fc^2^)/3
;
_refine_ls_weighting_scheme      calc
_refine_ls_wR_factor_gt          0.0712
_refine_ls_wR_factor_ref         0.0714
_reflns_Friedel_coverage         0.000
_reflns_Friedel_fraction_full    .
_reflns_Friedel_fraction_max     .
_reflns_number_gt                1846
_reflns_number_total             1862
_reflns_threshold_expression     'I > 2\s(I)'
_cod_data_source_file            JSSC-2014-212-48.cif
_cod_data_source_block           micn
_cod_database_code               1562444
_shelx_space_group_comment
;
The symmetry employed for this shelxl refinement is uniquely defined
by the following loop, which should always be used as a source of
symmetry information in preference to the above space-group names.
They are only intended as comments.
;
_shelx_estimated_absorpt_t_min   0.193
_shelx_estimated_absorpt_t_max   0.335
_shelxl_version_number           2013-2
_shelx_res_file
;
TITL mi in P-1
CELL 0.71073   7.6547   8.6601   6.8717 101.237  96.874 106.472
ZERR   2       0.0013   0.0015   0.0012   0.003   0.003   0.003
LATT    1
SFAC     O   P   Fe   BA  H
UNIT     22  6   2    2   4

L.S. 15
FMAP 2
PLAN 50
ACTA 53
BOND $H
HTAB
EQIV $1 -x, -y, -z
HTAB O3 O3_$1

EQIV $2 -x+2, -y+1, -z
HTAB O10 O10_$2

EQIV $3 x+1, y, z
HTAB O11 O1_$3
REM HTAB O11 O5_$2
REM HTAB O11 O3_$2

TEMP -100
SIZE 0.20 0.25 0.35

WGHT    0.047800    0.777100
EXTI    0.044977
FVAR       0.24065
BA1   4    0.822957    0.162102    0.663682    11.00000    0.01056    0.00715 =
         0.00733    0.00279    0.00162    0.00145
FE1   3    0.500000    0.000000    0.000000    10.50000    0.00872    0.00458 =
         0.00605    0.00266    0.00186    0.00221
FE2   3    0.500000    0.500000    0.500000    10.50000    0.00801    0.00465 =
         0.00502    0.00200    0.00172    0.00140
P1    2    0.255077    0.229903    0.096628    11.00000    0.00839    0.00450 =
         0.00583    0.00194    0.00121    0.00157
P2    2    0.352464    0.198479    0.706424    11.00000    0.00870    0.00511 =
         0.00604    0.00242    0.00095    0.00217
P3    2    0.800925    0.375794    0.217537    11.00000    0.00817    0.00519 =
         0.00544    0.00193    0.00256    0.00169
O1    1    0.277217    0.369842    0.277453    11.00000    0.00918    0.00638 =
         0.00499   -0.00011   -0.00012    0.00194
O2    1    0.339384    0.100030    0.148934    11.00000    0.01099    0.00552 =
         0.00940    0.00298    0.00377    0.00295
O3    1    0.050226    0.146366   -0.000284    11.00000    0.00887    0.00775 =
         0.00787    0.00127    0.00000    0.00094
O4    1    0.355573    0.305139    0.931188    11.00000    0.01095    0.00528 =
         0.00736    0.00360    0.00284    0.00185
O5    1    0.162075    0.144178    0.582198    11.00000    0.00982    0.00910 =
         0.00858    0.00184   -0.00064    0.00160
O6    1    0.504372    0.308658    0.625317    11.00000    0.01175    0.00672 =
         0.00906    0.00360    0.00363    0.00141
O7    1    0.409009    0.045561    0.736117    11.00000    0.01233    0.00753 =
         0.00700    0.00367    0.00064    0.00313
O8    1    0.670491    0.436704    0.335656    11.00000    0.01223    0.01150 =
         0.00933    0.00186    0.00534    0.00501
O9    1    0.701856    0.225735    0.042282    11.00000    0.01144    0.00461 =
         0.00874    0.00236    0.00120    0.00169
O10   1    0.930518    0.517192    0.148342    11.00000    0.01295    0.00817 =
         0.00929    0.00446    0.00556    0.00124
O11   1    0.928317    0.321311    0.373190    11.00000    0.00917    0.01389 =
         0.01159    0.00644    0.00131    0.00359
DFIX 0.82 0.02 O3 H1
H1    5    0.035969    0.055125    0.026314    10.50000   10.05000
DFIX 0.82 0.02 O10 H2
H2    5    0.983232    0.518576    0.051396    10.50000   10.05000
DFIX 0.82 0.02 O11 H3
H3    5    1.036303    0.335881    0.363880    11.00000   10.05000

HKLF 4

REM  mi in P-1
REM R1 =  0.0248 for    1846 Fo > 4sig(Fo)  and  0.0250 for all    1862 data
REM    158 parameters refined using      3 restraints

END

WGHT      0.0292      0.7694

REM Instructions for potential hydrogen bonds
HTAB O11 O1_$3

REM Highest difference peak  1.230,  deepest hole -1.486,  1-sigma level  0.179
Q1    1   0.7382  0.2039  0.6746  11.00000  0.05    1.23
Q2    1   0.9189  0.1176  0.6377  11.00000  0.05    1.16
Q3    1   0.7466  0.1373  0.7404  11.00000  0.05    1.16
Q4    1   0.8937  0.1931  0.5786  11.00000  0.05    1.08
Q5    1   0.7458  0.1338  0.5588  11.00000  0.05    1.07
Q6    1   0.9028  0.1817  0.7715  11.00000  0.05    1.06
Q7    1   0.7260  0.4195  0.2651  11.00000  0.05    0.68
Q8    1   0.3246  0.1549  0.1109  11.00000  0.05    0.68
Q9    1   0.3233  0.2644  1.0050  11.00000  0.05    0.58
Q10   1   0.7013  0.2816  0.5755  11.00000  0.05    0.58
Q11   1   0.9030  0.3563  0.2702  11.00000  0.05    0.56
Q12   1   0.5835  0.5250  0.4119  11.00000  0.05    0.56
Q13   1   0.0328  0.2478  0.0565  11.00000  0.05    0.53
Q14   1   0.4153  0.0590  0.0505  11.00000  0.05    0.52
Q15   1   0.1554  0.2055  0.5829  11.00000  0.05    0.49
Q16   1   0.6262  0.1651  0.5129  11.00000  0.05    0.49
Q17   1   0.1126  0.0589  0.2531  11.00000  0.05    0.47
Q18   1   0.7067  0.1990 -0.1168  11.00000  0.05    0.47
Q19   1  -0.0539  0.1561 -0.0879  11.00000  0.05    0.46
Q20   1   0.4397  0.0053  0.8412  11.00000  0.05    0.46
Q21   1   0.2408  0.3263  0.1769  11.00000  0.05    0.46
Q22   1   0.6259 -0.0066  0.0635  11.00000  0.05    0.45
Q23   1   0.3012 -0.0754  0.6250  11.00000  0.05    0.45
Q24   1   0.5177  0.3737  0.5818  11.00000  0.05    0.45
Q25   1   0.5607  0.2832  0.5856  11.00000  0.05    0.44
Q26   1   0.3443 -0.0101  0.2037  11.00000  0.05    0.43
Q27   1   0.4698 -0.0390  0.1458  11.00000  0.05    0.43
Q28   1   0.8916  0.2805  0.4684  11.00000  0.05    0.42
Q29   1   0.2315  0.1957  0.6556  11.00000  0.05    0.42
Q30   1   0.8416  0.5542  0.1162  11.00000  0.05    0.42
Q31   1   0.6144  0.2218  0.6617  11.00000  0.05    0.42
Q32   1   0.5937  0.4586  0.5083  11.00000  0.05    0.41
Q33   1   0.4565  0.2819  0.6419  11.00000  0.05    0.41
Q34   1   0.7340  0.3463  0.1131  11.00000  0.05    0.40
Q35   1   0.3939  0.2861  0.9209  11.00000  0.05    0.40
Q36   1   0.1709  0.2782  0.7916  11.00000  0.05    0.40
Q37   1   0.8562  0.3632  0.5326  11.00000  0.05    0.39
Q38   1   0.3137  0.0386  0.0983  11.00000  0.05    0.39
Q39   1   0.8365  0.2668  0.2533  11.00000  0.05    0.38
Q40   1   0.5974  0.2256  0.4081  11.00000  0.05    0.38
Q41   1   0.6037  0.3070  0.6757  11.00000  0.05    0.38
Q42   1   0.3767  0.2096  0.8789  11.00000  0.05    0.38
Q43   1   0.5616  0.4202  0.4422  11.00000  0.05    0.38
Q44   1   0.6361  0.2870  0.0237  11.00000  0.05    0.38
Q45   1   0.4055  0.1336  0.7325  11.00000  0.05    0.37
Q46   1   0.5311  0.1935  0.0049  11.00000  0.05    0.37
Q47   1   0.6965  0.1747  0.0591  11.00000  0.05    0.37
Q48   1   0.6858  0.4959  0.3745  11.00000  0.05    0.36
Q49   1   0.1501  0.3600  0.0658  11.00000  0.05    0.36
Q50   1   0.1090  0.2332  0.4581  11.00000  0.05    0.36
;
_shelx_res_checksum              86756
_shelx_hkl_file
;
   0   0  -1   18.78    0.81
   0   0   1   19.14    0.82
   0   0   1   18.03    0.71
   0   0   2   57.45    2.11
   0   0   2   66.66    2.50
   0   0  -2   64.31    2.45
   0   0  -3  603.23   18.55
   0   0   3  551.00   17.22
   0   0   3  562.17   19.14
   0   0   4   12.36    0.65
   0   0   4   12.08    0.97
   0   0  -4   11.59    1.00
   0   0  -5   73.91    3.55
   0   0   5   74.31    3.47
   0   0  -6  238.32    9.04
   0   0   6  223.46    8.90
   0   0  -7   44.71    3.01
   0   0   7   45.69    2.82
   0   0   8    2.61    0.56
   0   0  -8    0.68    0.33
   1   0  -8  187.95    8.56
  -1   0   8  194.99    8.26
  -1   0   7    1.34    0.37
   1   0  -7    2.55    0.63
  -1   0   6    4.43    0.64
   1   0  -6    3.51    0.69
   1   0  -5  154.44    6.11
  -1   0   5  152.72    6.11
   1   0  -4    0.29    0.15
  -1   0   4    0.44    0.17
   1   0  -3   87.13    3.33
  -1   0   3   79.25    3.34
  -1   0   2  281.97    9.82
   1   0  -2  297.80    8.78
   1   0  -2  286.26    9.42
   1   0  -1   18.61    0.77
   1   0  -1   18.61    0.73
  -1   0   1   16.50    0.81
  -1   0   0   22.82    0.87
  -1   0   0   22.52    0.97
   1   0   0   22.54    0.94
  -1   0  -1  103.95    3.88
  -1   0  -1  108.17    3.63
   1   0   1  109.74    3.63
  -1   0  -2    1.37    0.28
  -1   0  -2    2.26    0.28
   1   0   2    1.19    0.18
   1   0   3    0.25    0.12
  -1   0  -3    0.38    0.15
   1   0   3    0.46    0.11
   1   0   4  460.72   15.36
   1   0   4  514.98   17.10
  -1   0  -4  515.81   16.61
  -1   0  -5  329.83   11.60
   1   0   5  320.30   11.74
   1   0   6   22.07    1.69
  -1   0  -6   23.05    1.84
   1   0   7   68.75    3.68
  -1   0  -7   63.28    3.80
   1   0   8   25.86    2.12
  -1   0  -8   26.94    2.38
   2   0  -8   11.36    1.40
  -2   0   8   11.89    1.30
  -2   0   7  264.49   10.28
   2   0  -7  257.10   10.29
   2   0  -6    0.60    0.25
  -2   0   6    0.44    0.20
   2   0  -5    4.25    0.62
  -2   0   5    3.75    0.57
   2   0  -4  941.42   27.15
  -2   0   4  868.54   30.37
   2   0  -4  922.90   29.20
  -2   0   3  128.65    5.04
   2   0  -3  130.44    4.81
   2   0  -3  137.83    4.33
   2   0  -2    3.81    0.35
  -2   0   2    3.87    0.41
   2   0  -1  253.70    7.71
   2   0  -1  241.65    7.83
  -2   0   1  235.60    8.33
  -2   0   0  195.09    6.78
  -2   0   0  192.51    6.38
   2   0   0  193.99    6.33
  -2   0  -1  192.87    6.27
   2   0   1  192.58    6.42
  -2   0  -1  188.19    6.81
  -2   0  -2  880.60   29.31
   2   0   2  912.44   26.82
  -2   0  -2  853.38   27.82
  -2   0  -3   29.88    1.85
   2   0   3   32.08    1.77
  -2   0  -3   30.92    1.65
   2   0   4   99.70    4.11
  -2   0  -4  100.32    4.21
  -2   0  -5  215.85    8.20
   2   0   5  216.99    8.39
   2   0   6   17.61    1.50
  -2   0  -6   17.28    1.56
  -2   0  -7    8.01    1.06
   2   0   7    8.19    1.00
  -2   0  -8  177.58    8.30
   2   0   8  192.65    8.22
  -3   0   8    2.06    0.50
   3   0  -8    3.00    0.77
  -3   0   7  181.39    7.67
   3   0  -7  180.15    7.69
  -3   0   6   88.63    4.27
   3   0  -6   87.17    4.24
  -3   0   5    0.73    0.26
   3   0  -5    1.52    0.37
   3   0  -4   31.48    1.77
  -3   0   3  185.36    7.21
   3   0  -3  203.68    6.55
   3   0  -3  200.69    6.83
   3   0  -2    4.70    0.40
  -3   0   2    3.80    0.45
   3   0  -2    4.10    0.44
  -3   0   1   30.95    1.57
   3   0  -1   30.26    1.18
   3   0  -1   28.97    1.54
  -3   0   0  319.43   11.06
   3   0   0  336.18   10.42
  -3   0   0  302.69   10.27
   3   0   1  741.72   22.15
  -3   0  -1  703.25   22.51
  -3   0  -1  700.85   23.91
  -3   0  -2    4.62    0.59
  -3   0  -2    4.77    0.43
   3   0   2    5.05    0.63
   3   0   3   46.76    2.56
  -3   0  -3   46.28    2.60
  -3   0  -3   49.54    2.26
  -3   0  -4   88.44    4.36
   3   0   4   90.13    4.21
  -3   0  -4   99.71    4.05
  -3   0  -5   22.41    1.63
   3   0   5   19.86    1.64
   3   0   6  322.55   12.09
  -3   0  -6  309.20   11.69
   3   0   7   71.19    3.97
  -3   0  -7   70.84    4.02
   4   0  -8  194.34    8.67
  -4   0   8  205.21    8.76
   4   0  -7  172.34    7.63
  -4   0   7  196.02    8.04
   4   0  -6    0.27    0.13
  -4   0   6    0.64    0.27
   4   0  -5  299.93   10.94
  -4   0   5  324.70   11.66
  -4   0   4  129.63    5.53
   4   0  -4  133.88    5.15
   4   0  -4  140.55    5.08
   4   0  -3  135.63    4.98
  -4   0   3  138.83    5.55
   4   0  -3  139.89    5.15
   4   0  -2  766.02   23.42
   4   0  -2  785.70   23.98
  -4   0   2  727.95   25.46
  -4   0   1   59.08    2.72
   4   0  -1   56.96    2.06
   4   0  -1   56.92    2.72
  -4   0   0    9.22    0.84
   4   0   0    9.56    0.93
  -4   0  -1  311.94   11.65
  -4   0  -1  351.64   10.56
   4   0   1  321.38   11.14
  -4   0  -2   16.01    1.32
  -4   0  -2   20.03    1.03
   4   0   2   15.17    1.37
   4   0   3    0.54    0.20
  -4   0  -3    0.68    0.18
  -4   0  -3    0.91    0.34
  -4   0  -4  444.68   16.28
   4   0   4  448.50   15.35
  -4   0  -5  123.00    5.87
   4   0   6    0.27    0.10
   4   0   7   74.14    4.19
   5   0  -8   10.06    1.20
   5   0  -7  161.21    7.06
  -5   0   7  171.27    7.51
  -5   0   6    9.84    1.15
   5   0  -6    8.45    0.95
   5   0  -5   93.00    4.14
  -5   0   5  100.47    4.72
   5   0  -4   43.02    2.40
  -5   0   4   43.46    2.54
   5   0  -4   39.00    2.06
  -5   0   3   72.21    3.41
   5   0  -3   68.38    2.76
   5   0  -3   61.70    3.17
   5   0  -2   76.69    3.59
  -5   0   2   76.09    3.56
   5   0   0    8.06    0.96
  -5   0   0    7.90    0.85
   5   0   1    9.56    1.10
   5   0   2  432.65   14.97
  -5   0  -2  441.34   15.68
  -5   0  -3   33.51    2.30
   5   0   3   32.68    2.44
   5   0   4   26.38    2.21
  -5   0  -4   23.52    1.98
  -5   0  -5  127.60    6.22
   5   0   6   27.55    2.27
  -6   0   7    2.12    0.53
  -6   0   6  312.13   12.32
  -6   0   5   67.36    3.78
  -6   0   4   13.78    1.35
   6   0  -4   12.12    1.24
   6   0  -3  315.89   11.47
  -6   0   3  333.51   12.14
   6   0  -2   45.10    2.78
  -6   0   2   48.68    2.71
   6   0  -1  153.83    6.55
  -6   0   1  165.82    6.60
  -6   0   0  365.03   13.26
   6   0   0  364.50   12.90
   6   0   1   49.16    3.11
  -6   0  -1   50.11    2.85
   6   0   2    6.74    0.99
  -6   0  -2    6.98    0.91
   6   0   3   75.58    4.36
  -6   0  -3   73.08    4.03
  -6   0  -4    9.49    1.19
   6   0   4   11.45    1.40
  -6   0  -5    7.66    1.06
  -7   0   6   24.45    2.19
  -7   0   5  157.76    7.20
  -7   0   4    9.34    1.15
   7   0  -4   11.36    1.30
   7   0  -3    2.31    0.56
  -7   0   3    1.52    0.44
  -7   0   2  187.35    7.62
   7   0  -2  178.66    7.63
   7   0  -1   34.40    2.55
  -7   0   1   30.49    2.16
   7   0   0  108.05    5.40
  -7   0   0  107.59    5.03
  -7   0  -1   37.48    2.50
   7   0   1   38.24    2.86
   7   0   2   84.17    4.89
  -7   0  -2   92.23    4.64
  -7   0  -3    1.18    0.32
   7   0   3    1.62    0.35
  -7   0  -4  101.72    5.35
   7   0   4   91.78    5.53
  -8   0   5   37.67    2.85
  -8   0   4  194.82    8.50
  -8   0   3  105.82    5.18
   8   0  -3   97.89    5.31
  -8   0   2   21.48    1.85
   8   0  -2   21.66    2.06
   8   0  -1  167.40    7.71
  -8   0   1  174.43    7.43
  -8   0   0   29.79    2.23
   8   0   0   27.51    2.44
  -8   0  -1   10.58    1.19
   8   0   1    8.42    1.22
   8   0   2  167.33    8.11
  -8   0  -2  171.59    7.67
   8   0   3   26.45    2.54
  -8   0  -3   24.37    2.17
  -9   0   3   56.07    3.53
   9   0  -3   46.67    3.58
   9   0  -2   28.05    2.57
  -9   0   2   31.22    2.43
  -9   0   1    6.12    0.88
   9   0  -1    7.08    1.25
  -9   0   0  157.61    7.24
   9   0   0  158.10    7.83
  -9   0  -1   22.70    2.03
  -9   1  -2  104.79    5.41
  -9   1  -1   56.38    3.48
   9  -1   1   57.62    4.18
   9  -1   0   58.21    4.09
  -9   1   0   56.03    3.42
  -9   1   1  114.84    5.50
   9  -1  -1  106.80    6.01
   9  -1  -2   44.83    3.44
  -9   1   2   49.82    3.14
   9  -1  -3   12.55    1.56
  -9   1   3   12.14    1.38
  -9   1   4   21.22    1.99
   8  -1   4   42.36    3.56
  -8   1  -4   46.49    3.21
   8  -1   3   17.02    2.02
  -8   1  -3   18.45    1.74
   8  -1   2    1.44    0.36
  -8   1  -2    3.65    0.62
  -8   1  -1  166.76    7.10
   8  -1   1  160.24    7.72
   8  -1   0   41.56    3.17
  -8   1   0   44.05    2.74
  -8   1   1   11.50    1.22
   8  -1  -1   13.21    1.54
   8  -1  -2   10.15    1.30
  -8   1   2   10.59    1.18
   8  -1  -3   81.92    4.80
  -8   1   3   96.73    4.72
  -8   1   4    2.23    0.55
  -8   1   5  221.36    9.53
  -7   1  -5   87.15    4.92
   7  -1   4   28.15    2.61
  -7   1  -4   29.21    2.33
  -7   1  -3  125.19    5.72
   7  -1   3  109.07    6.06
  -7   1  -2   90.77    4.48
   7  -1   2   87.97    5.01
  -7   1  -1   79.21    3.94
   7  -1   1   76.50    4.44
   7  -1   0   95.92    5.04
  -7   1   0  100.68    4.60
  -7   1   1   18.40    1.53
   7  -1  -1   20.00    1.87
   7  -1  -2    0.81    0.24
  -7   1   2    0.88    0.28
   7  -1  -3  283.50   10.86
  -7   1   3  292.38   11.09
  -7   1   4   20.69    1.79
  -7   1   5   15.04    1.55
  -7   1   6    5.46    0.84
  -6   1  -5   85.45    4.68
  -6   1  -4  160.31    6.98
   6  -1   4  148.58    7.24
   6  -1   3   25.32    2.29
  -6   1  -3   28.11    2.05
   6  -1   2  155.29    6.96
  -6   1  -2  157.90    6.56
  -6   1  -1  134.49    5.68
   6  -1   1  136.72    6.13
   6  -1   0   13.65    1.42
  -6   1   0   14.29    1.22
   6  -1  -1  581.15   18.81
  -6   1   1  551.32   19.53
   6  -1  -2   77.83    3.99
  -6   1   2   83.23    3.85
   6  -1  -3  187.54    7.63
  -6   1   3  207.96    7.93
  -6   1   4  104.60    4.91
  -6   1   5   51.74    3.15
  -6   1   6   29.22    2.32
  -6   1   7  183.38    8.00
   6  -1  -7  161.47    7.22
   5  -1   7  130.16    6.21
   5  -1   6  133.40    6.20
  -5   1  -5   86.46    4.55
   5  -1   4  196.31    8.31
  -5   1  -4  198.92    8.14
  -5   1  -3   17.98    1.48
   5  -1   3   14.94    1.56
  -5   1  -2    0.45    0.22
   5  -1   2    0.47    0.24
   5  -1   1  240.20    8.98
  -5   1  -1  239.75    8.90
  -5   1   1   74.66    3.29
   5  -1  -1   68.17    3.45
  -5   1   1   70.06    2.55
   5  -1  -2   75.46    3.59
   5  -1  -3  160.59    5.64
   5  -1  -3  147.46    5.98
  -5   1   3  157.31    6.24
   5  -1  -4    6.56    0.72
  -5   1   4   10.89    1.08
   5  -1  -5  228.62    8.57
  -5   1   5  238.39    9.24
   5  -1  -6   60.69    3.24
  -5   1   6   57.98    3.43
   5  -1  -7   52.09    3.21
  -5   1   7   55.62    3.44
   5  -1  -8    0.86    0.24
   4  -1   7   15.12    1.45
   4  -1   6   59.75    3.41
  -4   1  -6   59.72    3.38
  -4   1  -5    2.29    0.56
   4  -1   2  130.20    5.50
  -4   1  -2  128.56    5.28
  -4   1  -2  135.15    4.84
  -4   1  -1  445.04   14.99
   4  -1   1  481.88   15.32
  -4   1  -1  468.23   15.94
   4  -1   0  148.06    5.77
  -4   1   0  148.11    5.68
  -4   1   0  156.54    5.07
   4  -1  -1   48.70    1.98
  -4   1   1   51.06    2.36
   4  -1  -1   50.64    2.53
   4  -1  -2    0.23    0.10
   4  -1  -2    0.53    0.17
  -4   1   2    0.39    0.17
   4  -1  -3  365.06   11.94
  -4   1   3  349.88   12.61
   4  -1  -3  359.76   11.69
  -4   1   4  304.95   10.91
   4  -1  -4  289.38   10.26
  -4   1   5    3.33    0.56
   4  -1  -5    3.65    0.54
   4  -1  -6  101.10    4.67
  -4   1   6  100.41    4.87
  -4   1   7   34.00    2.48
   4  -1  -7   33.02    2.41
   4  -1  -8   29.64    2.47
  -4   1   8   34.42    2.61
  -3   1  -8   66.36    4.14
   3  -1   8   67.70    3.87
  -3   1  -7   27.88    2.24
   3  -1   7   28.00    2.09
  -3   1  -6    5.37    0.77
   3  -1   6    5.69    0.73
   3  -1   5  104.50    4.74
  -3   1  -5  111.39    4.87
  -3   1  -4  403.86   14.27
  -3   1  -4  400.67   13.68
   3  -1   4  390.84   13.45
  -3   1  -3   97.48    4.16
   3  -1   3   92.27    4.20
  -3   1  -3   98.78    3.95
  -3   1  -2  313.35   10.86
   3  -1   2  346.42   11.11
  -3   1  -2  321.26   11.41
   3  -1   1  254.33    8.70
  -3   1  -1  252.31    8.50
  -3   1  -1  257.77    8.93
  -3   1   0   19.52    1.10
  -3   1   0   20.34    0.88
   3  -1   0   20.27    1.31
   3  -1  -1  232.64    7.67
  -3   1   1  223.97    7.98
   3  -1  -1  228.57    7.50
   3  -1  -2  392.44   12.30
  -3   1   2  358.80   12.86
   3  -1  -2  380.34   11.93
  -3   1   3  352.44   12.65
   3  -1  -3  361.17   12.07
   3  -1  -3  376.98   11.47
   3  -1  -5  175.97    6.85
  -3   1   5  178.61    7.14
  -3   1   6   30.10    2.12
   3  -1  -6   26.81    2.00
   3  -1  -7   55.87    3.41
  -3   1   7   57.70    3.41
   3  -1  -8   99.67    5.34
  -3   1   8   99.19    5.21
   2  -1   8   37.71    2.57
  -2   1  -8   32.19    2.66
  -2   1  -7  197.93    8.44
   2  -1   7  198.49    8.12
  -2   1  -6  157.31    6.82
   2  -1   6  162.81    6.61
  -2   1  -5  146.39    6.13
   2  -1   5  151.14    5.99
  -2   1  -4  178.99    6.67
   2  -1   4  163.73    6.32
   2  -1   4  177.54    6.61
   2  -1   3   16.12    1.20
  -2   1  -3   18.47    1.22
  -2   1  -3   16.91    1.18
  -2   1  -2   22.18    1.23
  -2   1  -2   21.62    1.23
   2  -1   2   21.49    1.35
   2  -1   1   95.92    3.73
  -2   1  -1  101.05    3.66
  -2   1  -1   99.62    3.62
  -2   1   0  595.08   18.54
  -2   1   0  568.11   19.42
   2  -1   0  607.66   18.07
   2  -1  -1  695.40   21.39
   2  -1  -1  723.68   22.34
   2  -1  -2  465.45   14.88
   2  -1  -2  478.67   14.11
  -2   1   2  442.82   15.51
   2  -1  -3  133.53    4.92
  -2   1   3  134.03    5.13
   2  -1  -3  131.71    4.29
   2  -1  -4  220.19    7.92
  -2   1   4  220.86    8.23
   2  -1  -5  447.88   15.26
  -2   1   5  444.89   15.79
   2  -1  -6  121.67    5.43
  -2   1   6  123.43    5.49
   2  -1  -7   30.65    2.38
  -2   1   7   33.05    2.35
   2  -1  -8    9.29    1.24
  -2   1   8    7.61    1.00
  -1   1  -8  133.31    6.79
   1  -1   8  145.36    6.43
  -1   1  -7   40.89    2.90
   1  -1   7   46.11    2.74
   1  -1   6  167.08    6.82
  -1   1  -6  171.66    7.16
  -1   1  -5   15.12    1.35
   1  -1   5   14.31    1.14
   1  -1   4   20.73    1.31
   1  -1   4   20.54    1.26
  -1   1  -4   23.22    1.56
   1  -1   3  261.36    8.95
   1  -1   3  245.29    8.35
  -1   1  -3  263.64    8.93
  -1   1  -2  255.97    8.48
   1  -1   2  246.62    8.09
  -1   1  -1  243.52    7.84
  -1   1  -1  224.03    7.70
   1  -1   1  229.36    7.41
  -1   1   0   35.63    1.32
   1  -1   0   35.44    1.45
   1  -1   0   36.72    1.37
  -1   1   1  106.26    3.87
   1  -1  -1  115.45    3.79
   1  -1  -1  107.97    3.57
   1  -1  -2   63.87    2.43
  -1   1   2   57.56    2.47
  -1   1   3  100.06    4.00
   1  -1  -3  100.23    3.88
   1  -1  -4   80.75    3.52
  -1   1   4   81.41    3.60
  -1   1   5  524.53   18.41
   1  -1  -5  533.78   17.86
   1  -1  -6   43.80    2.71
  -1   1   6   43.05    2.61
  -1   1   7  126.02    5.77
   1  -1  -7  123.99    5.90
  -1   1   8  107.09    5.35
   1  -1  -8  100.77    5.51
   0   1  -8    1.58    0.50
   0  -1   8    2.75    0.57
   0  -1   7   20.10    1.63
   0   1  -7   20.22    1.88
   0  -1   6   64.51    3.26
   0   1  -6   64.85    3.56
   0   1  -5  173.89    6.88
   0  -1   5  173.92    6.72
   0   1  -4  247.22    8.66
   0  -1   4  236.78    8.60
   0  -1   4  234.48    7.65
   0  -1   3  380.47   11.95
   0  -1   3  400.20   13.18
   0   1  -3  384.10   12.90
   0  -1   2  536.74   16.10
   0   1  -2  503.90   17.04
   0  -1   2  555.22   17.60
   0  -1   1   37.77    1.45
   0  -1   1   38.31    1.48
   0   1  -1   42.29    1.65
   0  -1   0   83.82    2.86
   0  -1   0   78.24    2.72
   0  -1   0   80.61    2.61
   0  -1  -1  329.33   11.37
   0  -1  -1  351.04   10.83
   0  -1  -1  333.11   10.16
   0   1   2  526.07   18.33
   0  -1  -2  545.56   17.57
   0   1   2  579.86   16.61
   0   1   3  312.04   10.94
   0  -1  -3  321.39   10.54
   0   1   3  306.43    9.60
   0   1   4   91.54    3.97
   0  -1  -4   93.55    3.92
   0   1   5   91.22    4.21
   0  -1  -5   96.59    4.26
   0   1   6   14.89    1.36
   0  -1  -6   13.61    1.37
   0  -1  -7  209.31    8.83
   0   1   7  217.80    8.84
   0  -1  -8   21.50    2.04
   0   1   8   22.20    1.95
   1   1  -8   63.98    4.14
  -1  -1   8   70.14    3.83
  -1  -1   7  287.40   10.93
   1   1  -7  282.28   11.12
  -1  -1   6  433.80   15.48
   1   1  -6  435.17   15.39
  -1  -1   5   59.12    2.91
  -1  -1   4   22.62    1.41
  -1  -1   4   22.40    1.01
   1   1  -4   23.50    1.52
  -1  -1   3  268.98    9.53
  -1  -1   3  277.22    8.44
   1   1  -3  277.07    9.33
  -1  -1   2   17.48    0.96
   1   1  -2   19.27    1.01
  -1  -1   2   19.13    0.84
  -1  -1   1  190.45    6.72
   1   1  -1  195.58    6.44
  -1  -1   1  205.11    6.09
  -1  -1   0   60.38    2.16
   1   1   0   63.32    2.23
  -1  -1   0   67.92    2.50
   1   1   1  964.77   29.16
  -1  -1  -1  999.57   30.76
  -1  -1  -2    4.81    0.43
  -1  -1  -2    4.40    0.53
   1   1   2    5.22    0.45
  -1  -1  -3  141.71    5.88
  -1  -1  -3  150.53    5.42
   1   1   3  151.26    5.10
   1   1   4   53.99    2.78
  -1  -1  -4   56.06    2.70
   1   1   5    2.37    0.49
  -1  -1  -5    1.61    0.41
   1   1   6  135.64    6.03
  -1  -1  -6  141.06    6.08
  -1  -1  -7  251.88   10.13
   1   1   7  252.81   10.14
  -1  -1  -8    1.76    0.44
   1   1   8    2.61    0.57
  -2  -1   8   65.03    3.68
   2   1  -8   57.84    3.86
   2   1  -7  126.20    5.94
  -2  -1   7  124.15    5.68
   2   1  -6    7.11    0.92
  -2  -1   6    8.59    0.96
  -2  -1   5  119.08    5.05
   2   1  -5  121.29    5.05
   2   1  -4  214.98    7.81
  -2  -1   4  208.89    7.99
   2   1  -4  230.89    7.03
   2   1  -3  123.00    4.05
   2   1  -3  119.94    4.39
  -2  -1   3  110.51    4.53
   2   1  -2  973.81   30.96
   2   1  -2 1000.00   29.41
  -2  -1   1  348.94   12.44
   2   1  -1  373.41   11.37
   2   1  -1  381.25   11.71
   2   1   0  316.07    9.70
  -2  -1   0  300.96   10.63
  -2  -1  -1   41.69    1.57
  -2  -1  -1   38.80    2.01
   2   1   1   42.25    1.87
   2   1   2   39.01    1.88
  -2  -1  -2   34.27    2.01
  -2  -1  -2   37.62    1.65
  -2  -1  -3  422.38   15.52
   2   1   3  447.48   14.05
  -2  -1  -3  447.43   14.46
  -2  -1  -4   44.09    2.68
  -2  -1  -5  141.15    5.86
   2   1   5  145.99    6.19
  -2  -1  -6    6.48    0.86
   2   1   6    6.28    0.85
  -2  -1  -7   66.16    3.88
   2   1   7   67.99    3.88
   3   1  -8    1.92    0.52
  -3  -1   8    1.74    0.50
  -3  -1   7   29.58    2.17
   3   1  -7   27.68    2.21
   3   1  -6   84.88    4.13
  -3  -1   6   84.65    4.15
  -3  -1   5  361.46   13.21
   3   1  -5  372.06   12.72
   3   1  -3  154.43    5.33
   3   1  -3  153.70    5.42
  -3  -1   3  151.71    5.92
   3   1  -2  114.95    3.92
  -3  -1   2  112.19    4.49
   3   1  -2  112.31    4.13
   3   1  -1  107.11    3.94
  -3  -1   1  100.28    4.17
   3   1  -1  106.93    3.46
  -3  -1   0  131.50    5.11
   3   1   0  128.84    4.76
   3   1   1  101.91    4.09
  -3  -1  -1  110.92    3.56
  -3  -1  -1  100.73    4.36
  -3  -1  -2  293.11    9.19
  -3  -1  -2  264.98   10.21
   3   1   2  274.18    9.45
   3   1   3  774.24   23.94
  -3  -1  -3  724.26   26.14
  -3  -1  -3  791.32   24.49
  -3  -1  -4   18.35    1.65
  -3  -1  -4   19.42    1.35
  -3  -1  -5   86.26    4.02
   3   1   6  131.67    6.14
  -3  -1  -6  128.70    5.78
   3   1   7   47.48    3.16
  -4  -1   8   55.54    3.47
   4   1  -8   52.95    3.53
  -4  -1   7   31.58    2.29
   4   1  -7   25.80    2.10
   4   1  -6  287.69   10.69
  -4  -1   6  293.70   11.18
   4   1  -5  274.07    9.91
  -4  -1   5  283.76   10.56
   4   1  -4   29.09    1.70
   4   1  -4   28.85    1.62
  -4  -1   4   27.65    1.86
   4   1  -3    2.58    0.32
   4   1  -3    2.53    0.40
  -4  -1   3    5.10    0.64
   4   1  -2  528.22   16.26
   4   1  -2  522.95   16.24
  -4  -1   2  486.36   17.60
   4   1  -1  322.24   10.50
  -4  -1   1  306.48   11.22
   4   1   0  506.87   15.69
  -4  -1   0  467.51   16.86
   4   1   1   91.01    4.01
  -4  -1  -1   90.81    4.12
   4   1   2   48.71    2.75
  -4  -1  -2   50.25    2.81
  -4  -1  -3   95.70    4.72
   4   1   3   99.68    4.55
   4   1   4    0.84    0.22
  -4  -1  -4    1.33    0.44
  -4  -1  -5   37.66    2.78
   4   1   6   16.66    1.68
   5   1  -8   38.49    2.88
  -5  -1   8   44.74    3.11
  -5  -1   7   66.32    3.90
   5   1  -7   65.04    3.65
  -5  -1   6    3.95    0.78
  -5  -1   5   20.45    1.72
   5   1  -4  232.12    8.46
  -5  -1   4  240.10    9.24
  -5  -1   3   38.48    2.34
  -5  -1   2  102.33    4.62
   5   1  -2  108.73    4.54
  -5  -1   1  529.32   18.79
   5   1  -1  552.65   17.54
  -5  -1   0    1.51    0.39
   5   1   0    0.74    0.27
  -5  -1  -1    1.10    0.38
   5   1   1    1.15    0.41
  -5  -1  -2  166.65    6.98
   5   1   2  158.22    6.72
   5   1   3    1.69    0.40
  -5  -1  -3    1.89    0.53
   5   1   4  179.02    7.65
  -5  -1  -4  174.65    7.88
  -5  -1  -5  180.83    8.31
   5   1   6    0.63    0.19
  -6  -1   7    7.83    1.08
  -6  -1   6  131.12    6.31
  -6  -1   5   85.81    4.52
  -6  -1   4  388.01   14.42
   6   1  -4  388.51   13.46
  -6  -1   3   24.24    1.86
   6   1  -3   22.43    1.80
  -6  -1   2    6.72    0.87
   6   1  -2    6.24    0.85
   6   1  -1   93.38    4.52
  -6  -1   1   95.68    4.49
   6   1   0   78.86    4.18
  -6  -1   0   87.53    4.19
  -6  -1  -1   39.60    2.56
   6   1   1   38.17    2.69
  -6  -1  -2  217.37    9.05
   6   1   2  221.77    8.94
   6   1   3  173.09    7.67
  -6  -1  -3  172.22    7.71
  -6  -1  -4   10.35    1.28
  -6  -1  -5    8.97    1.21
  -7  -1   6   14.33    1.59
  -7  -1   5  128.82    6.27
  -7  -1   4    5.22    0.80
   7   1  -4    4.63    0.84
   7   1  -3    3.42    0.72
  -7  -1   3    2.32    0.55
  -7  -1   2  113.67    5.30
   7   1  -2  106.46    5.30
   7   1  -1    1.68    0.44
  -7  -1   1    2.02    0.52
  -7  -1   0  237.10    9.42
   7   1   0  226.15    9.32
   7   1   1  239.31    9.76
  -7  -1  -1  238.26    9.74
  -7  -1  -2    3.12    0.68
   7   1   2    4.28    0.91
  -7  -1  -3   15.44    1.66
   7   1   3   17.10    1.87
  -7  -1  -4  191.49    8.85
  -8  -1   5   64.66    4.05
  -8  -1   4  100.49    5.28
   8   1  -4   97.84    5.35
   8   1  -3   46.04    3.30
  -8  -1   3   48.72    3.19
  -8  -1   2   81.08    4.34
   8   1  -2   73.16    4.44
   8   1  -1   69.54    4.31
  -8  -1   1   72.07    4.02
   8   1   0    1.78    0.45
  -8  -1   0    2.10    0.52
   8   1   1    1.30    0.48
  -8  -1  -1    1.08    0.34
   8   1   2   14.73    1.73
  -8  -1  -2   14.07    1.55
   9   1  -4   26.79    2.42
   9   1  -3  130.16    6.78
   9   1  -2    0.44    0.21
  -9  -1   2    0.83    0.23
  -9  -1   1    0.94    0.21
 -10   2   0  176.85    7.82
 -10   2   1    8.92    1.07
  -9   2  -1    2.00    0.46
   9  -2   1    2.29    0.61
  -9   2   0   21.81    1.81
   9  -2   0   21.18    2.26
   9  -2  -1   41.19    3.33
  -9   2   1   47.73    2.93
   9  -2  -2   10.03    1.34
  -9   2   2    8.07    1.01
  -9   2   3   34.41    2.50
   9  -2  -3   31.01    2.76
  -9   2   4  203.38    8.88
   8  -2   4  177.23    8.88
   8  -2   3    0.23    0.23
  -8   2  -2    0.85    0.30
   8  -2   2    1.16    0.35
   8  -2   1  165.21    7.95
  -8   2  -1  171.79    7.12
  -8   2   0   10.70    1.13
   8  -2   0   13.78    1.64
  -8   2   1  225.09    8.79
   8  -2  -1  216.04    9.36
   8  -2  -2  350.29   13.57
  -8   2   2  369.23   13.44
   8  -2  -3    0.38    0.21
  -8   2   3    0.15    0.11
  -8   2   4    6.35    0.91
  -8   2   5  145.63    6.90
   7  -2   4   26.56    2.53
   7  -2   3  119.60    6.38
  -7   2  -3  122.02    5.58
  -7   2  -2  114.07    5.11
   7  -2   2  108.52    5.85
  -7   2  -1   40.64    2.42
   7  -2   1   39.85    3.02
   7  -2   0  106.03    5.40
  -7   2   0  103.89    4.67
   7  -2  -1    0.72    0.29
  -7   2   1    0.39    0.16
  -7   2   2   14.75    1.32
   7  -2  -2   14.27    1.54
   7  -2  -3    7.66    1.02
  -7   2   3    6.61    0.86
  -7   2   4    3.13    0.62
  -7   2   5  108.34    5.37
  -7   2   6  270.51   11.14
   6  -2   5   80.39    4.85
  -6   2  -4    6.91    0.88
   6  -2   4    5.90    0.89
  -6   2  -3   84.88    4.10
   6  -2   3   82.61    4.74
   6  -2   2  292.30   11.42
  -6   2  -2  305.85   11.07
   6  -2   1    3.24    0.76
  -6   2  -1    3.20    0.47
   6  -2   0    1.69    0.49
  -6   2   0    1.73    0.38
  -6   2   1  321.72   11.52
   6  -2  -1  317.73   11.57
   6  -2  -2    0.41    0.20
  -6   2   2    0.26    0.15
   6  -2  -3  123.91    4.91
  -6   2   3  129.18    5.49
   6  -2  -3  128.44    5.62
   6  -2  -4  393.26   13.38
  -6   2   4  389.13   14.31
   6  -2  -5    2.84    0.44
  -6   2   5    2.53    0.57
   6  -2  -6   31.14    2.18
  -6   2   6   34.27    2.50
  -6   2   7   45.84    3.14
   6  -2  -7   39.35    2.73
   5  -2   5  117.52    5.93
  -5   2  -5  125.67    5.65
   5  -2   4  105.60    5.32
  -5   2  -4  102.47    4.77
   5  -2   3   75.69    4.21
  -5   2  -3   80.10    3.47
  -5   2  -3   75.56    3.65
  -5   2  -2  160.87    5.70
   5  -2   2  143.03    6.44
  -5   2  -2  148.66    5.97
  -5   2  -1   74.87    3.23
   5  -2   1   66.93    3.68
  -5   2   0    7.93    0.75
  -5   2   0    8.15    0.58
   5  -2  -1  166.43    6.63
  -5   2   1  168.48    6.37
   5  -2  -2  320.16   10.68
   5  -2  -2  311.89   11.05
  -5   2   2  323.66   11.39
   5  -2  -3   12.48    0.98
  -5   2   3   13.08    1.13
  -5   2   4   11.55    1.12
  -5   2   5   88.64    4.30
   5  -2  -5   83.73    3.94
  -5   2   6   14.89    1.49
   5  -2  -6   15.13    1.39
  -5   2   7    9.52    1.18
   5  -2  -7    7.91    1.01
  -4   2  -7   16.54    1.64
   4  -2   6  388.52   13.71
  -4   2  -6  353.01   13.54
   4  -2   5   57.04    3.43
  -4   2  -5   62.37    3.30
   4  -2   4   18.73    1.69
  -4   2  -4   20.41    1.51
  -4   2  -4   19.24    1.48
   4  -2   2    1.42    0.46
  -4   2  -2    1.69    0.34
  -4   2  -2    1.77    0.28
   4  -2   1  199.61    7.75
  -4   2  -1  219.63    7.24
  -4   2  -1  207.89    7.50
   4  -2   0  355.39   12.07
  -4   2   0  358.93   12.25
  -4   2   0  358.35   11.52
  -4   2   1   66.94    2.80
   4  -2  -1   63.45    3.09
   4  -2  -1   63.64    2.61
   4  -2  -2    7.16    0.77
   4  -2  -2    7.86    0.67
  -4   2   2    7.72    0.71
  -4   2   3  314.65   11.55
   4  -2  -3  329.43   11.05
   4  -2  -3  332.91   10.83
  -4   2   4    5.78    0.72
   4  -2  -4    5.06    0.63
   4  -2  -5   36.44    2.23
  -4   2   5   38.50    2.38
   4  -2  -6  508.30   17.94
  -4   2   6  533.53   18.74
   4  -2  -7    2.37    0.58
  -4   2   7    1.99    0.53
  -3   2  -8   71.77    4.38
  -3   2  -7   44.94    3.11
   3  -2   7   47.43    2.80
   3  -2   6  109.00    4.72
  -3   2  -6   98.07    4.97
   3  -2   5   71.76    3.37
  -3   2  -5   69.05    3.61
  -3   2  -3  155.40    5.94
   3  -2   3  146.03    6.04
  -3   2  -3  161.92    5.94
  -3   2  -2  355.29   11.83
   3  -2   2  343.87   11.64
  -3   2  -2  333.85   11.63
  -3   2   0   30.59    1.39
   3  -2   0   28.00    1.71
  -3   2   0   30.68    1.29
   3  -2  -1  543.05   16.89
   3  -2  -1  522.35   16.53
  -3   2   1  514.25   17.51
  -3   2   2  102.18    4.02
   3  -2  -2  104.38    3.93
   3  -2  -2  101.64    3.88
   3  -2  -3  209.89    7.53
  -3   2   3  211.30    7.85
   3  -2  -3  218.71    7.06
  -3   2   4  194.27    7.47
   3  -2  -4  192.78    7.14
  -3   2   5   40.55    2.41
   3  -2  -5   36.48    2.25
  -3   2   6    0.94    0.34
   3  -2  -6    0.70    0.26
  -3   2   7   90.83    4.72
   3  -2  -7   89.49    4.67
  -3   2   8    8.53    1.10
   3  -2  -8    7.53    1.07
  -2   2  -8    3.65    0.57
   2  -2   7  110.25    4.94
  -2   2  -7  101.19    5.36
  -2   2  -6   29.64    2.26
   2  -2   6   31.02    1.95
   2  -2   5   38.40    2.05
   2  -2   5   34.98    2.12
  -2   2  -5   34.99    2.32
  -2   2  -4  491.31   17.51
   2  -2   4  561.93   17.71
   2  -2   4  509.16   16.70
   2  -2   3  167.40    6.19
  -2   2  -3  167.48    6.32
   2  -2   2   38.94    2.14
  -2   2  -2   45.82    2.18
  -2   2  -2   46.19    1.89
  -2   2  -1  932.02   28.95
   2  -2   1  869.02   26.87
  -2   2  -1  848.67   27.83
   2  -2   0  110.66    4.19
  -2   2   0  116.90    3.91
  -2   2   0  115.19    3.97
   2  -2  -1  111.30    3.92
  -2   2   1  106.79    3.93
   2  -2  -1  107.35    3.91
   2  -2  -2  767.14   22.92
   2  -2  -2  788.72   24.26
  -2   2   2  727.67   25.17
   2  -2  -3   51.12    2.38
  -2   2   3   49.10    2.40
   2  -2  -3   51.58    1.74
  -2   2   4    0.77    0.28
   2  -2  -5  145.72    5.97
  -2   2   5  149.68    6.14
  -2   2   6   41.90    2.62
   2  -2  -6   40.98    2.61
  -2   2   7   93.45    4.75
   2  -2  -7   89.44    4.71
   2  -2  -8  120.16    6.17
  -2   2   8  126.61    6.16
  -1   2  -8   22.62    2.19
   1  -2   8   20.83    1.73
   1  -2   7   24.23    1.77
  -1   2  -7   21.67    2.03
  -1   2  -6  511.77   18.11
   1  -2   6  517.44   17.94
   1  -2   5   33.87    1.91
  -1   2  -5   34.39    2.27
   1  -2   4    5.13    0.58
   1  -2   4    3.94    0.45
  -1   2  -4    4.70    0.66
   1  -2   3  528.84   16.17
  -1   2  -3  501.58   17.05
  -1   2  -1  134.65    4.63
   1  -2   1  130.50    4.65
   1  -2   0  222.93    7.21
  -1   2   0  208.83    7.29
   1  -2   0  222.31    7.06
  -1   2   1  177.43    6.25
   1  -2  -1  179.85    5.78
   1  -2  -1  185.78    6.14
  -1   2   2   57.86    2.50
   1  -2  -2   58.37    2.47
   1  -2  -2   61.58    1.99
   1  -2  -3  244.69    8.48
  -1   2   3  243.85    8.78
   1  -2  -4    5.76    0.69
  -1   2   4    5.29    0.65
   1  -2  -5   61.71    3.17
  -1   2   5   61.58    3.19
  -1   2   6  146.72    6.44
   1  -2  -6  150.93    6.40
  -1   2   7   74.61    4.10
   1  -2  -7   75.19    4.17
  -1   2   8    2.73    0.61
   1  -2  -8    1.63    0.25
   0  -2   9   12.76    1.32
   0   2  -8  250.57   10.89
   0  -2   8  270.53   10.37
   0  -2   7   11.13    1.12
   0   2  -7    9.47    1.23
   0  -2   6    5.92    0.72
   0   2  -6    7.67    1.03
   0   2  -5  225.42    8.57
   0  -2   5  220.53    8.23
   0  -2   4    6.25    0.57
   0  -2   4    5.41    0.55
   0   2  -4    5.39    0.71
   0  -2   3   49.49    2.08
   0   2  -3   46.73    2.34
   0  -2   3   47.06    2.07
   0  -2   2  763.56   25.00
   0   2  -1  538.21   17.27
   0  -2   1  533.83   16.42
   0  -2   1  553.58   17.93
   0  -2   0  152.99    4.90
   0  -2   0  155.40    5.32
   0  -2   0  148.67    5.10
   0  -2  -1  647.57   20.21
   0  -2  -1  614.28   18.98
   0  -2  -1  652.42   21.26
   0   2   2  335.62   12.13
   0   2   2  361.23   10.75
   0  -2  -2  365.01   11.66
   0  -2  -3  467.88   15.04
   0   2   3  443.00   15.66
   0   2   4  470.85   16.56
   0  -2  -4  480.47   15.94
   0  -2  -5    2.52    0.52
   0   2   5    4.74    0.68
   0   2   6   22.81    1.83
   0  -2  -6   23.44    1.87
   0  -2  -7  125.21    5.94
   0   2   7  123.66    5.92
  -1  -2   9    0.18    0.14
  -1  -2   8   30.57    2.29
   1   2  -8   35.24    2.84
   1   2  -7   31.34    2.50
  -1  -2   7   34.98    2.27
   1   2  -6    2.07    0.54
  -1  -2   6    1.54    0.38
  -1  -2   5   36.99    2.08
  -1  -2   4  440.09   13.44
  -1  -2   4  429.16   14.91
   1   2  -4  435.29   14.75
  -1  -2   3   19.70    1.05
  -1  -2   3   17.99    1.10
   1   2  -3   21.14    1.32
  -1  -2   2    6.97    0.54
  -1  -2   2    7.19    0.54
   1   2  -2    7.64    0.63
  -1  -2   1  350.56   12.17
  -1  -2   1  362.81   11.07
   1   2  -1  370.91   11.74
  -1  -2   0   43.09    1.63
  -1  -2   0   39.34    1.59
  -1  -2   0   43.16    1.92
  -1  -2  -1  237.98    7.65
   1   2   1  228.03    7.35
  -1  -2  -1  230.77    8.34
   1   2   2  381.57   11.64
  -1  -2  -2  386.31   12.30
  -1  -2  -2  357.92   13.19
  -1  -2  -3  327.59   11.36
   1   2   3  347.85   10.72
   1   2   4   35.33    2.19
  -1  -2  -4   36.84    2.06
  -1  -2  -5  345.72   12.32
   1   2   5  348.58   12.85
  -1  -2  -6   38.04    2.52
   1   2   6   37.44    2.54
   1   2   7    0.25    0.12
  -1  -2  -7    0.46    0.20
  -2  -2   9   69.50    4.05
  -2  -2   8   36.48    2.47
   2   2  -8   30.88    2.64
  -2  -2   7   11.89    1.20
   2   2  -7   11.57    1.35
  -2  -2   6  442.92   15.93
   2   2  -6  453.38   15.86
   2   2  -5  356.47   12.57
  -2  -2   4   26.59    1.65
   2   2  -4   30.77    1.81
  -2  -2   4   30.91    1.43
  -2  -2   3   77.51    3.38
  -2  -2   3   83.57    3.00
   2   2  -3   82.12    3.32
  -2  -2   2  304.12    9.22
   2   2  -2  294.64    9.70
  -2  -2   2  283.01   10.22
  -2  -2   1   26.73    1.50
   2   2  -1   30.30    1.26
   2   2  -1   27.00    1.40
   2   2   0  871.67   26.08
  -2  -2   0  806.79   27.64
   2   2   0  812.51   25.00
  -2  -2  -1   96.65    4.17
  -2  -2  -1  101.60    3.45
   2   2   1   95.10    3.64
   2   2   2   57.70    2.55
  -2  -2  -2   55.42    2.96
  -2  -2  -2   61.89    2.44
  -2  -2  -3  307.42   12.09
  -2  -2  -3  339.84   11.09
   2   2   3  332.93   10.78
  -2  -2  -4    3.02    0.45
  -2  -2  -4    3.59    0.73
  -2  -2  -5  167.40    6.70
   2   2   5  167.52    7.16
  -2  -2  -6  133.11    6.03
   2   2   6  144.12    6.45
  -2  -2  -7    7.69    0.97
   2   2   7    7.32    0.98
  -3  -2   8  351.99   13.31
   3   2  -8  334.37   13.39
  -3  -2   7    3.57    0.68
   3   2  -6    4.09    0.65
  -3  -2   6    3.35    0.55
  -3  -2   5   62.94    3.21
   3   2  -5   64.89    3.18
   3   2  -4   28.55    1.61
   3   2  -3   17.35    1.04
  -3  -2   3   14.92    1.18
   3   2  -3   16.32    1.12
  -3  -2   2  323.61   11.99
   3   2  -2  352.27   11.05
   3   2  -2  349.52   11.03
   3   2  -1  153.41    4.87
   3   2  -1  151.66    5.37
  -3  -2   1  142.73    5.79
  -3  -2   0   81.39    3.67
   3   2   0   81.58    3.35
  -3  -2  -1  389.68   14.31
   3   2   1  397.91   12.97
  -3  -2  -1  421.00   12.87
  -3  -2  -2    7.63    0.94
   3   2   2    7.34    0.79
  -3  -2  -2    7.12    0.57
  -3  -2  -3   79.96    3.15
   3   2   3   68.18    3.38
  -3  -2  -3   69.03    3.82
  -3  -2  -4  369.52   14.11
   3   2   6   19.21    1.85
   4   2  -8    1.45    0.44
  -4  -2   8    0.67    0.15
   4   2  -7   93.04    4.80
  -4  -2   7  102.28    4.99
  -4  -2   6   39.08    2.59
   4   2  -6   39.77    2.45
   4   2  -5    1.33    0.33
  -4  -2   5    2.40    0.50
   4   2  -4  863.22   26.57
  -4  -2   4  842.27   29.23
   4   2  -4  879.56   27.59
   4   2  -3  162.53    5.98
   4   2  -3  166.91    5.62
  -4  -2   3  151.82    6.38
   4   2  -1  212.14    7.58
  -4  -2   1  215.90    8.18
  -4  -2   0   40.90    2.43
   4   2   0   44.61    2.37
  -4  -2  -1   68.33    3.57
   4   2   1   72.74    3.40
  -4  -2  -2  350.19   13.13
   4   2   2  351.69   12.04
  -4  -2  -3  150.72    6.83
   4   2   3  152.54    6.30
  -4  -2  -4   26.15    2.26
  -4  -2  -5  114.06    6.00
   4   2   6   29.26    2.46
  -5  -2   8   10.38    1.27
  -5  -2   7   60.65    3.71
  -5  -2   6  249.87   10.12
  -5  -2   5   24.79    1.97
  -5  -2   4    6.63    0.87
   5   2  -4    5.39    0.72
   5   2  -3  151.26    5.97
  -5  -2   3  147.40    6.30
  -5  -2   2   33.50    2.17
   5   2  -2   32.58    2.10
   5   2  -1   92.07    4.20
  -5  -2   1   92.84    4.36
   5   2   0  204.20    7.58
  -5  -2   0  190.38    7.91
  -5  -2  -1  262.76   10.37
   5   2   1  270.19    9.77
  -5  -2  -2    3.12    0.69
   5   2   2    5.58    0.82
  -5  -2  -3   83.46    4.66
   5   2   3   86.68    4.48
  -5  -2  -4   32.56    2.66
  -5  -2  -5    3.92    0.85
  -6  -2   7  145.45    7.07
  -6  -2   6    2.50    0.63
  -6  -2   5   44.01    2.95
  -6  -2   4   97.28    4.79
   6   2  -4   90.89    4.52
  -6  -2   3    8.92    1.08
   6   2  -3    8.99    1.07
   6   2  -2  454.23   15.57
  -6  -2   2  463.47   16.66
   6   2  -1   71.67    3.82
  -6  -2   1   73.29    3.86
   6   2   0    3.32    0.71
  -6  -2   0    3.84    0.64
   6   2   1  110.72    5.41
  -6  -2  -1  118.56    5.60
  -6  -2  -2    2.23    0.60
   6   2   2    2.38    0.59
   6   2   3    5.78    0.83
  -6  -2  -3    5.29    0.88
  -6  -2  -4   28.10    2.51
  -7  -2   6    4.75    0.76
  -7  -2   5    0.66    0.21
  -7  -2   4  145.32    6.77
   7   2  -4  145.10    6.60
  -7  -2   3  125.41    5.97
   7   2  -3  124.23    5.89
  -7  -2   2    4.10    0.79
   7   2  -2    3.48    0.74
  -7  -2   1   55.80    3.32
   7   2  -1   49.32    3.30
  -7  -2   0    9.86    1.20
   7   2   0   10.17    1.30
  -7  -2  -1   27.93    2.29
   7   2   1   23.83    2.23
  -7  -2  -2  215.67    9.39
   7   2   2  214.28    9.26
   7   2   3  116.71    6.26
  -7  -2  -3  121.88    6.35
  -8  -2   4   15.11    1.63
   8   2  -4   14.14    1.63
   8   2  -3  105.79    5.68
  -8  -2   3  109.13    5.58
   8   2  -2   58.02    3.86
  -8  -2   2   58.69    3.67
   8   2  -1    1.21    0.37
  -8  -2   1    2.45    0.62
  -8  -2   0  111.19    5.59
   8   2   0  100.01    5.67
   8   2   1   99.20    5.65
  -8  -2  -1   99.92    5.44
  10  -3  -2  123.40    7.09
 -10   3   2  135.67    6.22
   9  -3   2   20.35    2.29
   9  -3   1  129.17    7.08
   9  -3   0   25.19    2.52
  -9   3   0   28.07    2.03
  -9   3   1   13.73    1.32
   9  -3  -1   11.31    1.50
  -9   3   2  118.03    5.39
   9  -3  -2  102.80    6.02
  -9   3   3   12.68    1.34
  -9   3   4    1.57    0.45
   8  -3   4   22.05    2.36
   8  -3   3  160.76    8.17
   8  -3   2  133.03    7.05
   8  -3   1   13.29    1.67
  -8   3  -1   11.89    1.17
  -8   3   0  132.87    5.61
   8  -3   0  122.66    6.49
   8  -3  -1   13.52    1.65
  -8   3   1   15.99    1.38
   8  -3  -2   30.36    2.63
  -8   3   2   30.20    2.10
   8  -3  -3  318.80   12.65
  -8   3   3  333.23   12.44
  -8   3   4  100.55    5.06
  -8   3   5   55.53    3.54
   7  -3   5  332.97   13.67
   7  -3   4   32.69    2.90
   7  -3   3   53.42    3.84
  -7   3  -2   58.43    3.07
   7  -3   2   57.33    3.92
   7  -3   1   17.85    1.92
  -7   3  -1   20.02    1.47
   7  -3   0    1.77    0.55
  -7   3   0    1.07    0.32
   7  -3  -1   26.16    2.30
  -7   3   1   26.94    1.78
  -7   3   2  167.47    6.62
   7  -3  -2  153.21    7.07
   7  -3  -3   29.39    2.34
  -7   3   3   30.45    2.08
  -7   3   4   36.10    2.45
  -7   3   5    1.80    0.42
  -7   3   6    4.31    0.69
   6  -3   5   51.15    3.65
   6  -3   4   34.25    2.82
  -6   3  -3   67.63    3.34
   6  -3   3   65.31    4.13
  -6   3  -2  115.01    4.73
   6  -3   2  105.86    5.53
   6  -3   1  655.53   22.19
  -6   3  -1  673.52   22.54
  -6   3   0  324.75   10.38
   6  -3   0  301.04   11.49
  -6   3   0  304.27   11.06
  -6   3   1   18.16    1.07
   6  -3  -1   18.94    1.76
   6  -3  -2  125.52    5.75
   6  -3  -2  124.64    5.02
  -6   3   2  136.23    5.38
  -6   3   3  136.28    5.59
   6  -3  -3  123.06    5.69
   6  -3  -3  133.04    5.21
   6  -3  -4    6.48    0.76
  -6   3   4    6.89    0.87
  -6   3   5  140.39    6.17
   6  -3  -5  131.46    5.71
  -6   3   6  124.47    5.79
   6  -3  -6  106.44    5.19
  -6   3   7   59.24    3.67
   6  -3  -7   47.43    3.14
  -5   3  -5   84.29    4.14
   5  -3   5   79.84    4.60
   5  -3   4   20.05    1.95
  -5   3  -4   25.35    1.75
  -5   3  -3  193.73    7.34
   5  -3   3  185.47    7.97
  -5   3  -3  194.73    7.27
  -5   3  -2   67.03    3.04
   5  -3   2   61.86    3.69
  -5   3  -2   71.63    3.17
   5  -3   1   39.04    2.67
  -5   3  -1   41.84    2.05
  -5   3  -1   42.25    2.01
  -5   3   1   42.06    2.10
   5  -3  -1   41.13    2.06
   5  -3  -2   75.37    3.28
  -5   3   2   77.33    3.40
   5  -3  -3  175.78    6.76
  -5   3   3  171.96    6.76
   5  -3  -3  173.23    6.52
   5  -3  -4  314.01   11.13
  -5   3   4  317.11   11.66
  -5   3   5  117.91    5.27
   5  -3  -5  106.33    4.85
   5  -3  -6   27.52    2.06
  -5   3   6   29.22    2.24
   5  -3  -7   28.56    2.28
  -5   3   7   33.23    2.53
  -4   3  -7   28.90    2.37
  -4   3  -6   62.69    3.64
  -4   3  -5  280.71   10.43
   4  -3   5  269.64   10.45
   4  -3   4  255.41    9.87
  -4   3  -4  267.28    9.62
  -4   3  -4  258.26    9.60
   4  -3   3  124.32    5.69
  -4   3  -3  136.54    5.17
  -4   3  -2    3.07    0.38
   4  -3   2    3.12    0.64
  -4   3  -2    2.75    0.43
  -4   3  -1  297.07    9.73
  -4   3  -1  295.53    9.96
   4  -3   1  274.30   10.24
   4  -3   0  141.69    5.82
  -4   3   0  149.62    5.30
  -4   3   0  143.05    5.06
   4  -3  -1  548.89   17.68
  -4   3   1  532.89   18.33
   4  -3  -1  561.76   17.84
   4  -3  -2  172.62    6.29
  -4   3   2  166.59    6.38
   4  -3  -2  177.67    6.49
   4  -3  -3   55.42    2.68
   4  -3  -4  214.79    7.96
  -4   3   4  216.40    8.28
  -4   3   5    4.80    0.71
   4  -3  -5    4.26    0.64
   4  -3  -6    9.68    1.11
  -4   3   6    9.47    1.12
  -4   3   7  142.25    6.61
   4  -3  -7  135.53    6.36
  -3   3  -8    6.80    0.99
  -3   3  -7  164.23    7.50
  -3   3  -6   12.43    1.38
   3  -3   4   80.18    4.07
  -3   3  -4   85.92    4.05
   3  -3   4   93.34    3.64
  -3   3  -3   20.92    1.51
   3  -3   3   18.05    1.54
  -3   3  -3   19.34    1.17
  -3   3  -2   93.20    3.48
   3  -3   2   89.77    4.12
  -3   3  -2   92.83    3.84
  -3   3  -1  236.10    7.98
  -3   3  -1  238.79    8.00
   3  -3   1  231.01    8.38
  -3   3   0  311.63   10.27
   3  -3   0  297.14   10.30
  -3   3   0  306.74    9.99
   3  -3  -1  272.77    9.18
   3  -3  -1  280.86    9.20
  -3   3   1  257.93    9.24
   3  -3  -2    2.24    0.32
  -3   3   2    1.70    0.28
   3  -3  -2    1.69    0.34
  -3   3   3   14.83    1.12
   3  -3  -3   15.08    0.93
   3  -3  -3   12.46    1.04
  -3   3   4  211.17    8.12
   3  -3  -4  212.65    7.85
   3  -3  -5  129.94    5.54
  -3   3   5  132.07    5.72
  -3   3   6  109.33    5.15
   3  -3  -6  102.81    4.96
  -3   3   7  168.83    7.34
   3  -3  -7  150.58    7.01
  -2   3  -8  152.74    7.46
  -2   3  -7   64.55    3.99
  -2   3  -6   50.13    3.23
   2  -3   6   56.05    2.77
  -2   3  -5  145.62    6.39
   2  -3   5  160.35    5.88
   2  -3   5  147.61    5.99
  -2   3  -4   13.09    1.25
   2  -3   4   16.49    1.35
   2  -3   3  655.41   20.72
  -2   3  -3  656.49   21.67
   2  -3   2  302.30    9.42
   2  -3   2  263.63    9.53
  -2   3  -2  278.21    9.73
  -2   3  -1   58.91    2.06
   2  -3   1   54.98    2.69
  -2   3  -1   59.74    2.39
  -2   3   0  167.84    5.95
  -2   3   0  180.89    5.98
   2  -3   0  181.18    6.28
   2  -3  -1  278.17    9.01
   2  -3  -1  284.24    9.28
  -2   3   1  263.26    9.35
  -2   3   2  220.41    8.05
   2  -3  -2  228.28    7.36
   2  -3  -2  233.74    7.95
   2  -3  -3  397.54   11.47
  -2   3   3  366.44   13.20
   2  -3  -3  371.52   12.77
  -2   3   4  610.92   21.23
   2  -3  -4  626.52   20.48
  -2   3   5   59.72    3.22
   2  -3  -5   62.38    3.22
  -2   3   6   24.84    1.95
   2  -3  -6   26.19    2.01
   2  -3  -7   17.82    1.75
  -2   3   7   21.27    1.87
  -1   3  -8  150.73    7.44
   1  -3   7   49.18    2.71
  -1   3  -7   45.03    3.21
   1  -3   6    8.97    0.87
  -1   3  -6   10.08    1.23
   1  -3   5  101.56    4.09
   1  -3   5   98.87    4.15
  -1   3  -5   95.73    4.67
   1  -3   4  221.39    7.47
  -1   3  -4  197.38    7.92
   1  -3   4  208.20    7.42
   1  -3   3  331.27   10.54
  -1   3  -3  293.61   10.90
   1  -3   3  309.07   10.35
  -1   3  -2    9.63    0.84
   1  -3   2    9.03    0.82
   1  -3   2    8.88    0.46
  -1   3  -1    4.99    0.45
   1  -3   1    3.82    0.48
   1  -3   0  337.23   10.92
  -1   3   0  343.43   11.45
   1  -3   0  354.13   11.35
   1  -3  -1  330.07   10.80
   1  -3  -1  322.78   10.17
  -1   3   1  325.25   11.04
  -1   3   2   84.46    3.49
   1  -3  -2   83.63    3.44
   1  -3  -2   91.14    2.97
  -1   3   3  206.21    7.88
   1  -3  -3  221.33    7.71
   1  -3  -4    1.76    0.42
  -1   3   4    1.46    0.39
   1  -3  -5   33.88    2.18
  -1   3   5   33.75    2.22
   1  -3  -6   85.78    4.40
  -1   3   6   93.73    4.60
   1  -3  -7    6.74    0.91
  -1   3   7    6.33    0.91
   0   3  -8   46.27    3.47
   0  -3   7   57.34    3.09
   0   3  -7   57.45    3.71
   0   3  -6  230.30    9.49
   0  -3   6  247.46    8.99
   0   3  -5  231.60    9.11
   0  -3   5  243.25    8.12
   0  -3   5  236.41    8.66
   0   3  -4   63.19    3.23
   0  -3   4   68.10    2.83
   0  -3   4   63.53    2.83
   0   3  -3  292.74   10.50
   0  -3   3  300.87    9.79
   0  -3   3  304.94   10.21
   0  -3   2    0.80    0.12
   0  -3   2    0.97    0.25
   0   3  -2    0.84    0.25
   0  -3   1  391.72   12.68
   0   3  -1  376.85   12.26
   0  -3   1  365.71   11.82
   0  -3   0  461.62   14.87
   0  -3   0  433.99   13.54
   0  -3   0  428.39   14.23
   0  -3  -1  104.49    3.52
   0  -3  -1  100.75    3.81
   0  -3  -1  102.44    4.13
   0  -3  -2   48.90    1.76
   0  -3  -2   43.19    2.10
   0  -3  -2   45.59    2.43
   0  -3  -3    6.25    0.68
   0   3   3    7.31    0.52
   0   3   4  131.96    5.66
   0  -3  -4  138.48    5.46
   0  -3  -5  209.30    8.18
   0   3   5  218.53    8.57
   0   3   6  202.98    8.42
   0  -3  -6  198.59    8.11
   0   3   7    7.64    1.04
   0  -3  -7    8.14    1.03
  -1  -3   8  145.06    6.30
   1   3  -8  136.82    7.00
   1   3  -7  212.57    9.20
  -1  -3   7  224.39    8.63
  -1  -3   6  137.19    5.58
   1   3  -6  129.56    6.04
  -1  -3   5   29.81    1.78
  -1  -3   5   28.84    1.60
   1   3  -5   29.61    2.09
  -1  -3   4   89.02    3.71
   1   3  -4   90.19    4.08
  -1  -3   4   90.55    3.53
   1   3  -3  362.76   12.59
  -1  -3   3  367.34   12.64
  -1  -3   3  378.05   11.72
  -1  -3   2   63.08    2.64
   1   3  -2   63.90    2.82
  -1  -3   2   62.01    2.56
  -1  -3   1  606.48   18.14
   1   3  -1  607.94   19.01
  -1  -3   1  573.62   19.91
  -1  -3   0   56.45    2.29
  -1  -3   0   60.86    2.70
   1   3   0   61.08    2.23
  -1  -3  -1  102.98    3.81
  -1  -3  -1  103.87    4.36
  -1  -3  -2  179.50    7.30
  -1  -3  -2  186.55    6.56
   1   3   2  191.59    6.24
   1   3   3   72.26    2.85
  -1  -3  -3   64.68    3.03
  -1  -3  -3   69.91    3.63
  -1  -3  -4  145.01    5.64
   1   3   4  136.13    6.00
  -1  -3  -5  377.91   13.31
   1   3   5  374.09   13.99
  -1  -3  -6    5.70    0.76
   1   3   6    5.44    0.81
   1   3   7    0.65    0.17
  -1  -3  -7    0.92    0.23
   2   3  -8   29.08    2.57
  -2  -3   8   32.00    2.30
   2   3  -7  131.29    6.36
  -2  -3   7  137.34    5.97
  -2  -3   6   24.17    1.73
   2   3  -6   24.63    1.99
   2   3  -5  172.84    7.03
  -2  -3   5  185.21    6.19
  -2  -3   5  172.65    6.87
  -2  -3   4  369.76   11.57
  -2  -3   4  359.27   12.80
   2   3  -4  359.16   12.55
   2   3  -3  764.59   24.97
  -2  -3   3  822.12   23.57
  -2  -3   3  738.40   25.89
  -2  -3   2  210.69    6.92
   2   3  -2  214.61    7.32
  -2  -3   2  201.72    7.63
  -2  -3   1  328.99   10.45
   2   3  -1  351.56   10.93
  -2  -3   1  315.72   11.66
   2   3   0  169.71    6.08
   2   3   0  186.38    5.85
  -2  -3   0  174.40    6.79
   2   3   1  302.03    9.78
  -2  -3  -1  301.52    9.86
  -2  -3  -1  297.03   11.02
  -2  -3  -3   19.49    1.30
   2   3   3   19.30    1.33
  -2  -3  -3   20.04    1.75
  -2  -3  -4    0.08    0.11
  -2  -3  -4    0.62    0.17
  -2  -3  -5   35.10    2.24
   2   3   5   34.63    2.53
   2   3   6   49.15    3.22
  -2  -3  -6   46.33    2.89
   3   3  -8   51.33    3.54
  -3  -3   8   53.62    3.28
   3   3  -7   30.95    2.42
  -3  -3   7   33.51    2.31
   3   3  -6   37.98    2.54
  -3  -3   6   42.01    2.55
   3   3  -5  343.07   10.91
   3   3  -5  305.72   11.42
  -3  -3   5  316.48   11.83
   3   3  -4   12.89    1.05
   3   3  -4   12.23    1.06
  -3  -3   4   11.18    1.06
  -3  -3   3   96.54    4.39
   3   3  -3  110.65    4.07
   3   3  -3  102.20    4.16
   3   3  -2   19.08    1.02
   3   3  -2   16.79    1.24
  -3  -3   1  153.89    6.37
   3   3  -1  157.48    5.85
   3   3  -1  172.43    5.51
   3   3   0   25.39    1.59
  -3  -3   0   26.89    1.82
  -3  -3  -1  556.84   19.61
   3   3   1  556.62   17.60
   3   3   2    0.75    0.25
  -3  -3  -2    1.07    0.40
   3   3   3   55.77    2.88
  -3  -3  -3   53.48    3.36
  -3  -3  -4  107.12    5.59
   3   3   6  204.76    9.16
  -4  -3   8   95.45    5.06
   4   3  -8   90.22    5.04
   4   3  -7  285.89   11.40
  -4  -3   7  314.35   11.93
   4   3  -6   32.88    2.21
  -4  -3   6   32.98    2.33
   4   3  -5   73.73    3.55
  -4  -3   5   75.70    3.88
  -4  -3   4   29.80    2.04
  -4  -3   3   17.39    1.44
   4   3  -2  405.84   13.08
  -4  -3   2  383.35   14.16
  -4  -3   1  156.01    6.46
   4   3  -1  155.28    5.97
   4   3   0   10.31    1.03
  -4  -3   0   10.62    1.14
  -4  -3  -1  261.60   10.29
   4   3   1  261.51    9.31
   4   3   2   71.28    3.58
  -4  -3  -2   73.39    4.08
  -4  -3  -3  316.88   12.69
   4   3   3  319.26   11.39
  -4  -3  -4   61.47    4.02
  -4  -3  -5   64.62    4.30
  -5  -3   8   20.10    1.93
  -5  -3   7   23.43    2.07
  -5  -3   6   43.37    2.92
  -5  -3   5   39.55    2.63
   5   3  -5   35.78    2.37
  -5  -3   4   60.64    3.40
   5   3  -4   58.85    3.20
  -5  -3   3  445.71   16.57
   5   3  -3  476.10   15.44
   5   3  -2   34.13    2.26
  -5  -3   2   36.45    2.37
  -5  -3   1  110.74    5.15
   5   3  -1  110.45    4.89
  -5  -3   0   82.31    4.23
   5   3   0   78.64    3.95
   5   3   1    0.33    0.12
  -5  -3  -1    1.03    0.36
   5   3   2   34.17    2.45
  -5  -3  -2   37.38    2.75
  -5  -3  -3  370.25   14.51
   5   3   3  357.77   13.18
  -5  -3  -4    0.48    0.17
  -6  -3   7    1.35    0.22
  -6  -3   6  271.04   11.20
   6   3  -5  141.38    6.40
  -6  -3   5  150.17    6.84
  -6  -3   4   39.98    2.74
   6   3  -4   37.25    2.61
  -6  -3   3   41.87    2.78
   6   3  -3   40.23    2.70
  -6  -3   2  125.68    5.83
   6   3  -2  122.59    5.63
  -6  -3   1  172.90    7.38
   6   3  -1  161.49    6.98
  -6  -3   0   65.99    3.83
   6   3   0   66.96    3.78
   6   3   1  177.08    7.56
  -6  -3  -1  177.81    7.98
   6   3   2    3.04    0.70
  -6  -3  -2    2.26    0.61
   6   3   3   51.49    3.49
  -6  -3  -3   53.79    3.76
  -7  -3   6    1.14    0.35
  -7  -3   5    5.99    0.93
  -7  -3   4   11.50    1.35
   7   3  -4   10.09    1.25
   7   3  -3    0.22    0.17
  -7  -3   3    0.59    0.28
   7   3  -2    5.68    0.86
  -7  -3   2    6.53    0.94
   7   3  -1  340.12   12.80
  -7  -3   1  341.76   13.38
   7   3   0    0.72    0.22
  -7  -3   0    0.99    0.24
   7   3   1   24.16    2.25
  -7  -3  -1   24.91    2.27
   7   3   2  132.79    6.74
  -7  -3  -2  138.85    6.99
   7   3   3   10.63    1.28
   8   3  -4  158.10    7.59
   8   3  -3  119.91    6.37
  -8  -3   3  135.09    6.54
  -8  -3   2    5.44    0.84
   8   3  -2    5.29    1.00
  -8  -3   1   21.29    2.03
   8   3  -1   18.42    1.98
  10  -4  -2    6.88    1.30
   9  -4   2   23.94    2.56
   9  -4   1   54.64    4.17
   9  -4   0   43.10    3.54
   9  -4  -1   16.25    1.86
   9  -4  -2   79.69    5.04
  -9   4   3   47.15    2.99
  -9   4   4   27.85    2.24
   8  -4   4    3.11    0.76
   8  -4   3   15.30    1.92
   8  -4   2    3.25    0.81
   8  -4   1   56.33    4.03
   8  -4   0  368.53   14.31
   8  -4  -1    1.96    0.47
   8  -4  -2   38.49    3.04
  -8   4   2   36.57    2.35
  -8   4   3  292.46   11.25
  -8   4   4   17.17    1.59
  -8   4   5  120.68    5.95
   7  -4   5   80.79    5.19
   7  -4   4    9.01    1.22
   7  -4   3  160.16    7.85
   7  -4   2  119.39    6.30
   7  -4   1    5.14    1.04
   7  -4   0   37.05    2.91
   7  -4  -1   15.89    1.72
  -7   4   1   13.64    1.16
  -7   4   2   25.11    1.73
   7  -4  -2   23.48    2.12
   7  -4  -3    0.71    0.30
  -7   4   3    0.63    0.19
  -7   4   4  295.95   11.17
   7  -4  -4  280.95   10.55
  -7   4   5   30.62    2.30
   7  -4  -5   26.03    1.98
  -7   4   6    3.14    0.64
   7  -4  -6    4.14    0.62
   6  -4   5   50.27    3.67
   6  -4   4  349.49   13.59
  -6   4  -3    1.74    0.40
   6  -4   2    1.47    0.55
  -6   4  -2    1.14    0.27
  -6   4  -1   97.14    3.93
   6  -4   1   93.32    5.00
  -6   4   0   20.46    1.33
  -6   4   0   21.59    1.28
   6  -4   0   18.14    1.83
  -6   4   2  301.25   10.84
   6  -4  -2  300.75   10.57
   6  -4  -2  293.92   11.09
  -6   4   3   11.49    1.09
  -6   4   4   10.94    1.11
   6  -4  -4    9.80    1.04
   6  -4  -5  124.65    5.68
  -6   4   5  138.07    6.06
  -6   4   6   73.57    4.06
   6  -4  -6   63.32    3.70
  -5   4  -7  230.63    9.67
  -5   4  -6  139.65    6.37
  -5   4  -5    3.98    0.61
   5  -4   5    4.20    0.88
  -5   4  -4   29.08    2.01
   5  -4   4   27.70    2.38
  -5   4  -3  105.02    4.47
   5  -4   3   89.88    4.93
  -5   4  -2  128.46    5.05
   5  -4   2  117.68    5.73
  -5   4  -1    6.24    0.57
  -5   4  -1    6.14    0.63
   5  -4   1    7.24    1.00
  -5   4   0  659.93   21.53
  -5   4   0  621.21   20.66
   5  -4   0  652.00   21.20
   5  -4  -1    0.37    0.17
   5  -4  -1    0.39    0.17
  -5   4   1    0.33    0.08
   5  -4  -2   16.74    1.45
   5  -4  -2   15.91    1.25
  -5   4   2   16.58    1.18
   5  -4  -3   77.26    3.65
  -5   4   3   84.89    3.74
   5  -4  -4   20.18    1.58
  -5   4   4   20.61    1.59
   5  -4  -5    7.38    0.92
  -5   4   5    6.94    0.89
  -5   4   6  250.21    9.86
   5  -4  -6  227.68    9.35
   5  -4  -7   59.13    3.68
  -5   4   7   67.27    3.96
  -4   4  -7   16.96    1.72
  -4   4  -6    1.95    0.49
  -4   4  -5  199.11    7.81
   4  -4   5  180.73    7.87
  -4   4  -4   74.36    3.65
   4  -4   4   66.72    3.87
  -4   4  -3  236.71    8.75
   4  -4   3  231.91    9.08
  -4   4  -2  854.78   28.17
   4  -4   2  841.62   27.73
  -4   4  -2  926.34   28.79
  -4   4  -1    1.34    0.19
  -4   4  -1    1.10    0.26
   4  -4   1    1.27    0.43
  -4   4   0    9.77    0.66
  -4   4   0    8.68    0.71
   4  -4   0   10.28    1.12
   4  -4  -1  244.19    8.48
   4  -4  -1  236.28    8.67
  -4   4   1  232.59    8.31
  -4   4   2   10.87    0.87
   4  -4  -3   63.84    3.11
   4  -4  -4  240.36    9.05
  -4   4   4  249.22    9.36
   4  -4  -5   67.26    3.53
  -4   4   5   70.23    3.69
  -4   4   6   31.60    2.35
   4  -4  -6   30.05    2.23
  -4   4   7   28.61    2.36
   4  -4  -7   27.26    2.23
  -3   4  -8    2.19    0.51
  -3   4  -7  256.69   10.56
  -3   4  -6  101.99    5.14
   3  -4   5   28.59    2.17
  -3   4  -5   34.00    2.32
  -3   4  -4  363.68   12.64
   3  -4   4  339.30   12.32
   3  -4   3    0.60    0.22
  -3   4  -3    0.91    0.30
  -3   4  -2   22.87    1.47
  -3   4  -2   23.01    1.02
  -3   4  -1   61.52    2.30
  -3   4  -1   65.11    2.70
  -3   4   0   11.04    0.76
  -3   4   0    8.77    0.54
   3  -4   0    7.22    0.84
   3  -4  -1   15.66    1.22
   3  -4  -1   13.28    1.05
  -3   4   1   14.19    0.86
   3  -4  -2  653.08   20.79
   3  -4  -2  651.38   19.79
  -3   4   2  599.91   21.25
   3  -4  -3   31.70    1.94
  -3   4   3   32.67    1.90
   3  -4  -4    9.93    1.03
  -3   4   4   11.51    1.09
  -3   4   5  112.95    5.10
   3  -4  -5  104.72    4.87
  -3   4   6    2.70    0.61
   3  -4  -7   14.14    1.49
  -3   4   7   12.39    1.40
  -2   4  -8   15.87    1.76
  -2   4  -7   15.23    1.68
  -2   4  -6  323.44   12.37
   2  -4   5   58.32    3.14
  -2   4  -5   59.22    3.36
   2  -4   4   32.70    2.18
  -2   4  -4   37.69    2.35
   2  -4   3  308.14    9.68
  -2   4  -3  282.70   10.36
   2  -4   3  272.54   10.02
   2  -4   2   47.59    2.64
  -2   4  -2   52.92    2.48
  -2   4  -1  504.72   16.09
   2  -4   1  486.59   15.93
  -2   4   0  385.44   12.49
   2  -4   0  391.74   12.51
  -2   4   0  370.00   12.65
  -2   4   1   94.45    3.63
   2  -4  -1   95.93    3.79
   2  -4  -1   95.86    3.86
   2  -4  -2  243.31    8.67
  -2   4   2  241.40    8.74
   2  -4  -2  250.42    8.00
   2  -4  -3   54.27    2.73
  -2   4   3   55.01    2.72
   2  -4  -4    2.40    0.51
  -2   4   4    2.07    0.45
   2  -4  -5    3.73    0.68
  -2   4   5    4.29    0.66
  -2   4   6  260.04   10.35
   2  -4  -6  257.23   10.04
  -2   4   7   15.36    1.58
   2  -4  -7   12.65    1.43
  -1   4  -8   79.34    4.89
  -1   4  -7   26.64    2.36
  -1   4  -6   29.34    2.35
   1  -4   5  272.62    9.61
  -1   4  -5  275.51   10.43
   1  -4   4    3.44    0.37
   1  -4   4    3.02    0.46
  -1   4  -4    4.69    0.70
  -1   4  -3   48.00    2.59
   1  -4   3   41.98    2.37
   1  -4   3   45.64    1.82
   1  -4   2  750.71   23.21
  -1   4  -2  744.24   24.13
   1  -4   1  285.42    9.49
  -1   4  -1  278.62    9.44
   1  -4   1  282.58    9.45
   1  -4   0   22.92    1.37
  -1   4   0   22.50    1.07
  -1   4   0   22.14    1.18
  -1   4   1  319.21   11.14
   1  -4  -1  320.39   10.96
   1  -4  -1  335.45   10.36
   1  -4  -2   34.15    1.91
  -1   4   2   33.56    1.84
   1  -4  -2   37.79    1.59
  -1   4   3    0.50    0.23
   1  -4  -3    1.81    0.39
   1  -4  -4  517.81   17.28
  -1   4   4  502.42   17.90
   1  -4  -5   93.20    4.47
  -1   4   5   99.48    4.70
  -1   4   6    1.75    0.52
   1  -4  -6    1.12    0.31
   1  -4  -7  140.62    6.68
  -1   4   7  149.01    6.99
   0   4  -8    5.23    1.07
   0   4  -7  180.54    8.15
   0   4  -6   39.23    2.79
   0  -4   5  291.47   10.03
   0   4  -5  291.32   11.06
   0  -4   5  303.84   10.53
   0  -4   3  170.13    6.29
   0   4  -3  176.74    6.82
   0  -4   3  178.67    6.25
   0  -4   2    4.64    0.57
   0  -4   2    4.64    0.42
   0   4  -2    5.68    0.63
   0   4  -1  495.11   16.19
   0  -4   1  527.03   16.85
   0  -4   1  483.61   15.64
   0  -4   0   27.27    1.43
   0   4   0   26.20    1.30
   0  -4   0   26.03    1.46
   0  -4  -1    7.94    0.62
   0  -4  -1    6.93    0.74
   0  -4  -1    7.40    0.68
   0  -4  -2  763.09   26.47
   0  -4  -2  793.55   23.31
   0  -4  -2  775.36   25.06
   0   4   3   25.15    1.74
   0   4   4    1.17    0.38
   0  -4  -4    1.12    0.32
   0   4   5   45.83    2.88
   0  -4  -5   47.26    2.77
   0  -4  -6    0.67    0.17
   0   4   6    1.17    0.34
   0  -4  -7   14.29    1.49
   1   4  -8   39.69    3.17
   1   4  -7   10.53    1.35
   1   4  -6  140.67    6.45
  -1  -4   6  143.44    5.84
  -1  -4   5   25.35    1.58
   1   4  -5   24.05    1.91
  -1  -4   5   23.15    1.54
  -1  -4   4   74.64    3.22
  -1  -4   4   71.09    3.17
   1   4  -4   73.36    3.63
  -1  -4   3  207.24    7.49
  -1  -4   3  202.35    7.13
   1   4  -3  209.12    7.76
   1   4  -2    1.76    0.36
  -1  -4   2    1.16    0.30
  -1  -4   2    1.17    0.27
   1   4  -1  103.91    3.84
  -1  -4   1  101.24    3.86
  -1  -4   1  101.83    4.18
   1   4   0  723.23   22.41
  -1  -4   0  682.25   21.46
  -1  -4   0  716.68   23.96
  -1  -4  -1   26.61    1.46
  -1  -4  -1   27.66    1.38
  -1  -4  -1   27.00    1.82
  -1  -4  -2   14.49    1.06
   1   4   2   13.93    0.99
  -1  -4  -3  417.44   14.42
  -1  -4  -3  439.34   15.86
  -1  -4  -4   10.73    1.04
   1   4   4   12.28    1.28
   1   4   5    1.77    0.50
  -1  -4  -5    1.81    0.45
  -1  -4  -6  345.05   12.84
   1   4   6  347.41   13.61
  -1  -4  -7  160.94    7.27
   2   4  -8  191.90    8.82
  -2  -4   7   88.47    4.29
   2   4  -7   84.85    4.77
   2   4  -6    7.80    1.04
  -2  -4   6    8.02    0.90
  -2  -4   5  497.68   16.01
  -2  -4   5  509.76   17.62
   2   4  -5  507.10   17.47
  -2  -4   4    3.91    0.53
   2   4  -4    3.19    0.53
  -2  -4   3   53.68    2.50
   2   4  -3   53.81    2.68
  -2  -4   3   53.17    2.66
  -2  -4   2  424.20   15.17
   2   4  -2  443.15   14.57
  -2  -4   2  440.23   13.79
  -2  -4   1   74.62    3.53
   2   4  -1   78.64    3.03
  -2  -4   1   75.73    3.08
   2   4   0   95.89    3.35
  -2  -4   0   86.54    4.16
   2   4   1   67.00    2.93
  -2  -4  -1   62.88    3.42
  -2  -4  -1   63.30    2.68
   2   4   2  109.58    4.40
  -2  -4  -2  112.69    5.34
  -2  -4  -2  112.92    4.38
  -2  -4  -4  273.03   11.33
   2   4   5   30.03    2.43
   2   4   6    1.84    0.48
   3   4  -8   13.84    1.58
   3   4  -7  109.50    5.59
  -3  -4   7  116.78    5.44
   3   4  -6    2.94    0.63
  -3  -4   6    2.64    0.45
   3   4  -5   45.80    2.67
  -3  -4   5   47.03    2.71
  -3  -4   4  315.76   10.32
  -3  -4   4  299.28   11.40
   3   4  -4  315.74   10.97
   3   4  -2  148.08    5.72
  -3  -4   2  149.20    6.13
  -3  -4   1  271.64   10.96
   3   4  -1  321.89   10.21
   3   4   0   94.86    4.04
  -3  -4  -1    4.58    0.74
   3   4   1    4.83    0.65
   3   4   2  194.22    7.24
  -3  -4  -2  196.71    8.43
  -3  -4  -3  229.35    9.74
   3   4   3  222.13    8.28
  -3  -4  -4    5.86    0.98
   3   4   5   31.96    2.65
  -4  -4   8    7.04    0.92
  -4  -4   7    4.72    0.72
  -4  -4   6  234.16    9.52
  -4  -4   5  138.78    6.05
   4   4  -5  128.02    5.59
   4   4  -4    0.97    0.33
  -4  -4   4    1.33    0.36
  -4  -4   3  161.32    6.85
   4   4  -3  168.56    6.52
   4   4  -2   14.75    1.34
  -4  -4   2   18.39    1.54
   4   4  -1  109.26    4.63
  -4  -4   1   99.81    4.89
  -4  -4   0  402.88   14.96
   4   4   0  402.54   13.54
   4   4   1    1.47    0.41
  -4  -4  -1    1.24    0.47
  -4  -4  -2   33.90    2.67
   4   4   2   34.67    2.30
  -4  -4  -3   86.37    5.03
  -4  -4  -4   62.35    4.26
  -5  -4   7   43.09    3.04
  -5  -4   6    2.19    0.54
  -5  -4   5  183.18    8.01
   5   4  -5  190.21    7.62
  -5  -4   4    8.63    1.06
   5   4  -4    9.71    1.12
   5   4  -3   39.33    2.57
  -5  -4   3   40.53    2.68
   5   4  -2  107.83    5.08
  -5  -4   2  122.35    5.55
  -5  -4   1  161.02    7.03
   5   4  -1  153.96    6.49
   5   4   0   31.20    2.26
  -5  -4   0   31.72    2.44
  -5  -4  -1  105.73    5.43
   5   4   1   96.57    4.80
   5   4   2   46.65    3.00
  -5  -4  -2   47.88    3.41
  -5  -4  -3    4.93    0.80
  -6  -4   6    3.60    0.61
  -6  -4   5   13.28    1.48
   6   4  -5   13.19    1.42
  -6  -4   4  314.85   12.64
   6   4  -4  328.52   12.04
  -6  -4   3   71.22    3.99
   6   4  -3   62.87    3.76
  -6  -4   2   23.79    2.06
   6   4  -2   25.64    2.13
   6   4  -1  111.69    5.47
  -6  -4   1  117.61    5.79
  -6  -4   0   43.37    3.06
   6   4   0   39.56    2.83
   6   4   1   30.04    2.40
  -6  -4  -1   31.31    2.63
  -6  -4  -2   88.42    5.20
   6   4   2   84.36    4.76
   7   4  -5  156.54    7.47
  -7  -4   5  168.41    7.79
  -7  -4   4   20.93    1.97
   7   4  -4   20.68    1.99
   7   4  -3   95.93    5.30
  -7  -4   3  110.02    5.58
  -7  -4   2    8.99    1.15
   7   4  -2    4.01    0.82
   7   4  -1    2.95    0.67
  -7  -4   1    2.69    0.71
  -7  -4   0  126.66    6.46
   7   4   0  120.41    6.18
   7   4   1  109.42    5.99
  -7  -4  -1  126.59    6.50
   9  -5   2   26.05    2.72
   9  -5   1   18.93    2.18
   9  -5   0   44.06    3.60
   9  -5  -1   11.68    1.57
   9  -5  -2   21.14    2.21
   8  -5   4  132.32    7.41
   8  -5   3   68.52    4.81
   8  -5   2  113.21    6.48
   8  -5   1   35.77    3.09
   8  -5   0    1.99    0.64
   8  -5  -1  187.31    8.68
   8  -5  -2  162.77    7.78
  -8   5   4   27.94    2.13
  -8   5   5  121.45    5.94
   7  -5   5    4.59    0.71
   7  -5   4  126.19    6.88
   7  -5   3   27.40    2.63
   7  -5   2    8.78    1.33
   7  -5   1   70.54    4.46
  -7   5   0   66.99    3.01
   7  -5   0   63.76    4.13
   7  -5  -1  142.82    6.77
  -7   5   1  133.41    5.26
   7  -5  -2   97.59    5.22
   7  -5  -3    3.17    0.61
  -7   5   3    3.84    0.57
  -7   5   4   16.41    1.48
   7  -5  -4   14.67    1.37
  -7   5   5   57.04    3.39
   7  -5  -5   53.08    3.21
  -7   5   6   57.15    3.53
   7  -5  -6   49.62    3.24
   6  -5   5   11.93    1.52
  -6   5  -5   11.01    1.16
  -6   5  -4   27.70    2.00
   6  -5   4   27.13    2.53
  -6   5  -3   81.10    3.93
   6  -5   3   79.94    4.79
  -6   5  -2  514.89   17.19
   6  -5   2  501.72   18.04
  -6   5  -1  129.11    5.04
   6  -5   1  125.35    6.21
   6  -5   0  137.97    6.45
  -6   5   0  135.06    5.20
  -6   5   1  210.01    7.87
   6  -5  -1  237.05    9.21
  -6   5   2    9.81    0.89
   6  -5  -2    8.02    1.04
   6  -5  -2    8.17    0.91
  -6   5   3  351.06   12.74
   6  -5  -3  353.42   12.58
   6  -5  -4   39.67    2.48
  -6   5   4   36.77    2.37
  -6   5   5   77.39    4.06
   6  -5  -5   72.91    3.94
  -6   5   6   57.45    3.55
   6  -5  -6   55.15    3.42
  -5   5  -7    8.03    1.06
  -5   5  -6    7.33    0.98
   5  -5   5  146.25    7.06
  -5   5  -5  150.27    6.52
   5  -5   4   17.57    1.86
  -5   5  -4   17.72    1.56
   5  -5   3   86.18    4.78
  -5   5  -3   88.15    4.15
  -5   5  -2  193.39    7.24
   5  -5   2  191.31    8.13
  -5   5  -1   15.98    1.15
   5  -5   1   15.33    1.61
   5  -5   0   11.52    1.34
  -5   5   1   52.59    2.37
   5  -5  -1   49.76    3.07
   5  -5  -2  138.65    5.61
  -5   5   2  132.10    5.30
   5  -5  -3  233.67    8.73
  -5   5   3  229.86    8.71
  -5   5   4   83.76    4.02
   5  -5  -4   80.86    4.03
  -5   5   5   40.11    2.58
   5  -5  -5   38.51    2.59
  -5   5   6   61.43    3.62
   5  -5  -6   58.73    3.56
  -4   5  -7   96.11    5.16
  -4   5  -6  301.96   11.36
   4  -5   6  275.14   11.09
  -4   5  -5   58.43    3.37
   4  -5   5   56.26    3.56
  -4   5  -4   48.71    2.85
   4  -5   4   42.83    3.00
  -4   5  -3  120.26    5.14
   4  -5   3  116.51    5.57
  -4   5  -2  159.75    6.05
   4  -5   2  154.41    6.70
   4  -5  -1  268.61    9.84
   4  -5  -1  283.49    9.81
  -4   5   1  266.59    9.45
   4  -5  -2  144.57    5.71
  -4   5   2  137.32    5.41
   4  -5  -2  141.85    5.70
   4  -5  -3  256.52    9.45
   4  -5  -4   25.77    1.92
  -4   5   4   28.63    1.94
  -4   5   5  101.00    4.84
   4  -5  -5   97.28    4.75
  -4   5   6   79.73    4.34
   4  -5  -6   77.23    4.24
  -3   5  -7    8.72    1.16
   3  -5   6   65.01    3.73
  -3   5  -6   69.66    3.96
   3  -5   5   19.58    1.79
  -3   5  -5   23.33    1.91
   3  -5   4    1.02    0.34
  -3   5  -4    1.27    0.44
  -3   5  -3   87.06    4.00
   3  -5   3   82.17    4.20
  -3   5  -2  140.79    5.16
   3  -5   2  115.24    5.41
  -3   5  -1  424.52   14.08
  -3   5   0   65.11    2.72
   3  -5   0   61.01    3.19
  -3   5   0   59.98    2.33
   3  -5  -1    2.04    0.44
   3  -5  -1    1.03    0.35
   3  -5  -2  183.05    6.44
  -3   5   2  170.44    6.58
   3  -5  -2  176.57    6.77
   3  -5  -3   12.91    1.21
  -3   5   4   91.41    4.30
   3  -5  -4   94.30    4.39
  -3   5   5  211.10    8.53
   3  -5  -5  206.94    8.34
   3  -5  -6    2.19    0.56
  -3   5   6    2.81    0.47
  -2   5  -8    0.86    0.22
  -2   5  -7   59.10    3.82
  -2   5  -6  198.01    8.31
   2  -5   6  190.48    7.64
   2  -5   5  268.66   10.19
  -2   5  -5  295.50   10.88
  -2   5  -4  380.10   13.35
   2  -5   4  359.36   12.74
   2  -5   2  102.58    4.53
  -2   5  -2  100.53    4.17
   2  -5   1  247.28    8.84
  -2   5   0    0.59    0.19
  -2   5   0    0.65    0.11
   2  -5  -1  391.15   12.58
   2  -5  -1  395.63   13.24
  -2   5   1  375.61   13.14
   2  -5  -2  240.99    8.91
   2  -5  -2  262.89    8.26
  -2   5   2  240.04    8.92
  -2   5   3  294.22   10.83
   2  -5  -3  301.66   10.72
   2  -5  -4   98.51    4.56
  -2   5   4  100.84    4.61
   2  -5  -5   85.21    4.27
  -2   5   5   84.79    4.34
   2  -5  -6   13.08    1.38
  -2   5   6   12.50    1.38
  -1   5  -8    0.00    0.17
  -1   5  -7  234.48    9.97
  -1   5  -6   56.83    3.55
   1  -5   5   69.40    3.53
  -1   5  -5   75.61    3.99
   1  -5   4  119.21    5.17
  -1   5  -4  132.17    5.64
   1  -5   3   43.68    2.49
  -1   5  -2  143.12    5.51
   1  -5   2  144.65    5.64
  -1   5  -1   74.38    3.22
   1  -5   1   79.19    2.97
   1  -5   1   84.59    3.58
  -1   5   0  256.26    8.42
  -1   5   0  235.49    8.46
   1  -5   0  244.96    8.37
  -1   5   1  216.41    8.18
   1  -5  -1  223.93    8.23
   1  -5  -1  248.05    7.79
   1  -5  -2   20.53    1.16
  -1   5   2   18.42    1.31
   1  -5  -3   71.42    3.43
  -1   5   3   68.47    3.38
  -1   5   4   66.46    3.55
   1  -5  -4   71.98    3.57
  -1   5   5   79.82    4.24
   1  -5  -5   82.51    4.14
  -1   5   6   60.82    3.68
   1  -5  -6   53.63    3.33
   0   5  -8  195.82    9.10
   0   5  -7  128.79    6.44
   0   5  -6    5.56    0.90
   0  -5   5  179.91    6.97
   0   5  -5  193.78    7.83
   0   5  -4  377.07   13.41
   0  -5   4  370.26   12.47
   0  -5   3  595.43   18.76
   0   5  -3  588.72   19.84
   0  -5   3  586.81   19.75
   0  -5   2  478.76   15.74
   0   5  -2  463.08   15.49
   0  -5   2  452.44   14.93
   0   5  -1  257.86    9.03
   0  -5   1  270.55    9.38
   0  -5   1  266.82    8.98
   0  -5   0  101.81    3.94
   0   5   0   98.19    3.81
   0  -5   0   99.92    4.20
   0  -5  -1   34.70    1.95
   0  -5  -1   36.20    1.79
   0  -5  -1   36.49    2.17
   0  -5  -3   19.62    1.49
   0   5   3   19.24    1.57
   0   5   4  102.28    4.88
   0  -5  -4   98.73    4.57
   0  -5  -5   87.45    4.36
   0   5   5   90.04    4.68
   0  -5  -6    2.88    0.61
   0   5   6    1.66    0.48
   1   5  -8   38.94    3.16
   1   5  -7   10.82    1.36
   1   5  -6   70.15    4.05
  -1  -5   5   38.22    2.25
   1   5  -5   42.73    2.71
  -1  -5   4  245.11    8.82
   1   5  -4  255.52    9.57
  -1  -5   4  261.26    9.28
  -1  -5   3   81.87    3.58
  -1  -5   3   84.38    3.64
  -1  -5   1    1.83    0.36
   1   5  -1    2.36    0.33
  -1  -5   1    3.30    0.46
   1   5   0  183.61    6.53
  -1  -5   0  192.30    7.46
  -1  -5   0  189.57    6.55
  -1  -5  -1   76.65    3.07
  -1  -5  -1   74.25    3.28
  -1  -5  -1   75.88    3.85
  -1  -5  -2  245.80    8.76
   1   5   2  236.57    8.30
  -1  -5  -2  251.59    9.86
  -1  -5  -3  283.57   10.24
  -1  -5  -3  288.05   11.50
  -1  -5  -4   11.66    1.15
   1   5   4   12.48    1.36
   1   5   5   57.27    3.60
  -1  -5  -5   55.89    3.21
   1   5   6   13.91    1.58
   2   5  -8  114.30    6.18
   2   5  -7  254.16   10.52
   2   5  -6  219.65    9.01
  -2  -5   5  172.03    6.77
   2   5  -5  169.25    7.01
  -2  -5   5  157.66    6.24
  -2  -5   4   29.80    1.86
  -2  -5   3  255.11    8.92
  -2  -5   3  246.88    9.63
   2   5  -3  278.31    9.58
  -2  -5   2  115.74    5.15
  -2  -5   2  120.20    4.71
   2   5  -2  129.61    4.96
   2   5  -1  174.91    6.03
  -2  -5   1  163.08    5.97
  -2  -5   1  162.91    6.78
   2   5   1  147.21    5.77
  -2  -5  -1  160.01    6.85
   2   5   2  113.09    4.57
  -2  -5  -2  108.76    5.52
  -2  -5  -3    5.26    0.90
   2   5   5   57.19    3.81
   3   5  -8   35.91    2.88
   3   5  -7   72.70    4.24
   3   5  -6    5.22    0.75
  -3  -5   5   10.45    1.13
  -3  -5   5   16.30    1.28
  -3  -5   4  139.15    5.41
  -3  -5   4  137.03    5.94
  -3  -5   3   39.67    2.46
  -3  -5   3   41.07    2.24
  -3  -5   2  274.25   10.82
   3   5  -2  299.37   10.19
   3   5  -1  229.63    8.24
  -3  -5   1  219.30    8.94
   3   5   0    1.99    0.45
  -3  -5  -1   25.94    2.18
   3   5   1   26.14    1.83
   3   5   2  108.16    4.76
  -3  -5  -2  111.33    5.78
  -3  -5  -3    2.34    0.67
  -3  -5  -4  117.04    6.48
  -4  -5   6   81.48    4.37
  -4  -5   5   76.97    4.09
   4   5  -5   74.69    3.96
  -4  -5   4   93.27    4.60
   4   5  -4   91.25    4.46
   4   5  -3  256.00    9.26
  -4  -5   3  235.40    9.68
  -4  -5   2   38.82    2.62
   4   5  -2   41.76    2.59
   4   5  -1    3.58    0.68
  -4  -5   1    6.81    0.94
  -4  -5   0  212.31    9.12
   4   5   0  216.57    8.20
   4   5   1  102.19    4.76
  -4  -5  -1  103.81    5.49
   4   5   2  182.69    7.45
  -4  -5  -2  188.06    8.68
  -4  -5  -3   91.86    5.49
  -4  -5  -4   12.35    1.66
  -5  -5   6   42.07    2.95
   5   5  -5  136.61    6.20
  -5  -5   5  131.55    6.33
   5   5  -4   17.97    1.70
  -5  -5   4   17.57    1.69
   5   5  -3   36.21    2.61
  -5  -5   3   42.92    2.85
   5   5  -2  172.58    7.20
  -5  -5   2  171.51    7.63
  -5  -5   1   14.47    1.53
   5   5  -1   14.27    1.46
   5   5   0   83.82    4.39
  -5  -5   0   87.18    4.89
   5   5   1  260.45   10.16
  -5  -5  -1  270.91   11.38
   5   5   2    4.12    0.79
  -5  -5  -2    3.14    0.77
  -5  -5  -3   13.35    1.70
  -6  -5   6   31.98    2.61
   6   5  -5   49.32    3.40
  -6  -5   5   53.86    3.51
  -6  -5   4   97.05    5.17
   6   5  -4   94.90    5.08
   6   5  -3   93.92    4.98
  -6  -5   3   93.41    5.07
  -6  -5   2  160.68    7.32
   6   5  -2  143.36    6.80
  -6  -5   1   98.68    5.30
   6   5  -1   92.63    5.00
  -6  -5   0    4.28    0.88
   6   5   0    3.59    0.77
   6   5   1   14.40    1.53
  -6  -5  -1   15.85    1.79
   6   5   2  112.05    5.82
   7   5  -4    1.00    0.28
  -7  -5   4    0.74    0.18
  -7  -5   3  102.62    5.58
   7   5  -3  100.49    5.54
  -7  -5   2   27.86    2.40
   7   5  -2   24.04    2.29
  -7  -5   1   25.71    2.37
   9  -6   1   65.69    4.71
   9  -6   0   88.03    5.61
   9  -6  -1   17.87    2.04
   8  -6   3   27.82    2.80
   8  -6   2  101.89    6.10
   8  -6   1   13.96    1.73
   8  -6   0   19.80    2.15
   8  -6  -1  150.78    7.56
   7  -6   5   43.01    3.60
   7  -6   4  145.73    7.66
   7  -6   3    0.34    0.23
   7  -6   2    0.55    0.20
  -7   6  -2    0.70    0.19
  -7   6  -1  212.09    7.83
   7  -6   1  204.39    9.28
  -7   6   0  108.65    4.60
   7  -6   0  112.31    5.99
   7  -6  -1   15.47    1.76
  -7   6   1   17.23    1.27
  -7   6   2  125.55    5.40
   7  -6  -2  149.15    6.82
   7  -6  -3   22.32    1.83
   7  -6  -5   66.04    3.81
   6  -6   6  200.69    9.54
  -6   6  -6  220.76    8.88
  -6   6  -5   28.84    2.19
   6  -6   5   27.34    2.60
   6  -6   4   41.94    3.37
  -6   6  -4   44.87    2.80
   6  -6   3  189.79    8.77
  -6   6  -3  201.75    7.87
   6  -6   2    3.51    0.85
  -6   6  -2    3.56    0.55
  -6   6  -1  100.15    4.25
   6  -6   1   97.51    5.34
   6  -6   0  242.65    9.81
  -6   6   0  231.62    8.49
  -6   6   1   26.70    1.68
   6  -6  -1   28.89    2.39
   6  -6  -2    4.64    0.81
   6  -6  -2    3.51    0.66
   6  -6  -3  185.15    7.58
  -6   6   4    2.55    0.42
   6  -6  -4    2.94    0.62
   6  -6  -5  129.78    6.10
  -6   6   5  137.65    6.20
  -6   6   6   28.32    2.27
  -5   6  -6    5.44    0.81
   5  -6   6    4.63    0.67
   5  -6   5  155.70    7.49
  -5   6  -5  162.93    6.96
  -5   6  -4   50.11    2.96
   5  -6   4   42.30    3.23
   5  -6   3   36.16    2.87
  -5   6  -3   39.18    2.43
  -5   6  -2  143.78    5.69
   5  -6   2  136.68    6.56
  -5   6  -1   74.58    3.31
   5  -6   1   68.97    4.09
   5  -6   0   14.34    1.54
  -5   6   0   13.68    1.08
  -5   6   1  113.91    4.64
   5  -6  -1  116.32    5.44
   5  -6  -2    0.39    0.21
   5  -6  -2    0.45    0.15
   5  -6  -3   13.43    1.31
  -5   6   3   11.69    1.07
   5  -6  -4  211.22    8.58
  -5   6   4  222.60    8.59
   5  -6  -5   21.92    1.91
  -5   6   5   23.41    1.86
  -5   6   6   27.83    2.23
  -4   6  -7   38.43    2.87
   4  -6   6    1.36    0.31
  -4   6  -6    1.97    0.51
  -4   6  -5   29.47    2.24
   4  -6   5   30.04    2.46
   4  -6   4  461.86   16.44
  -4   6  -4  470.21   16.45
  -4   6  -3   43.19    2.57
   4  -6   3   40.81    2.93
  -4   6  -2   65.17    3.09
   4  -6   2   59.61    3.63
   4  -6   1  281.69   10.68
  -4   6  -1  291.02   10.03
  -4   6   0    0.94    0.27
   4  -6   0    0.80    0.30
   4  -6  -1  504.26   17.01
   4  -6  -1  488.58   16.54
   4  -6  -2  136.46    5.67
  -4   6   2  126.46    5.15
   4  -6  -3   15.49    1.42
   4  -6  -4    2.61    0.58
  -4   6   4    2.32    0.46
   4  -6  -5  182.26    7.88
  -4   6   5  196.14    8.02
   4  -6  -6    9.72    1.23
  -4   6   6    9.78    1.18
  -3   6  -7   61.26    3.92
   3  -6   6  199.08    8.39
  -3   6  -6  213.02    8.77
  -3   6  -5   40.67    2.71
   3  -6   5   36.69    2.67
  -3   6  -4   78.21    3.98
   3  -6   4   71.73    4.02
  -3   6  -3   97.46    4.47
   3  -6   3   98.24    4.81
  -3   6  -2    8.54    0.87
   3  -6   2    8.72    1.10
  -3   6  -1    0.43    0.16
   3  -6   1    0.37    0.12
   3  -6   0  471.51   15.45
  -3   6   0  450.46   15.26
   3  -6  -1  122.18    5.19
  -3   6   2   27.04    1.62
   3  -6  -2   29.91    2.01
  -3   6   3  174.19    7.01
   3  -6  -3  185.73    7.26
   3  -6  -4   35.37    2.42
  -3   6   4   37.90    2.36
  -3   6   5   37.81    2.54
   3  -6  -5   35.80    2.55
   3  -6  -6  193.90    8.41
  -3   6   6  199.06    8.60
  -2   6  -7   44.79    3.25
   2  -6   6    1.56    0.40
  -2   6  -6    1.14    0.31
  -2   6  -5   66.71    3.73
   2  -6   5   61.71    3.52
   2  -6   4   83.70    4.25
  -2   6  -4   88.24    4.34
   2  -6   3   42.52    2.71
  -2   6  -3   47.11    2.65
  -2   6  -2  513.29   16.90
   2  -6   2  497.77   16.73
   2  -6   1   28.31    1.97
  -2   6  -1   26.88    1.63
  -2   6   0    0.52    0.20
   2  -6   0    0.58    0.21
   2  -6  -1  513.51   16.35
  -2   6   1  484.22   17.22
   2  -6  -1  535.85   17.37
   2  -6  -2  162.31    5.72
   2  -6  -2  152.95    6.32
   2  -6  -3   60.75    3.26
  -2   6   3   62.93    3.16
  -2   6   4  133.42    5.82
   2  -6  -4  128.90    5.79
   2  -6  -5    3.95    0.62
  -2   6   5    3.30    0.66
  -2   6   6    0.65    0.17
   2  -6  -6    0.86    0.21
  -1   6  -8   15.14    1.79
  -1   6  -7   68.44    4.28
  -1   6  -6   14.06    1.54
   1  -6   6   13.66    1.32
  -1   6  -5    2.47    0.62
  -1   6  -4  471.82   16.48
   1  -6   4  464.58   15.64
   1  -6   3  157.79    6.14
  -1   6  -3  141.01    6.06
  -1   6  -2    1.73    0.39
   1  -6   2    2.44    0.53
  -1   6   0   30.19    1.67
   1  -6  -1    6.47    0.78
   1  -6  -1    6.16    0.66
   1  -6  -2  542.62   15.86
  -1   6   2  461.21   17.41
   1  -6  -2  510.78   17.17
   1  -6  -3  147.66    6.20
  -1   6   3  153.08    6.30
   1  -6  -4    9.59    1.10
  -1   6   4   10.39    1.13
   1  -6  -5  242.67    9.69
  -1   6   5  247.14   10.06
  -1   6   6   54.75    3.53
   1  -6  -6   46.50    3.18
   0   6  -8   24.92    2.43
   0   6  -7   34.46    2.79
   0   6  -6  549.42   19.28
   0  -6   6  530.92   17.75
   0   6  -5    1.95    0.56
   0  -6   5    1.11    0.34
   0  -6   4    2.84    0.56
   0   6  -4    2.25    0.56
   0  -6   3  477.04   15.60
   0   6  -3  472.33   16.32
   0  -6   2   11.44    1.11
   0  -6   1   44.68    2.42
   0  -6   1   47.19    2.34
   0   6  -1   46.40    2.28
   0   6   0  505.13   16.71
   0  -6   0  524.71   17.81
   0  -6   0  501.65   16.20
   0  -6  -1  235.10    9.03
   0  -6  -1  226.12    8.45
   0  -6  -2   16.78    1.12
   0   6   2   16.26    1.40
   0  -6  -2   18.42    1.43
   0   6   3  106.52    5.04
   0  -6  -3  106.28    4.76
   0   6   4    0.47    0.11
   0  -6  -4    0.48    0.20
   0  -6  -5    9.70    1.15
   0   6   5   12.75    1.40
   0  -6  -6   83.43    4.56
   1   6  -8  140.03    7.17
   1   6  -7   49.97    3.47
   1   6  -6    2.45    0.59
  -1  -6   6    2.57    0.53
   1   6  -5    3.51    0.72
  -1  -6   5    3.24    0.59
   1   6  -4    5.17    0.75
  -1  -6   4    5.24    0.71
   1   6  -3   62.20    3.29
  -1  -6   3   64.96    3.19
   1   6  -2  374.54   12.92
  -1  -6   2  386.88   12.56
  -1  -6   2  367.26   13.38
  -1  -6   1  219.23    7.65
  -1  -6   1  209.41    8.30
   1   6  -1  213.68    7.62
  -1  -6  -1  123.82    5.74
  -1  -6  -2   78.85    4.31
   1   6   2   71.13    3.35
  -1  -6  -2   75.40    3.57
  -1  -6  -3   23.34    1.70
   1   6   4  191.87    8.49
   1   6   5  210.15    9.34
   2   6  -8   24.68    2.32
   2   6  -7  220.78    9.48
   2   6  -6   41.18    2.86
  -2  -6   6   38.70    2.40
   2   6  -5   89.67    4.43
  -2  -6   5   85.21    4.04
  -2  -6   4  384.86   13.21
   2   6  -4  403.88   14.03
  -2  -6   3   75.61    3.48
  -2  -6   3   67.69    3.53
  -2  -6   2   16.51    1.43
  -2  -6   2   15.56    1.28
  -2  -6   1  108.92    4.44
  -2  -6   0   53.99    3.26
   2   6   1    3.52    0.54
  -2  -6  -1    3.26    0.71
   2   6   2  200.11    7.61
  -2  -6  -2  212.73    9.25
  -2  -6  -3   38.47    3.07
   2   6   4    7.77    1.13
  -3  -6   6  291.78   10.40
  -3  -6   5   42.60    2.51
  -3  -6   4    1.83    0.45
  -3  -6   3   58.38    3.03
  -3  -6   3   62.26    3.41
   3   6  -2  150.35    6.31
  -3  -6   2  152.43    6.68
   3   6  -1    1.54    0.44
  -3  -6   1    1.12    0.39
  -3  -6   0  304.87   12.11
   3   6   0  301.40   10.79
  -3  -6  -1  345.64   13.62
   3   6   1  330.02   11.80
   3   6   2   25.19    1.91
  -3  -6  -2   27.55    2.49
  -3  -6  -3  180.61    8.87
  -3  -6  -4    3.89    0.65
   4   6  -6   25.72    2.15
   4   6  -5  222.96    8.96
   4   6  -4    2.03    0.52
  -4  -6   4    2.12    0.52
   4   6  -3   12.29    1.35
  -4  -6   3   10.86    1.26
   4   6  -2  319.23   11.53
  -4  -6   2  309.86   12.34
   4   6  -1   18.91    1.72
  -4  -6   1   19.84    1.88
   4   6   0    3.14    0.66
  -4  -6   0    2.49    0.69
  -4  -6  -1   44.80    3.36
   4   6   1   45.08    2.88
   4   6   2    0.48    0.16
  -4  -6  -2    0.80    0.22
  -4  -6  -3    5.17    1.09
   5   6  -5    3.65    0.75
  -5  -6   4  203.15    8.89
   5   6  -4  207.52    8.64
   5   6  -3   65.13    3.88
  -5  -6   3   64.66    3.91
  -5  -6   2   32.60    2.58
   5   6  -2   30.40    2.42
  -5  -6   1   85.18    4.94
   5   6  -1   87.52    4.64
   5   6   0   15.01    1.55
  -5  -6   0   16.55    1.83
   5   6   1    3.17    0.70
  -5  -6  -1    1.41    0.37
   5   6   2  132.80    6.48
  -5  -6  -2  150.41    7.81
  -6  -6   5   36.56    2.79
   6   6  -5   31.36    2.67
   6   6  -4    0.84    0.28
  -6  -6   4    2.08    0.62
  -6  -6   3   40.87    3.05
   6   6  -3   41.01    3.06
   6   6  -2   31.46    2.66
  -6  -6   2   40.31    3.02
  -6  -6   1    0.01    0.18
   6   6  -1    0.51    0.18
  -6  -6   0  218.87    9.80
   6   6   0  190.62    8.73
   9  -7   0   13.76    1.75
   9  -7  -1  180.99    9.02
   8  -7   3  110.72    6.66
   8  -7   2    4.34    0.92
   8  -7   1  153.01    7.94
   8  -7   0  133.45    7.15
  -8   7   1   11.35    1.07
   8  -7  -1   12.83    1.60
  -8   7   2   42.28    2.45
  -8   7   3    5.66    0.72
   8  -7  -4   28.16    2.29
  -7   7  -4   10.76    1.18
   7  -7   4    7.76    1.36
  -7   7  -3  229.03    9.07
   7  -7   3  229.58   10.42
   7  -7   2   27.17    2.63
  -7   7  -2   24.07    1.82
   7  -7   1   36.90    3.11
  -7   7  -1   35.05    2.19
   7  -7   0   20.43    2.15
  -7   7   0   19.07    1.48
   7  -7  -1   21.04    2.13
  -7   7   1   21.80    1.56
  -7   7   2   20.17    1.53
   7  -7  -3  130.30    6.08
   7  -7  -4  122.24    5.93
   6  -7   6    4.33    0.94
  -6   7  -6    3.11    0.62
  -6   7  -5   99.79    4.97
   6  -7   5   95.25    5.72
   6  -7   4  107.48    6.05
  -6   7  -4  104.54    5.12
   6  -7   3  109.04    6.05
  -6   7  -3  110.13    5.10
   6  -7   2   79.75    4.92
  -6   7  -2   88.58    4.07
   6  -7   1  112.73    5.93
  -6   7  -1  107.72    4.72
  -6   7   0  115.47    4.86
   6  -7   0  116.30    5.98
  -6   7   1  327.41   11.80
   6  -7  -1  348.77   12.90
   6  -7  -3   14.62    1.50
   6  -7  -4    7.66    1.02
   5  -7   6   59.87    4.04
  -5   7  -6   61.00    3.71
   5  -7   5   43.59    3.30
  -5   7  -5   44.80    2.96
   5  -7   4   11.11    1.44
  -5   7  -4   10.08    1.18
  -5   7  -3   35.22    2.36
   5  -7   3   35.90    2.89
  -5   7  -2    0.75    0.24
   5  -7   2    0.41    0.21
   5  -7   1  138.77    6.57
  -5   7  -1  138.30    5.60
  -5   7   0   63.15    3.05
   5  -7   0   63.31    3.82
  -5   7   1   74.82    3.54
   5  -7  -1   79.98    4.26
   5  -7  -2   22.30    1.87
   5  -7  -3    8.95    1.12
   5  -7  -4   86.43    4.54
   5  -7  -5   50.29    3.29
  -4   7  -6  109.96    5.45
   4  -7   6  100.46    5.46
  -4   7  -5   53.48    3.31
   4  -7   5   48.99    3.41
   4  -7   4   36.50    2.80
  -4   7  -4   35.44    2.50
   4  -7   3  124.36    6.02
  -4   7  -3  123.33    5.45
   4  -7   2  144.59    6.57
  -4   7  -2  140.95    5.80
   4  -7   1  139.70    6.23
  -4   7  -1  129.48    5.39
   4  -7   0    5.64    0.86
  -4   7   0    4.74    0.62
  -4   7   1  114.32    4.75
   4  -7  -1  113.63    5.18
   4  -7  -2   39.40    2.60
   4  -7  -3  310.30   11.68
   4  -7  -4   72.45    4.01
  -4   7   5   53.71    3.25
   4  -7  -5   52.80    3.37
  -3   7  -7   22.75    2.11
   3  -7   6    8.69    1.09
  -3   7  -6    8.73    1.15
  -3   7  -5  182.28    7.76
   3  -7   5  176.17    7.68
  -3   7  -4   51.27    3.13
   3  -7   4   50.87    3.30
   3  -7   3  217.88    8.60
  -3   7  -3  202.38    8.14
   3  -7   2  108.03    5.15
  -3   7  -2  103.51    4.55
  -3   7  -1   77.64    3.51
   3  -7   1   74.35    3.97
  -3   7   0   38.64    2.18
   3  -7   0   43.34    2.66
   3  -7  -1   21.98    1.68
   3  -7  -2  240.60    9.33
   3  -7  -3  119.67    5.51
  -3   7   4    1.49    0.38
   3  -7  -4    1.30    0.38
   3  -7  -5   11.92    1.33
  -3   7   5   11.62    1.25
  -2   7  -7   51.19    3.52
   2  -7   6  185.57    7.76
  -2   7  -6  189.76    8.21
  -2   7  -5  264.55   10.49
   2  -7   5  265.72   10.11
   2  -7   4   85.91    4.42
  -2   7  -4   88.41    4.47
   2  -7   3  135.41    5.88
  -2   7  -3  127.89    5.62
   2  -7   2   50.00    2.94
  -2   7  -2   42.59    2.46
   2  -7   1  432.10   14.50
  -2   7  -1  422.43   14.48
  -2   7   0   72.31    3.25
   2  -7   0   69.34    3.49
   2  -7  -1  235.18    8.39
   2  -7  -2   24.21    1.89
  -2   7   3   87.96    4.15
   2  -7  -3   86.41    4.36
  -2   7   4   20.74    1.77
   2  -7  -4   27.27    2.09
   2  -7  -5   34.40    2.55
  -2   7   5   33.64    2.51
  -1   7  -7  108.76    5.76
  -1   7  -6   69.18    4.04
   1  -7   6   63.06    3.60
  -1   7  -5   53.02    3.32
   1  -7   5   51.10    3.09
   1  -7   4   24.34    1.93
  -1   7  -4   22.33    1.90
  -1   7  -3    6.22    0.83
   1  -7   3    5.11    0.77
  -1   7  -2   95.86    4.19
   1  -7   2   93.75    4.40
   1  -7   1  157.46    6.17
  -1   7  -1  149.22    5.90
   1  -7   0    6.28    0.78
  -1   7   0    5.04    0.62
   1  -7  -1   27.63    1.75
   1  -7  -2   81.21    3.96
  -1   7   2   71.00    3.58
  -1   7   3  127.60    5.65
   1  -7  -3  126.18    5.68
  -1   7   4  165.78    7.23
   1  -7  -4  163.46    7.07
   1  -7  -5   65.37    3.91
  -1   7   5   73.90    4.20
   0   7  -7   30.84    2.62
   0  -7   6  126.58    5.64
   0   7  -6  129.72    6.23
   0   7  -5  147.85    6.68
   0  -7   5  152.06    6.33
   0   7  -4  276.10   10.58
   0  -7   4  276.77   10.08
   0   7  -3  304.43   11.22
   0  -7   3  309.16   10.90
   0  -7   2   40.82    2.46
   0   7  -2   38.60    2.25
   0   7  -1  393.60   13.30
   0  -7   1  387.88   13.10
   0  -7   0   10.53    1.02
   0   7   1  210.23    7.79
   0  -7  -1  216.11    8.70
   0  -7  -1  216.74    7.61
   0   7   2   10.07    1.09
   0  -7  -2    9.77    1.07
   0  -7  -3  180.98    7.42
   0   7   3  179.66    7.71
   0  -7  -4    6.74    0.87
   0   7   4    6.24    0.89
   0   7   5    0.64    0.31
   0  -7  -5    0.67    0.17
   1   7  -7   11.74    1.45
   1   7  -6  187.03    8.04
  -1  -7   6  180.46    7.33
  -1  -7   5  207.61    8.05
   1   7  -5  209.05    8.57
  -1  -7   4   30.59    2.13
   1   7  -4   30.13    2.21
  -1  -7   3   16.25    1.44
   1   7  -3   16.59    1.46
  -1  -7   2   83.87    3.92
   1   7  -2   82.76    3.81
   1   7  -1   29.97    1.79
  -1  -7   1   30.63    1.98
   1   7   0  145.57    5.61
  -1  -7   0  149.72    6.58
  -1  -7   0  149.05    5.73
  -1  -7  -1  294.50    9.89
  -1  -7  -1  288.44   11.63
  -1  -7  -2   12.24    1.47
   1   7   3  123.97    6.08
   1   7   4  104.55    5.61
   2   7  -7   90.75    5.06
   2   7  -6    8.27    1.06
  -2  -7   6    5.43    0.74
  -2  -7   5   98.89    4.63
  -2  -7   4  109.64    4.92
  -2  -7   3  190.93    7.35
  -2  -7   2   49.54    2.75
  -2  -7   1  409.39   13.61
  -2  -7   0   82.83    4.57
   2   7   1   48.08    2.86
  -2  -7  -1   53.55    3.57
  -2  -7  -2   11.61    1.49
  -2  -7  -3   80.01    5.08
   2   7   4   49.20    3.60
  -3  -7   6   30.88    2.19
  -3  -7   5    3.10    0.61
  -3  -7   4  146.37    6.09
  -3  -7   3  222.29    8.34
   3   7  -2    3.36    0.72
  -3  -7   1   52.54    3.45
   3   7  -1   53.83    3.24
   3   7   0  155.73    6.68
  -3  -7   0  161.74    7.62
  -3  -7  -1   53.51    3.79
   3   7   1   52.93    3.16
  -3  -7  -2  108.68    6.27
  -3  -7  -3  184.86    9.32
   4   7  -6  130.39    6.36
   4   7  -5  229.09    9.46
   4   7  -4   19.81    1.90
   4   7  -3   33.01    2.56
   4   7  -2   11.87    1.37
  -4  -7   2   11.03    1.34
  -4  -7   1    1.79    0.47
   4   7  -1    1.94    0.54
  -4  -7   0   80.55    4.91
   4   7   0   78.11    4.29
  -4  -7  -1  126.99    6.84
   4   7   1  114.73    5.65
  -4  -7  -2    5.78    1.18
   5   7  -5    4.70    0.92
   5   7  -4  115.29    5.96
   5   7  -3    2.89    0.69
  -5  -7   2  102.97    5.74
   5   7  -2  111.89    5.68
   5   7  -1  184.97    8.25
  -5  -7   1  195.11    9.07
  -5  -7   0    7.44    1.06
   5   7   0    4.98    0.76
   8  -8   2   39.01    3.48
   8  -8   1   60.60    4.53
  -8   8  -1   69.04    3.55
   8  -8   0    4.78    0.97
  -8   8   0    5.62    0.69
   8  -8  -1   43.87    3.48
  -8   8   1   37.97    2.42
  -8   8   2  296.25   10.92
   7  -8   4    5.48    1.21
  -7   8  -4    3.71    0.60
   7  -8   3   12.42    1.65
  -7   8  -3   12.39    1.29
   7  -8   2   10.48    1.49
  -7   8  -2   10.89    1.15
   7  -8   1   48.14    3.75
  -7   8  -1   50.20    2.86
   7  -8   0   86.71    5.24
  -7   8   0   86.70    4.14
  -7   8   1   10.27    1.04
   7  -8  -1   11.21    1.43
  -7   8   2    8.17    0.92
   6  -8   5  236.58   10.54
  -6   8  -5  229.57    9.57
   6  -8   4   10.56    1.45
  -6   8  -4    8.68    1.10
   6  -8   3  137.52    7.10
  -6   8  -3  132.39    6.04
  -6   8  -2  312.74   11.60
   6  -8   2  321.54   12.83
  -6   8  -1    3.53    0.54
   6  -8   1    1.48    0.44
  -6   8   0   38.25    2.34
   6  -8   0   38.91    3.03
   6  -8  -1   55.00    3.57
  -6   8   1   47.88    2.76
  -6   8   2    0.06    0.08
   6  -8  -3   28.71    2.35
  -5   8  -6    4.11    0.66
   5  -8   6    5.96    0.91
   5  -8   5  120.66    6.37
  -5   8  -5  116.06    5.75
  -5   8  -4   88.11    4.72
   5  -8   4   98.50    5.47
   5  -8   3   26.02    2.41
  -5   8  -3   22.04    1.84
   5  -8   2    3.66    0.88
  -5   8  -2    3.68    0.66
  -5   8  -1  154.23    6.35
   5  -8   1  160.06    7.33
   5  -8   0    3.51    0.81
  -5   8   0    3.40    0.51
  -5   8   1    3.86    0.57
   5  -8  -1    5.62    0.84
   5  -8  -3   44.32    3.05
   5  -8  -4    0.72    0.25
   4  -8   6  161.08    7.53
  -4   8  -6  156.32    7.25
   4  -8   5   50.93    3.55
  -4   8  -5   50.12    3.27
  -4   8  -4    2.86    0.66
   4  -8   4    4.49    0.92
   4  -8   3  247.17   10.09
  -4   8  -3  246.80    9.55
  -4   8  -2    2.86    0.57
  -4   8  -1  112.11    4.83
   4  -8   1  106.77    5.41
   4  -8   0  427.40   14.72
  -4   8   0  399.73   14.21
  -4   8   1   22.13    1.66
   4  -8  -1   24.60    1.94
   4  -8  -2    1.08    0.38
   4  -8  -3  167.35    7.42
   4  -8  -4   21.73    1.98
  -3   8  -6   14.50    1.58
   3  -8   6   14.24    1.55
   3  -8   5  150.66    6.97
  -3   8  -5  154.91    6.98
   3  -8   4    2.78    0.68
  -3   8  -4    3.09    0.68
  -3   8  -3   54.40    3.15
   3  -8   3   56.60    3.54
  -3   8  -2  192.17    7.61
   3  -8   2  199.61    8.16
  -3   8  -1   58.35    3.01
   3  -8   1   55.53    3.37
   3  -8   0    2.74    0.60
  -3   8   0    1.41    0.37
  -3   8   1   81.24    3.82
   3  -8  -1   81.16    3.96
   3  -8  -2   54.56    3.34
   3  -8  -3    7.80    1.04
   3  -8  -4  277.89   11.08
  -2   8  -7  220.33    9.55
   2  -8   6    0.40    0.17
  -2   8  -6    1.06    0.40
   2  -8   5   22.81    2.00
  -2   8  -5   22.61    2.02
   2  -8   4  377.04   13.45
  -2   8  -4  365.92   13.71
  -2   8  -3   12.02    1.25
   2  -8   3   13.37    1.44
  -2   8  -2   35.62    2.23
   2  -8   2   33.28    2.43
   2  -8   1  346.44   12.53
  -2   8  -1  366.44   12.56
   2  -8   0   27.43    2.00
  -2   8   0   26.90    1.79
  -2   8   1  209.61    7.95
   2  -8  -1  211.18    7.83
   2  -8  -2  193.97    8.08
   2  -8  -3   33.35    2.49
   2  -8  -4    6.14    0.87
  -1   8  -7   27.16    2.41
   1  -8   6   99.63    4.99
  -1   8  -6  100.24    5.27
   1  -8   5  112.69    5.41
  -1   8  -5  116.73    5.68
   1  -8   4   13.72    1.45
  -1   8  -4   15.23    1.54
  -1   8  -3  105.20    4.95
   1  -8   3  109.04    5.10
   1  -8   2   41.80    2.68
  -1   8  -2   40.57    2.44
   1  -8   1    2.33    0.55
  -1   8  -1    2.92    0.53
  -1   8   0  226.74    8.44
   1  -8   0  233.17    8.51
   1  -8  -1   69.36    3.35
  -1   8   1   69.20    3.37
   1  -8  -2   23.14    1.92
   1  -8  -3   43.72    2.92
   1  -8  -4  125.01    6.02
   0   8  -7   18.95    1.91
   0   8  -6    6.85    0.96
   0  -8   6    7.90    0.99
   0   8  -5  174.65    7.72
   0  -8   5  182.36    7.45
   0  -8   4    3.30    0.66
   0   8  -4    4.30    0.76
   0   8  -3  232.93    9.26
   0  -8   3  248.69    9.22
   0   8  -2  238.79    8.91
   0  -8   2  236.75    8.94
   0  -8   1   43.19    2.59
   0   8  -1   39.96    2.32
   0   8   0    6.70    0.74
   0  -8   0    7.03    0.85
   0   8   1  312.81   11.08
   0  -8  -1  312.68   10.71
   0  -8  -2    2.07    0.56
   0  -8  -3   12.16    1.29
   1   8  -7   85.87    4.94
   1   8  -6    7.51    1.03
  -1  -8   6    9.23    1.07
   1   8  -5    6.07    0.87
  -1  -8   5    5.03    0.73
  -1  -8   4  139.51    6.04
   1   8  -4  136.05    6.18
   1   8  -3   98.23    4.70
  -1  -8   3   99.62    4.71
  -1  -8   2   23.21    1.82
  -1  -8   1   51.10    2.89
  -1  -8   0  124.94    5.20
  -1  -8  -1    3.34    0.47
  -2  -8   6  296.07   11.00
  -2  -8   5  110.75    5.21
  -2  -8   4    4.16    0.64
  -2  -8   3  301.09   10.90
  -2  -8   2    4.25    0.66
  -2  -8   1   34.09    2.23
   2   8   0   76.07    4.08
   2   8   1   15.74    1.50
  -2  -8  -2    4.28    0.92
   2   8   3   15.83    1.77
  -3  -8   6    8.84    1.02
  -3  -8   5   39.95    2.67
  -3  -8   4    1.65    0.42
   3   8  -2  239.57    9.66
   3   8  -1   86.84    4.65
   3   8   0   77.92    4.29
   3   8   1  119.53    5.67
  -3  -8  -2   95.30    5.93
   4   8  -4  123.81    6.28
   4   8  -3  129.43    6.40
   4   8  -2   10.61    1.34
   4   8  -1  146.82    6.90
   4   8   0    1.78    0.49
  -4  -8  -1    3.55    0.83
  -8   9  -2   97.51    4.89
  -8   9  -1   94.46    4.66
   8  -9   0  199.29    9.48
  -8   9   0  187.08    7.82
  -7   9  -3    7.10    0.91
   7  -9   2    1.71    0.41
  -7   9  -2    2.21    0.49
  -7   9  -1   16.36    1.50
   7  -9   1   18.11    2.03
  -7   9   0   22.75    1.80
   7  -9   0   21.80    2.24
  -7   9   1   44.44    2.71
  -7   9   2   85.80    4.27
   6  -9   4   83.92    5.26
  -6   9  -4   77.83    4.43
   6  -9   3   27.64    2.62
  -6   9  -3   22.37    1.94
  -6   9  -2    5.32    0.76
   6  -9   2    6.42    1.21
   6  -9   1  100.35    5.70
  -6   9  -1  101.08    4.77
   6  -9   0  192.32    8.68
  -6   9   0  191.94    7.73
  -6   9   1   50.88    2.94
  -6   9   2   87.74    4.34
   5  -9   5    0.76    0.29
  -5   9  -5    0.39    0.16
   5  -9   4   63.58    4.31
  -5   9  -4   62.63    3.78
   5  -9   3  126.35    6.56
  -5   9  -3  123.49    5.80
  -5   9  -2  103.53    4.85
   5  -9   2   98.18    5.53
   5  -9   1   67.80    4.21
  -5   9  -1   62.71    3.44
   5  -9   0   16.98    1.76
  -5   9   0   14.78    1.37
  -5   9   1   68.64    3.58
   5  -9  -1   68.42    3.97
  -5   9   2   25.36    1.93
   5  -9  -3   23.84    2.21
   4  -9   6   42.00    3.18
  -4   9  -5  137.99    6.67
   4  -9   5  145.51    7.06
  -4   9  -4  171.41    7.48
   4  -9   4  166.29    7.81
  -4   9  -3   59.52    3.47
   4  -9   3   60.40    3.94
   4  -9   2   41.04    3.05
  -4   9  -2   40.18    2.59
   4  -9   1    2.03    0.59
  -4   9  -1    2.11    0.51
  -4   9   0   64.05    3.38
   4  -9   0   64.30    3.79
   4  -9  -1   78.90    4.20
  -4   9   1   85.77    4.10
  -4   9   2   61.45    3.38
   4  -9  -3   63.66    3.98
  -3   9  -6   62.44    3.99
   3  -9   6   71.37    4.24
   3  -9   5    7.30    1.01
  -3   9  -5    6.48    0.95
   3  -9   4    0.57    0.22
  -3   9  -4    0.79    0.29
   3  -9   3   57.87    3.68
  -3   9  -3   57.95    3.39
  -3   9  -2   54.75    3.14
   3  -9   2   57.66    3.59
  -3   9  -1   61.77    3.30
   3  -9   1   60.83    3.64
  -3   9   0  257.63    9.50
   3  -9   0  247.04    9.62
   3  -9  -1  157.06    6.54
  -3   9   1  159.46    6.54
  -3   9   2   44.66    2.72
   3  -9  -3    7.30    1.00
   2  -9   6   34.32    2.67
  -2   9  -6   35.08    2.73
  -2   9  -5   50.62    3.39
   2  -9   5   53.61    3.47
   2  -9   4   32.27    2.54
  -2   9  -4   31.49    2.44
   2  -9   3  198.54    8.21
  -2   9  -3  190.96    7.98
  -2   9  -2  240.10    9.38
   2  -9   2  253.48    9.72
  -2   9  -1   15.64    1.39
   2  -9   1   16.00    1.55
   2  -9   0   37.46    2.49
  -2   9   0   35.08    2.25
   2  -9  -1   23.15    1.77
  -2   9   1   25.72    1.84
  -2   9   2   47.03    2.80
   2  -9  -3   42.77    3.04
   1  -9   6   45.11    3.08
  -1   9  -6   44.13    3.15
  -1   9  -5   75.43    4.42
   1  -9   5   85.13    4.51
   1  -9   4   84.74    4.49
  -1   9  -4   78.24    4.38
  -1   9  -3  186.31    7.71
   1  -9   3  184.21    7.74
  -1   9  -2   16.43    1.46
   1  -9   2   17.38    1.64
   1  -9   1    0.94    0.28
  -1   9  -1    0.75    0.27
   1  -9   0  115.67    5.17
  -1   9   0  115.89    5.06
   1  -9  -1   25.14    1.80
  -1   9   1   24.65    1.79
  -1   9   2  236.56    9.09
   1  -9  -3   63.92    3.89
   0   9  -6   99.53    5.32
   0  -9   6  102.30    5.14
   0  -9   5  102.56    5.12
   0   9  -5   99.56    5.22
   0   9  -4    9.16    1.12
   0  -9   4    8.65    1.09
   0  -9   3   46.32    3.00
   0   9  -3   46.02    2.90
   0  -9   2  132.23    5.93
   0   9  -2  134.90    5.79
   0  -9   1  190.92    7.57
   0   9  -1  186.75    7.42
   0   9   0   86.40    4.06
   0  -9   0   86.23    4.17
   0  -9  -1   91.94    4.19
  -1  -9   6   10.06    1.19
  -1  -9   5   44.06    2.97
  -1  -9   4   78.17    4.22
  -1  -9   3   61.37    3.55
  -1  -9   2  196.14    7.89
  -1  -9   1  164.54    6.77
  -1  -9   0    7.75    0.89
   1   9   1   19.07    1.74
  -2  -9   5  120.93    5.72
  -2  -9   4   60.10    3.56
  -2  -9   3  112.78    5.33
  -2  -9   2   17.76    1.62
  -2  -9   1  114.78    5.22
   2   9   0    7.42    0.97
   2   9   1   12.62    1.34
   3   9  -3   14.64    1.68
   3   9  -2  140.28    6.80
   3   9  -1   24.14    2.21
   3   9   0  127.33    6.23
   7 -10   0   22.22    2.23
   6 -10   2   66.12    4.54
  -6  10  -2   70.17    3.89
   6 -10   1  117.01    6.37
  -6  10  -1  117.97    5.54
  -6  10   0   43.65    2.80
   6 -10   0   40.22    3.17
   5 -10   3   40.08    3.26
  -5  10  -3   42.21    2.90
  -5  10  -2    1.77    0.41
   5 -10   2    0.62    0.20
   5 -10   1   17.58    1.84
  -5  10  -1   15.62    1.50
   5 -10   0  186.66    8.27
  -5  10   0  186.45    7.75
  -5  10   1  109.53    5.17
  -4  10  -4    1.14    0.28
   4 -10   4    1.29    0.42
   4 -10   3    8.54    1.16
  -4  10  -3    5.50    0.84
   4 -10   2  384.59   14.31
  -4  10  -2  371.82   13.85
  -4  10  -1   33.27    2.36
   4 -10   1   34.38    2.70
  -4  10   0   72.65    3.86
   4 -10   0   71.13    4.14
  -4  10   1   37.31    2.50
  -4  10   2    0.36    0.13
   3 -10   5    5.12    0.95
   3 -10   4  134.83    6.61
  -3  10  -4  130.32    6.35
   3 -10   3   52.53    3.52
  -3  10  -3   47.61    3.14
  -3  10  -2    1.21    0.37
   3 -10   2    0.94    0.30
   3 -10   1   85.71    4.62
  -3  10  -1   82.69    4.25
  -3  10   0    1.01    0.30
   3 -10   0    1.32    0.30
  -3  10   1    0.02    0.11
  -3  10   2  204.48    8.35
   2 -10   5   33.85    2.71
  -2  10  -5   36.43    2.80
  -2  10  -4   40.00    2.92
   2 -10   4   43.14    3.10
  -2  10  -3   33.73    2.51
   2 -10   3   36.14    2.74
   2 -10   2    7.59    1.04
  -2  10  -2    6.73    0.90
  -2  10  -1   24.13    1.88
   2 -10   1   22.05    1.94
   2 -10   0  266.86   10.27
  -2  10   0  279.71   10.44
  -2  10   1   56.31    3.22
  -2  10   2    0.09    0.12
   1 -10   5   96.72    5.12
  -1  10  -5   90.30    5.03
  -1  10  -4   25.86    2.19
   1 -10   4   24.93    2.20
   1 -10   3    0.96    0.31
  -1  10  -3    1.60    0.43
   1 -10   2  257.49    9.97
  -1  10  -2  247.17    9.78
  -1  10  -1  116.07    5.42
   1 -10   1  125.42    5.72
  -1  10   0    3.18    0.47
   1 -10   0    2.35    0.54
  -1  10   1   91.61    4.45
   0  10  -5   49.89    3.36
   0  10  -4  251.61   10.50
   0 -10   4  271.73   10.45
   0 -10   3    3.58    0.75
   0 -10   2    2.73    0.60
   0 -10   1   83.73    4.35
   0 -10   0    3.52    0.62
  -1 -10   3   47.72    3.17
  -1 -10   2    8.13    0.99
  -1 -10   1    3.23    0.64
  -1 -10   0  337.22   12.08
   5 -11   0   34.78    2.77
   4 -11   1   43.97    3.21
   4 -11   0   50.72    3.36
   3 -11   2   31.20    2.57
  -3  11  -2   27.43    2.24
  -3  11  -1  295.97   11.41
   3 -11   1  292.65   11.50
   3 -11   0    2.30    0.49
  -2  11  -3   42.71    3.00
   2 -11   2  125.43    6.11
  -2  11  -2  115.57    5.71
  -2  11  -1   14.11    1.45
   2 -11   1   15.52    1.56
  -2  11   0    3.77    0.60
  -1  11  -4    1.54    0.35
  -1  11  -3   35.55    2.66
  -1  11  -2   53.89    3.33
   1 -11   0   96.66    4.85
   0   0   0    0.00    0.00
;
_shelx_hkl_checksum              83754
loop_
_space_group_symop_operation_xyz
'x, y, z'
'-x, -y, -z'
loop_
_atom_site_label
_atom_site_type_symbol
_atom_site_fract_x
_atom_site_fract_y
_atom_site_fract_z
_atom_site_U_iso_or_equiv
_atom_site_adp_type
_atom_site_occupancy
_atom_site_site_symmetry_order
_atom_site_calc_flag
_atom_site_refinement_flags_posn
_atom_site_refinement_flags_adp
_atom_site_refinement_flags_occupancy
_atom_site_disorder_assembly
_atom_site_disorder_group
Ba1 Ba 0.82296(3) 0.16210(2) 0.66368(3) 0.00849(13) Uani 1 1 d . . . . .
Fe1 Fe 0.5000 0.0000 0.0000 0.00618(18) Uani 1 2 d S . P . .
Fe2 Fe 0.5000 0.5000 0.5000 0.00586(18) Uani 1 2 d S . P . .
P1 P 0.25508(13) 0.22990(11) 0.09663(14) 0.0062(2) Uani 1 1 d . . . . .
P2 P 0.35246(14) 0.19848(12) 0.70642(15) 0.0065(2) Uani 1 1 d . . . . .
P3 P 0.80093(13) 0.37579(11) 0.21754(14) 0.0061(2) Uani 1 1 d . . . . .
O1 O 0.2772(4) 0.3698(3) 0.2775(4) 0.0073(5) Uani 1 1 d . . . . .
O2 O 0.3394(4) 0.1000(3) 0.1489(4) 0.0082(5) Uani 1 1 d . . . . .
O3 O 0.0502(4) 0.1464(3) -0.0003(4) 0.0088(5) Uani 1 1 d D . . . .
O4 O 0.3556(4) 0.3051(3) 0.9312(4) 0.0076(5) Uani 1 1 d . . . . .
O5 O 0.1621(4) 0.1442(3) 0.5822(4) 0.0097(5) Uani 1 1 d . . . . .
O6 O 0.5044(4) 0.3087(3) 0.6253(4) 0.0091(5) Uani 1 1 d . . . . .
O7 O 0.4090(4) 0.0456(3) 0.7361(4) 0.0088(5) Uani 1 1 d . . . . .
O8 O 0.6705(4) 0.4367(3) 0.3357(4) 0.0105(5) Uani 1 1 d . . . . .
O9 O 0.7019(4) 0.2257(3) 0.0423(4) 0.0084(5) Uani 1 1 d . . . . .
O10 O 0.9305(4) 0.5172(3) 0.1483(4) 0.0099(5) Uani 1 1 d D . . . .
O11 O 0.9283(4) 0.3213(4) 0.3732(4) 0.0111(5) Uani 1 1 d D . . . .
H1 H 0.04(2) 0.055(9) 0.03(2) 0.050 Uiso 0.5 1 d D U P . .
H2 H 0.98(2) 0.52(2) 0.051(17) 0.050 Uiso 0.5 1 d D U P . .
H3 H 1.036(4) 0.336(9) 0.364(11) 0.050 Uiso 1 1 d D U . . .
loop_
_atom_site_aniso_label
_atom_site_aniso_U_11
_atom_site_aniso_U_22
_atom_site_aniso_U_33
_atom_site_aniso_U_23
_atom_site_aniso_U_13
_atom_site_aniso_U_12
Ba1 0.01056(17) 0.00715(16) 0.00733(16) 0.00279(10) 0.00162(10) 0.00145(10)
Fe1 0.0087(4) 0.0046(3) 0.0061(3) 0.0027(3) 0.0019(3) 0.0022(3)
Fe2 0.0080(3) 0.0047(3) 0.0050(3) 0.0020(3) 0.0017(3) 0.0014(3)
P1 0.0084(4) 0.0045(4) 0.0058(4) 0.0019(3) 0.0012(3) 0.0016(3)
P2 0.0087(4) 0.0051(4) 0.0060(4) 0.0024(3) 0.0010(4) 0.0022(3)
P3 0.0082(4) 0.0052(4) 0.0054(4) 0.0019(3) 0.0026(3) 0.0017(3)
O1 0.0092(12) 0.0064(12) 0.0050(11) -0.0001(10) -0.0001(10) 0.0019(10)
O2 0.0110(13) 0.0055(12) 0.0094(12) 0.0030(10) 0.0038(10) 0.0030(10)
O3 0.0089(12) 0.0078(13) 0.0079(12) 0.0013(10) 0.0000(10) 0.0009(10)
O4 0.0110(12) 0.0053(11) 0.0074(12) 0.0036(10) 0.0028(10) 0.0019(10)
O5 0.0098(12) 0.0091(12) 0.0086(12) 0.0018(10) -0.0006(10) 0.0016(10)
O6 0.0117(12) 0.0067(12) 0.0091(12) 0.0036(10) 0.0036(10) 0.0014(10)
O7 0.0123(13) 0.0075(12) 0.0070(12) 0.0037(10) 0.0006(10) 0.0031(10)
O8 0.0122(13) 0.0115(13) 0.0093(13) 0.0019(11) 0.0053(11) 0.0050(11)
O9 0.0114(13) 0.0046(12) 0.0087(12) 0.0024(10) 0.0012(10) 0.0017(10)
O10 0.0130(13) 0.0082(13) 0.0093(13) 0.0045(10) 0.0056(11) 0.0012(11)
O11 0.0092(13) 0.0139(14) 0.0116(13) 0.0064(11) 0.0013(11) 0.0036(11)
loop_
_atom_type_symbol
_atom_type_description
_atom_type_scat_dispersion_real
_atom_type_scat_dispersion_imag
_atom_type_scat_source
O O 0.0106 0.0060 'International Tables Vol C Tables 4.2.6.8 and 6.1.1.4'
P P 0.1023 0.0942 'International Tables Vol C Tables 4.2.6.8 and 6.1.1.4'
Fe Fe 0.3463 0.8444 'International Tables Vol C Tables 4.2.6.8 and 6.1.1.4'
Ba Ba -0.3244 2.2819 'International Tables Vol C Tables 4.2.6.8 and 6.1.1.4'
H H 0.0000 0.0000 'International Tables Vol C Tables 4.2.6.8 and 6.1.1.4'
loop_
_geom_angle_atom_site_label_1
_geom_angle_atom_site_label_2
_geom_angle_atom_site_label_3
_geom_angle
_geom_angle_site_symmetry_1
_geom_angle_site_symmetry_3
O11 Ba1 O5 68.19(8) . 1_655
O11 Ba1 O3 127.00(8) . 1_656
O5 Ba1 O3 67.91(8) 1_655 1_656
O11 Ba1 O10 71.30(8) . 2_766
O5 Ba1 O10 76.28(8) 1_655 2_766
O3 Ba1 O10 70.73(8) 1_656 2_766
O11 Ba1 O9 139.26(8) . 1_556
O5 Ba1 O9 130.32(8) 1_655 1_556
O3 Ba1 O9 63.50(8) 1_656 1_556
O10 Ba1 O9 78.73(8) 2_766 1_556
O11 Ba1 O2 160.24(8) . 2_656
O5 Ba1 O2 109.65(8) 1_655 2_656
O3 Ba1 O2 65.35(8) 1_656 2_656
O10 Ba1 O2 128.10(8) 2_766 2_656
O9 Ba1 O2 57.88(7) 1_556 2_656
O11 Ba1 O5 90.13(8) . 2_656
O5 Ba1 O5 61.56(10) 1_655 2_656
O3 Ba1 O5 94.00(8) 1_656 2_656
O10 Ba1 O5 137.78(8) 2_766 2_656
O9 Ba1 O5 130.32(7) 1_556 2_656
O2 Ba1 O5 72.59(8) 2_656 2_656
O11 Ba1 O7 71.72(8) . 2_656
O5 Ba1 O7 97.56(8) 1_655 2_656
O3 Ba1 O7 142.12(8) 1_656 2_656
O10 Ba1 O7 142.06(7) 2_766 2_656
O9 Ba1 O7 127.35(8) 1_556 2_656
O2 Ba1 O7 89.50(8) 2_656 2_656
O5 Ba1 O7 49.93(8) 2_656 2_656
O11 Ba1 O6 83.22(8) . .
O5 Ba1 O6 150.82(8) 1_655 .
O3 Ba1 O6 131.31(8) 1_656 .
O10 Ba1 O6 89.45(8) 2_766 .
O9 Ba1 O6 69.30(7) 1_556 .
O2 Ba1 O6 99.23(7) 2_656 .
O5 Ba1 O6 126.64(8) 2_656 .
O7 Ba1 O6 78.09(7) 2_656 .
O11 Ba1 O7 123.90(8) . .
O5 Ba1 O7 159.56(7) 1_655 .
O3 Ba1 O7 107.28(8) 1_656 .
O10 Ba1 O7 121.92(7) 2_766 .
O9 Ba1 O7 53.59(7) 1_556 .
O2 Ba1 O7 52.87(7) 2_656 .
O5 Ba1 O7 100.03(7) 2_656 .
O7 Ba1 O7 73.87(8) 2_656 .
O6 Ba1 O7 46.93(7) . .
O11 Ba1 P2 88.02(7) . 2_656
O5 Ba1 P2 84.26(6) 1_655 2_656
O3 Ba1 P2 115.31(6) 1_656 2_656
O10 Ba1 P2 155.63(6) 2_766 2_656
O9 Ba1 P2 125.52(6) 1_556 2_656
O2 Ba1 P2 72.25(6) 2_656 2_656
O5 Ba1 P2 25.62(6) 2_656 2_656
O7 Ba1 P2 26.83(5) 2_656 2_656
O6 Ba1 P2 101.06(5) . 2_656
O7 Ba1 P2 80.10(5) . 2_656
O11 Ba1 P2 104.63(6) . .
O5 Ba1 P2 172.36(6) 1_655 .
O3 Ba1 P2 119.61(6) 1_656 .
O10 Ba1 P2 104.35(6) 2_766 .
O9 Ba1 P2 56.80(6) 1_556 .
O2 Ba1 P2 76.14(6) 2_656 .
O5 Ba1 P2 117.13(6) 2_656 .
O7 Ba1 P2 77.20(6) 2_656 .
O6 Ba1 P2 23.11(5) . .
O7 Ba1 P2 24.07(5) . .
P2 Ba1 P2 93.03(2) 2_656 .
O2 Fe1 O2 180.0 2_655 .
O2 Fe1 O7 94.39(11) 2_655 2_656
O2 Fe1 O7 85.61(11) . 2_656
O2 Fe1 O7 85.61(11) 2_655 1_554
O2 Fe1 O7 94.39(11) . 1_554
O7 Fe1 O7 180.00(14) 2_656 1_554
O2 Fe1 O9 87.28(11) 2_655 .
O2 Fe1 O9 92.72(11) . .
O7 Fe1 O9 95.66(11) 2_656 .
O7 Fe1 O9 84.34(11) 1_554 .
O2 Fe1 O9 92.72(11) 2_655 2_655
O2 Fe1 O9 87.28(11) . 2_655
O7 Fe1 O9 84.34(11) 2_656 2_655
O7 Fe1 O9 95.66(11) 1_554 2_655
O9 Fe1 O9 180.0 . 2_655
O2 Fe1 Ba1 130.96(8) 2_655 2_656
O2 Fe1 Ba1 49.04(8) . 2_656
O7 Fe1 Ba1 57.71(8) 2_656 2_656
O7 Fe1 Ba1 122.29(8) 1_554 2_656
O9 Fe1 Ba1 130.73(7) . 2_656
O9 Fe1 Ba1 49.27(7) 2_655 2_656
O2 Fe1 Ba1 49.04(8) 2_655 1_554
O2 Fe1 Ba1 130.96(8) . 1_554
O7 Fe1 Ba1 122.29(8) 2_656 1_554
O7 Fe1 Ba1 57.71(8) 1_554 1_554
O9 Fe1 Ba1 49.27(7) . 1_554
O9 Fe1 Ba1 130.73(7) 2_655 1_554
Ba1 Fe1 Ba1 180.0 2_656 1_554
O8 Fe2 O8 180.00(10) . 2_666
O8 Fe2 O6 87.15(11) . .
O8 Fe2 O6 92.85(11) 2_666 .
O8 Fe2 O6 92.85(11) . 2_666
O8 Fe2 O6 87.15(11) 2_666 2_666
O6 Fe2 O6 180.0 . 2_666
O8 Fe2 O1 91.90(11) . .
O8 Fe2 O1 88.09(11) 2_666 .
O6 Fe2 O1 95.87(11) . .
O6 Fe2 O1 84.13(11) 2_666 .
O8 Fe2 O1 88.09(11) . 2_666
O8 Fe2 O1 91.91(11) 2_666 2_666
O6 Fe2 O1 84.13(11) . 2_666
O6 Fe2 O1 95.87(11) 2_666 2_666
O1 Fe2 O1 180.00(12) . 2_666
O1 P1 O2 112.72(15) . .
O1 P1 O3 110.66(15) . .
O2 P1 O3 109.56(15) . .
O1 P1 O4 108.67(15) . 1_554
O2 P1 O4 108.27(15) . 1_554
O3 P1 O4 106.75(15) . 1_554
O1 P1 H1 118(5) . .
O2 P1 H1 84(3) . .
O4 P1 H1 122(5) 1_554 .
O5 P2 O6 115.85(16) . .
O5 P2 O7 110.09(16) . .
O6 P2 O7 108.26(16) . .
O5 P2 O4 110.05(15) . .
O6 P2 O4 105.52(15) . .
O7 P2 O4 106.60(14) . .
O5 P2 Ba1 56.90(11) . 2_656
O6 P2 Ba1 104.84(11) . 2_656
O7 P2 Ba1 61.27(11) . 2_656
O4 P2 Ba1 149.57(10) . 2_656
O5 P2 Ba1 139.66(12) . .
O6 P2 Ba1 52.24(11) . .
O7 P2 Ba1 56.79(11) . .
O4 P2 Ba1 110.28(10) . .
Ba1 P2 Ba1 86.97(2) 2_656 .
O8 P3 O9 113.14(16) . .
O8 P3 O10 111.07(16) . .
O9 P3 O10 111.93(16) . .
O8 P3 O11 105.44(16) . .
O9 P3 O11 108.24(15) . .
O10 P3 O11 106.55(16) . .
P1 O1 Fe2 130.50(16) . .
P1 O2 Fe1 127.20(16) . .
P1 O2 Ba1 126.81(14) . 2_656
Fe1 O2 Ba1 99.87(10) . 2_656
P1 O3 Ba1 134.84(15) . 1_454
P1 O3 H1 99(10) . .
Ba1 O3 H1 118(10) 1_454 .
P1 O4 P2 124.62(17) 1_556 .
P2 O5 Ba1 133.92(15) . 1_455
P2 O5 Ba1 97.48(13) . 2_656
Ba1 O5 Ba1 118.44(10) 1_455 2_656
P2 O6 Fe2 129.35(17) . .
P2 O6 Ba1 104.66(13) . .
Fe2 O6 Ba1 125.86(11) . .
P2 O7 Fe1 127.02(16) . 1_556
P2 O7 Ba1 91.91(12) . 2_656
Fe1 O7 Ba1 135.42(12) 1_556 2_656
P2 O7 Ba1 99.14(12) . .
Fe1 O7 Ba1 89.82(9) 1_556 .
Ba1 O7 Ba1 106.13(8) 2_656 .
P3 O8 Fe2 175.1(2) . .
P3 O9 Fe1 136.75(16) . .
P3 O9 Ba1 124.48(14) . 1_554
Fe1 O9 Ba1 97.75(9) . 1_554
P3 O10 Ba1 136.03(15) . 2_766
P3 O10 H2 132(10) . .
Ba1 O10 H2 89(10) 2_766 .
P3 O11 Ba1 127.31(15) . .
P3 O11 H3 119(5) . .
Ba1 O11 H3 114(5) . .
loop_
_geom_bond_atom_site_label_1
_geom_bond_atom_site_label_2
_geom_bond_distance
_geom_bond_site_symmetry_2
Ba1 O11 2.714(3) .
Ba1 O5 2.760(3) 1_655
Ba1 O3 2.770(3) 1_656
Ba1 O10 2.827(3) 2_766
Ba1 O9 2.870(3) 1_556
Ba1 O2 2.877(3) 2_656
Ba1 O5 2.894(3) 2_656
Ba1 O7 3.005(3) 2_656
Ba1 O6 3.059(3) .
Ba1 O7 3.173(3) .
Ba1 P2 3.4252(11) 2_656
Fe1 O2 1.967(3) 2_655
Fe1 O2 1.967(3) .
Fe1 O7 2.015(3) 2_656
Fe1 O7 2.015(3) 1_554
Fe1 O9 2.062(3) .
Fe1 O9 2.062(3) 2_655
Fe2 O8 1.948(3) .
Fe2 O8 1.948(3) 2_666
Fe2 O6 2.017(3) .
Fe2 O6 2.017(3) 2_666
Fe2 O1 2.033(3) .
Fe2 O1 2.033(3) 2_666
P1 O1 1.512(3) .
P1 O2 1.525(3) .
P1 O3 1.531(3) .
P1 O4 1.588(3) 1_554
P1 H1 1.85(13) .
P2 O5 1.494(3) .
P2 O6 1.519(3) .
P2 O7 1.547(3) .
P2 O4 1.632(3) .
P2 Ba1 3.4252(11) 2_656
P3 O8 1.503(3) .
P3 O9 1.525(3) .
P3 O10 1.536(3) .
P3 O11 1.589(3) .
O2 Ba1 2.877(3) 2_656
O3 Ba1 2.770(3) 1_454
O3 H1 0.83(2) .
O4 P1 1.588(3) 1_556
O5 Ba1 2.760(3) 1_455
O5 Ba1 2.894(3) 2_656
O7 Fe1 2.015(3) 1_556
O7 Ba1 3.005(3) 2_656
O9 Ba1 2.870(3) 1_554
O10 Ba1 2.827(3) 2_766
O10 H2 0.82(2) .
O11 H3 0.81(2) .
loop_
_geom_hbond_atom_site_label_D
_geom_hbond_atom_site_label_H
_geom_hbond_atom_site_label_A
_geom_hbond_distance_DH
_geom_hbond_distance_HA
_geom_hbond_distance_DA
_geom_hbond_angle_DHA
_geom_hbond_site_symmetry_A
O3 H1 O3 0.83(2) 1.65(6) 2.433(5) 158(16) 2
O10 H2 O10 0.82(2) 1.61(4) 2.416(5) 169(19) 2_765
O11 H3 O1 0.81(2) 1.97(3) 2.763(4) 167(7) 1_655
