#------------------------------------------------------------------------------
#$Date: 2021-04-23 12:11:27 +0300 (Fri, 23 Apr 2021) $
#$Revision: 264464 $
#$URL: file:///home/coder/svn-repositories/cod/cif/1/56/20/1562034.cif $
#------------------------------------------------------------------------------
#
# This file is available in the Crystallography Open Database (COD),
# http://www.crystallography.net/
#
# All data on this site have been placed in the public domain by the
# contributors.
#
data_1562034
loop_
_publ_author_name
'Egorysheva, A.V.'
'Ellert, O.G.'
'Gajtko, O.M.'
'Efimov, N.N.'
'Svetogorov, R.D.'
'Zubavichus, Y.V.'
'Grigorieva, A.V.'
_publ_section_title
;
 The Bi2O3--Fe2O3--Sb2O5 system phase diagram refinement, Bi3FeSb2O11
 structure peculiarities and magnetic properties
;
_journal_name_full               'Journal of Solid State Chemistry'
_journal_page_first              278
_journal_page_last               284
_journal_paper_doi               10.1016/j.jssc.2014.12.032
_journal_volume                  225
_journal_year                    2015
_chemical_absolute_configuration .
_chemical_formula_sum            'Bi3 Fe O11 Sb2'
_chemical_formula_weight         1102.3
_space_group_IT_number           201
_space_group_name_Hall           '-P 2ab 2bc 3'
_space_group_name_H-M_alt        'P n -3 :2'
_symmetry_cell_setting           cubic
_symmetry_Int_Tables_number      201
_symmetry_space_group_name_Hall  '-P 2ab 2bc 3'
_symmetry_space_group_name_H-M   'P n -3 :2'
_cell_angle_alpha                90
_cell_angle_beta                 90
_cell_angle_gamma                90
_cell_formula_units_Z            4
_cell_length_a                   9.51521(2)
_cell_length_b                   9.51521(2)
_cell_length_c                   9.51521(2)
_cell_measurement_temperature    293
_cell_volume                     861.500(3)
_diffrn_ambient_temperature      293
_diffrn_radiation_probe          x-ray
_diffrn_radiation_wavelength     0.68886
_exptl_absorpt_coefficient_mu    63.477
_exptl_crystal_density_diffrn    8.4958
_exptl_crystal_F_000             1860
_pd_instr_location               ' ?'
_pd_meas_2theta_range_inc        0.01
_pd_meas_2theta_range_max        52.157
_pd_meas_2theta_range_min        0.005
_pd_meas_number_of_points        5000
_pd_proc_2theta_range_inc        0.01
_pd_proc_2theta_range_max        49.997
_pd_proc_2theta_range_min        3.01
_pd_proc_ls_background_function  '12 Chebyshev polynoms'
_pd_proc_ls_pref_orient_corr     none
_pd_proc_ls_profile_function     Pseudo-Voigt
_pd_proc_ls_prof_R_factor        0.0143
_pd_proc_ls_prof_wR_expected     0.1793
_pd_proc_ls_prof_wR_factor       0.0234
_refine_ls_goodness_of_fit_all   0.13
_refine_ls_number_constraints    6
_refine_ls_number_parameters     39
_refine_ls_number_restraints     0
_refine_ls_R_factor_all          0.0310
_refine_ls_R_factor_gt           0.0269
_refine_ls_shift/su_max          0.0196
_refine_ls_shift/su_mean         0.0040
_refine_ls_weighting_scheme      sigma
_refine_ls_wR_factor_all         0.0349
_refine_ls_wR_factor_gt          0.0321
_cod_data_source_file            JSSC-2015-225-278.cif
_cod_data_source_block           I
_cod_depositor_comments
;
The following automatic conversions were performed:

data item '_diffrn_radiation_probe' value 'X-ray' was changed to
'x-ray' in accordance with the built-in table derived from the CIF
Core dictionary named 'cif_core.dic' version 2.4.5 last updated on
2014-11-21.

Automatic conversion script
Id: cif_fix_values 8369 2020-08-20 11:38:08Z andrius 
;
_cod_original_sg_symbol_Hall     '-P 2ab;2bc;3'
_cod_original_sg_symbol_H-M      'P n -3'
_cod_original_formula_sum        'Bi3 Fe1 O11 Sb2'
_cod_database_code               1562034
loop_
_symmetry_equiv_pos_site_id
_symmetry_equiv_pos_as_xyz
1 x,y,z
2 -x+1/2,-y+1/2,z
3 -x+1/2,y,-z+1/2
4 x,-y+1/2,-z+1/2
5 z,x,y
6 z,-x+1/2,-y+1/2
7 -z+1/2,-x+1/2,y
8 -z+1/2,x,-y+1/2
9 y,z,x
10 -y+1/2,z,-x+1/2
11 y,-z+1/2,-x+1/2
12 -y+1/2,-z+1/2,x
13 -x,-y,-z
14 x+1/2,y+1/2,-z
15 x+1/2,-y,z+1/2
16 -x,y+1/2,z+1/2
17 -z,-x,-y
18 -z,x+1/2,y+1/2
19 z+1/2,x+1/2,-y
20 z+1/2,-x,y+1/2
21 -y,-z,-x
22 y+1/2,-z,x+1/2
23 -y,z+1/2,x+1/2
24 y+1/2,z+1/2,-x
loop_
_atom_site_label
_atom_site_type_symbol
_atom_site_fract_x
_atom_site_fract_y
_atom_site_fract_z
_atom_site_adp_type
_atom_site_U_iso_or_equiv
_atom_site_symmetry_multiplicity
_atom_site_occupancy
_atom_site_calc_flag
_atom_site_refinement_flags
_atom_site_disorder_assembly
_atom_site_disorder_group
Bi1 Bi 0.4051(4) 0.3684(2) 0.3684(2) Uani 0.0133(15) 24 0.3333 d . . .
Bi2 Bi 0 0 0 Uani 0.02365(17) 4 1 d . . .
Fe1 Fe 0.59264(14) 0.75 0.25 Uani 0.0041(6) 12 0.3333 d . . .
Sb1 Sb 0.59264(14) 0.75 0.25 Uani 0.0041(6) 12 0.6667 d . . .
O1 O 0.1446(7) 0.1446(7) 0.1446(7) Uiso 0.007(3) 8 1 d . . .
O2 O 0.6113(9) 0.25 0.25 Uiso 0.004(2) 12 1 d . . .
O3 O 0.5891(7) 0.5415(9) 0.2471(6) Uiso 0.004(2) 24 1 d . . .
loop_
_atom_site_aniso_label
_atom_site_aniso_type_symbol
_atom_site_aniso_U_11
_atom_site_aniso_U_22
_atom_site_aniso_U_33
_atom_site_aniso_U_12
_atom_site_aniso_U_13
_atom_site_aniso_U_23
Bi1 Bi 0.026(2) 0.003(2) 0.011(3) -0.0028(18) -0.0001(17) -0.0021(9)
Bi2 Bi 0.0237(3) 0.0237(3) 0.0237(3) -0.0013(5) -0.0013(5) -0.0013(5)
Fe1 Fe 0.0024(10) 0.0040(12) 0.0059(11) 0 0 0.0013(8)
Sb1 Sb 0.0024(10) 0.0040(12) 0.0059(11) 0 0 0.0013(8)
loop_
_atom_type_symbol
_atom_type_scat_dispersion_real
_atom_type_scat_dispersion_imag
_atom_type_scat_source
Bi -3.4531 10.1639 'International Tables Vol C tables 4.2.6.8 and 6.1.1.1'
Fe 0.3436 0.8062 'International Tables Vol C tables 4.2.6.8 and 6.1.1.1'
O 0.0106 0.0058 'International Tables Vol C tables 4.2.6.8 and 6.1.1.1'
Sb -0.6168 1.4865 'International Tables Vol C tables 4.2.6.8 and 6.1.1.1'
loop_
_geom_angle_atom_site_label_1
_geom_angle_atom_site_label_2
_geom_angle_atom_site_label_3
_geom_angle_site_symmetry_1
_geom_angle_site_symmetry_2
_geom_angle_site_symmetry_3
_geom_angle
Bi1 Bi1 Bi1 2_555 . 3_555 50.82(6)
Bi1 Bi1 Bi1 2_555 . 4_555 64.59(8)
Bi1 Bi1 Bi1 2_555 . 5_555 82.4(5)
Bi1 Bi1 Bi1 2_555 . 6_555 57.55(6)
Bi1 Bi1 Bi1 2_555 . 7_555 7.64(6)
Bi1 Bi1 Bi1 2_555 . 8_555 57.55(8)
Bi1 Bi1 Bi1 2_555 . 9_555 55.8(4)
Bi1 Bi1 Bi1 2_555 . 10_555 55.80(7)
Bi1 Bi1 Bi1 2_555 . 11_555 61.62(6)
Bi1 Bi1 Bi1 2_555 . 12_555 6.78(6)
Bi1 Bi1 O1 2_555 . 2_555 78.09(18)
Bi1 Bi1 O1 2_555 . 3_555 40.23(18)
Bi1 Bi1 Bi1 3_555 . 4_555 64.59(8)
Bi1 Bi1 Bi1 3_555 . 5_555 55.8(4)
Bi1 Bi1 Bi1 3_555 . 6_555 61.62(6)
Bi1 Bi1 Bi1 3_555 . 7_555 55.80(7)
Bi1 Bi1 Bi1 3_555 . 8_555 6.78(6)
Bi1 Bi1 Bi1 3_555 . 9_555 82.4(5)
Bi1 Bi1 Bi1 3_555 . 10_555 7.64(6)
Bi1 Bi1 Bi1 3_555 . 11_555 57.55(6)
Bi1 Bi1 Bi1 3_555 . 12_555 57.55(8)
Bi1 Bi1 O1 3_555 . 2_555 40.23(18)
Bi1 Bi1 O1 3_555 . 3_555 78.09(18)
Bi1 Bi1 Bi1 4_555 . 5_555 120.0(4)
Bi1 Bi1 Bi1 4_555 . 6_555 7.10(6)
Bi1 Bi1 Bi1 4_555 . 7_555 60.00(7)
Bi1 Bi1 Bi1 4_555 . 8_555 67.10(8)
Bi1 Bi1 Bi1 4_555 . 9_555 120.0(4)
Bi1 Bi1 Bi1 4_555 . 10_555 60.00(7)
Bi1 Bi1 Bi1 4_555 . 11_555 7.10(6)
Bi1 Bi1 Bi1 4_555 . 12_555 67.10(8)
Bi1 Bi1 O1 4_555 . 2_555 43.18(17)
Bi1 Bi1 O1 4_555 . 3_555 43.18(17)
Bi1 Bi1 Bi1 5_555 . 6_555 117.4(4)
Bi1 Bi1 Bi1 5_555 . 7_555 90.0(5)
Bi1 Bi1 Bi1 5_555 . 8_555 52.9(4)
Bi1 Bi1 Bi1 5_555 . 9_555 60.0(5)
Bi1 Bi1 Bi1 5_555 . 10_555 60.0(4)
Bi1 Bi1 Bi1 5_555 . 11_555 112.9(4)
Bi1 Bi1 Bi1 5_555 . 12_555 85.9(5)
Bi1 Bi1 O1 5_555 . 2_555 83.5(4)
Bi1 Bi1 O1 5_555 . 3_555 122.4(5)
Bi1 Bi1 Bi1 6_555 . 7_555 52.90(6)
Bi1 Bi1 Bi1 6_555 . 8_555 64.91(8)
Bi1 Bi1 Bi1 6_555 . 9_555 112.9(4)
Bi1 Bi1 Bi1 6_555 . 10_555 57.87(6)
Bi1 Bi1 Bi1 6_555 . 11_555 8.18(6)
Bi1 Bi1 Bi1 6_555 . 12_555 60.00(7)
Bi1 Bi1 O1 6_555 . 2_555 45.64(17)
Bi1 Bi1 O1 6_555 . 3_555 37.65(17)
Bi1 Bi1 Bi1 7_555 . 8_555 62.58(8)
Bi1 Bi1 Bi1 7_555 . 9_555 60.0(4)
Bi1 Bi1 Bi1 7_555 . 10_555 60.00(7)
Bi1 Bi1 Bi1 7_555 . 11_555 57.87(6)
Bi1 Bi1 Bi1 7_555 . 12_555 7.10(6)
Bi1 Bi1 O1 7_555 . 2_555 78.87(18)
Bi1 Bi1 O1 7_555 . 3_555 32.62(18)
Bi1 Bi1 Bi1 8_555 . 9_555 85.9(5)
Bi1 Bi1 Bi1 8_555 . 10_555 7.10(6)
Bi1 Bi1 Bi1 8_555 . 11_555 60.00(7)
Bi1 Bi1 Bi1 8_555 . 12_555 64.26(9)
Bi1 Bi1 O1 8_555 . 2_555 37.65(17)
Bi1 Bi1 O1 8_555 . 3_555 84.19(19)
Bi1 Bi1 Bi1 9_555 . 10_555 90.0(5)
Bi1 Bi1 Bi1 9_555 . 11_555 117.4(4)
Bi1 Bi1 Bi1 9_555 . 12_555 52.9(4)
Bi1 Bi1 O1 9_555 . 2_555 122.4(5)
Bi1 Bi1 O1 9_555 . 3_555 83.5(4)
Bi1 Bi1 Bi1 10_555 . 11_555 52.90(6)
Bi1 Bi1 Bi1 10_555 . 12_555 62.58(8)
Bi1 Bi1 O1 10_555 . 2_555 32.62(18)
Bi1 Bi1 O1 10_555 . 3_555 78.87(18)
Bi1 Bi1 Bi1 11_555 . 12_555 64.91(8)
Bi1 Bi1 O1 11_555 . 2_555 37.65(17)
Bi1 Bi1 O1 11_555 . 3_555 45.64(17)
Bi1 Bi1 O1 12_555 . 2_555 84.19(19)
Bi1 Bi1 O1 12_555 . 3_555 37.65(17)
O1 Bi1 O1 2_555 . 3_555 81.0(2)
O1 Bi2 O1 . . 13_555 180.0(5)
Sb1 Fe1 O2 . . 21_666 0
Sb1 Fe1 O2 . . 22_564 0
Sb1 Fe1 O3 . . . 0
Sb1 Fe1 O3 . . 4_565 0
Sb1 Fe1 O3 . . 21_666 0
Sb1 Fe1 O3 . . 23_654 0
O2 Fe1 O2 21_666 . 22_564 82.8(3)
O2 Fe1 O3 21_666 . . 91.25(18)
O2 Fe1 O3 21_666 . 4_565 90.20(18)
O2 Fe1 O3 21_666 . 21_666 88.4(3)
O2 Fe1 O3 21_666 . 23_654 171.2(3)
O2 Fe1 O3 22_564 . . 90.20(18)
O2 Fe1 O3 22_564 . 4_565 91.25(18)
O2 Fe1 O3 22_564 . 21_666 171.2(3)
O2 Fe1 O3 22_564 . 23_654 88.4(3)
O3 Fe1 O3 . . 4_565 178.1(3)
O3 Fe1 O3 . . 21_666 90.8(3)
O3 Fe1 O3 . . 23_654 88.0(3)
O3 Fe1 O3 4_565 . 21_666 88.0(3)
O3 Fe1 O3 4_565 . 23_654 90.8(3)
O3 Fe1 O3 21_666 . 23_654 100.4(3)
Fe1 Sb1 O2 . . 21_666 0
Fe1 Sb1 O2 . . 22_564 0
Fe1 Sb1 O3 . . . 0
Fe1 Sb1 O3 . . 4_565 0
Fe1 Sb1 O3 . . 21_666 0
Fe1 Sb1 O3 . . 23_654 0
O2 Sb1 O2 21_666 . 22_564 82.8(3)
O2 Sb1 O3 21_666 . . 91.25(18)
O2 Sb1 O3 21_666 . 4_565 90.20(18)
O2 Sb1 O3 21_666 . 21_666 88.4(3)
O2 Sb1 O3 21_666 . 23_654 171.2(3)
O2 Sb1 O3 22_564 . . 90.20(18)
O2 Sb1 O3 22_564 . 4_565 91.25(18)
O2 Sb1 O3 22_564 . 21_666 171.2(3)
O2 Sb1 O3 22_564 . 23_654 88.4(3)
O3 Sb1 O3 . . 4_565 178.1(3)
O3 Sb1 O3 . . 21_666 90.8(3)
O3 Sb1 O3 . . 23_654 88.0(3)
O3 Sb1 O3 4_565 . 21_666 88.0(3)
O3 Sb1 O3 4_565 . 23_654 90.8(3)
O3 Sb1 O3 21_666 . 23_654 100.4(3)
Bi1 O1 Bi1 2_555 . 3_555 93.6(2)
Bi1 O1 Bi1 2_555 . 6_555 104.7(3)
Bi1 O1 Bi1 2_555 . 7_555 12.98(11)
Bi1 O1 Bi1 2_555 . 10_555 104.7(3)
Bi1 O1 Bi1 2_555 . 11_555 114.8(3)
Bi1 O1 Bi2 2_555 . . 113.9(3)
Bi1 O1 Bi1 3_555 . 6_555 114.8(3)
Bi1 O1 Bi1 3_555 . 7_555 104.7(3)
Bi1 O1 Bi1 3_555 . 10_555 12.98(11)
Bi1 O1 Bi1 3_555 . 11_555 104.7(3)
Bi1 O1 Bi2 3_555 . . 113.9(3)
Bi1 O1 Bi1 6_555 . 7_555 93.6(2)
Bi1 O1 Bi1 6_555 . 10_555 104.7(3)
Bi1 O1 Bi1 6_555 . 11_555 12.98(11)
Bi1 O1 Bi2 6_555 . . 113.9(3)
Bi1 O1 Bi1 7_555 . 10_555 114.8(3)
Bi1 O1 Bi1 7_555 . 11_555 104.7(3)
Bi1 O1 Bi2 7_555 . . 113.9(3)
Bi1 O1 Bi1 10_555 . 11_555 93.6(2)
Bi1 O1 Bi2 10_555 . . 113.9(3)
Bi1 O1 Bi2 11_555 . . 113.9(3)
Fe1 O2 Fe1 17_666 . 18_644 97.2(4)
Fe1 O2 Sb1 17_666 . 17_666 0.0(5)
Fe1 O2 Sb1 17_666 . 18_644 97.2(4)
Fe1 O2 Sb1 18_644 . 17_666 97.2(4)
Fe1 O2 Sb1 18_644 . 18_644 0.0(5)
Sb1 O2 Sb1 17_666 . 18_644 97.2(4)
Fe1 O3 Fe1 . . 17_666 128.8(4)
Fe1 O3 Sb1 . . . 0.0(5)
Fe1 O3 Sb1 . . 17_666 128.8(4)
Fe1 O3 Sb1 17_666 . . 128.8(4)
Fe1 O3 Sb1 17_666 . 17_666 0.0(5)
Sb1 O3 Sb1 . . 17_666 128.8(4)
loop_
_geom_bond_atom_site_label_1
_geom_bond_atom_site_label_2
_geom_bond_site_symmetry_1
_geom_bond_site_symmetry_2
_geom_bond_distance
Bi1 Bi1 . 2_555 3.713(4)
Bi1 Bi1 . 3_555 3.713(4)
Bi1 Bi1 . 4_555 3.186(3)
Bi1 Bi1 . 5_555 0.494(4)
Bi1 Bi1 . 6_555 3.460(3)
Bi1 Bi1 . 7_555 3.680(4)
Bi1 Bi1 . 8_555 3.460(3)
Bi1 Bi1 . 9_555 0.494(4)
Bi1 Bi1 . 10_555 3.680(4)
Bi1 Bi1 . 11_555 3.460(3)
Bi1 Bi1 . 12_555 3.460(3)
Bi1 O1 . 2_555 2.185(7)
Bi1 O1 . 3_555 2.185(7)
Bi2 O1 . . 2.383(6)
Bi2 O1 . 13_555 2.383(6)
Fe1 Sb1 . . 0
Fe1 O2 . 21_666 1.996(6)
Fe1 O2 . 22_564 1.996(6)
Fe1 O3 . . 1.984(9)
Fe1 O3 . 4_565 1.984(9)
Fe1 O3 . 21_666 1.993(7)
Fe1 O3 . 23_654 1.993(7)
Sb1 O2 . 21_666 1.996(6)
Sb1 O2 . 22_564 1.996(6)
Sb1 O3 . . 1.984(9)
Sb1 O3 . 4_565 1.984(9)
Sb1 O3 . 21_666 1.993(7)
Sb1 O3 . 23_654 1.993(7)
loop_
_pd_proc_point_id
_pd_proc_2theta_corrected
_pd_proc_intensity_net
_pd_calc_intensity_net
_pd_proc_ls_weight
1 3.0097 77.63 77.37 8.81
2 3.0202 77.68 77.14 8.81
3 3.0306 77.79 76.91 8.82
4 3.0410 77.98 76.67 8.83
5 3.0515 77.77 76.44 8.82
6 3.0619 77.36 76.21 8.80
7 3.0723 77.26 75.98 8.79
8 3.0828 76.84 75.75 8.77
9 3.0932 76.63 75.53 8.75
10 3.1036 75.24 75.30 8.67
11 3.1141 74.41 75.08 8.63
12 3.1245 73.68 74.85 8.58
13 3.1349 74.11 74.63 8.61
14 3.1454 74.19 74.41 8.61
15 3.1558 74.53 74.19 8.63
16 3.1662 74.40 73.97 8.63
17 3.1767 74.16 73.76 8.61
18 3.1871 73.86 73.54 8.59
19 3.1975 73.48 73.32 8.57
20 3.2080 73.18 73.11 8.55
21 3.2184 72.99 72.90 8.54
22 3.2288 72.90 72.68 8.54
23 3.2392 72.49 72.47 8.51
24 3.2497 72.21 72.26 8.50
25 3.2601 71.64 72.06 8.46
26 3.2706 71.70 71.85 8.47
27 3.2810 71.67 71.64 8.47
28 3.2914 71.77 71.44 8.47
29 3.3019 71.65 71.23 8.46
30 3.3123 71.73 71.03 8.47
31 3.3227 71.87 70.83 8.48
32 3.3331 71.46 70.63 8.45
33 3.3436 71.39 70.42 8.45
34 3.3540 70.84 70.23 8.42
35 3.3644 70.78 70.03 8.41
36 3.3749 70.00 69.83 8.37
37 3.3853 69.69 69.63 8.35
38 3.3957 69.45 69.44 8.33
39 3.4062 68.94 69.25 8.30
40 3.4166 68.52 69.05 8.28
41 3.4270 68.18 68.86 8.26
42 3.4375 68.42 68.67 8.27
43 3.4479 68.54 68.48 8.28
44 3.4583 68.40 68.29 8.27
45 3.4688 68.59 68.10 8.28
46 3.4792 68.40 67.92 8.27
47 3.4896 68.07 67.73 8.25
48 3.5001 67.52 67.55 8.22
49 3.5105 66.73 67.36 8.17
50 3.5209 66.82 67.18 8.17
51 3.5314 66.63 67.00 8.16
52 3.5418 67.14 66.82 8.19
53 3.5522 67.17 66.63 8.20
54 3.5627 66.98 66.46 8.18
55 3.5731 66.74 66.28 8.17
56 3.5835 66.28 66.10 8.14
57 3.5940 66.02 65.92 8.13
58 3.6044 66.01 65.75 8.12
59 3.6148 65.79 65.57 8.11
60 3.6253 65.51 65.40 8.09
61 3.6357 65.28 65.23 8.08
62 3.6461 65.04 65.06 8.06
63 3.6565 65.22 64.88 8.08
64 3.6670 64.74 64.71 8.05
65 3.6774 64.37 64.55 8.02
66 3.6878 64.08 64.38 8.00
67 3.6983 64.21 64.21 8.01
68 3.7087 64.10 64.04 8.01
69 3.7191 64.26 63.88 8.02
70 3.7296 64.33 63.71 8.02
71 3.7400 64.34 63.55 8.02
72 3.7504 64.14 63.39 8.01
73 3.7609 62.92 63.22 7.93
74 3.7713 62.37 63.06 7.90
75 3.7817 61.69 62.90 7.85
76 3.7922 62.18 62.74 7.89
77 3.8026 62.51 62.58 7.91
78 3.8130 62.68 62.43 7.92
79 3.8235 62.33 62.27 7.90
80 3.8339 61.84 62.11 7.86
81 3.8443 61.42 61.96 7.84
82 3.8548 61.11 61.80 7.82
83 3.8652 61.03 61.65 7.81
84 3.8756 60.90 61.50 7.80
85 3.8861 60.81 61.35 7.80
86 3.8965 60.94 61.19 7.81
87 3.9069 60.70 61.04 7.79
88 3.9174 60.42 60.89 7.77
89 3.9278 60.26 60.75 7.76
90 3.9382 60.19 60.60 7.76
91 3.9486 60.45 60.45 7.78
92 3.9591 60.17 60.30 7.76
93 3.9695 60.17 60.16 7.76
94 3.9799 59.97 60.01 7.74
95 3.9904 59.53 59.87 7.72
96 4.0008 58.85 59.73 7.67
97 4.0113 58.34 59.58 7.64
98 4.0217 58.11 59.44 7.62
99 4.0321 58.40 59.30 7.64
100 4.0426 58.29 59.16 7.63
101 4.0530 58.37 59.02 7.64
102 4.0634 58.35 58.88 7.64
103 4.0738 58.44 58.74 7.64
104 4.0843 58.38 58.61 7.64
105 4.0947 57.97 58.47 7.61
106 4.1051 57.65 58.34 7.59
107 4.1156 57.40 58.20 7.58
108 4.1260 57.29 58.07 7.57
109 4.1364 57.34 57.93 7.57
110 4.1469 57.53 57.80 7.58
111 4.1573 57.71 57.67 7.60
112 4.1677 57.73 57.54 7.60
113 4.1782 57.31 57.40 7.57
114 4.1886 56.90 57.27 7.54
115 4.1990 56.66 57.15 7.53
116 4.2095 56.30 57.02 7.50
117 4.2199 56.07 56.89 7.49
118 4.2303 55.68 56.76 7.46
119 4.2408 55.68 56.63 7.46
120 4.2512 56.23 56.51 7.50
121 4.2616 55.98 56.38 7.48
122 4.2721 56.13 56.26 7.49
123 4.2825 55.52 56.14 7.45
124 4.2929 55.46 56.01 7.45
125 4.3034 55.45 55.89 7.45
126 4.3138 55.14 55.77 7.43
127 4.3242 55.54 55.65 7.45
128 4.3347 55.17 55.53 7.43
129 4.3451 55.30 55.41 7.44
130 4.3555 55.07 55.29 7.42
131 4.3660 55.23 55.17 7.43
132 4.3764 54.97 55.05 7.41
133 4.3868 55.05 54.93 7.42
134 4.3973 54.78 54.82 7.40
135 4.4077 54.73 54.70 7.40
136 4.4181 54.05 54.58 7.35
137 4.4285 53.60 54.47 7.32
138 4.4390 53.54 54.36 7.32
139 4.4494 53.60 54.24 7.32
140 4.4598 53.74 54.13 7.33
141 4.4703 53.53 54.02 7.32
142 4.4807 53.47 53.90 7.31
143 4.4911 53.22 53.79 7.30
144 4.5016 53.21 53.68 7.29
145 4.5120 53.16 53.57 7.29
146 4.5224 53.22 53.46 7.30
147 4.5329 53.24 53.36 7.30
148 4.5433 53.32 53.25 7.30
149 4.5537 53.37 53.14 7.31
150 4.5642 53.16 53.03 7.29
151 4.5746 52.68 52.93 7.26
152 4.5850 52.31 52.82 7.23
153 4.5955 52.41 52.72 7.24
154 4.6059 52.62 52.61 7.25
155 4.6163 52.69 52.51 7.26
156 4.6268 52.30 52.40 7.23
157 4.6372 52.35 52.30 7.24
158 4.6476 52.14 52.20 7.22
159 4.6581 52.29 52.10 7.23
160 4.6685 51.71 51.99 7.19
161 4.6789 51.74 51.89 7.19
162 4.6894 51.35 51.79 7.17
163 4.6998 51.43 51.69 7.17
164 4.7102 51.49 51.59 7.18
165 4.7207 51.61 51.50 7.18
166 4.7311 51.71 51.40 7.19
167 4.7415 51.49 51.30 7.18
168 4.7519 51.34 51.20 7.17
169 4.7624 51.12 51.11 7.15
170 4.7728 50.80 51.01 7.13
171 4.7832 50.59 50.91 7.11
172 4.7937 50.63 50.82 7.12
173 4.8041 50.56 50.73 7.11
174 4.8145 50.77 50.63 7.13
175 4.8250 50.77 50.54 7.13
176 4.8354 50.85 50.45 7.13
177 4.8458 50.70 50.35 7.12
178 4.8563 50.47 50.26 7.10
179 4.8667 50.09 50.17 7.08
180 4.8771 49.89 50.08 7.06
181 4.8876 49.88 49.99 7.06
182 4.8980 50.00 49.90 7.07
183 4.9084 49.93 49.81 7.07
184 4.9189 49.71 49.72 7.05
185 4.9293 49.70 49.63 7.05
186 4.9397 49.81 49.54 7.06
187 4.9502 49.87 49.46 7.06
188 4.9606 49.62 49.37 7.04
189 4.9710 49.24 49.28 7.02
190 4.9815 48.92 49.20 6.99
191 4.9919 48.50 49.11 6.96
192 5.0023 48.39 49.03 6.96
193 5.0128 48.44 48.94 6.96
194 5.0232 48.87 48.86 6.99
195 5.0336 49.18 48.77 7.01
196 5.0441 49.26 48.69 7.02
197 5.0545 49.25 48.61 7.02
198 5.0649 48.76 48.52 6.98
199 5.0753 48.54 48.44 6.97
200 5.0858 48.40 48.36 6.96
201 5.0962 48.67 48.28 6.98
202 5.1066 48.95 48.20 7.00
203 5.1171 48.87 48.12 6.99
204 5.1275 48.48 48.04 6.96
205 5.1379 47.95 47.96 6.92
206 5.1484 47.46 47.88 6.89
207 5.1588 47.48 47.80 6.89
208 5.1692 47.43 47.72 6.89
209 5.1797 47.61 47.65 6.90
210 5.1901 47.48 47.57 6.89
211 5.2005 47.46 47.49 6.89
212 5.2110 47.38 47.41 6.88
213 5.2214 47.47 47.34 6.89
214 5.2318 47.57 47.26 6.90
215 5.2423 47.45 47.19 6.89
216 5.2527 47.41 47.11 6.89
217 5.2631 47.37 47.04 6.88
218 5.2736 47.71 46.96 6.91
219 5.2840 47.76 46.89 6.91
220 5.2944 47.51 46.82 6.89
221 5.3049 47.23 46.74 6.87
222 5.3153 46.88 46.67 6.85
223 5.3257 46.91 46.60 6.85
224 5.3362 46.63 46.55 6.83
225 5.3466 46.21 46.48 6.80
226 5.3570 46.20 46.41 6.80
227 5.3675 46.21 46.34 6.80
228 5.3779 46.45 46.27 6.82
229 5.3883 46.30 46.20 6.80
230 5.3988 45.99 46.13 6.78
231 5.4092 46.04 46.06 6.79
232 5.4196 46.12 46.00 6.79
233 5.4300 46.24 45.93 6.80
234 5.4405 46.09 45.86 6.79
235 5.4509 46.13 45.80 6.79
236 5.4613 46.15 45.73 6.79
237 5.4718 46.14 45.67 6.79
238 5.4822 45.76 45.60 6.76
239 5.4927 45.44 45.54 6.74
240 5.5031 45.21 45.47 6.72
241 5.5135 45.14 45.41 6.72
242 5.5239 45.15 45.35 6.72
243 5.5344 45.41 45.29 6.74
244 5.5448 45.56 45.23 6.75
245 5.5552 45.35 45.17 6.73
246 5.5657 45.22 45.11 6.72
247 5.5761 44.89 45.05 6.70
248 5.5865 44.74 44.99 6.69
249 5.5970 44.55 44.93 6.67
250 5.6074 44.66 44.88 6.68
251 5.6178 45.04 44.82 6.71
252 5.6283 45.04 44.77 6.71
253 5.6387 44.87 44.72 6.70
254 5.6491 44.79 44.66 6.69
255 5.6596 44.74 44.62 6.69
256 5.6700 44.99 44.57 6.71
257 5.6804 44.88 44.53 6.70
258 5.6909 44.88 44.48 6.70
259 5.7013 44.60 44.45 6.68
260 5.7117 44.41 44.41 6.66
261 5.7222 44.45 44.39 6.67
262 5.7326 44.60 44.37 6.68
263 5.7430 44.69 44.36 6.69
264 5.7535 44.78 44.37 6.69
265 5.7639 44.81 44.43 6.69
266 5.7743 44.88 44.60 6.70
267 5.7847 44.98 45.06 6.71
268 5.7952 45.69 46.14 6.76
269 5.8056 47.99 48.44 6.93
270 5.8161 52.76 52.71 7.26
271 5.8265 60.49 59.49 7.78
272 5.8369 70.68 68.58 8.41
273 5.8474 80.64 78.52 8.98
274 5.8578 87.21 86.64 9.34
275 5.8682 89.40 89.99 9.46
276 5.8786 86.75 87.07 9.31
277 5.8891 79.33 79.13 8.91
278 5.8995 69.13 69.13 8.31
279 5.9099 59.79 59.78 7.73
280 5.9204 53.06 52.66 7.28
281 5.9308 48.71 48.08 6.98
282 5.9412 46.29 45.52 6.80
283 5.9517 44.73 44.25 6.69
284 5.9621 44.11 43.65 6.64
285 5.9725 43.59 43.35 6.60
286 5.9830 43.29 43.18 6.58
287 5.9934 43.02 43.05 6.56
288 6.0038 42.99 42.95 6.56
289 6.0143 43.17 42.85 6.57
290 6.0247 43.36 42.77 6.58
291 6.0351 43.39 42.69 6.59
292 6.0456 43.25 42.62 6.58
293 6.0560 42.85 42.55 6.55
294 6.0664 42.70 42.48 6.53
295 6.0769 42.63 42.42 6.53
296 6.0873 42.88 42.36 6.55
297 6.0977 42.85 42.30 6.55
298 6.1082 42.57 42.24 6.52
299 6.1186 42.24 42.18 6.50
300 6.1290 42.06 42.13 6.49
301 6.1395 42.18 42.07 6.49
302 6.1499 42.36 42.02 6.51
303 6.1603 42.28 41.97 6.50
304 6.1708 42.17 41.91 6.49
305 6.1812 41.96 41.86 6.48
306 6.1916 41.90 41.81 6.47
307 6.2021 41.60 41.76 6.45
308 6.2125 41.44 41.71 6.44
309 6.2229 41.45 41.66 6.44
310 6.2333 41.75 41.61 6.46
311 6.2438 41.83 41.57 6.47
312 6.2542 41.53 41.52 6.44
313 6.2646 41.31 41.47 6.43
314 6.2751 41.33 41.42 6.43
315 6.2855 41.39 41.38 6.43
316 6.2959 41.32 41.33 6.43
317 6.3064 41.01 41.28 6.40
318 6.3168 40.85 41.24 6.39
319 6.3272 40.59 41.19 6.37
320 6.3377 40.49 41.15 6.36
321 6.3481 40.52 41.10 6.37
322 6.3585 40.67 41.06 6.38
323 6.3690 40.86 41.01 6.39
324 6.3794 40.82 40.97 6.39
325 6.3898 40.80 40.92 6.39
326 6.4003 40.54 40.88 6.37
327 6.4107 40.53 40.82 6.37
328 6.4211 40.56 40.77 6.37
329 6.4316 40.64 40.73 6.38
330 6.4420 40.56 40.69 6.37
331 6.4524 40.48 40.65 6.36
332 6.4629 40.30 40.61 6.35
333 6.4733 40.42 40.56 6.36
334 6.4837 40.43 40.52 6.36
335 6.4942 40.65 40.48 6.38
336 6.5046 40.64 40.44 6.38
337 6.5150 40.88 40.40 6.39
338 6.5255 40.84 40.36 6.39
339 6.5359 40.68 40.32 6.38
340 6.5463 40.43 40.28 6.36
341 6.5567 40.31 40.24 6.35
342 6.5672 40.31 40.20 6.35
343 6.5776 40.33 40.16 6.35
344 6.5880 40.32 40.12 6.35
345 6.5985 40.28 40.08 6.35
346 6.6089 40.32 40.04 6.35
347 6.6193 40.20 40.00 6.34
348 6.6298 40.07 39.97 6.33
349 6.6402 39.84 39.93 6.31
350 6.6506 39.70 39.89 6.30
351 6.6611 39.69 39.86 6.30
352 6.6715 39.63 39.82 6.30
353 6.6819 39.47 39.78 6.28
354 6.6924 39.38 39.74 6.28
355 6.7028 39.51 39.71 6.29
356 6.7132 39.73 39.67 6.30
357 6.7237 39.70 39.63 6.30
358 6.7341 39.73 39.59 6.30
359 6.7445 39.47 39.56 6.28
360 6.7550 39.47 39.52 6.28
361 6.7654 39.24 39.49 6.26
362 6.7758 39.43 39.45 6.28
363 6.7863 39.76 39.41 6.31
364 6.7967 39.78 39.38 6.31
365 6.8071 39.62 39.34 6.29
366 6.8176 39.30 39.31 6.27
367 6.8280 39.15 39.27 6.26
368 6.8384 39.08 39.24 6.25
369 6.8489 39.10 39.20 6.25
370 6.8593 39.17 39.17 6.26
371 6.8697 39.39 39.13 6.28
372 6.8801 39.37 39.10 6.27
373 6.8906 39.51 39.07 6.29
374 6.9010 39.43 39.03 6.28
375 6.9114 39.22 39.00 6.26
376 6.9219 39.07 38.97 6.25
377 6.9323 38.92 38.94 6.24
378 6.9427 39.05 38.90 6.25
379 6.9532 39.02 38.87 6.25
380 6.9636 39.02 38.84 6.25
381 6.9740 38.87 38.81 6.23
382 6.9845 38.62 38.78 6.21
383 6.9949 38.45 38.75 6.20
384 7.0053 38.61 38.72 6.21
385 7.0158 38.72 38.70 6.22
386 7.0262 38.81 38.67 6.23
387 7.0366 38.76 38.64 6.23
388 7.0471 38.80 38.62 6.23
389 7.0575 38.73 38.60 6.22
390 7.0679 38.80 38.59 6.23
391 7.0784 38.95 38.58 6.24
392 7.0888 38.89 38.59 6.24
393 7.0992 38.68 38.65 6.22
394 7.1097 38.50 38.82 6.20
395 7.1201 38.94 39.22 6.24
396 7.1305 39.93 40.05 6.32
397 7.1410 41.65 41.49 6.45
398 7.1514 43.87 43.64 6.62
399 7.1618 46.56 46.30 6.82
400 7.1723 49.11 48.92 7.01
401 7.1827 50.60 50.68 7.11
402 7.1931 50.72 50.87 7.12
403 7.2036 49.41 49.38 7.03
404 7.2140 47.07 46.84 6.86
405 7.2244 44.18 44.06 6.65
406 7.2348 41.79 41.69 6.46
407 7.2453 40.15 40.01 6.34
408 7.2557 39.23 38.98 6.26
409 7.2661 38.67 38.43 6.22
410 7.2766 38.40 38.15 6.20
411 7.2870 38.12 38.01 6.17
412 7.2975 37.96 37.93 6.16
413 7.3079 37.85 37.87 6.15
414 7.3183 37.85 37.83 6.15
415 7.3288 37.97 37.78 6.16
416 7.3392 37.99 37.74 6.16
417 7.3496 38.14 37.70 6.18
418 7.3600 38.07 37.67 6.17
419 7.3705 38.15 37.63 6.18
420 7.3809 38.28 37.60 6.19
421 7.3913 38.22 37.56 6.18
422 7.4018 38.02 37.53 6.17
423 7.4122 37.77 37.50 6.15
424 7.4226 37.71 37.47 6.14
425 7.4331 37.75 37.44 6.14
426 7.4435 37.71 37.41 6.14
427 7.4539 37.55 37.37 6.13
428 7.4644 37.61 37.34 6.13
429 7.4748 37.58 37.31 6.13
430 7.4852 37.50 37.28 6.12
431 7.4957 37.34 37.26 6.11
432 7.5061 37.41 37.23 6.12
433 7.5165 37.46 37.20 6.12
434 7.5270 37.48 37.17 6.12
435 7.5374 37.18 37.14 6.10
436 7.5478 36.95 37.11 6.08
437 7.5583 36.77 37.08 6.06
438 7.5687 36.64 37.05 6.05
439 7.5791 36.68 37.03 6.06
440 7.5896 36.76 37.00 6.06
441 7.6000 36.91 36.97 6.08
442 7.6104 37.06 36.94 6.09
443 7.6209 37.11 36.91 6.09
444 7.6313 37.06 36.89 6.09
445 7.6417 36.97 36.86 6.08
446 7.6522 36.87 36.83 6.07
447 7.6626 36.96 36.81 6.08
448 7.6730 37.05 36.78 6.09
449 7.6835 37.15 36.75 6.09
450 7.6939 37.21 36.72 6.10
451 7.7043 37.13 36.70 6.09
452 7.7147 37.28 36.67 6.11
453 7.7252 37.08 36.64 6.09
454 7.7356 37.05 36.61 6.09
455 7.7460 36.90 36.59 6.07
456 7.7565 36.85 36.56 6.07
457 7.7669 36.80 36.53 6.07
458 7.7773 36.74 36.51 6.06
459 7.7878 36.53 36.48 6.04
460 7.7982 36.52 36.46 6.04
461 7.8086 36.42 36.43 6.03
462 7.8191 36.54 36.41 6.04
463 7.8295 36.33 36.38 6.03
464 7.8399 36.36 36.35 6.03
465 7.8504 36.39 36.33 6.03
466 7.8608 36.49 36.30 6.04
467 7.8712 36.53 36.28 6.04
468 7.8817 36.52 36.25 6.04
469 7.8921 36.66 36.23 6.05
470 7.9025 36.49 36.20 6.04
471 7.9130 36.44 36.18 6.04
472 7.9234 36.34 36.15 6.03
473 7.9338 36.35 36.13 6.03
474 7.9443 36.38 36.10 6.03
475 7.9547 36.36 36.08 6.03
476 7.9651 36.41 36.05 6.03
477 7.9756 36.43 36.03 6.04
478 7.9860 36.31 36.00 6.03
479 7.9964 36.11 35.98 6.01
480 8.0069 35.94 35.96 6.00
481 8.0173 36.06 35.93 6.00
482 8.0277 36.10 35.91 6.01
483 8.0381 36.07 35.88 6.01
484 8.0486 36.00 35.86 6.00
485 8.0590 36.02 35.84 6.00
486 8.0694 36.24 35.81 6.02
487 8.0799 36.01 35.79 6.00
488 8.0903 36.08 35.76 6.01
489 8.1007 36.06 35.74 6.01
490 8.1112 36.18 35.72 6.01
491 8.1216 36.25 35.70 6.02
492 8.1320 36.12 35.67 6.01
493 8.1425 36.13 35.65 6.01
494 8.1529 35.88 35.63 5.99
495 8.1633 35.81 35.61 5.98
496 8.1738 35.77 35.59 5.98
497 8.1842 35.83 35.56 5.99
498 8.1946 35.88 35.55 5.99
499 8.2051 35.83 35.53 5.99
500 8.2155 35.82 35.53 5.99
501 8.2259 35.77 35.55 5.98
502 8.2364 35.85 35.62 5.99
503 8.2468 35.98 35.78 6.00
504 8.2572 36.18 36.06 6.01
505 8.2677 36.35 36.47 6.03
506 8.2781 36.75 36.96 6.06
507 8.2885 37.22 37.40 6.10
508 8.2990 37.62 37.66 6.13
509 8.3094 37.47 37.61 6.12
510 8.3198 37.16 37.26 6.10
511 8.3302 36.61 36.74 6.05
512 8.3407 36.36 36.22 6.03
513 8.3511 35.92 35.79 5.99
514 8.3616 35.70 35.49 5.98
515 8.3720 35.33 35.30 5.94
516 8.3824 35.29 35.19 5.94
517 8.3928 35.29 35.13 5.94
518 8.4033 35.35 35.09 5.95
519 8.4137 35.22 35.06 5.93
520 8.4241 35.01 35.03 5.92
521 8.4346 34.85 35.01 5.90
522 8.4450 34.72 34.98 5.89
523 8.4554 34.71 34.96 5.89
524 8.4659 34.74 34.93 5.89
525 8.4763 34.83 34.91 5.90
526 8.4867 34.83 34.89 5.90
527 8.4972 34.94 34.86 5.91
528 8.5076 34.93 34.84 5.91
529 8.5180 34.88 34.82 5.91
530 8.5285 34.82 34.80 5.90
531 8.5389 34.81 34.77 5.90
532 8.5493 34.64 34.75 5.89
533 8.5598 34.42 34.73 5.87
534 8.5702 34.37 34.71 5.86
535 8.5806 34.51 34.68 5.87
536 8.5911 34.48 34.66 5.87
537 8.6015 34.22 34.64 5.85
538 8.6119 34.25 34.62 5.85
539 8.6224 34.34 34.59 5.86
540 8.6328 34.40 34.57 5.87
541 8.6432 34.30 34.55 5.86
542 8.6537 34.29 34.53 5.86
543 8.6641 34.36 34.51 5.86
544 8.6745 34.37 34.49 5.86
545 8.6849 34.49 34.46 5.87
546 8.6954 34.49 34.44 5.87
547 8.7058 34.45 34.42 5.87
548 8.7163 34.27 34.40 5.85
549 8.7267 34.14 34.38 5.84
550 8.7371 33.83 34.36 5.82
551 8.7476 33.76 34.33 5.81
552 8.7580 33.63 34.31 5.80
553 8.7684 33.78 34.29 5.81
554 8.7788 33.74 34.27 5.81
555 8.7893 33.80 34.25 5.81
556 8.7997 33.85 34.23 5.82
557 8.8101 33.99 34.21 5.83
558 8.8206 34.25 34.18 5.85
559 8.8310 34.39 34.16 5.86
560 8.8414 34.24 34.14 5.85
561 8.8519 33.90 34.12 5.82
562 8.8623 33.82 34.10 5.82
563 8.8727 33.82 34.08 5.82
564 8.8832 33.89 34.06 5.82
565 8.8936 33.86 34.03 5.82
566 8.9040 34.02 34.01 5.83
567 8.9145 34.19 33.99 5.85
568 8.9249 34.12 33.97 5.84
569 8.9353 34.12 33.95 5.84
570 8.9458 34.01 33.93 5.83
571 8.9562 33.93 33.91 5.82
572 8.9666 33.78 33.89 5.81
573 8.9771 33.64 33.87 5.80
574 8.9875 33.73 33.85 5.81
575 8.9979 33.78 33.83 5.81
576 9.0084 33.84 33.81 5.82
577 9.0188 33.82 33.78 5.82
578 9.0292 33.58 33.76 5.79
579 9.0396 33.54 33.74 5.79
580 9.0501 33.43 33.72 5.78
581 9.0605 33.38 33.70 5.78
582 9.0709 33.39 33.68 5.78
583 9.0814 33.64 33.66 5.80
584 9.0918 33.84 33.64 5.82
585 9.1023 33.77 33.62 5.81
586 9.1127 33.67 33.60 5.80
587 9.1231 33.54 33.58 5.79
588 9.1335 33.54 33.56 5.79
589 9.1440 33.37 33.54 5.78
590 9.1544 33.26 33.52 5.77
591 9.1648 33.14 33.50 5.76
592 9.1753 33.11 33.48 5.75
593 9.1857 33.01 33.46 5.75
594 9.1961 32.94 33.44 5.74
595 9.2066 32.94 33.42 5.74
596 9.2170 33.15 33.40 5.76
597 9.2274 33.21 33.38 5.76
598 9.2379 32.97 33.35 5.74
599 9.2483 32.78 33.33 5.73
600 9.2587 32.85 33.31 5.73
601 9.2692 33.02 33.29 5.75
602 9.2796 33.16 33.27 5.76
603 9.2900 33.02 33.25 5.75
604 9.3005 33.05 33.23 5.75
605 9.3109 32.97 33.21 5.74
606 9.3213 33.05 33.19 5.75
607 9.3318 33.06 33.17 5.75
608 9.3422 33.13 33.15 5.76
609 9.3526 33.15 33.13 5.76
610 9.3631 33.02 33.11 5.75
611 9.3735 32.94 33.09 5.74
612 9.3839 32.79 33.07 5.73
613 9.3944 32.74 33.05 5.72
614 9.4048 32.68 33.03 5.72
615 9.4152 32.64 33.01 5.71
616 9.4256 32.76 32.99 5.72
617 9.4361 32.60 32.97 5.71
618 9.4465 32.55 32.95 5.71
619 9.4570 32.52 32.93 5.70
620 9.4674 32.63 32.91 5.71
621 9.4778 32.69 32.90 5.72
622 9.4882 32.68 32.88 5.72
623 9.4987 32.66 32.86 5.71
624 9.5091 32.57 32.84 5.71
625 9.5195 32.38 32.82 5.69
626 9.5300 32.28 32.80 5.68
627 9.5404 32.37 32.78 5.69
628 9.5508 32.49 32.76 5.70
629 9.5613 32.57 32.74 5.71
630 9.5717 32.54 32.72 5.70
631 9.5821 32.49 32.70 5.70
632 9.5926 32.38 32.68 5.69
633 9.6030 32.40 32.66 5.69
634 9.6134 32.40 32.64 5.69
635 9.6239 32.44 32.62 5.70
636 9.6343 32.30 32.60 5.68
637 9.6447 32.22 32.58 5.68
638 9.6552 32.18 32.56 5.67
639 9.6656 32.25 32.54 5.68
640 9.6760 32.28 32.52 5.68
641 9.6865 32.34 32.51 5.69
642 9.6969 32.31 32.49 5.68
643 9.7073 32.28 32.47 5.68
644 9.7178 32.13 32.45 5.67
645 9.7282 32.05 32.43 5.66
646 9.7386 31.97 32.41 5.65
647 9.7491 32.08 32.39 5.66
648 9.7595 32.06 32.37 5.66
649 9.7699 32.03 32.35 5.66
650 9.7803 31.79 32.33 5.64
651 9.7908 31.71 32.31 5.63
652 9.8012 31.69 32.29 5.63
653 9.8117 31.86 32.27 5.64
654 9.8221 31.87 32.26 5.65
655 9.8325 32.06 32.24 5.66
656 9.8429 32.04 32.22 5.66
657 9.8534 32.09 32.20 5.66
658 9.8638 32.00 32.18 5.66
659 9.8743 32.01 32.16 5.66
660 9.8847 31.89 32.14 5.65
661 9.8951 31.75 32.12 5.63
662 9.9055 31.53 32.11 5.62
663 9.9160 31.53 32.09 5.62
664 9.9264 31.56 32.07 5.62
665 9.9368 31.63 32.05 5.62
666 9.9473 31.76 32.03 5.64
667 9.9577 31.93 32.01 5.65
668 9.9681 31.97 32.00 5.65
669 9.9786 31.80 31.98 5.64
670 9.9890 31.63 31.96 5.62
671 9.9994 31.53 31.94 5.62
672 10.0099 31.58 31.93 5.62
673 10.0203 31.60 31.91 5.62
674 10.0307 31.60 31.90 5.62
675 10.0412 31.67 31.88 5.63
676 10.0516 31.67 31.87 5.63
677 10.0620 31.55 31.86 5.62
678 10.0725 31.43 31.85 5.61
679 10.0829 31.37 31.86 5.60
680 10.0933 31.63 31.91 5.62
681 10.1038 31.77 32.02 5.64
682 10.1142 32.09 32.27 5.66
683 10.1246 32.55 32.71 5.71
684 10.1350 33.35 33.38 5.78
685 10.1455 34.28 34.22 5.85
686 10.1559 35.12 35.07 5.93
687 10.1664 35.70 35.66 5.97
688 10.1768 35.76 35.76 5.98
689 10.1872 35.04 35.32 5.92
690 10.1976 34.15 34.50 5.84
691 10.2081 33.25 33.59 5.77
692 10.2185 32.73 32.80 5.72
693 10.2289 32.22 32.23 5.68
694 10.2394 31.83 31.87 5.64
695 10.2498 31.61 31.67 5.62
696 10.2602 31.39 31.56 5.60
697 10.2707 31.26 31.50 5.59
698 10.2811 31.26 31.47 5.59
699 10.2915 31.31 31.44 5.60
700 10.3020 31.37 31.41 5.60
701 10.3124 31.36 31.39 5.60
702 10.3228 31.37 31.37 5.60
703 10.3333 31.22 31.34 5.59
704 10.3437 31.02 31.32 5.57
705 10.3541 30.83 31.30 5.55
706 10.3646 30.91 31.28 5.56
707 10.3750 30.99 31.26 5.57
708 10.3854 30.97 31.24 5.57
709 10.3959 30.81 31.22 5.55
710 10.4063 30.81 31.20 5.55
711 10.4167 30.90 31.18 5.56
712 10.4272 31.01 31.16 5.57
713 10.4376 30.89 31.15 5.56
714 10.4480 30.81 31.13 5.55
715 10.4585 30.65 31.11 5.54
716 10.4689 30.83 31.09 5.55
717 10.4793 31.00 31.07 5.57
718 10.4898 31.12 31.05 5.58
719 10.5002 31.17 31.03 5.58
720 10.5106 30.93 31.01 5.56
721 10.5211 30.89 30.99 5.56
722 10.5315 30.76 30.98 5.55
723 10.5419 30.78 30.96 5.55
724 10.5524 30.82 30.94 5.55
725 10.5628 30.88 30.92 5.56
726 10.5732 30.87 30.90 5.56
727 10.5836 30.61 30.88 5.53
728 10.5941 30.39 30.86 5.51
729 10.6045 30.38 30.85 5.51
730 10.6149 30.52 30.83 5.52
731 10.6254 30.64 30.81 5.54
732 10.6358 30.66 30.79 5.54
733 10.6462 30.66 30.77 5.54
734 10.6567 30.68 30.75 5.54
735 10.6671 30.71 30.73 5.54
736 10.6775 30.69 30.72 5.54
737 10.6880 30.55 30.70 5.53
738 10.6984 30.34 30.68 5.51
739 10.7088 30.38 30.66 5.51
740 10.7193 30.35 30.64 5.51
741 10.7297 30.23 30.62 5.50
742 10.7401 30.21 30.60 5.50
743 10.7506 30.23 30.59 5.50
744 10.7610 30.36 30.57 5.51
745 10.7714 30.30 30.55 5.50
746 10.7819 30.42 30.53 5.52
747 10.7923 30.56 30.51 5.53
748 10.8027 30.63 30.50 5.53
749 10.8132 30.48 30.48 5.52
750 10.8236 30.32 30.46 5.51
751 10.8340 30.34 30.44 5.51
752 10.8445 30.32 30.42 5.51
753 10.8549 30.30 30.41 5.50
754 10.8653 30.15 30.39 5.49
755 10.8757 30.19 30.37 5.49
756 10.8862 30.21 30.35 5.50
757 10.8966 30.17 30.33 5.49
758 10.9071 30.09 30.32 5.49
759 10.9175 29.97 30.30 5.47
760 10.9279 30.14 30.28 5.49
761 10.9383 30.31 30.26 5.51
762 10.9488 30.54 30.24 5.53
763 10.9592 30.47 30.23 5.52
764 10.9696 30.25 30.21 5.50
765 10.9801 30.13 30.19 5.49
766 10.9905 30.08 30.17 5.48
767 11.0009 30.14 30.16 5.49
768 11.0114 30.14 30.14 5.49
769 11.0218 30.08 30.12 5.48
770 11.0322 30.02 30.10 5.48
771 11.0427 30.05 30.08 5.48
772 11.0531 30.11 30.07 5.49
773 11.0635 30.07 30.05 5.48
774 11.0740 29.99 30.03 5.48
775 11.0844 29.89 30.01 5.47
776 11.0948 29.84 30.00 5.46
777 11.1053 29.87 29.98 5.47
778 11.1157 29.86 29.96 5.46
779 11.1261 29.99 29.94 5.48
780 11.1366 29.88 29.93 5.47
781 11.1470 29.88 29.91 5.47
782 11.1574 29.70 29.89 5.45
783 11.1679 29.75 29.87 5.45
784 11.1783 29.72 29.86 5.45
785 11.1887 29.67 29.84 5.45
786 11.1992 29.62 29.82 5.44
787 11.2096 29.55 29.80 5.44
788 11.2200 29.60 29.82 5.44
789 11.2304 29.55 29.80 5.44
790 11.2409 29.56 29.79 5.44
791 11.2513 29.63 29.77 5.44
792 11.2618 29.66 29.76 5.45
793 11.2722 29.69 29.74 5.45
794 11.2826 29.64 29.73 5.44
795 11.2930 29.58 29.71 5.44
796 11.3035 29.54 29.69 5.44
797 11.3139 29.61 29.68 5.44
798 11.3244 29.66 29.66 5.45
799 11.3348 29.72 29.65 5.45
800 11.3452 29.71 29.64 5.45
801 11.3556 29.71 29.62 5.45
802 11.3661 29.67 29.61 5.45
803 11.3765 29.63 29.59 5.44
804 11.3869 29.62 29.58 5.44
805 11.3974 29.73 29.57 5.45
806 11.4078 29.64 29.56 5.44
807 11.4182 29.58 29.54 5.44
808 11.4287 29.35 29.53 5.42
809 11.4391 29.38 29.52 5.42
810 11.4495 29.42 29.51 5.42
811 11.4600 29.36 29.50 5.42
812 11.4704 29.36 29.49 5.42
813 11.4808 29.36 29.49 5.42
814 11.4913 29.41 29.48 5.42
815 11.5017 29.20 29.47 5.40
816 11.5121 29.17 29.47 5.40
817 11.5226 29.29 29.47 5.41
818 11.5330 29.31 29.47 5.41
819 11.5434 29.33 29.47 5.42
820 11.5539 29.42 29.48 5.42
821 11.5643 29.71 29.49 5.45
822 11.5747 29.78 29.50 5.46
823 11.5851 29.80 29.52 5.46
824 11.5956 29.68 29.55 5.45
825 11.6060 29.66 29.59 5.45
826 11.6165 29.60 29.64 5.44
827 11.6269 29.59 29.71 5.44
828 11.6373 29.76 29.81 5.45
829 11.6477 30.04 29.97 5.48
830 11.6582 30.27 30.31 5.50
831 11.6686 30.82 31.04 5.55
832 11.6791 32.26 32.67 5.68
833 11.6895 36.24 36.00 6.02
834 11.6999 43.41 42.05 6.59
835 11.7103 54.06 51.59 7.35
836 11.7208 67.65 64.37 8.22
837 11.7312 80.00 78.38 8.94
838 11.7416 89.07 89.99 9.44
839 11.7521 91.92 94.99 9.59
840 11.7625 87.90 91.15 9.38
841 11.7729 77.09 80.20 8.78
842 11.7834 63.60 66.24 7.98
843 11.7938 51.27 53.11 7.16
844 11.8042 41.91 43.02 6.47
845 11.8147 36.15 36.47 6.01
846 11.8251 32.93 32.78 5.74
847 11.8355 31.25 30.94 5.59
848 11.8460 30.34 30.08 5.51
849 11.8564 29.98 29.68 5.48
850 11.8668 29.47 29.46 5.43
851 11.8773 29.41 29.32 5.42
852 11.8877 29.38 29.22 5.42
853 11.8981 29.68 29.13 5.45
854 11.9086 29.70 29.06 5.45
855 11.9190 29.57 29.00 5.44
856 11.9294 29.52 29.05 5.43
857 11.9399 29.38 29.01 5.42
858 11.9503 29.23 28.97 5.41
859 11.9607 29.02 28.94 5.39
860 11.9712 29.01 28.90 5.39
861 11.9816 29.03 28.88 5.39
862 11.9920 28.96 28.85 5.38
863 12.0024 28.95 28.83 5.38
864 12.0129 29.02 28.80 5.39
865 12.0233 29.08 28.78 5.39
866 12.0337 29.07 28.77 5.39
867 12.0442 28.99 28.75 5.38
868 12.0546 29.01 28.74 5.39
869 12.0650 29.02 28.72 5.39
870 12.0755 29.15 28.71 5.40
871 12.0859 29.24 28.70 5.41
872 12.0963 29.31 28.69 5.41
873 12.1068 29.27 28.68 5.41
874 12.1172 29.15 28.68 5.40
875 12.1276 29.13 28.67 5.40
876 12.1381 29.12 28.67 5.40
877 12.1485 29.16 28.67 5.40
878 12.1589 29.04 28.68 5.39
879 12.1694 28.91 28.68 5.38
880 12.1798 28.78 28.69 5.36
881 12.1902 28.74 28.70 5.36
882 12.2007 28.85 28.71 5.37
883 12.2111 28.91 28.73 5.38
884 12.2215 29.00 28.75 5.39
885 12.2320 28.89 28.78 5.37
886 12.2424 28.93 28.82 5.38
887 12.2528 29.05 28.86 5.39
888 12.2633 29.23 28.91 5.41
889 12.2737 29.38 28.98 5.42
890 12.2841 29.34 29.05 5.42
891 12.2946 29.31 29.11 5.41
892 12.3050 29.33 29.23 5.42
893 12.3154 29.55 29.37 5.44
894 12.3258 29.80 29.55 5.46
895 12.3363 30.11 29.77 5.49
896 12.3467 30.48 30.06 5.52
897 12.3572 30.98 30.49 5.57
898 12.3676 31.68 31.23 5.63
899 12.3780 32.79 32.74 5.73
900 12.3884 35.40 36.06 5.95
901 12.3989 42.00 43.14 6.48
902 12.4093 57.00 56.95 7.55
903 12.4198 85.65 80.71 9.25
904 12.4302 124.72 115.80 11.17
905 12.4406 168.41 159.40 12.98
906 12.4510 207.48 202.88 14.40
907 12.4615 230.60 233.14 15.19
908 12.4719 230.71 238.09 15.19
909 12.4823 207.62 215.46 14.41
910 12.4928 168.46 174.90 12.98
911 12.5032 124.06 130.07 11.14
912 12.5136 86.94 91.37 9.32
913 12.5241 61.72 63.70 7.86
914 12.5345 46.36 46.77 6.81
915 12.5449 38.33 37.71 6.19
916 12.5554 34.41 33.35 5.87
917 12.5658 32.35 31.35 5.69
918 12.5762 31.29 30.38 5.59
919 12.5867 30.55 29.85 5.53
920 12.5971 29.98 29.49 5.48
921 12.6075 29.76 29.38 5.46
922 12.6180 29.53 29.16 5.43
923 12.6284 29.51 28.99 5.43
924 12.6388 29.25 28.84 5.41
925 12.6493 29.08 28.72 5.39
926 12.6597 28.85 28.61 5.37
927 12.6701 28.87 28.52 5.37
928 12.6805 29.06 28.44 5.39
929 12.6910 29.24 28.37 5.41
930 12.7014 29.23 28.31 5.41
931 12.7119 29.09 28.26 5.39
932 12.7223 28.90 28.22 5.38
933 12.7327 28.71 28.18 5.36
934 12.7431 28.36 28.14 5.33
935 12.7536 28.24 28.12 5.31
936 12.7640 28.21 28.09 5.31
937 12.7745 28.29 28.07 5.32
938 12.7849 28.31 28.05 5.32
939 12.7953 28.25 28.04 5.32
940 12.8057 28.28 28.03 5.32
941 12.8162 28.21 28.03 5.31
942 12.8266 28.27 28.03 5.32
943 12.8370 28.28 28.03 5.32
944 12.8475 28.36 28.04 5.33
945 12.8579 28.15 28.05 5.31
946 12.8683 28.05 28.07 5.30
947 12.8788 27.92 28.09 5.28
948 12.8892 28.07 28.12 5.30
949 12.8996 28.08 28.16 5.30
950 12.9101 28.17 28.21 5.31
951 12.9205 28.28 28.27 5.32
952 12.9309 28.39 28.34 5.33
953 12.9414 28.56 28.42 5.34
954 12.9518 28.62 28.52 5.35
955 12.9622 28.70 28.64 5.36
956 12.9727 28.86 28.79 5.37
957 12.9831 29.07 28.96 5.39
958 12.9935 29.43 29.18 5.42
959 13.0040 29.68 29.45 5.45
960 13.0144 30.01 29.68 5.48
961 13.0248 30.28 30.13 5.50
962 13.0353 30.98 30.80 5.57
963 13.0457 32.17 31.95 5.67
964 13.0561 34.53 34.29 5.88
965 13.0666 39.54 39.41 6.29
966 13.0770 50.34 50.29 7.10
967 13.0874 75.19 71.27 8.67
968 13.0978 116.85 106.91 10.81
969 13.1083 174.98 158.96 13.23
970 13.1187 239.64 222.70 15.48
971 13.1292 294.15 285.12 17.15
972 13.1396 324.45 326.86 18.01
973 13.1500 322.82 331.02 17.97
974 13.1604 286.95 295.69 16.94
975 13.1709 227.18 235.73 15.07
976 13.1813 162.96 170.93 12.77
977 13.1917 110.65 115.89 10.52
978 13.2022 73.81 76.94 8.59
979 13.2126 52.46 53.31 7.24
980 13.2230 41.00 40.79 6.40
981 13.2335 35.42 34.79 5.95
982 13.2439 32.60 32.03 5.71
983 13.2543 31.20 30.82 5.59
984 13.2648 30.47 30.07 5.52
985 13.2752 29.99 29.57 5.48
986 13.2856 29.55 29.18 5.44
987 13.2961 29.11 28.88 5.40
988 13.3065 28.87 28.63 5.37
989 13.3169 28.64 28.42 5.35
990 13.3274 28.50 28.24 5.34
991 13.3378 28.34 28.09 5.32
992 13.3482 28.24 27.96 5.31
993 13.3587 28.17 27.85 5.31
994 13.3691 28.02 27.76 5.29
995 13.3795 27.85 27.67 5.28
996 13.3900 27.72 27.60 5.27
997 13.4004 27.68 27.54 5.26
998 13.4108 27.61 27.48 5.25
999 13.4213 27.56 27.44 5.25
1000 13.4317 27.45 27.40 5.24
1001 13.4421 27.39 27.36 5.23
1002 13.4525 27.38 27.33 5.23
1003 13.4630 27.40 27.31 5.23
1004 13.4734 27.40 27.29 5.23
1005 13.4838 27.34 27.28 5.23
1006 13.4943 27.24 27.27 5.22
1007 13.5047 27.29 27.26 5.22
1008 13.5152 27.36 27.27 5.23
1009 13.5256 27.38 27.28 5.23
1010 13.5360 27.47 27.29 5.24
1011 13.5464 27.33 27.31 5.23
1012 13.5569 27.33 27.34 5.23
1013 13.5673 27.32 27.38 5.23
1014 13.5777 27.47 27.43 5.24
1015 13.5882 27.62 27.49 5.26
1016 13.5986 27.62 27.57 5.26
1017 13.6090 27.64 27.66 5.26
1018 13.6195 27.64 27.78 5.26
1019 13.6299 27.74 27.92 5.27
1020 13.6403 27.93 28.10 5.28
1021 13.6508 28.25 28.32 5.32
1022 13.6612 28.56 28.60 5.34
1023 13.6716 28.91 28.98 5.38
1024 13.6821 29.33 29.56 5.42
1025 13.6925 30.17 30.44 5.49
1026 13.7029 31.94 32.63 5.65
1027 13.7134 35.77 37.39 5.98
1028 13.7238 45.45 47.32 6.74
1029 13.7342 66.45 66.05 8.15
1030 13.7447 101.83 96.89 10.09
1031 13.7551 151.54 140.40 12.31
1032 13.7655 202.24 191.58 14.22
1033 13.7760 243.17 238.83 15.59
1034 13.7864 264.33 266.62 16.26
1035 13.7968 258.12 263.13 16.07
1036 13.8073 223.57 229.99 14.95
1037 13.8177 174.37 180.66 13.20
1038 13.8281 125.11 130.27 11.19
1039 13.8385 85.48 89.20 9.25
1040 13.8490 59.11 61.07 7.69
1041 13.8594 44.09 44.49 6.64
1042 13.8699 36.26 35.92 6.02
1043 13.8803 32.46 31.85 5.70
1044 13.8907 30.51 29.97 5.52
1045 13.9011 29.55 29.03 5.44
1046 13.9116 28.96 28.48 5.38
1047 13.9220 28.64 28.09 5.35
1048 13.9324 28.32 27.80 5.32
1049 13.9429 28.12 27.56 5.30
1050 13.9533 28.02 27.36 5.29
1051 13.9637 27.78 27.19 5.27
1052 13.9742 27.52 27.05 5.25
1053 13.9846 27.27 26.93 5.22
1054 13.9950 27.25 26.82 5.22
1055 14.0055 27.15 26.73 5.21
1056 14.0159 27.10 26.65 5.21
1057 14.0263 27.08 26.58 5.20
1058 14.0368 27.04 26.52 5.20
1059 14.0472 26.98 26.46 5.19
1060 14.0576 26.76 26.41 5.17
1061 14.0681 26.67 26.36 5.16
1062 14.0785 26.49 26.32 5.15
1063 14.0889 26.37 26.29 5.13
1064 14.0994 26.22 26.25 5.12
1065 14.1098 26.19 26.23 5.12
1066 14.1202 26.27 26.20 5.12
1067 14.1307 26.31 26.18 5.13
1068 14.1411 26.33 26.16 5.13
1069 14.1515 26.26 26.14 5.12
1070 14.1620 26.18 26.12 5.12
1071 14.1724 26.14 26.11 5.11
1072 14.1828 26.22 26.10 5.12
1073 14.1932 26.34 26.10 5.13
1074 14.2037 26.39 26.10 5.14
1075 14.2141 26.23 26.10 5.12
1076 14.2246 26.13 26.11 5.11
1077 14.2350 26.08 26.12 5.11
1078 14.2454 26.21 26.14 5.12
1079 14.2558 26.26 26.17 5.12
1080 14.2663 26.30 26.21 5.13
1081 14.2767 26.37 26.27 5.13
1082 14.2871 26.46 26.35 5.14
1083 14.2976 26.56 26.48 5.15
1084 14.3080 26.67 26.71 5.16
1085 14.3184 27.04 27.21 5.20
1086 14.3289 27.99 28.30 5.29
1087 14.3393 30.20 30.47 5.50
1088 14.3497 34.80 34.86 5.90
1089 14.3602 43.18 42.17 6.57
1090 14.3706 54.85 52.64 7.41
1091 14.3810 67.22 65.16 8.20
1092 14.3915 78.10 77.01 8.84
1093 14.4019 83.40 84.39 9.13
1094 14.4123 81.95 84.22 9.05
1095 14.4228 74.08 76.56 8.61
1096 14.4332 62.50 64.59 7.91
1097 14.4436 50.21 52.08 7.09
1098 14.4541 40.25 41.72 6.34
1099 14.4645 33.75 34.51 5.81
1100 14.4749 29.92 30.21 5.47
1101 14.4854 28.12 27.95 5.30
1102 14.4958 27.17 26.87 5.21
1103 14.5062 26.70 26.36 5.17
1104 14.5167 26.48 26.11 5.15
1105 14.5271 26.31 25.96 5.13
1106 14.5375 26.25 25.85 5.12
1107 14.5479 26.01 25.77 5.10
1108 14.5584 25.79 25.70 5.08
1109 14.5688 25.57 25.64 5.06
1110 14.5793 25.53 25.59 5.05
1111 14.5897 25.62 25.55 5.06
1112 14.6001 25.60 25.51 5.06
1113 14.6105 25.62 25.48 5.06
1114 14.6210 25.52 25.45 5.05
1115 14.6314 25.64 25.42 5.06
1116 14.6418 25.60 25.40 5.06
1117 14.6523 25.61 25.37 5.06
1118 14.6627 25.48 25.35 5.05
1119 14.6731 25.55 25.33 5.06
1120 14.6836 25.61 25.31 5.06
1121 14.6940 25.68 25.29 5.07
1122 14.7044 25.52 25.28 5.05
1123 14.7149 25.46 25.26 5.05
1124 14.7253 25.48 25.24 5.05
1125 14.7357 25.54 25.23 5.05
1126 14.7462 25.59 25.22 5.06
1127 14.7566 25.45 25.20 5.05
1128 14.7670 25.48 25.19 5.05
1129 14.7775 25.33 25.17 5.03
1130 14.7879 25.35 25.16 5.03
1131 14.7983 25.31 25.15 5.03
1132 14.8088 25.29 25.14 5.03
1133 14.8192 25.22 25.13 5.02
1134 14.8296 25.19 25.11 5.02
1135 14.8401 25.17 25.10 5.02
1136 14.8505 25.10 25.09 5.01
1137 14.8609 25.04 25.08 5.00
1138 14.8714 25.06 25.07 5.01
1139 14.8818 25.18 25.06 5.02
1140 14.8922 25.22 25.05 5.02
1141 14.9026 25.23 25.04 5.02
1142 14.9131 25.20 25.03 5.02
1143 14.9235 25.24 25.02 5.02
1144 14.9340 25.28 25.01 5.03
1145 14.9444 25.24 25.00 5.02
1146 14.9548 25.05 24.96 5.01
1147 14.9653 24.95 24.95 5.00
1148 14.9757 24.87 24.94 4.99
1149 14.9861 24.97 24.93 5.00
1150 14.9965 25.08 24.92 5.01
1151 15.0070 25.12 24.92 5.01
1152 15.0174 25.06 24.91 5.01
1153 15.0278 24.93 24.94 4.99
1154 15.0383 24.92 24.94 4.99
1155 15.0487 25.04 24.93 5.00
1156 15.0591 25.07 24.92 5.01
1157 15.0696 24.98 24.92 5.00
1158 15.0800 24.83 24.91 4.98
1159 15.0904 24.90 24.90 4.99
1160 15.1009 25.24 24.90 5.02
1161 15.1113 25.56 24.89 5.06
1162 15.1217 26.01 24.89 5.10
1163 15.1322 26.32 24.88 5.13
1164 15.1426 26.62 24.88 5.16
1165 15.1530 26.59 24.87 5.16
1166 15.1635 26.45 24.87 5.14
1167 15.1739 26.22 24.87 5.12
1168 15.1843 25.87 24.86 5.09
1169 15.1948 25.59 24.86 5.06
1170 15.2052 25.25 24.86 5.03
1171 15.2156 25.06 24.86 5.01
1172 15.2261 24.87 24.85 4.99
1173 15.2365 24.96 24.85 5.00
1174 15.2469 25.03 24.85 5.00
1175 15.2573 25.13 24.85 5.01
1176 15.2678 24.95 24.85 5.00
1177 15.2782 24.89 24.86 4.99
1178 15.2886 24.91 24.86 4.99
1179 15.2991 24.99 24.87 5.00
1180 15.3095 25.07 24.87 5.01
1181 15.3200 24.95 24.88 4.99
1182 15.3304 24.84 24.89 4.98
1183 15.3408 24.70 24.90 4.97
1184 15.3512 24.71 24.92 4.97
1185 15.3617 24.73 24.94 4.97
1186 15.3721 24.81 24.96 4.98
1187 15.3825 24.92 24.99 4.99
1188 15.3930 25.00 25.02 5.00
1189 15.4034 24.95 25.06 5.00
1190 15.4138 24.86 25.11 4.99
1191 15.4243 24.93 25.17 4.99
1192 15.4347 25.18 25.25 5.02
1193 15.4451 25.37 25.36 5.04
1194 15.4556 25.65 25.51 5.07
1195 15.4660 25.86 25.76 5.08
1196 15.4764 26.23 26.26 5.12
1197 15.4869 26.88 27.33 5.18
1198 15.4973 28.61 29.62 5.35
1199 15.5077 32.97 34.10 5.74
1200 15.5182 41.64 41.89 6.45
1201 15.5286 54.72 53.58 7.40
1202 15.5390 70.90 68.43 8.42
1203 15.5495 85.68 83.67 9.26
1204 15.5599 95.28 94.92 9.76
1205 15.5703 96.71 97.78 9.83
1206 15.5808 89.89 90.93 9.48
1207 15.5912 75.78 77.38 8.70
1208 15.6016 60.17 61.84 7.76
1209 15.6121 46.72 48.11 6.83
1210 15.6225 37.23 38.05 6.10
1211 15.6329 31.66 31.78 5.63
1212 15.6433 28.40 28.35 5.33
1213 15.6538 26.83 26.67 5.18
1214 15.6642 25.92 25.88 5.09
1215 15.6747 25.45 25.50 5.04
1216 15.6851 25.08 25.29 5.01
1217 15.6955 25.00 25.15 5.00
1218 15.7059 25.08 25.05 5.01
1219 15.7164 25.12 24.96 5.01
1220 15.7268 25.08 24.89 5.01
1221 15.7372 24.99 24.83 5.00
1222 15.7477 24.90 24.78 4.99
1223 15.7581 24.77 24.74 4.98
1224 15.7685 24.76 24.70 4.98
1225 15.7790 24.72 24.66 4.97
1226 15.7894 24.68 24.63 4.97
1227 15.7998 24.52 24.61 4.95
1228 15.8103 24.49 24.58 4.95
1229 15.8207 24.58 24.56 4.96
1230 15.8311 24.66 24.54 4.97
1231 15.8416 24.56 24.52 4.96
1232 15.8520 24.50 24.50 4.95
1233 15.8624 24.45 24.49 4.94
1234 15.8729 24.51 24.47 4.95
1235 15.8833 24.50 24.46 4.95
1236 15.8937 24.64 24.44 4.96
1237 15.9042 24.56 24.43 4.96
1238 15.9146 24.56 24.42 4.96
1239 15.9250 24.34 24.41 4.93
1240 15.9355 24.40 24.40 4.94
1241 15.9459 24.39 24.39 4.94
1242 15.9563 24.39 24.38 4.94
1243 15.9668 24.34 24.37 4.93
1244 15.9772 24.41 24.36 4.94
1245 15.9876 24.47 24.35 4.95
1246 15.9980 24.43 24.34 4.94
1247 16.0085 24.24 24.33 4.92
1248 16.0189 24.26 24.33 4.93
1249 16.0294 24.21 24.32 4.92
1250 16.0398 24.10 24.31 4.91
1251 16.0502 24.01 24.30 4.90
1252 16.0606 24.16 24.30 4.91
1253 16.0711 24.30 24.29 4.93
1254 16.0815 24.24 24.28 4.92
1255 16.0919 24.11 24.27 4.91
1256 16.1024 24.12 24.27 4.91
1257 16.1128 24.13 24.22 4.91
1258 16.1232 24.08 24.21 4.91
1259 16.1337 24.15 24.21 4.91
1260 16.1441 24.18 24.21 4.92
1261 16.1545 24.21 24.20 4.92
1262 16.1650 24.19 24.20 4.92
1263 16.1754 24.21 24.19 4.92
1264 16.1858 24.15 24.19 4.91
1265 16.1963 24.16 24.18 4.92
1266 16.2067 24.21 24.18 4.92
1267 16.2171 24.24 24.17 4.92
1268 16.2276 24.05 24.17 4.90
1269 16.2380 23.91 24.16 4.89
1270 16.2484 23.91 24.16 4.89
1271 16.2589 24.08 24.15 4.91
1272 16.2693 24.32 24.15 4.93
1273 16.2797 24.44 24.14 4.94
1274 16.2902 24.39 24.14 4.94
1275 16.3006 24.23 24.14 4.92
1276 16.3110 24.13 24.13 4.91
1277 16.3215 24.12 24.13 4.91
1278 16.3319 24.16 24.12 4.91
1279 16.3423 24.22 24.12 4.92
1280 16.3528 24.20 24.11 4.92
1281 16.3632 23.98 24.11 4.90
1282 16.3736 23.87 24.10 4.89
1283 16.3841 23.91 24.10 4.89
1284 16.3945 24.03 24.10 4.90
1285 16.4049 24.13 24.09 4.91
1286 16.4153 24.19 24.09 4.92
1287 16.4258 24.19 24.08 4.92
1288 16.4362 24.10 24.08 4.91
1289 16.4466 23.99 24.08 4.90
1290 16.4571 23.92 24.07 4.89
1291 16.4675 23.97 24.07 4.90
1292 16.4779 24.02 24.06 4.90
1293 16.4884 24.10 24.06 4.91
1294 16.4988 24.15 24.06 4.91
1295 16.5092 24.21 24.05 4.92
1296 16.5197 24.25 24.05 4.92
1297 16.5301 24.40 24.05 4.94
1298 16.5405 24.38 24.04 4.94
1299 16.5510 24.37 24.04 4.94
1300 16.5614 24.21 24.04 4.92
1301 16.5718 24.20 24.04 4.92
1302 16.5823 24.12 24.04 4.91
1303 16.5927 24.13 24.06 4.91
1304 16.6031 24.16 24.08 4.92
1305 16.6136 24.22 24.12 4.92
1306 16.6240 24.24 24.20 4.92
1307 16.6344 24.19 24.25 4.92
1308 16.6449 24.15 24.27 4.91
1309 16.6553 24.15 24.27 4.91
1310 16.6657 24.15 24.24 4.91
1311 16.6762 24.09 24.19 4.91
1312 16.6866 23.98 24.14 4.90
1313 16.6970 23.94 24.10 4.89
1314 16.7075 24.01 24.06 4.90
1315 16.7179 24.04 24.04 4.90
1316 16.7283 23.98 24.03 4.90
1317 16.7388 24.03 24.03 4.90
1318 16.7492 24.11 24.03 4.91
1319 16.7596 24.07 24.02 4.91
1320 16.7701 23.88 24.02 4.89
1321 16.7805 23.76 24.02 4.87
1322 16.7909 23.73 24.02 4.87
1323 16.8013 23.73 24.02 4.87
1324 16.8118 23.72 24.02 4.87
1325 16.8222 23.75 24.02 4.87
1326 16.8326 23.76 24.03 4.87
1327 16.8431 23.78 24.03 4.88
1328 16.8535 23.74 24.03 4.87
1329 16.8639 23.79 24.03 4.88
1330 16.8744 23.83 24.04 4.88
1331 16.8848 23.86 24.04 4.88
1332 16.8952 23.77 24.05 4.88
1333 16.9057 23.71 24.05 4.87
1334 16.9161 23.80 24.06 4.88
1335 16.9265 23.96 24.07 4.89
1336 16.9370 24.03 24.08 4.90
1337 16.9474 24.02 24.10 4.90
1338 16.9578 23.99 24.11 4.90
1339 16.9683 24.05 24.13 4.90
1340 16.9787 24.06 24.15 4.90
1341 16.9891 24.03 24.18 4.90
1342 16.9996 23.96 24.21 4.90
1343 17.0100 23.96 24.25 4.89
1344 17.0204 24.04 24.30 4.90
1345 17.0309 24.12 24.36 4.91
1346 17.0413 24.19 24.43 4.92
1347 17.0517 24.33 24.53 4.93
1348 17.0621 24.59 24.70 4.96
1349 17.0726 24.82 25.01 4.98
1350 17.0830 25.17 25.66 5.02
1351 17.0935 26.09 27.05 5.11
1352 17.1039 28.33 29.83 5.32
1353 17.1143 33.24 34.80 5.77
1354 17.1248 41.37 42.51 6.43
1355 17.1352 52.92 52.71 7.27
1356 17.1456 63.90 63.75 7.99
1357 17.1560 71.90 72.72 8.48
1358 17.1665 74.67 76.33 8.64
1359 17.1769 71.26 72.93 8.44
1360 17.1873 62.53 64.07 7.91
1361 17.1978 51.57 53.06 7.18
1362 17.2082 41.60 42.81 6.45
1363 17.2186 34.10 35.02 5.84
1364 17.2291 29.54 29.98 5.43
1365 17.2395 26.99 27.14 5.20
1366 17.2499 25.50 25.71 5.05
1367 17.2604 24.83 25.04 4.98
1368 17.2708 24.65 24.73 4.97
1369 17.2812 24.65 24.56 4.97
1370 17.2917 24.47 24.45 4.95
1371 17.3021 24.27 24.38 4.93
1372 17.3125 24.16 24.32 4.92
1373 17.3230 24.13 24.27 4.91
1374 17.3334 24.10 24.23 4.91
1375 17.3438 24.08 24.20 4.91
1376 17.3543 23.99 24.18 4.90
1377 17.3647 23.95 24.16 4.89
1378 17.3751 23.92 24.15 4.89
1379 17.3856 24.00 24.13 4.90
1380 17.3960 23.97 24.13 4.90
1381 17.4064 23.95 24.12 4.89
1382 17.4168 23.89 24.12 4.89
1383 17.4273 23.87 24.12 4.89
1384 17.4377 23.86 24.13 4.88
1385 17.4482 23.92 24.14 4.89
1386 17.4586 24.01 24.15 4.90
1387 17.4690 24.11 24.17 4.91
1388 17.4795 24.00 24.19 4.90
1389 17.4899 23.89 24.21 4.89
1390 17.5003 23.95 24.25 4.89
1391 17.5107 24.12 24.29 4.91
1392 17.5212 24.28 24.34 4.93
1393 17.5316 24.22 24.41 4.92
1394 17.5420 24.16 24.49 4.92
1395 17.5525 24.18 24.61 4.92
1396 17.5629 24.34 24.80 4.93
1397 17.5733 24.59 25.14 4.96
1398 17.5838 25.00 25.86 5.00
1399 17.5942 26.04 27.41 5.10
1400 17.6046 28.66 30.52 5.35
1401 17.6151 34.34 36.14 5.86
1402 17.6255 44.15 44.94 6.64
1403 17.6359 57.57 56.73 7.59
1404 17.6464 72.01 69.76 8.49
1405 17.6568 82.86 80.68 9.10
1406 17.6672 87.04 85.57 9.33
1407 17.6777 83.69 82.22 9.15
1408 17.6881 73.72 72.16 8.59
1409 17.6985 59.97 59.25 7.74
1410 17.7090 47.35 47.02 6.88
1411 17.7194 37.55 37.54 6.13
1412 17.7298 31.51 31.34 5.61
1413 17.7403 28.06 27.81 5.30
1414 17.7507 26.23 26.03 5.12
1415 17.7611 25.22 25.18 5.02
1416 17.7715 24.59 24.78 4.96
1417 17.7820 24.33 24.57 4.93
1418 17.7924 24.12 24.44 4.91
1419 17.8029 24.03 24.34 4.90
1420 17.8133 23.98 24.27 4.90
1421 17.8237 23.97 24.21 4.90
1422 17.8342 23.93 24.16 4.89
1423 17.8446 23.89 24.12 4.89
1424 17.8550 23.92 24.08 4.89
1425 17.8654 23.87 24.05 4.89
1426 17.8759 23.72 24.03 4.87
1427 17.8863 23.55 24.01 4.85
1428 17.8967 23.49 23.99 4.85
1429 17.9072 23.61 23.98 4.86
1430 17.9176 23.72 23.96 4.87
1431 17.9280 23.74 23.95 4.87
1432 17.9385 23.70 23.94 4.87
1433 17.9489 23.74 23.94 4.87
1434 17.9593 23.85 23.93 4.88
1435 17.9698 24.03 23.93 4.90
1436 17.9802 24.05 23.93 4.90
1437 17.9906 23.95 23.93 4.89
1438 18.0011 23.65 23.94 4.86
1439 18.0115 23.52 23.94 4.85
1440 18.0219 23.44 23.96 4.84
1441 18.0324 23.44 23.97 4.84
1442 18.0428 23.52 24.00 4.85
1443 18.0532 23.61 24.04 4.86
1444 18.0637 23.79 24.13 4.88
1445 18.0741 23.93 24.31 4.89
1446 18.0845 24.32 24.71 4.93
1447 18.0950 24.97 25.52 5.00
1448 18.1054 26.25 26.90 5.12
1449 18.1158 28.43 29.00 5.33
1450 18.1263 31.44 31.71 5.61
1451 18.1367 34.53 34.57 5.88
1452 18.1471 36.73 36.79 6.06
1453 18.1576 37.50 37.51 6.12
1454 18.1680 36.38 36.41 6.03
1455 18.1784 33.96 33.98 5.83
1456 18.1889 31.01 31.09 5.57
1457 18.1993 28.35 28.48 5.32
1458 18.2097 26.37 26.54 5.13
1459 18.2201 25.06 25.26 5.01
1460 18.2306 24.35 24.58 4.93
1461 18.2410 23.90 24.24 4.89
1462 18.2514 23.67 24.08 4.87
1463 18.2619 23.61 24.00 4.86
1464 18.2723 23.63 23.97 4.86
1465 18.2827 23.64 23.94 4.86
1466 18.2932 23.53 23.92 4.85
1467 18.3036 23.62 23.91 4.86
1468 18.3140 23.72 23.90 4.87
1469 18.3245 23.77 23.90 4.88
1470 18.3349 23.78 23.90 4.88
1471 18.3453 23.75 23.89 4.87
1472 18.3558 23.70 23.89 4.87
1473 18.3662 23.67 23.90 4.87
1474 18.3766 23.66 23.90 4.86
1475 18.3871 23.76 23.91 4.87
1476 18.3975 23.67 23.92 4.87
1477 18.4079 23.63 23.92 4.86
1478 18.4184 23.45 23.94 4.84
1479 18.4288 23.45 23.95 4.84
1480 18.4392 23.52 23.97 4.85
1481 18.4497 23.63 23.99 4.86
1482 18.4601 23.68 24.02 4.87
1483 18.4705 23.78 24.05 4.88
1484 18.4810 23.86 24.09 4.88
1485 18.4914 23.89 24.13 4.89
1486 18.5018 23.98 24.19 4.90
1487 18.5123 24.12 24.27 4.91
1488 18.5227 24.23 24.38 4.92
1489 18.5331 24.18 24.58 4.92
1490 18.5436 24.42 24.96 4.94
1491 18.5540 25.00 25.79 5.00
1492 18.5644 26.38 27.48 5.14
1493 18.5749 29.23 30.70 5.41
1494 18.5853 34.75 36.04 5.89
1495 18.5957 43.67 43.68 6.61
1496 18.6061 54.12 52.86 7.36
1497 18.6166 63.37 61.62 7.96
1498 18.6270 68.75 67.18 8.29
1499 18.6374 68.61 67.20 8.28
1500 18.6479 62.99 61.67 7.94
1501 18.6583 53.84 52.92 7.34
1502 18.6687 44.31 43.73 6.66
1503 18.6792 36.36 36.08 6.03
1504 18.6896 30.91 30.72 5.56
1505 18.7000 27.68 27.49 5.26
1506 18.7105 25.68 25.78 5.07
1507 18.7209 24.81 24.96 4.98
1508 18.7313 24.43 24.57 4.94
1509 18.7418 24.34 24.38 4.93
1510 18.7522 24.18 24.26 4.92
1511 18.7626 24.03 24.18 4.90
1512 18.7731 23.93 24.13 4.89
1513 18.7835 23.92 24.08 4.89
1514 18.7939 23.91 24.04 4.89
1515 18.8044 23.86 24.01 4.88
1516 18.8148 23.75 23.98 4.87
1517 18.8252 23.70 23.96 4.87
1518 18.8357 23.68 23.94 4.87
1519 18.8461 23.70 23.92 4.87
1520 18.8565 23.70 23.91 4.87
1521 18.8669 23.69 23.90 4.87
1522 18.8774 23.76 23.89 4.87
1523 18.8878 23.79 23.88 4.88
1524 18.8983 23.80 23.87 4.88
1525 18.9087 23.69 23.86 4.87
1526 18.9191 23.72 23.86 4.87
1527 18.9296 23.65 23.86 4.86
1528 18.9400 23.54 23.85 4.85
1529 18.9504 23.55 23.85 4.85
1530 18.9608 23.71 23.85 4.87
1531 18.9713 23.78 23.85 4.88
1532 18.9817 23.78 23.85 4.88
1533 18.9921 23.80 23.86 4.88
1534 19.0026 23.87 23.87 4.89
1535 19.0130 23.90 23.90 4.89
1536 19.0234 23.77 23.96 4.88
1537 19.0339 23.62 24.09 4.86
1538 19.0443 23.75 24.33 4.87
1539 19.0547 24.18 24.69 4.92
1540 19.0652 24.86 25.16 4.99
1541 19.0756 25.44 25.68 5.04
1542 19.0860 25.93 26.10 5.09
1543 19.0965 26.21 26.27 5.12
1544 19.1069 26.12 26.11 5.11
1545 19.1173 25.67 25.70 5.07
1546 19.1278 25.08 25.18 5.01
1547 19.1382 24.57 24.69 4.96
1548 19.1486 24.21 24.33 4.92
1549 19.1591 24.02 24.09 4.90
1550 19.1695 23.92 23.96 4.89
1551 19.1799 23.74 23.86 4.87
1552 19.1904 23.70 23.83 4.87
1553 19.2008 23.75 23.82 4.87
1554 19.2112 23.82 23.81 4.88
1555 19.2216 23.79 23.81 4.88
1556 19.2321 23.82 23.80 4.88
1557 19.2425 23.80 23.80 4.88
1558 19.2530 23.79 23.80 4.88
1559 19.2634 23.78 23.80 4.88
1560 19.2738 23.88 23.80 4.89
1561 19.2843 23.84 23.80 4.88
1562 19.2947 23.81 23.80 4.88
1563 19.3051 23.72 23.80 4.87
1564 19.3155 23.71 23.80 4.87
1565 19.3260 23.74 23.80 4.87
1566 19.3364 23.79 23.80 4.88
1567 19.3468 23.85 23.80 4.88
1568 19.3573 23.89 23.81 4.89
1569 19.3677 23.81 23.81 4.88
1570 19.3781 23.83 23.81 4.88
1571 19.3886 23.93 23.81 4.89
1572 19.3990 23.87 23.81 4.89
1573 19.4094 23.87 23.82 4.89
1574 19.4199 23.76 23.82 4.87
1575 19.4303 23.80 23.83 4.88
1576 19.4407 23.73 23.83 4.87
1577 19.4512 23.76 23.85 4.87
1578 19.4616 23.74 23.87 4.87
1579 19.4720 23.85 23.91 4.88
1580 19.4825 24.05 24.00 4.90
1581 19.4929 24.27 24.17 4.93
1582 19.5033 24.54 24.45 4.95
1583 19.5138 24.82 24.85 4.98
1584 19.5242 25.31 25.33 5.03
1585 19.5346 25.75 25.79 5.07
1586 19.5451 26.10 26.08 5.11
1587 19.5555 26.08 26.09 5.11
1588 19.5659 25.86 25.80 5.09
1589 19.5764 25.36 25.34 5.04
1590 19.5868 24.87 24.86 4.99
1591 19.5972 24.31 24.47 4.93
1592 19.6077 24.22 24.19 4.92
1593 19.6181 24.09 24.02 4.91
1594 19.6285 23.96 23.93 4.89
1595 19.6390 23.84 23.89 4.88
1596 19.6494 23.80 23.87 4.88
1597 19.6598 23.77 23.86 4.88
1598 19.6702 23.72 23.85 4.87
1599 19.6807 23.86 23.85 4.88
1600 19.6911 23.92 23.85 4.89
1601 19.7015 24.08 23.85 4.91
1602 19.7120 24.18 23.84 4.92
1603 19.7224 24.30 23.84 4.93
1604 19.7328 24.27 23.84 4.93
1605 19.7433 24.28 23.84 4.93
1606 19.7537 24.17 23.84 4.92
1607 19.7641 24.04 23.84 4.90
1608 19.7746 23.95 23.85 4.89
1609 19.7850 23.94 23.85 4.89
1610 19.7954 23.91 23.85 4.89
1611 19.8059 23.79 23.85 4.88
1612 19.8163 23.85 23.85 4.88
1613 19.8267 24.01 23.85 4.90
1614 19.8372 24.20 23.85 4.92
1615 19.8476 24.13 23.85 4.91
1616 19.8580 24.00 23.85 4.90
1617 19.8685 23.93 23.85 4.89
1618 19.8789 23.94 23.85 4.89
1619 19.8893 23.94 23.86 4.89
1620 19.8998 23.95 23.86 4.89
1621 19.9102 24.01 23.86 4.90
1622 19.9206 24.12 23.86 4.91
1623 19.9311 24.16 23.86 4.92
1624 19.9415 24.11 23.86 4.91
1625 19.9519 23.98 23.86 4.90
1626 19.9624 23.95 23.87 4.89
1627 19.9728 23.93 23.87 4.89
1628 19.9832 24.01 23.87 4.90
1629 19.9937 24.01 23.87 4.90
1630 20.0041 24.01 23.87 4.90
1631 20.0145 24.02 23.87 4.90
1632 20.0250 24.07 23.88 4.91
1633 20.0354 24.14 23.88 4.91
1634 20.0458 24.15 23.88 4.91
1635 20.0562 24.18 23.88 4.92
1636 20.0667 24.12 23.88 4.91
1637 20.0771 24.11 23.88 4.91
1638 20.0875 24.07 23.88 4.91
1639 20.0980 24.04 23.88 4.90
1640 20.1084 23.96 23.89 4.90
1641 20.1188 23.91 23.89 4.89
1642 20.1293 24.03 23.89 4.90
1643 20.1397 24.15 23.89 4.91
1644 20.1501 24.20 23.89 4.92
1645 20.1606 24.11 23.90 4.91
1646 20.1710 24.17 23.90 4.92
1647 20.1814 24.13 23.90 4.91
1648 20.1919 24.02 23.90 4.90
1649 20.2023 24.02 23.90 4.90
1650 20.2127 24.05 23.91 4.90
1651 20.2232 24.01 23.91 4.90
1652 20.2336 23.97 23.91 4.90
1653 20.2440 24.01 23.91 4.90
1654 20.2545 24.16 23.92 4.91
1655 20.2649 24.09 23.92 4.91
1656 20.2753 24.15 23.92 4.91
1657 20.2858 24.11 23.93 4.91
1658 20.2962 24.09 23.93 4.91
1659 20.3066 24.07 23.94 4.91
1660 20.3171 24.01 23.94 4.90
1661 20.3275 23.97 23.95 4.90
1662 20.3379 23.89 23.97 4.89
1663 20.3484 24.03 24.01 4.90
1664 20.3588 24.07 24.08 4.91
1665 20.3692 24.32 24.22 4.93
1666 20.3797 24.51 24.46 4.95
1667 20.3901 24.99 24.82 5.00
1668 20.4005 25.31 25.26 5.03
1669 20.4109 25.75 25.71 5.07
1670 20.4214 26.00 26.03 5.10
1671 20.4318 26.16 26.09 5.11
1672 20.4422 26.00 25.87 5.10
1673 20.4527 25.71 25.47 5.07
1674 20.4631 25.28 25.01 5.03
1675 20.4735 24.97 24.62 5.00
1676 20.4840 24.61 24.33 4.96
1677 20.4944 24.42 24.15 4.94
1678 20.5048 24.09 24.06 4.91
1679 20.5153 24.07 24.01 4.91
1680 20.5257 24.00 23.99 4.90
1681 20.5361 24.04 23.98 4.90
1682 20.5466 24.01 23.97 4.90
1683 20.5570 23.94 23.97 4.89
1684 20.5674 24.00 23.97 4.90
1685 20.5779 24.04 23.97 4.90
1686 20.5883 24.15 23.97 4.91
1687 20.5987 24.28 23.97 4.93
1688 20.6092 24.35 23.97 4.93
1689 20.6196 24.31 23.97 4.93
1690 20.6300 24.17 23.97 4.92
1691 20.6405 24.06 23.97 4.91
1692 20.6509 24.05 23.97 4.90
1693 20.6613 24.07 23.97 4.91
1694 20.6718 24.16 23.97 4.92
1695 20.6822 24.26 23.97 4.93
1696 20.6926 24.26 23.98 4.93
1697 20.7031 24.27 23.98 4.93
1698 20.7135 24.30 23.98 4.93
1699 20.7239 24.25 23.98 4.92
1700 20.7344 24.22 24.11 4.92
1701 20.7448 24.22 24.11 4.92
1702 20.7552 24.31 24.12 4.93
1703 20.7656 24.32 24.13 4.93
1704 20.7761 24.27 24.14 4.93
1705 20.7865 24.16 24.14 4.91
1706 20.7969 24.08 24.15 4.91
1707 20.8074 24.07 24.16 4.91
1708 20.8178 24.00 24.17 4.90
1709 20.8282 23.94 24.18 4.89
1710 20.8387 24.07 24.19 4.91
1711 20.8491 24.25 24.20 4.92
1712 20.8595 24.38 24.21 4.94
1713 20.8700 24.37 24.23 4.94
1714 20.8804 24.38 24.24 4.94
1715 20.8908 24.36 24.26 4.94
1716 20.9013 24.29 24.27 4.93
1717 20.9117 24.23 24.29 4.92
1718 20.9221 24.18 24.31 4.92
1719 20.9326 24.22 24.33 4.92
1720 20.9430 24.34 24.35 4.93
1721 20.9534 24.34 24.37 4.93
1722 20.9639 24.23 24.40 4.92
1723 20.9743 24.14 24.43 4.91
1724 20.9847 24.17 24.46 4.92
1725 20.9952 24.36 24.49 4.94
1726 21.0056 24.49 24.53 4.95
1727 21.0160 24.52 24.57 4.95
1728 21.0265 24.47 24.62 4.95
1729 21.0369 24.71 24.68 4.97
1730 21.0473 24.84 24.74 4.98
1731 21.0578 24.88 24.81 4.99
1732 21.0682 24.85 24.89 4.98
1733 21.0786 24.94 24.99 4.99
1734 21.0891 25.05 25.10 5.01
1735 21.0995 25.02 25.23 5.00
1736 21.1099 25.08 25.38 5.01
1737 21.1203 25.09 25.57 5.01
1738 21.1308 25.26 25.79 5.03
1739 21.1412 25.46 26.13 5.05
1740 21.1516 25.81 26.49 5.08
1741 21.1621 26.07 27.00 5.11
1742 21.1725 26.65 27.85 5.16
1743 21.1829 27.82 29.50 5.27
1744 21.1934 30.13 32.97 5.49
1745 21.2038 34.91 40.11 5.91
1746 21.2142 45.48 53.64 6.74
1747 21.2247 66.81 76.34 8.17
1748 21.2351 101.75 109.23 10.09
1749 21.2455 145.81 149.41 12.08
1750 21.2560 187.19 188.65 13.68
1751 21.2664 212.61 214.89 14.58
1752 21.2768 216.96 217.23 14.73
1753 21.2873 199.44 194.54 14.12
1754 21.2977 164.58 156.63 12.83
1755 21.3081 125.01 115.93 11.18
1756 21.3186 90.76 81.44 9.53
1757 21.3290 64.77 56.96 8.05
1758 21.3394 48.13 42.01 6.94
1759 21.3499 37.87 33.98 6.15
1760 21.3603 32.16 30.06 5.67
1761 21.3707 29.24 28.20 5.41
1762 21.3812 27.71 27.27 5.26
1763 21.3916 27.06 26.74 5.20
1764 21.4020 26.55 26.37 5.15
1765 21.4125 26.17 26.10 5.12
1766 21.4229 25.83 25.89 5.08
1767 21.4333 25.66 25.73 5.07
1768 21.4438 25.82 25.60 5.08
1769 21.4542 26.27 25.49 5.13
1770 21.4646 26.77 25.41 5.17
1771 21.4750 27.07 25.35 5.20
1772 21.4855 27.23 25.31 5.22
1773 21.4959 27.23 25.29 5.22
1774 21.5063 27.11 25.29 5.21
1775 21.5168 26.79 25.30 5.18
1776 21.5272 26.31 25.33 5.13
1777 21.5376 25.92 25.38 5.09
1778 21.5481 25.68 25.46 5.07
1779 21.5585 25.52 25.58 5.05
1780 21.5689 25.46 25.76 5.05
1781 21.5794 25.53 26.06 5.05
1782 21.5898 25.95 26.64 5.09
1783 21.6002 26.68 27.86 5.17
1784 21.6107 28.18 30.45 5.31
1785 21.6211 31.73 35.53 5.63
1786 21.6315 39.86 44.42 6.31
1787 21.6420 53.79 57.94 7.33
1788 21.6524 73.15 75.39 8.55
1789 21.6628 92.70 93.83 9.63
1790 21.6733 107.01 108.17 10.34
1791 21.6837 112.17 112.90 10.59
1792 21.6941 107.30 105.80 10.36
1793 21.7046 93.30 90.11 9.66
1794 21.7150 75.59 71.50 8.69
1795 21.7254 59.28 54.66 7.70
1796 21.7359 46.38 42.10 6.81
1797 21.7463 37.61 34.08 6.13
1798 21.7567 31.93 29.61 5.65
1799 21.7672 28.54 27.35 5.34
1800 21.7776 26.72 26.28 5.17
1801 21.7880 25.83 25.75 5.08
1802 21.7985 25.53 25.46 5.05
1803 21.8089 25.28 25.26 5.03
1804 21.8193 24.99 24.99 5.00
1805 21.8298 24.79 24.88 4.98
1806 21.8402 24.64 24.79 4.96
1807 21.8506 24.51 24.71 4.95
1808 21.8610 24.38 24.65 4.94
1809 21.8715 24.26 24.60 4.93
1810 21.8819 24.21 24.55 4.92
1811 21.8923 24.26 24.52 4.93
1812 21.9028 24.41 24.48 4.94
1813 21.9132 24.36 24.45 4.94
1814 21.9236 24.37 24.43 4.94
1815 21.9341 24.27 24.41 4.93
1816 21.9445 24.26 24.39 4.93
1817 21.9549 24.21 24.38 4.92
1818 21.9654 24.21 24.36 4.92
1819 21.9758 24.22 24.35 4.92
1820 21.9862 24.16 24.34 4.92
1821 21.9967 24.12 24.32 4.91
1822 22.0071 24.10 24.32 4.91
1823 22.0175 24.25 24.31 4.92
1824 22.0280 24.35 24.30 4.93
1825 22.0384 24.45 24.29 4.95
1826 22.0488 24.48 24.29 4.95
1827 22.0593 24.41 24.28 4.94
1828 22.0697 24.27 24.28 4.93
1829 22.0801 24.19 24.27 4.92
1830 22.0906 24.16 24.27 4.92
1831 22.1010 24.16 24.26 4.92
1832 22.1114 24.25 24.26 4.92
1833 22.1219 24.25 24.26 4.92
1834 22.1323 24.20 24.26 4.92
1835 22.1427 24.16 24.25 4.92
1836 22.1532 24.15 24.25 4.91
1837 22.1636 24.19 24.25 4.92
1838 22.1740 24.21 24.25 4.92
1839 22.1845 24.19 24.25 4.92
1840 22.1949 24.20 24.25 4.92
1841 22.2053 24.23 24.25 4.92
1842 22.2157 24.27 24.25 4.93
1843 22.2262 24.30 24.25 4.93
1844 22.2366 24.29 24.19 4.93
1845 22.2470 24.32 24.19 4.93
1846 22.2575 24.17 24.20 4.92
1847 22.2679 24.11 24.20 4.91
1848 22.2783 24.03 24.20 4.90
1849 22.2888 24.06 24.21 4.91
1850 22.2992 24.13 24.21 4.91
1851 22.3096 24.23 24.21 4.92
1852 22.3201 24.26 24.22 4.93
1853 22.3305 24.30 24.23 4.93
1854 22.3409 24.40 24.24 4.94
1855 22.3514 24.36 24.25 4.94
1856 22.3618 24.34 24.26 4.93
1857 22.3722 24.31 24.27 4.93
1858 22.3827 24.32 24.30 4.93
1859 22.3931 24.27 24.35 4.93
1860 22.4035 24.36 24.44 4.94
1861 22.4140 24.62 24.64 4.96
1862 22.4244 24.86 25.01 4.99
1863 22.4348 25.41 25.62 5.04
1864 22.4453 26.27 26.48 5.13
1865 22.4557 27.36 27.51 5.23
1866 22.4661 28.47 28.48 5.34
1867 22.4766 29.21 29.08 5.40
1868 22.4870 29.26 29.06 5.41
1869 22.4974 28.72 28.43 5.36
1870 22.5079 27.88 27.44 5.28
1871 22.5183 26.97 26.43 5.19
1872 22.5287 26.15 25.58 5.11
1873 22.5392 25.48 25.00 5.05
1874 22.5496 24.90 24.65 4.99
1875 22.5600 24.54 24.46 4.95
1876 22.5704 24.43 24.37 4.94
1877 22.5809 24.41 24.33 4.94
1878 22.5913 24.35 24.31 4.93
1879 22.6017 24.21 24.30 4.92
1880 22.6122 24.22 24.29 4.92
1881 22.6226 24.24 24.29 4.92
1882 22.6330 24.33 24.29 4.93
1883 22.6435 24.34 24.28 4.93
1884 22.6539 24.32 24.29 4.93
1885 22.6643 24.27 24.29 4.93
1886 22.6748 24.30 24.29 4.93
1887 22.6852 24.30 24.29 4.93
1888 22.6956 24.25 24.30 4.92
1889 22.7061 24.23 24.31 4.92
1890 22.7165 24.26 24.31 4.93
1891 22.7269 24.28 24.32 4.93
1892 22.7374 24.35 24.34 4.93
1893 22.7478 24.44 24.36 4.94
1894 22.7582 24.49 24.38 4.95
1895 22.7687 24.51 24.42 4.95
1896 22.7791 24.55 24.49 4.95
1897 22.7895 24.61 24.65 4.96
1898 22.8000 24.71 24.97 4.97
1899 22.8104 25.13 25.58 5.01
1900 22.8208 26.11 26.64 5.11
1901 22.8313 27.77 28.22 5.27
1902 22.8417 30.02 30.23 5.48
1903 22.8521 32.28 32.31 5.68
1904 22.8626 33.77 33.86 5.81
1905 22.8730 34.19 34.27 5.85
1906 22.8834 33.53 33.34 5.79
1907 22.8939 31.99 31.50 5.66
1908 22.9043 30.13 29.39 5.49
1909 22.9147 28.41 27.52 5.33
1910 22.9251 27.02 26.15 5.20
1911 22.9356 25.97 25.29 5.10
1912 22.9460 25.31 24.81 5.03
1913 22.9564 24.96 24.58 5.00
1914 22.9669 24.69 24.46 4.97
1915 22.9773 24.48 24.41 4.95
1916 22.9877 24.39 24.37 4.94
1917 22.9982 24.32 24.35 4.93
1918 23.0086 24.42 24.34 4.94
1919 23.0190 24.51 24.33 4.95
1920 23.0295 24.49 24.31 4.95
1921 23.0399 24.45 24.30 4.94
1922 23.0503 24.45 24.30 4.94
1923 23.0608 24.38 24.29 4.94
1924 23.0712 24.27 24.29 4.93
1925 23.0816 24.24 24.28 4.92
1926 23.0921 24.21 24.32 4.92
1927 23.1025 24.19 24.32 4.92
1928 23.1129 24.21 24.32 4.92
1929 23.1234 24.30 24.32 4.93
1930 23.1338 24.27 24.32 4.93
1931 23.1442 24.21 24.32 4.92
1932 23.1547 24.25 24.32 4.92
1933 23.1651 24.29 24.32 4.93
1934 23.1755 24.40 24.32 4.94
1935 23.1860 24.49 24.32 4.95
1936 23.1964 24.55 24.33 4.95
1937 23.2068 24.40 24.33 4.94
1938 23.2173 24.27 24.33 4.93
1939 23.2277 24.28 24.33 4.93
1940 23.2381 24.30 24.34 4.93
1941 23.2486 24.32 24.34 4.93
1942 23.2590 24.42 24.35 4.94
1943 23.2694 24.51 24.35 4.95
1944 23.2799 24.55 24.36 4.95
1945 23.2903 24.51 24.36 4.95
1946 23.3007 24.44 24.37 4.94
1947 23.3111 24.48 24.37 4.95
1948 23.3216 24.48 24.38 4.95
1949 23.3320 24.52 24.39 4.95
1950 23.3424 24.42 24.40 4.94
1951 23.3529 24.42 24.41 4.94
1952 23.3633 24.45 24.42 4.94
1953 23.3737 24.55 24.44 4.96
1954 23.3842 24.60 24.45 4.96
1955 23.3946 24.64 24.47 4.96
1956 23.4050 24.64 24.49 4.96
1957 23.4155 24.59 24.51 4.96
1958 23.4259 24.56 24.53 4.96
1959 23.4363 24.58 24.56 4.96
1960 23.4468 24.65 24.59 4.96
1961 23.4572 24.72 24.64 4.97
1962 23.4676 24.88 24.71 4.99
1963 23.4781 24.88 24.77 4.99
1964 23.4885 24.90 24.84 4.99
1965 23.4989 24.85 24.93 4.98
1966 23.5094 24.88 25.04 4.99
1967 23.5198 25.07 25.20 5.01
1968 23.5302 25.28 25.45 5.03
1969 23.5407 25.58 25.93 5.06
1970 23.5511 26.08 26.91 5.11
1971 23.5615 27.46 28.94 5.24
1972 23.5720 30.41 32.82 5.51
1973 23.5824 36.05 39.41 6.00
1974 23.5928 46.03 49.16 6.78
1975 23.6033 58.62 61.33 7.66
1976 23.6137 71.30 73.67 8.44
1977 23.6241 79.93 82.51 8.94
1978 23.6346 82.42 84.29 9.08
1979 23.6450 78.43 78.16 8.86
1980 23.6554 69.54 66.83 8.34
1981 23.6658 58.64 54.22 7.66
1982 23.6763 48.64 43.26 6.97
1983 23.6867 40.78 35.31 6.39
1984 23.6971 34.76 30.37 5.90
1985 23.7076 30.80 27.66 5.55
1986 23.7180 28.18 26.32 5.31
1987 23.7284 26.65 25.68 5.16
1988 23.7389 25.81 25.36 5.08
1989 23.7493 25.38 25.18 5.04
1990 23.7597 25.14 25.07 5.01
1991 23.7702 24.99 24.98 5.00
1992 23.7806 24.97 24.92 5.00
1993 23.7910 24.94 24.87 4.99
1994 23.8015 24.98 24.83 5.00
1995 23.8119 24.93 24.81 4.99
1996 23.8223 25.07 24.79 5.01
1997 23.8328 25.05 24.80 5.01
1998 23.8432 24.87 24.80 4.99
1999 23.8536 24.74 24.82 4.97
2000 23.8641 24.73 24.84 4.97
2001 23.8745 24.87 24.88 4.99
2002 23.8849 25.01 24.94 5.00
2003 23.8954 25.10 25.03 5.01
2004 23.9058 25.16 25.21 5.02
2005 23.9162 25.31 25.56 5.03
2006 23.9267 25.65 26.32 5.06
2007 23.9371 26.66 27.85 5.16
2008 23.9475 28.89 30.67 5.37
2009 23.9580 33.18 35.26 5.76
2010 23.9684 39.77 41.66 6.31
2011 23.9788 47.65 49.14 6.90
2012 23.9893 54.73 56.00 7.40
2013 23.9997 58.53 59.94 7.65
2014 24.0101 58.63 59.23 7.66
2015 24.0205 55.12 54.20 7.42
2016 24.0310 48.91 46.94 6.99
2017 24.0414 42.18 39.63 6.49
2018 24.0518 36.68 33.71 6.06
2019 24.0623 32.45 29.65 5.70
2020 24.0727 29.40 27.25 5.42
2021 24.0831 27.43 25.98 5.24
2022 24.0936 26.14 25.37 5.11
2023 24.1040 25.42 25.07 5.04
2024 24.1144 25.02 24.91 5.00
2025 24.1249 24.84 24.82 4.98
2026 24.1353 24.75 24.76 4.97
2027 24.1457 24.70 24.71 4.97
2028 24.1562 24.71 24.67 4.97
2029 24.1666 24.77 24.64 4.98
2030 24.1770 24.75 24.58 4.97
2031 24.1875 24.67 24.57 4.97
2032 24.1979 24.70 24.56 4.97
2033 24.2083 24.74 24.56 4.97
2034 24.2188 24.74 24.56 4.97
2035 24.2292 24.71 24.57 4.97
2036 24.2396 24.70 24.58 4.97
2037 24.2501 24.66 24.61 4.97
2038 24.2605 24.72 24.65 4.97
2039 24.2709 24.81 24.74 4.98
2040 24.2814 24.90 24.90 4.99
2041 24.2918 25.07 25.25 5.01
2042 24.3022 25.57 25.97 5.06
2043 24.3127 26.58 27.33 5.16
2044 24.3231 28.54 29.57 5.34
2045 24.3335 31.80 32.76 5.64
2046 24.3440 35.95 36.58 6.00
2047 24.3544 40.01 40.22 6.33
2048 24.3648 42.31 42.50 6.50
2049 24.3752 42.33 42.46 6.51
2050 24.3857 40.44 40.11 6.36
2051 24.3961 37.26 36.44 6.10
2052 24.4065 33.84 32.62 5.82
2053 24.4170 30.91 29.45 5.56
2054 24.4274 28.57 27.24 5.34
2055 24.4378 26.78 25.90 5.17
2056 24.4483 25.70 25.18 5.07
2057 24.4587 25.27 24.83 5.03
2058 24.4691 24.95 24.66 5.00
2059 24.4796 24.78 24.57 4.98
2060 24.4900 24.70 24.52 4.97
2061 24.5004 24.74 24.48 4.97
2062 24.5109 24.66 24.45 4.97
2063 24.5213 24.59 24.43 4.96
2064 24.5317 24.53 24.41 4.95
2065 24.5422 24.45 24.40 4.94
2066 24.5526 24.46 24.42 4.95
2067 24.5630 24.43 24.42 4.94
2068 24.5735 24.47 24.41 4.95
2069 24.5839 24.61 24.41 4.96
2070 24.5943 24.61 24.41 4.96
2071 24.6048 24.56 24.41 4.96
2072 24.6152 24.49 24.42 4.95
2073 24.6256 24.55 24.43 4.95
2074 24.6361 24.53 24.45 4.95
2075 24.6465 24.61 24.49 4.96
2076 24.6569 24.62 24.57 4.96
2077 24.6674 24.68 24.74 4.97
2078 24.6778 24.91 25.05 4.99
2079 24.6882 25.48 25.52 5.05
2080 24.6987 26.25 26.16 5.12
2081 24.7091 26.99 26.87 5.20
2082 24.7195 27.62 27.48 5.26
2083 24.7299 27.86 27.76 5.28
2084 24.7404 27.79 27.60 5.27
2085 24.7508 27.36 27.06 5.23
2086 24.7612 26.72 26.37 5.17
2087 24.7717 25.95 25.72 5.09
2088 24.7821 25.41 25.21 5.04
2089 24.7925 25.07 24.88 5.01
2090 24.8030 24.79 24.70 4.98
2091 24.8134 24.64 24.61 4.96
2092 24.8238 24.60 24.58 4.96
2093 24.8343 24.64 24.58 4.96
2094 24.8447 24.64 24.59 4.96
2095 24.8551 24.60 24.60 4.96
2096 24.8656 24.67 24.63 4.97
2097 24.8760 24.80 24.66 4.98
2098 24.8864 24.77 24.69 4.98
2099 24.8969 24.69 24.74 4.97
2100 24.9073 24.59 24.79 4.96
2101 24.9177 24.68 24.84 4.97
2102 24.9282 24.70 24.92 4.97
2103 24.9386 24.78 25.01 4.98
2104 24.9490 24.95 25.13 4.99
2105 24.9595 25.10 25.27 5.01
2106 24.9699 25.27 25.46 5.03
2107 24.9803 25.39 25.75 5.04
2108 24.9908 25.71 26.23 5.07
2109 25.0012 26.30 27.19 5.13
2110 25.0116 27.50 29.19 5.24
2111 25.0221 30.28 33.19 5.50
2112 25.0325 36.30 40.50 6.02
2113 25.0429 47.77 52.23 6.91
2114 25.0534 65.63 68.45 8.10
2115 25.0638 86.45 87.16 9.30
2116 25.0742 104.18 104.01 10.21
2117 25.0847 113.28 113.24 10.64
2118 25.0951 111.20 110.72 10.55
2119 25.1055 99.18 97.66 9.96
2120 25.1159 82.38 79.39 9.08
2121 25.1264 65.09 61.31 8.07
2122 25.1368 50.63 46.83 7.12
2123 25.1472 40.48 36.99 6.36
2124 25.1577 33.71 31.20 5.81
2125 25.1681 29.89 28.17 5.47
2126 25.1785 27.71 26.69 5.26
2127 25.1890 26.47 25.97 5.15
2128 25.1994 25.91 25.59 5.09
2129 25.2098 25.83 25.35 5.08
2130 25.2203 25.99 25.17 5.10
2131 25.2307 26.15 25.04 5.11
2132 25.2411 26.42 24.93 5.14
2133 25.2516 26.48 24.85 5.15
2134 25.2620 26.65 24.78 5.16
2135 25.2724 26.62 24.71 5.16
2136 25.2829 26.33 24.66 5.13
2137 25.2933 25.85 24.61 5.08
2138 25.3037 25.38 24.57 5.04
2139 25.3142 24.97 24.54 5.00
2140 25.3246 24.68 24.51 4.97
2141 25.3350 24.47 24.48 4.95
2142 25.3455 24.34 24.46 4.93
2143 25.3559 24.34 24.44 4.93
2144 25.3663 24.44 24.42 4.94
2145 25.3768 24.45 24.40 4.95
2146 25.3872 24.41 24.39 4.94
2147 25.3976 24.42 24.38 4.94
2148 25.4081 24.33 24.36 4.93
2149 25.4185 24.31 24.35 4.93
2150 25.4289 24.42 24.34 4.94
2151 25.4394 24.48 24.33 4.95
2152 25.4498 24.40 24.33 4.94
2153 25.4602 24.30 24.32 4.93
2154 25.4706 24.29 24.31 4.93
2155 25.4811 24.34 24.31 4.93
2156 25.4915 24.43 24.30 4.94
2157 25.5019 24.38 24.30 4.94
2158 25.5124 24.26 24.30 4.93
2159 25.5228 24.29 24.30 4.93
2160 25.5332 24.35 24.30 4.93
2161 25.5437 24.39 24.29 4.94
2162 25.5541 24.31 24.30 4.93
2163 25.5645 24.23 24.30 4.92
2164 25.5750 24.28 24.30 4.93
2165 25.5854 24.40 24.30 4.94
2166 25.5958 24.44 24.31 4.94
2167 25.6063 24.34 24.32 4.93
2168 25.6167 24.32 24.33 4.93
2169 25.6271 24.31 24.34 4.93
2170 25.6376 24.28 24.29 4.93
2171 25.6480 24.29 24.32 4.93
2172 25.6584 24.19 24.35 4.92
2173 25.6689 24.17 24.38 4.92
2174 25.6793 24.16 24.44 4.92
2175 25.6897 24.40 24.54 4.94
2176 25.7002 24.62 24.73 4.96
2177 25.7106 24.77 25.12 4.98
2178 25.7210 25.23 25.92 5.02
2179 25.7315 26.53 27.38 5.15
2180 25.7419 28.91 29.73 5.38
2181 25.7523 32.76 32.97 5.72
2182 25.7628 37.24 36.74 6.10
2183 25.7732 40.93 40.15 6.40
2184 25.7836 42.75 42.04 6.54
2185 25.7941 42.21 41.57 6.50
2186 25.8045 39.65 38.97 6.30
2187 25.8149 36.03 35.29 6.00
2188 25.8253 32.36 31.65 5.69
2189 25.8358 29.32 28.71 5.41
2190 25.8462 27.29 26.72 5.22
2191 25.8566 25.95 25.54 5.09
2192 25.8671 25.22 24.92 5.02
2193 25.8775 24.78 24.62 4.98
2194 25.8880 24.56 24.47 4.96
2195 25.8984 24.41 24.39 4.94
2196 25.9088 24.28 24.34 4.93
2197 25.9192 24.23 24.30 4.92
2198 25.9297 24.17 24.31 4.92
2199 25.9401 24.12 24.29 4.91
2200 25.9505 24.12 24.27 4.91
2201 25.9610 24.17 24.25 4.92
2202 25.9714 24.24 24.24 4.92
2203 25.9818 24.19 24.23 4.92
2204 25.9923 24.23 24.22 4.92
2205 26.0027 24.23 24.21 4.92
2206 26.0131 24.15 24.21 4.91
2207 26.0236 24.14 24.20 4.91
2208 26.0340 24.19 24.20 4.92
2209 26.0444 24.28 24.20 4.93
2210 26.0549 24.27 24.19 4.93
2211 26.0653 24.15 24.19 4.91
2212 26.0757 24.19 24.19 4.92
2213 26.0862 24.20 24.19 4.92
2214 26.0966 24.28 24.19 4.93
2215 26.1070 24.23 24.19 4.92
2216 26.1175 24.16 24.19 4.92
2217 26.1279 24.16 24.19 4.91
2218 26.1383 24.22 24.20 4.92
2219 26.1488 24.25 24.20 4.92
2220 26.1592 24.22 24.20 4.92
2221 26.1696 24.09 24.21 4.91
2222 26.1800 24.05 24.21 4.90
2223 26.1905 24.17 24.22 4.92
2224 26.2009 24.26 24.23 4.93
2225 26.2113 24.21 24.24 4.92
2226 26.2218 24.26 24.25 4.93
2227 26.2322 24.20 24.26 4.92
2228 26.2426 24.18 24.28 4.92
2229 26.2531 24.06 24.30 4.90
2230 26.2635 24.10 24.34 4.91
2231 26.2739 24.28 24.37 4.93
2232 26.2844 24.37 24.40 4.94
2233 26.2948 24.40 24.44 4.94
2234 26.3052 24.45 24.48 4.95
2235 26.3157 24.62 24.53 4.96
2236 26.3261 24.70 24.59 4.97
2237 26.3365 24.72 24.66 4.97
2238 26.3470 24.71 24.76 4.97
2239 26.3574 24.90 24.90 4.99
2240 26.3678 25.19 25.13 5.02
2241 26.3783 25.48 25.55 5.05
2242 26.3887 25.95 26.42 5.09
2243 26.3991 27.04 28.19 5.20
2244 26.4096 29.55 31.56 5.44
2245 26.4200 34.71 37.25 5.89
2246 26.4304 43.59 45.58 6.60
2247 26.4409 55.64 55.93 7.46
2248 26.4513 67.79 66.32 8.23
2249 26.4617 75.08 73.65 8.66
2250 26.4722 76.43 74.88 8.74
2251 26.4826 71.21 69.44 8.44
2252 26.4930 61.48 59.74 7.84
2253 26.5035 50.74 49.09 7.12
2254 26.5139 41.74 39.90 6.46
2255 26.5243 34.90 33.29 5.91
2256 26.5347 30.39 29.19 5.51
2257 26.5452 27.64 26.95 5.26
2258 26.5556 26.08 25.84 5.11
2259 26.5660 25.37 25.31 5.04
2260 26.5765 25.00 25.04 5.00
2261 26.5869 24.85 24.89 4.99
2262 26.5973 24.72 24.81 4.97
2263 26.6078 24.59 24.74 4.96
2264 26.6182 24.47 24.70 4.95
2265 26.6286 24.47 24.66 4.95
2266 26.6391 24.52 24.65 4.95
2267 26.6495 24.59 24.64 4.96
2268 26.6599 24.59 24.65 4.96
2269 26.6704 24.56 24.68 4.96
2270 26.6808 24.60 24.72 4.96
2271 26.6912 24.67 24.79 4.97
2272 26.7017 24.66 24.92 4.97
2273 26.7121 24.75 25.18 4.98
2274 26.7225 25.07 25.72 5.01
2275 26.7330 25.81 26.85 5.08
2276 26.7434 27.22 29.03 5.22
2277 26.7538 30.46 32.76 5.52
2278 26.7643 36.34 38.32 6.03
2279 26.7747 44.69 45.37 6.68
2280 26.7851 53.31 52.62 7.30
2281 26.7956 59.09 58.00 7.69
2282 26.8060 60.66 59.34 7.79
2283 26.8164 57.37 55.99 7.57
2284 26.8269 50.74 49.48 7.12
2285 26.8373 43.20 42.10 6.57
2286 26.8477 36.56 35.60 6.05
2287 26.8582 31.79 30.84 5.64
2288 26.8686 28.56 27.85 5.34
2289 26.8790 26.69 26.19 5.17
2290 26.8895 25.60 25.36 5.06
2291 26.8999 24.98 24.96 5.00
2292 26.9103 24.74 24.76 4.97
2293 26.9207 24.66 24.67 4.97
2294 26.9312 24.57 24.60 4.96
2295 26.9416 24.38 24.55 4.94
2296 26.9520 24.28 24.51 4.93
2297 26.9625 24.12 24.49 4.91
2298 26.9729 24.14 24.48 4.91
2299 26.9834 24.26 24.48 4.93
2300 26.9938 24.34 24.49 4.93
2301 27.0042 24.20 24.51 4.92
2302 27.0146 24.24 24.52 4.92
2303 27.0251 24.38 24.58 4.94
2304 27.0355 24.43 24.71 4.94
2305 27.0459 24.52 24.95 4.95
2306 27.0564 24.79 25.47 4.98
2307 27.0668 25.52 26.53 5.05
2308 27.0772 26.94 28.53 5.19
2309 27.0877 29.89 31.82 5.47
2310 27.0981 35.05 36.54 5.92
2311 27.1085 41.83 42.23 6.47
2312 27.1190 48.14 47.71 6.94
2313 27.1294 51.78 51.22 7.20
2314 27.1398 51.81 51.28 7.20
2315 27.1503 48.48 47.83 6.96
2316 27.1607 43.11 42.38 6.57
2317 27.1711 37.43 36.67 6.12
2318 27.1816 32.73 31.91 5.72
2319 27.1920 29.37 28.57 5.42
2320 27.2024 27.00 26.54 5.20
2321 27.2129 25.68 25.46 5.07
2322 27.2233 25.01 24.92 5.00
2323 27.2337 24.75 24.66 4.97
2324 27.2442 24.62 24.54 4.96
2325 27.2546 24.40 24.47 4.94
2326 27.2650 24.26 24.42 4.93
2327 27.2754 24.10 24.39 4.91
2328 27.2859 24.15 24.37 4.91
2329 27.2963 24.17 24.36 4.92
2330 27.3067 24.21 24.36 4.92
2331 27.3172 24.28 24.37 4.93
2332 27.3276 24.33 24.39 4.93
2333 27.3381 24.41 24.43 4.94
2334 27.3485 24.40 24.48 4.94
2335 27.3589 24.31 24.56 4.93
2336 27.3693 24.28 24.74 4.93
2337 27.3798 24.55 25.14 4.95
2338 27.3902 25.00 25.95 5.00
2339 27.4006 26.11 27.54 5.11
2340 27.4111 28.50 30.31 5.34
2341 27.4215 33.01 34.51 5.75
2342 27.4319 39.57 39.94 6.29
2343 27.4424 46.45 45.68 6.82
2344 27.4528 51.41 50.18 7.17
2345 27.4632 53.29 51.66 7.30
2346 27.4737 51.13 49.43 7.15
2347 27.4841 46.12 44.51 6.79
2348 27.4945 39.96 38.71 6.32
2349 27.5050 34.42 33.49 5.87
2350 27.5154 30.39 29.58 5.51
2351 27.5258 27.68 27.08 5.26
2352 27.5363 26.10 25.68 5.11
2353 27.5467 25.24 24.96 5.02
2354 27.5571 24.82 24.61 4.98
2355 27.5676 24.59 24.44 4.96
2356 27.5780 24.43 24.34 4.94
2357 27.5884 24.32 24.28 4.93
2358 27.5989 24.18 24.23 4.92
2359 27.6093 24.11 24.20 4.91
2360 27.6197 24.00 24.17 4.90
2361 27.6301 24.02 24.15 4.90
2362 27.6406 24.04 24.14 4.90
2363 27.6510 24.11 24.13 4.91
2364 27.6614 24.16 24.13 4.92
2365 27.6719 24.09 24.14 4.91
2366 27.6823 24.07 24.14 4.91
2367 27.6928 23.99 24.20 4.90
2368 27.7032 23.92 24.33 4.89
2369 27.7136 23.94 24.62 4.89
2370 27.7240 24.42 25.17 4.94
2371 27.7345 25.36 26.15 5.04
2372 27.7449 26.98 27.65 5.19
2373 27.7553 29.39 29.60 5.42
2374 27.7658 32.04 31.69 5.66
2375 27.7762 33.99 33.35 5.83
2376 27.7866 34.51 33.94 5.87
2377 27.7971 33.66 33.17 5.80
2378 27.8075 31.85 31.41 5.64
2379 27.8179 29.75 29.30 5.45
2380 27.8284 27.67 27.39 5.26
2381 27.8388 26.06 25.94 5.10
2382 27.8492 24.97 25.01 5.00
2383 27.8597 24.41 24.49 4.94
2384 27.8701 24.15 24.22 4.91
2385 27.8805 24.16 24.10 4.92
2386 27.8910 24.03 24.03 4.90
2387 27.9014 23.97 23.99 4.90
2388 27.9118 23.91 23.96 4.89
2389 27.9223 23.85 23.94 4.88
2390 27.9327 23.75 23.93 4.87
2391 27.9431 23.69 23.91 4.87
2392 27.9536 23.74 23.90 4.87
2393 27.9640 23.71 23.89 4.87
2394 27.9744 23.75 23.88 4.87
2395 27.9848 23.72 23.88 4.87
2396 27.9953 23.84 23.87 4.88
2397 28.0057 23.79 23.86 4.88
2398 28.0161 23.76 23.84 4.87
2399 28.0266 23.78 23.84 4.88
2400 28.0370 23.75 23.84 4.87
2401 28.0474 23.77 23.85 4.88
2402 28.0579 23.68 23.87 4.87
2403 28.0683 23.68 23.90 4.87
2404 28.0787 23.67 23.93 4.87
2405 28.0892 23.65 23.97 4.86
2406 28.0996 23.67 23.99 4.86
2407 28.1100 23.82 23.99 4.88
2408 28.1205 23.81 23.97 4.88
2409 28.1309 23.82 23.94 4.88
2410 28.1413 23.84 23.91 4.88
2411 28.1518 23.91 23.88 4.89
2412 28.1622 23.75 23.85 4.87
2413 28.1726 23.66 23.84 4.86
2414 28.1831 23.72 23.84 4.87
2415 28.1935 23.86 23.84 4.88
2416 28.2039 23.76 23.84 4.87
2417 28.2144 23.65 23.85 4.86
2418 28.2248 23.59 23.86 4.86
2419 28.2352 23.64 23.86 4.86
2420 28.2457 23.72 23.88 4.87
2421 28.2561 23.71 23.89 4.87
2422 28.2665 23.68 23.91 4.87
2423 28.2770 23.73 23.93 4.87
2424 28.2874 23.86 23.95 4.89
2425 28.2978 23.82 23.99 4.88
2426 28.3083 23.75 24.03 4.87
2427 28.3187 23.84 24.10 4.88
2428 28.3291 23.95 24.23 4.89
2429 28.3396 24.03 24.47 4.90
2430 28.3500 24.28 24.99 4.93
2431 28.3604 24.92 26.00 4.99
2432 28.3708 26.25 27.78 5.12
2433 28.3813 29.00 30.55 5.38
2434 28.3917 33.23 34.21 5.76
2435 28.4021 38.33 38.22 6.19
2436 28.4126 42.28 41.53 6.50
2437 28.4230 43.89 42.92 6.63
2438 28.4334 42.82 41.73 6.54
2439 28.4439 39.65 38.51 6.30
2440 28.4543 35.46 34.52 5.95
2441 28.4647 31.44 30.80 5.61
2442 28.4752 28.40 27.95 5.33
2443 28.4856 26.51 26.09 5.15
2444 28.4960 25.32 25.02 5.03
2445 28.5065 24.50 24.49 4.95
2446 28.5169 24.14 24.22 4.91
2447 28.5273 24.02 24.08 4.90
2448 28.5378 23.80 24.01 4.88
2449 28.5482 23.58 23.96 4.86
2450 28.5586 23.64 23.92 4.86
2451 28.5691 23.78 23.89 4.88
2452 28.5795 23.81 23.86 4.88
2453 28.5899 23.76 23.84 4.87
2454 28.6004 23.72 23.83 4.87
2455 28.6108 23.63 23.81 4.86
2456 28.6212 23.59 23.80 4.86
2457 28.6317 23.58 23.79 4.86
2458 28.6421 23.56 23.78 4.85
2459 28.6525 23.47 23.77 4.84
2460 28.6630 23.50 23.76 4.85
2461 28.6734 23.42 23.76 4.84
2462 28.6838 23.33 23.75 4.83
2463 28.6943 23.41 23.75 4.84
2464 28.7047 23.51 23.74 4.85
2465 28.7151 23.42 23.74 4.84
2466 28.7255 23.27 23.74 4.82
2467 28.7360 23.22 23.74 4.82
2468 28.7464 23.26 23.73 4.82
2469 28.7568 23.16 23.73 4.81
2470 28.7673 23.13 23.73 4.81
2471 28.7777 23.18 23.73 4.81
2472 28.7882 23.12 23.73 4.81
2473 28.7986 23.19 23.73 4.82
2474 28.8090 23.30 23.73 4.83
2475 28.8194 23.45 23.75 4.84
2476 28.8299 23.46 23.75 4.84
2477 28.8403 23.46 23.76 4.84
2478 28.8507 23.41 23.76 4.84
2479 28.8612 23.33 23.77 4.83
2480 28.8716 23.25 23.78 4.82
2481 28.8820 23.37 23.79 4.83
2482 28.8925 23.47 23.80 4.84
2483 28.9029 23.53 23.82 4.85
2484 28.9133 23.58 23.84 4.86
2485 28.9238 23.53 23.87 4.85
2486 28.9342 23.49 23.91 4.85
2487 28.9446 23.56 23.97 4.85
2488 28.9551 23.64 24.08 4.86
2489 28.9655 23.63 24.30 4.86
2490 28.9759 23.87 24.73 4.89
2491 28.9864 24.48 25.60 4.95
2492 28.9968 25.70 27.10 5.07
2493 29.0072 27.98 29.39 5.29
2494 29.0177 31.38 32.36 5.60
2495 29.0281 34.83 35.52 5.90
2496 29.0385 37.77 38.01 6.15
2497 29.0490 38.78 38.87 6.23
2498 29.0594 37.56 37.67 6.13
2499 29.0698 34.86 34.99 5.90
2500 29.0802 31.64 31.82 5.62
2501 29.0907 28.81 28.95 5.37
2502 29.1011 26.83 26.79 5.18
2503 29.1115 25.44 25.42 5.04
2504 29.1220 24.52 24.66 4.95
2505 29.1324 24.01 24.26 4.90
2506 29.1429 23.75 24.08 4.87
2507 29.1533 23.53 23.98 4.85
2508 29.1637 23.42 23.93 4.84
2509 29.1741 23.52 23.90 4.85
2510 29.1846 23.51 23.89 4.85
2511 29.1950 23.53 23.88 4.85
2512 29.2054 23.57 23.87 4.86
2513 29.2159 23.53 23.87 4.85
2514 29.2263 23.42 23.88 4.84
2515 29.2367 23.41 23.90 4.84
2516 29.2472 23.47 23.94 4.84
2517 29.2576 23.49 24.00 4.85
2518 29.2680 23.62 24.13 4.86
2519 29.2785 23.80 24.40 4.88
2520 29.2889 24.15 24.95 4.91
2521 29.2993 24.81 25.97 4.98
2522 29.3098 26.37 27.62 5.13
2523 29.3202 29.13 29.96 5.40
2524 29.3306 32.77 32.72 5.72
2525 29.3411 35.97 35.31 6.00
2526 29.3515 37.70 36.87 6.14
2527 29.3619 37.45 36.71 6.12
2528 29.3724 35.69 34.91 5.97
2529 29.3828 32.99 32.23 5.74
2530 29.3932 30.19 29.50 5.49
2531 29.4037 27.55 27.28 5.25
2532 29.4141 25.79 25.74 5.08
2533 29.4245 24.78 24.82 4.98
2534 29.4349 24.09 24.33 4.91
2535 29.4454 23.71 24.09 4.87
2536 29.4558 23.59 23.98 4.86
2537 29.4662 23.50 23.93 4.85
2538 29.4767 23.49 23.90 4.85
2539 29.4871 23.56 23.88 4.85
2540 29.4975 23.61 23.87 4.86
2541 29.5080 23.62 23.88 4.86
2542 29.5184 23.63 23.89 4.86
2543 29.5288 23.67 23.90 4.86
2544 29.5393 23.66 23.93 4.86
2545 29.5497 23.66 23.98 4.86
2546 29.5601 23.75 24.06 4.87
2547 29.5706 23.79 24.23 4.88
2548 29.5810 23.92 24.57 4.89
2549 29.5914 24.33 25.26 4.93
2550 29.6019 25.19 26.56 5.02
2551 29.6123 26.98 28.77 5.19
2552 29.6227 30.35 31.98 5.51
2553 29.6332 35.20 35.95 5.93
2554 29.6436 40.17 39.90 6.34
2555 29.6540 43.31 42.63 6.58
2556 29.6645 43.66 42.99 6.61
2557 29.6749 41.46 40.79 6.44
2558 29.6853 37.44 37.03 6.12
2559 29.6958 33.05 32.97 5.75
2560 29.7062 29.64 29.50 5.44
2561 29.7166 26.94 27.02 5.19
2562 29.7271 25.42 25.48 5.04
2563 29.7375 24.51 24.65 4.95
2564 29.7479 23.96 24.23 4.89
2565 29.7584 23.70 24.02 4.87
2566 29.7688 23.67 23.91 4.87
2567 29.7792 23.68 23.84 4.87
2568 29.7896 23.65 23.80 4.86
2569 29.8001 23.50 23.76 4.85
2570 29.8105 23.38 23.74 4.84
2571 29.8209 23.32 23.72 4.83
2572 29.8314 23.49 23.70 4.85
2573 29.8418 23.66 23.68 4.86
2574 29.8522 23.62 23.68 4.86
2575 29.8627 23.44 23.67 4.84
2576 29.8731 23.54 23.68 4.85
2577 29.8835 23.66 23.70 4.86
2578 29.8940 23.58 23.76 4.86
2579 29.9044 23.56 23.88 4.85
2580 29.9148 23.64 24.09 4.86
2581 29.9253 24.06 24.40 4.91
2582 29.9357 24.67 24.79 4.97
2583 29.9461 25.26 25.17 5.03
2584 29.9566 25.58 25.42 5.06
2585 29.9670 25.60 25.44 5.06
2586 29.9774 25.31 25.21 5.03
2587 29.9879 24.96 24.83 5.00
2588 29.9983 24.52 24.43 4.95
2589 30.0087 23.94 24.10 4.89
2590 30.0192 23.59 23.86 4.86
2591 30.0296 23.53 23.71 4.85
2592 30.0400 23.58 23.63 4.86
2593 30.0505 23.55 23.59 4.85
2594 30.0609 23.53 23.57 4.85
2595 30.0713 23.53 23.56 4.85
2596 30.0818 23.42 23.55 4.84
2597 30.0922 23.38 23.54 4.83
2598 30.1026 23.24 23.54 4.82
2599 30.1131 23.21 23.53 4.82
2600 30.1235 23.26 23.53 4.82
2601 30.1339 23.41 23.53 4.84
2602 30.1444 23.44 23.53 4.84
2603 30.1548 23.35 23.53 4.83
2604 30.1652 23.22 23.53 4.82
2605 30.1756 23.26 23.55 4.82
2606 30.1861 23.37 23.57 4.83
2607 30.1965 23.50 23.62 4.85
2608 30.2069 23.64 23.70 4.86
2609 30.2174 23.84 23.86 4.88
2610 30.2278 23.99 24.07 4.90
2611 30.2383 24.21 24.32 4.92
2612 30.2487 24.40 24.54 4.94
2613 30.2591 24.46 24.66 4.95
2614 30.2695 24.48 24.62 4.95
2615 30.2800 24.33 24.44 4.93
2616 30.2904 23.98 24.20 4.90
2617 30.3008 23.72 23.96 4.87
2618 30.3113 23.67 23.77 4.87
2619 30.3217 23.55 23.64 4.85
2620 30.3321 23.47 23.56 4.84
2621 30.3426 23.44 23.52 4.84
2622 30.3530 23.41 23.50 4.84
2623 30.3634 23.40 23.49 4.84
2624 30.3739 23.38 23.48 4.83
2625 30.3843 23.36 23.48 4.83
2626 30.3947 23.40 23.48 4.84
2627 30.4052 23.46 23.48 4.84
2628 30.4156 23.37 23.47 4.83
2629 30.4260 23.28 23.47 4.82
2630 30.4365 23.36 23.47 4.83
2631 30.4469 23.29 23.47 4.83
2632 30.4573 23.24 23.47 4.82
2633 30.4678 23.35 23.48 4.83
2634 30.4782 23.50 23.49 4.85
2635 30.4886 23.60 23.51 4.86
2636 30.4991 23.60 23.56 4.86
2637 30.5095 23.63 23.63 4.86
2638 30.5199 23.72 23.74 4.87
2639 30.5303 23.79 23.88 4.88
2640 30.5408 23.97 24.02 4.90
2641 30.5512 24.32 24.12 4.93
2642 30.5616 24.43 24.14 4.94
2643 30.5721 24.25 24.07 4.92
2644 30.5825 24.12 23.93 4.91
2645 30.5930 23.99 23.79 4.90
2646 30.6034 23.69 23.66 4.87
2647 30.6138 23.46 23.57 4.84
2648 30.6242 23.53 23.51 4.85
2649 30.6347 23.61 23.48 4.86
2650 30.6451 23.50 23.47 4.85
2651 30.6555 23.32 23.46 4.83
2652 30.6660 23.33 23.45 4.83
2653 30.6764 23.50 23.45 4.85
2654 30.6868 23.59 23.45 4.86
2655 30.6973 23.61 23.45 4.86
2656 30.7077 23.58 23.45 4.86
2657 30.7181 23.57 23.45 4.86
2658 30.7286 23.55 23.45 4.85
2659 30.7390 23.45 23.45 4.84
2660 30.7494 23.40 23.46 4.84
2661 30.7599 23.40 23.46 4.84
2662 30.7703 23.40 23.48 4.84
2663 30.7807 23.53 23.52 4.85
2664 30.7912 23.67 23.59 4.86
2665 30.8016 23.71 23.72 4.87
2666 30.8120 23.87 23.92 4.89
2667 30.8225 24.05 24.17 4.90
2668 30.8329 24.44 24.44 4.94
2669 30.8433 24.92 24.65 4.99
2670 30.8538 25.15 24.71 5.02
2671 30.8642 25.05 24.61 5.00
2672 30.8746 24.71 24.38 4.97
2673 30.8850 24.40 24.10 4.94
2674 30.8955 24.09 23.87 4.91
2675 30.9059 23.94 23.68 4.89
2676 30.9163 23.80 23.57 4.88
2677 30.9268 23.52 23.50 4.85
2678 30.9372 23.41 23.47 4.84
2679 30.9477 23.36 23.45 4.83
2680 30.9581 23.53 23.44 4.85
2681 30.9685 23.63 23.44 4.86
2682 30.9789 23.78 23.43 4.88
2683 30.9894 23.73 23.43 4.87
2684 30.9998 23.65 23.43 4.86
2685 31.0102 23.46 23.43 4.84
2686 31.0207 23.29 23.42 4.83
2687 31.0311 23.21 23.42 4.82
2688 31.0415 23.31 23.42 4.83
2689 31.0520 23.46 23.42 4.84
2690 31.0624 23.61 23.42 4.86
2691 31.0728 23.76 23.42 4.87
2692 31.0833 23.74 23.42 4.87
2693 31.0937 23.67 23.42 4.87
2694 31.1041 23.54 23.42 4.85
2695 31.1146 23.59 23.42 4.86
2696 31.1250 23.66 23.42 4.86
2697 31.1354 23.65 23.42 4.86
2698 31.1459 23.50 23.42 4.85
2699 31.1563 23.39 23.42 4.84
2700 31.1667 23.32 23.42 4.83
2701 31.1772 23.47 23.43 4.84
2702 31.1876 23.43 23.43 4.84
2703 31.1980 23.33 23.43 4.83
2704 31.2085 23.41 23.43 4.84
2705 31.2189 23.47 23.44 4.84
2706 31.2293 23.62 23.44 4.86
2707 31.2397 23.66 23.44 4.86
2708 31.2502 23.60 23.45 4.86
2709 31.2606 23.58 23.46 4.86
2710 31.2710 23.52 23.46 4.85
2711 31.2815 23.56 23.47 4.85
2712 31.2919 23.61 23.48 4.86
2713 31.3023 23.70 23.50 4.87
2714 31.3128 23.86 23.52 4.88
2715 31.3232 23.87 23.54 4.89
2716 31.3336 23.84 23.58 4.88
2717 31.3441 23.90 23.66 4.89
2718 31.3545 23.87 23.82 4.89
2719 31.3649 23.95 24.13 4.89
2720 31.3754 24.26 24.72 4.93
2721 31.3858 25.16 25.70 5.02
2722 31.3962 26.82 27.10 5.18
2723 31.4067 29.05 28.80 5.39
2724 31.4171 31.23 30.46 5.59
2725 31.4275 32.60 31.56 5.71
2726 31.4380 32.49 31.61 5.70
2727 31.4484 31.20 30.60 5.59
2728 31.4588 29.37 28.97 5.42
2729 31.4693 27.52 27.27 5.25
2730 31.4797 26.19 25.83 5.12
2731 31.4901 25.15 24.82 5.02
2732 31.5006 24.43 24.20 4.94
2733 31.5110 24.04 23.87 4.90
2734 31.5214 23.86 23.70 4.89
2735 31.5319 23.65 23.62 4.86
2736 31.5423 23.54 23.58 4.85
2737 31.5527 23.52 23.56 4.85
2738 31.5632 23.40 23.54 4.84
2739 31.5736 23.44 23.54 4.84
2740 31.5840 23.75 23.53 4.87
2741 31.5945 23.87 23.53 4.89
2742 31.6049 23.70 23.54 4.87
2743 31.6153 23.71 23.55 4.87
2744 31.6257 23.70 23.58 4.87
2745 31.6362 23.62 23.64 4.86
2746 31.6466 23.64 23.77 4.86
2747 31.6570 23.94 24.03 4.89
2748 31.6675 24.35 24.48 4.93
2749 31.6779 24.92 25.17 4.99
2750 31.6884 25.92 26.10 5.09
2751 31.6988 27.50 27.11 5.24
2752 31.7092 28.77 27.96 5.36
2753 31.7196 29.31 28.31 5.41
2754 31.7301 29.08 28.00 5.39
2755 31.7405 28.01 27.18 5.29
2756 31.7509 26.67 26.21 5.16
2757 31.7614 25.59 25.28 5.06
2758 31.7718 24.66 24.57 4.97
2759 31.7822 24.09 24.11 4.91
2760 31.7927 24.04 23.85 4.90
2761 31.8031 24.06 23.72 4.90
2762 31.8135 24.00 23.66 4.90
2763 31.8240 23.98 23.64 4.90
2764 31.8344 23.93 23.64 4.89
2765 31.8448 23.95 23.65 4.89
2766 31.8553 24.02 23.66 4.90
2767 31.8657 23.98 23.68 4.90
2768 31.8761 23.86 23.72 4.88
2769 31.8866 23.78 23.76 4.88
2770 31.8970 23.72 23.82 4.87
2771 31.9074 23.91 23.93 4.89
2772 31.9179 24.19 24.14 4.92
2773 31.9283 24.45 24.56 4.94
2774 31.9387 24.96 25.41 5.00
2775 31.9492 26.06 26.93 5.11
2776 31.9596 28.35 29.37 5.32
2777 31.9700 32.31 32.75 5.68
2778 31.9804 37.50 36.66 6.12
2779 31.9909 41.99 40.21 6.48
2780 32.0013 44.33 42.18 6.66
2781 32.0117 43.67 41.66 6.61
2782 32.0222 40.22 38.92 6.34
2783 32.0326 35.93 35.09 5.99
2784 32.0430 32.01 31.33 5.66
2785 32.0535 28.88 28.33 5.37
2786 32.0639 26.64 26.29 5.16
2787 32.0743 25.40 25.10 5.04
2788 32.0848 24.69 24.47 4.97
2789 32.0952 24.19 24.18 4.92
2790 32.1056 24.02 24.05 4.90
2791 32.1161 23.98 23.99 4.90
2792 32.1265 24.03 23.97 4.90
2793 32.1369 24.14 23.98 4.91
2794 32.1474 24.27 24.00 4.93
2795 32.1578 24.30 24.05 4.93
2796 32.1682 24.25 24.12 4.92
2797 32.1787 24.31 24.24 4.93
2798 32.1891 24.45 24.44 4.94
2799 32.1995 24.54 24.85 4.95
2800 32.2100 24.77 25.68 4.98
2801 32.2204 25.50 27.36 5.05
2802 32.2308 27.74 30.41 5.27
2803 32.2413 32.33 35.33 5.69
2804 32.2517 40.37 42.21 6.35
2805 32.2621 51.21 50.27 7.16
2806 32.2726 60.69 57.68 7.79
2807 32.2830 65.86 61.95 8.12
2808 32.2934 64.45 61.13 8.03
2809 32.3039 57.54 55.62 7.59
2810 32.3143 48.64 47.75 6.97
2811 32.3247 40.10 39.90 6.33
2812 32.3352 33.70 33.56 5.81
2813 32.3456 29.57 29.24 5.44
2814 32.3560 27.03 26.66 5.20
2815 32.3665 25.55 25.28 5.05
2816 32.3769 24.82 24.60 4.98
2817 32.3873 24.43 24.26 4.94
2818 32.3978 24.26 24.07 4.93
2819 32.4082 24.20 23.95 4.92
2820 32.4186 24.04 23.86 4.90
2821 32.4291 23.92 23.79 4.89
2822 32.4395 23.82 23.73 4.88
2823 32.4499 23.76 23.69 4.87
2824 32.4603 23.86 23.65 4.88
2825 32.4708 23.92 23.62 4.89
2826 32.4812 23.90 23.59 4.89
2827 32.4916 23.80 23.56 4.88
2828 32.5021 23.74 23.54 4.87
2829 32.5125 23.74 23.53 4.87
2830 32.5229 23.75 23.51 4.87
2831 32.5334 23.67 23.50 4.87
2832 32.5438 23.56 23.48 4.85
2833 32.5542 23.54 23.46 4.85
2834 32.5647 23.60 23.45 4.86
2835 32.5751 23.63 23.44 4.86
2836 32.5855 23.55 23.45 4.85
2837 32.5960 23.53 23.44 4.85
2838 32.6064 23.53 23.44 4.85
2839 32.6168 23.59 23.43 4.86
2840 32.6273 23.61 23.43 4.86
2841 32.6377 23.56 23.43 4.85
2842 32.6481 23.63 23.42 4.86
2843 32.6586 23.69 23.42 4.87
2844 32.6690 23.73 23.42 4.87
2845 32.6794 23.69 23.42 4.87
2846 32.6898 23.61 23.42 4.86
2847 32.7003 23.62 23.42 4.86
2848 32.7107 23.59 23.42 4.86
2849 32.7211 23.64 23.43 4.86
2850 32.7316 23.55 23.43 4.85
2851 32.7420 23.45 23.44 4.84
2852 32.7524 23.56 23.45 4.85
2853 32.7629 23.61 23.49 4.86
2854 32.7733 23.58 23.55 4.86
2855 32.7837 23.71 23.68 4.87
2856 32.7942 23.89 23.89 4.89
2857 32.8046 24.28 24.21 4.93
2858 32.8150 24.88 24.62 4.99
2859 32.8255 25.50 25.05 5.05
2860 32.8359 25.88 25.35 5.09
2861 32.8463 25.99 25.44 5.10
2862 32.8568 25.81 25.26 5.08
2863 32.8672 25.38 24.89 5.04
2864 32.8776 24.87 24.46 4.99
2865 32.8881 24.36 24.09 4.94
2866 32.8985 23.99 23.81 4.90
2867 32.9089 23.86 23.64 4.88
2868 32.9194 23.80 23.55 4.88
2869 32.9298 23.76 23.51 4.87
2870 32.9402 23.67 23.50 4.86
2871 32.9507 23.63 23.50 4.86
2872 32.9611 23.68 23.51 4.87
2873 32.9715 23.69 23.53 4.87
2874 32.9820 23.57 23.55 4.85
2875 32.9924 23.69 23.58 4.87
2876 33.0028 23.91 23.63 4.89
2877 33.0133 23.89 23.69 4.89
2878 33.0237 23.77 23.80 4.88
2879 33.0341 23.97 24.00 4.90
2880 33.0446 24.24 24.42 4.92
2881 33.0550 24.61 25.25 4.96
2882 33.0654 25.72 26.74 5.07
2883 33.0759 27.93 29.11 5.29
2884 33.0863 31.83 32.39 5.64
2885 33.0967 36.83 36.16 6.07
2886 33.1072 41.18 39.55 6.42
2887 33.1176 43.18 41.36 6.57
2888 33.1280 42.14 40.79 6.49
2889 33.1385 38.68 38.07 6.22
2890 33.1489 34.55 34.37 5.88
2891 33.1593 30.80 30.75 5.55
2892 33.1697 28.10 27.88 5.30
2893 33.1802 26.17 25.94 5.12
2894 33.1906 25.03 24.80 5.00
2895 33.2010 24.50 24.20 4.95
2896 33.2115 24.15 23.90 4.91
2897 33.2219 24.03 23.75 4.90
2898 33.2323 24.09 23.66 4.91
2899 33.2428 24.02 23.61 4.90
2900 33.2532 23.96 23.57 4.89
2901 33.2636 24.02 23.54 4.90
2902 33.2741 23.99 23.52 4.90
2903 33.2845 23.78 23.50 4.88
2904 33.2949 23.77 23.48 4.88
2905 33.3054 23.81 23.47 4.88
2906 33.3158 23.77 23.46 4.88
2907 33.3262 23.76 23.45 4.87
2908 33.3367 23.84 23.44 4.88
2909 33.3471 23.85 23.44 4.88
2910 33.3575 23.86 23.43 4.88
2911 33.3680 23.98 23.43 4.90
2912 33.3784 24.24 23.43 4.92
2913 33.3888 24.30 23.43 4.93
2914 33.3993 24.21 23.44 4.92
2915 33.4097 24.25 23.44 4.92
2916 33.4201 24.33 23.45 4.93
2917 33.4305 24.05 23.45 4.90
2918 33.4410 23.74 23.46 4.87
2919 33.4514 23.75 23.47 4.87
2920 33.4618 23.76 23.48 4.87
2921 33.4723 23.87 23.49 4.89
2922 33.4827 23.78 23.50 4.88
2923 33.4931 23.65 23.52 4.86
2924 33.5036 23.66 23.54 4.86
2925 33.5140 23.72 23.57 4.87
2926 33.5244 23.77 23.60 4.88
2927 33.5349 23.76 23.64 4.87
2928 33.5453 23.78 23.69 4.88
2929 33.5557 23.82 23.76 4.88
2930 33.5662 23.86 23.87 4.88
2931 33.5766 24.05 24.07 4.90
2932 33.5870 24.21 24.48 4.92
2933 33.5975 24.48 25.30 4.95
2934 33.6079 25.51 26.82 5.05
2935 33.6183 27.99 29.34 5.29
2936 33.6288 32.68 32.98 5.72
2937 33.6392 38.97 37.42 6.24
2938 33.6496 44.44 41.78 6.67
2939 33.6601 47.22 44.70 6.87
2940 33.6705 46.44 44.88 6.81
2941 33.6809 42.82 42.26 6.54
2942 33.6914 37.83 38.01 6.15
2943 33.7018 33.12 33.53 5.76
2944 33.7122 29.65 29.77 5.44
2945 33.7227 27.12 27.11 5.21
2946 33.7331 25.34 25.49 5.03
2947 33.7435 24.48 24.62 4.95
2948 33.7540 24.06 24.18 4.90
2949 33.7644 23.82 23.97 4.88
2950 33.7748 23.87 23.87 4.89
2951 33.7853 23.97 23.82 4.90
2952 33.7957 23.80 23.79 4.88
2953 33.8061 23.76 23.78 4.87
2954 33.8166 23.76 23.79 4.87
2955 33.8270 23.72 23.82 4.87
2956 33.8374 23.98 23.89 4.90
2957 33.8479 24.17 24.04 4.92
2958 33.8583 24.16 24.37 4.91
2959 33.8687 24.54 25.03 4.95
2960 33.8792 25.46 26.27 5.05
2961 33.8896 27.44 28.29 5.24
2962 33.9000 30.97 31.15 5.57
2963 33.9104 35.50 34.56 5.96
2964 33.9209 39.84 37.80 6.31
2965 33.9313 41.61 39.79 6.45
2966 33.9417 40.48 39.64 6.36
2967 33.9522 37.57 37.41 6.13
2968 33.9626 33.60 34.09 5.80
2969 33.9730 30.21 30.71 5.50
2970 33.9835 27.86 27.94 5.28
2971 33.9939 26.08 26.02 5.11
2972 34.0043 24.98 24.87 5.00
2973 34.0148 24.46 24.25 4.95
2974 34.0252 24.16 23.94 4.92
2975 34.0356 24.09 23.79 4.91
2976 34.0461 24.01 23.72 4.90
2977 34.0565 23.76 23.67 4.87
2978 34.0669 23.59 23.64 4.86
2979 34.0774 23.59 23.63 4.86
2980 34.0878 23.65 23.63 4.86
2981 34.0982 23.55 23.64 4.85
2982 34.1087 23.49 23.68 4.85
2983 34.1191 23.61 23.77 4.86
2984 34.1295 23.85 23.97 4.88
2985 34.1399 24.11 24.38 4.91
2986 34.1504 24.57 25.11 4.96
2987 34.1608 25.79 26.26 5.08
2988 34.1712 27.80 27.82 5.27
2989 34.1817 30.06 29.57 5.48
2990 34.1921 31.61 31.08 5.62
2991 34.2025 31.86 31.79 5.64
2992 34.2130 31.00 31.33 5.57
2993 34.2234 29.41 29.97 5.42
2994 34.2338 27.77 28.23 5.27
2995 34.2443 26.50 26.58 5.15
2996 34.2547 25.59 25.31 5.06
2997 34.2651 24.87 24.47 4.99
2998 34.2756 24.52 23.98 4.95
2999 34.2860 24.43 23.73 4.94
3000 34.2964 24.34 23.61 4.93
3001 34.3069 24.17 23.55 4.92
3002 34.3173 24.09 23.51 4.91
3003 34.3277 23.84 23.50 4.88
3004 34.3382 23.48 23.49 4.85
3005 34.3486 23.36 23.49 4.83
3006 34.3590 23.55 23.49 4.85
3007 34.3695 23.68 23.51 4.87
3008 34.3799 23.73 23.55 4.87
3009 34.3903 23.83 23.65 4.88
3010 34.4008 23.86 23.85 4.88
3011 34.4112 24.04 24.23 4.90
3012 34.4216 24.59 24.87 4.96
3013 34.4321 25.79 25.80 5.08
3014 34.4425 27.38 26.97 5.23
3015 34.4529 28.84 28.14 5.37
3016 34.4634 29.56 28.95 5.44
3017 34.4738 29.48 29.06 5.43
3018 34.4842 28.45 28.40 5.33
3019 34.4947 27.09 27.30 5.20
3020 34.5051 25.86 26.10 5.08
3021 34.5155 25.07 25.08 5.01
3022 34.5260 24.58 24.36 4.96
3023 34.5364 24.15 23.91 4.91
3024 34.5468 23.84 23.67 4.88
3025 34.5573 23.64 23.55 4.86
3026 34.5677 23.58 23.49 4.86
3027 34.5781 23.76 23.47 4.87
3028 34.5886 23.77 23.46 4.88
3029 34.5990 23.71 23.46 4.87
3030 34.6094 23.66 23.46 4.86
3031 34.6199 23.72 23.47 4.87
3032 34.6303 23.73 23.50 4.87
3033 34.6407 23.62 23.55 4.86
3034 34.6511 23.67 23.66 4.87
3035 34.6616 23.79 23.89 4.88
3036 34.6720 24.08 24.34 4.91
3037 34.6824 25.05 25.12 5.01
3038 34.6929 26.62 26.32 5.16
3039 34.7033 28.58 27.90 5.35
3040 34.7137 30.63 29.62 5.53
3041 34.7242 31.99 31.04 5.66
3042 34.7346 32.18 31.58 5.67
3043 34.7450 31.05 31.00 5.57
3044 34.7555 29.13 29.57 5.40
3045 34.7659 27.38 27.84 5.23
3046 34.7763 26.07 26.26 5.11
3047 34.7868 25.17 25.07 5.02
3048 34.7972 24.48 24.30 4.95
3049 34.8076 23.96 23.86 4.90
3050 34.8181 23.54 23.63 4.85
3051 34.8285 23.21 23.52 4.82
3052 34.8389 23.24 23.46 4.82
3053 34.8494 23.32 23.43 4.83
3054 34.8598 23.31 23.41 4.83
3055 34.8702 23.32 23.40 4.83
3056 34.8806 23.45 23.39 4.84
3057 34.8911 23.50 23.39 4.85
3058 34.9015 23.43 23.40 4.84
3059 34.9119 23.53 23.42 4.85
3060 34.9224 23.69 23.48 4.87
3061 34.9328 23.82 23.60 4.88
3062 34.9432 23.98 23.82 4.90
3063 34.9537 24.24 24.18 4.92
3064 34.9641 25.02 24.66 5.00
3065 34.9745 25.80 25.20 5.08
3066 34.9850 26.15 25.68 5.11
3067 34.9954 26.14 25.91 5.11
3068 35.0058 25.80 25.78 5.08
3069 35.0163 25.28 25.36 5.03
3070 35.0267 24.90 24.82 4.99
3071 35.0371 24.36 24.30 4.94
3072 35.0476 23.81 23.90 4.88
3073 35.0580 23.46 23.63 4.84
3074 35.0684 23.37 23.48 4.83
3075 35.0789 23.45 23.40 4.84
3076 35.0893 23.61 23.36 4.86
3077 35.0997 23.73 23.35 4.87
3078 35.1102 23.57 23.34 4.86
3079 35.1206 23.31 23.34 4.83
3080 35.1310 23.28 23.34 4.82
3081 35.1415 23.23 23.35 4.82
3082 35.1519 23.27 23.37 4.82
3083 35.1623 23.35 23.40 4.83
3084 35.1728 23.38 23.46 4.84
3085 35.1832 23.44 23.58 4.84
3086 35.1936 23.61 23.84 4.86
3087 35.2041 24.04 24.29 4.90
3088 35.2145 25.16 25.00 5.02
3089 35.2249 26.67 25.97 5.16
3090 35.2354 28.07 27.08 5.30
3091 35.2458 29.06 28.05 5.39
3092 35.2562 29.24 28.52 5.41
3093 35.2667 28.47 28.28 5.34
3094 35.2771 27.32 27.45 5.23
3095 35.2875 26.08 26.35 5.11
3096 35.2980 25.12 25.31 5.01
3097 35.3084 24.44 24.50 4.94
3098 35.3188 24.06 23.96 4.90
3099 35.3293 23.88 23.64 4.89
3100 35.3397 23.71 23.48 4.87
3101 35.3501 23.53 23.39 4.85
3102 35.3605 23.52 23.35 4.85
3103 35.3710 23.42 23.33 4.84
3104 35.3814 23.30 23.31 4.83
3105 35.3918 23.33 23.30 4.83
3106 35.4023 23.31 23.29 4.83
3107 35.4127 23.22 23.29 4.82
3108 35.4231 23.30 23.28 4.83
3109 35.4336 23.44 23.28 4.84
3110 35.4440 23.58 23.27 4.86
3111 35.4544 23.54 23.27 4.85
3112 35.4649 23.46 23.27 4.84
3113 35.4753 23.43 23.27 4.84
3114 35.4857 23.33 23.27 4.83
3115 35.4962 23.22 23.27 4.82
3116 35.5066 23.12 23.28 4.81
3117 35.5170 23.26 23.28 4.82
3118 35.5275 23.35 23.28 4.83
3119 35.5379 23.33 23.28 4.83
3120 35.5483 23.29 23.29 4.83
3121 35.5588 23.26 23.29 4.82
3122 35.5692 23.31 23.30 4.83
3123 35.5796 23.29 23.31 4.83
3124 35.5901 23.28 23.32 4.82
3125 35.6005 23.18 23.33 4.81
3126 35.6109 23.07 23.35 4.80
3127 35.6213 23.24 23.37 4.82
3128 35.6318 23.52 23.39 4.85
3129 35.6422 23.73 23.42 4.87
3130 35.6526 23.63 23.46 4.86
3131 35.6631 23.38 23.52 4.84
3132 35.6735 23.45 23.60 4.84
3133 35.6839 23.71 23.74 4.87
3134 35.6944 23.92 24.03 4.89
3135 35.7048 24.23 24.61 4.92
3136 35.7152 25.25 25.69 5.02
3137 35.7257 27.50 27.53 5.24
3138 35.7361 31.32 30.25 5.60
3139 35.7465 35.71 33.71 5.98
3140 35.7570 39.23 37.22 6.26
3141 35.7674 40.62 39.79 6.37
3142 35.7778 39.56 40.33 6.29
3143 35.7883 36.76 38.57 6.06
3144 35.7987 33.36 35.35 5.78
3145 35.8091 30.53 31.77 5.53
3146 35.8196 28.09 28.69 5.30
3147 35.8300 26.15 26.46 5.11
3148 35.8404 24.92 25.07 4.99
3149 35.8509 24.22 24.30 4.92
3150 35.8613 23.80 23.91 4.88
3151 35.8717 23.66 23.72 4.86
3152 35.8822 23.60 23.62 4.86
3153 35.8926 23.58 23.57 4.86
3154 35.9030 23.57 23.54 4.85
3155 35.9135 23.38 23.52 4.84
3156 35.9239 23.28 23.51 4.82
3157 35.9343 23.43 23.52 4.84
3158 35.9448 23.43 23.56 4.84
3159 35.9552 23.39 23.65 4.84
3160 35.9656 23.61 23.85 4.86
3161 35.9761 24.20 24.23 4.92
3162 35.9865 25.04 24.82 5.00
3163 35.9969 26.19 25.68 5.12
3164 36.0074 27.37 26.64 5.23
3165 36.0178 28.11 27.51 5.30
3166 36.0282 28.22 27.98 5.31
3167 36.0387 27.73 27.84 5.27
3168 36.0491 26.70 27.16 5.17
3169 36.0595 25.75 26.23 5.07
3170 36.0700 24.96 25.32 5.00
3171 36.0804 24.27 24.61 4.93
3172 36.0908 23.77 24.14 4.88
3173 36.1012 23.62 23.88 4.86
3174 36.1117 23.52 23.76 4.85
3175 36.1221 23.30 23.72 4.83
3176 36.1325 23.35 23.73 4.83
3177 36.1430 23.55 23.77 4.85
3178 36.1534 23.64 23.83 4.86
3179 36.1638 23.63 23.91 4.86
3180 36.1743 23.73 24.04 4.87
3181 36.1847 23.79 24.23 4.88
3182 36.1951 24.07 24.59 4.91
3183 36.2056 24.63 25.30 4.96
3184 36.2160 25.79 26.72 5.08
3185 36.2264 28.90 29.39 5.38
3186 36.2369 34.82 33.87 5.90
3187 36.2473 44.32 40.44 6.66
3188 36.2577 54.95 48.62 7.41
3189 36.2682 62.61 56.89 7.91
3190 36.2786 64.59 62.73 8.04
3191 36.2890 61.59 63.66 7.85
3192 36.2995 55.05 59.19 7.42
3193 36.3099 47.25 51.41 6.87
3194 36.3203 40.11 42.98 6.33
3195 36.3307 34.41 35.80 5.87
3196 36.3412 29.96 30.65 5.47
3197 36.3516 27.05 27.47 5.20
3198 36.3620 25.36 25.73 5.04
3199 36.3725 24.55 24.85 4.95
3200 36.3829 24.18 24.43 4.92
3201 36.3933 24.00 24.22 4.90
3202 36.4038 23.98 24.11 4.90
3203 36.4142 23.88 24.06 4.89
3204 36.4246 23.75 24.04 4.87
3205 36.4351 23.95 24.08 4.89
3206 36.4455 24.16 24.21 4.92
3207 36.4559 24.21 24.51 4.92
3208 36.4664 24.69 25.17 4.97
3209 36.4768 26.17 26.48 5.12
3210 36.4872 29.32 28.77 5.41
3211 36.4977 34.35 32.27 5.86
3212 36.5081 40.27 36.83 6.35
3213 36.5185 45.31 41.72 6.73
3214 36.5290 47.31 45.60 6.88
3215 36.5394 46.18 46.92 6.80
3216 36.5498 42.68 45.00 6.53
3217 36.5603 38.18 40.79 6.18
3218 36.5707 33.89 35.84 5.82
3219 36.5811 30.34 31.41 5.51
3220 36.5916 27.42 28.10 5.24
3221 36.6020 25.44 25.97 5.04
3222 36.6124 24.23 24.77 4.92
3223 36.6229 23.65 24.14 4.86
3224 36.6333 23.47 23.83 4.84
3225 36.6437 23.33 23.66 4.83
3226 36.6542 23.28 23.56 4.82
3227 36.6646 23.24 23.49 4.82
3228 36.6750 23.40 23.43 4.84
3229 36.6855 23.50 23.39 4.85
3230 36.6959 23.24 23.35 4.82
3231 36.7063 23.05 23.32 4.80
3232 36.7168 23.14 23.30 4.81
3233 36.7272 23.23 23.28 4.82
3234 36.7376 23.20 23.27 4.82
3235 36.7481 23.07 23.27 4.80
3236 36.7585 23.00 23.28 4.80
3237 36.7689 23.05 23.30 4.80
3238 36.7794 23.07 23.31 4.80
3239 36.7898 23.22 23.30 4.82
3240 36.8002 23.34 23.28 4.83
3241 36.8106 23.26 23.25 4.82
3242 36.8211 22.95 23.22 4.79
3243 36.8315 22.82 23.15 4.78
3244 36.8419 22.95 23.13 4.79
3245 36.8524 22.98 23.11 4.79
3246 36.8628 22.97 23.10 4.79
3247 36.8732 22.91 23.09 4.79
3248 36.8837 22.97 23.09 4.79
3249 36.8941 23.09 23.08 4.80
3250 36.9045 23.10 23.08 4.81
3251 36.9150 23.10 23.08 4.81
3252 36.9254 23.10 23.08 4.81
3253 36.9358 22.96 23.08 4.79
3254 36.9463 22.75 23.09 4.77
3255 36.9567 22.74 23.10 4.77
3256 36.9671 22.94 23.13 4.79
3257 36.9776 23.23 23.20 4.82
3258 36.9880 23.37 23.31 4.83
3259 36.9984 23.51 23.49 4.85
3260 37.0089 23.82 23.72 4.88
3261 37.0193 23.95 23.98 4.89
3262 37.0297 23.92 24.18 4.89
3263 37.0402 24.04 24.26 4.90
3264 37.0506 23.88 24.17 4.89
3265 37.0610 23.49 23.95 4.85
3266 37.0714 23.45 23.69 4.84
3267 37.0819 23.33 23.46 4.83
3268 37.0923 23.04 23.26 4.80
3269 37.1027 23.03 23.15 4.80
3270 37.1132 23.08 23.08 4.80
3271 37.1236 23.04 23.05 4.80
3272 37.1340 23.07 23.03 4.80
3273 37.1445 23.10 23.02 4.81
3274 37.1549 23.01 23.02 4.80
3275 37.1653 22.82 23.02 4.78
3276 37.1758 22.80 23.02 4.78
3277 37.1862 22.85 23.02 4.78
3278 37.1966 22.92 23.03 4.79
3279 37.2071 23.11 23.06 4.81
3280 37.2175 23.05 23.11 4.80
3281 37.2279 23.18 23.22 4.81
3282 37.2384 23.50 23.39 4.85
3283 37.2488 23.83 23.66 4.88
3284 37.2592 24.22 24.01 4.92
3285 37.2697 24.39 24.37 4.94
3286 37.2801 24.50 24.64 4.95
3287 37.2905 24.43 24.71 4.94
3288 37.3010 24.13 24.54 4.91
3289 37.3114 23.97 24.21 4.90
3290 37.3218 23.73 23.85 4.87
3291 37.3323 23.37 23.52 4.83
3292 37.3427 23.21 23.29 4.82
3293 37.3531 23.00 23.14 4.80
3294 37.3636 22.87 23.05 4.78
3295 37.3740 22.92 23.01 4.79
3296 37.3844 22.88 22.98 4.78
3297 37.3949 22.85 22.97 4.78
3298 37.4053 22.74 22.96 4.77
3299 37.4157 22.82 22.95 4.78
3300 37.4262 22.79 22.95 4.77
3301 37.4366 22.71 22.94 4.77
3302 37.4470 22.95 22.94 4.79
3303 37.4575 23.05 22.93 4.80
3304 37.4679 22.94 22.93 4.79
3305 37.4783 22.75 22.93 4.77
3306 37.4888 22.63 22.93 4.76
3307 37.4992 22.77 22.92 4.77
3308 37.5096 22.88 22.92 4.78
3309 37.5201 22.75 22.92 4.77
3310 37.5305 22.71 22.91 4.77
3311 37.5409 22.80 22.91 4.77
3312 37.5513 22.80 22.91 4.77
3313 37.5618 22.77 22.91 4.77
3314 37.5722 22.77 22.91 4.77
3315 37.5826 22.88 22.90 4.78
3316 37.5931 22.91 22.90 4.79
3317 37.6035 22.86 22.90 4.78
3318 37.6139 22.98 22.90 4.79
3319 37.6244 23.03 22.89 4.80
3320 37.6348 22.96 22.89 4.79
3321 37.6452 23.06 22.89 4.80
3322 37.6557 23.30 22.89 4.83
3323 37.6661 23.36 22.89 4.83
3324 37.6765 23.47 22.89 4.84
3325 37.6870 23.17 22.89 4.81
3326 37.6974 22.88 22.89 4.78
3327 37.7078 23.16 22.90 4.81
3328 37.7183 23.28 22.92 4.82
3329 37.7287 23.08 22.97 4.80
3330 37.7391 22.97 23.03 4.79
3331 37.7496 22.92 23.11 4.79
3332 37.7600 22.86 23.20 4.78
3333 37.7704 22.82 23.27 4.78
3334 37.7808 22.87 23.30 4.78
3335 37.7913 22.83 23.27 4.78
3336 37.8017 22.70 23.20 4.76
3337 37.8121 22.73 23.11 4.77
3338 37.8226 22.79 23.02 4.77
3339 37.8330 22.83 22.96 4.78
3340 37.8434 22.67 22.92 4.76
3341 37.8539 22.61 22.89 4.76
3342 37.8643 22.93 22.88 4.79
3343 37.8747 22.95 22.88 4.79
3344 37.8852 22.83 22.87 4.78
3345 37.8956 22.81 22.87 4.78
3346 37.9060 22.65 22.88 4.76
3347 37.9165 22.58 22.88 4.75
3348 37.9269 22.64 22.89 4.76
3349 37.9373 22.74 22.90 4.77
3350 37.9478 22.66 22.93 4.76
3351 37.9582 22.86 22.99 4.78
3352 37.9686 23.28 23.10 4.82
3353 37.9791 23.56 23.29 4.85
3354 37.9895 23.95 23.55 4.89
3355 37.9999 24.30 23.87 4.93
3356 38.0104 24.22 24.18 4.92
3357 38.0208 24.01 24.37 4.90
3358 38.0312 24.07 24.37 4.91
3359 38.0417 23.98 24.16 4.90
3360 38.0521 23.64 23.86 4.86
3361 38.0625 23.35 23.54 4.83
3362 38.0730 23.09 23.29 4.81
3363 38.0834 23.02 23.11 4.80
3364 38.0938 22.98 23.00 4.79
3365 38.1043 22.93 22.95 4.79
3366 38.1147 22.95 22.93 4.79
3367 38.1251 22.95 22.92 4.79
3368 38.1356 23.01 22.93 4.80
3369 38.1460 23.09 22.94 4.81
3370 38.1564 23.08 22.96 4.80
3371 38.1669 22.90 23.00 4.79
3372 38.1773 22.96 23.06 4.79
3373 38.1877 23.30 23.19 4.83
3374 38.1982 23.76 23.46 4.87
3375 38.2086 24.66 23.97 4.97
3376 38.2190 26.28 24.83 5.13
3377 38.2295 28.16 26.12 5.31
3378 38.2399 29.59 27.76 5.44
3379 38.2503 30.35 29.46 5.51
3380 38.2607 30.09 30.74 5.49
3381 38.2712 29.38 31.06 5.42
3382 38.2816 28.28 30.25 5.32
3383 38.2920 27.02 28.70 5.20
3384 38.3025 26.04 26.98 5.10
3385 38.3129 24.89 25.47 4.99
3386 38.3233 23.90 24.38 4.89
3387 38.3338 23.11 23.69 4.81
3388 38.3442 22.68 23.30 4.76
3389 38.3546 22.96 23.11 4.79
3390 38.3651 23.07 23.01 4.80
3391 38.3755 22.76 22.96 4.77
3392 38.3859 22.57 22.93 4.75
3393 38.3964 22.50 22.91 4.74
3394 38.4068 22.51 22.90 4.74
3395 38.4172 22.52 22.91 4.75
3396 38.4277 22.54 22.92 4.75
3397 38.4381 22.78 22.98 4.77
3398 38.4485 23.21 23.09 4.82
3399 38.4590 23.56 23.29 4.85
3400 38.4694 24.02 23.60 4.90
3401 38.4798 24.44 24.02 4.94
3402 38.4903 24.52 24.47 4.95
3403 38.5007 24.37 24.83 4.94
3404 38.5111 24.24 24.97 4.92
3405 38.5215 24.31 24.80 4.93
3406 38.5320 24.20 24.42 4.92
3407 38.5424 24.00 23.97 4.90
3408 38.5528 23.57 23.56 4.86
3409 38.5633 23.06 23.26 4.80
3410 38.5737 22.92 23.06 4.79
3411 38.5841 22.91 22.96 4.79
3412 38.5946 22.90 22.91 4.79
3413 38.6050 22.89 22.89 4.78
3414 38.6154 22.82 22.89 4.78
3415 38.6259 22.74 22.91 4.77
3416 38.6363 22.77 22.93 4.77
3417 38.6467 22.75 22.98 4.77
3418 38.6572 22.72 23.06 4.77
3419 38.6676 22.97 23.21 4.79
3420 38.6780 23.69 23.53 4.87
3421 38.6885 25.30 24.16 5.03
3422 38.6989 27.46 25.25 5.24
3423 38.7093 29.72 26.94 5.45
3424 38.7198 32.14 29.17 5.67
3425 38.7302 33.73 31.62 5.81
3426 38.7406 34.04 33.65 5.83
3427 38.7511 33.02 34.46 5.75
3428 38.7615 31.38 33.65 5.60
3429 38.7719 29.75 31.62 5.45
3430 38.7824 27.89 29.17 5.28
3431 38.7928 26.11 26.92 5.11
3432 38.8032 24.81 25.23 4.98
3433 38.8137 23.94 24.12 4.89
3434 38.8241 23.28 23.49 4.83
3435 38.8345 22.88 23.16 4.78
3436 38.8450 22.80 22.99 4.78
3437 38.8554 22.84 22.90 4.78
3438 38.8658 22.86 22.85 4.78
3439 38.8763 22.81 22.81 4.78
3440 38.8867 22.55 22.78 4.75
3441 38.8971 22.47 22.76 4.74
3442 38.9076 22.65 22.74 4.76
3443 38.9180 22.70 22.72 4.76
3444 38.9284 22.69 22.71 4.76
3445 38.9389 22.84 22.70 4.78
3446 38.9493 22.76 22.69 4.77
3447 38.9597 22.62 22.68 4.76
3448 38.9701 22.53 22.67 4.75
3449 38.9806 22.58 22.67 4.75
3450 38.9910 22.57 22.66 4.75
3451 39.0014 22.50 22.66 4.74
3452 39.0119 22.47 22.65 4.74
3453 39.0223 22.32 22.65 4.72
3454 39.0327 22.30 22.65 4.72
3455 39.0432 22.41 22.65 4.73
3456 39.0536 22.52 22.65 4.75
3457 39.0640 22.62 22.65 4.76
3458 39.0745 22.64 22.66 4.76
3459 39.0849 22.55 22.66 4.75
3460 39.0953 22.43 22.67 4.74
3461 39.1058 22.42 22.68 4.74
3462 39.1162 22.55 22.70 4.75
3463 39.1266 22.63 22.73 4.76
3464 39.1371 22.65 22.78 4.76
3465 39.1475 22.78 22.89 4.77
3466 39.1579 23.34 23.11 4.83
3467 39.1684 24.34 23.54 4.93
3468 39.1788 25.58 24.25 5.06
3469 39.1892 26.87 25.31 5.18
3470 39.1997 27.79 26.65 5.27
3471 39.2101 28.07 28.04 5.30
3472 39.2205 27.91 29.08 5.28
3473 39.2310 27.66 29.32 5.26
3474 39.2414 27.01 28.63 5.20
3475 39.2518 26.02 27.36 5.10
3476 39.2622 24.93 25.94 4.99
3477 39.2727 23.98 24.72 4.90
3478 39.2831 23.46 23.83 4.84
3479 39.2935 22.87 23.27 4.78
3480 39.3040 22.46 22.95 4.74
3481 39.3144 22.51 22.79 4.74
3482 39.3248 22.52 22.70 4.75
3483 39.3353 22.48 22.66 4.74
3484 39.3457 22.47 22.63 4.74
3485 39.3561 22.51 22.61 4.74
3486 39.3666 22.52 22.60 4.75
3487 39.3770 22.45 22.58 4.74
3488 39.3874 22.35 22.57 4.73
3489 39.3979 22.36 22.57 4.73
3490 39.4083 22.42 22.56 4.73
3491 39.4187 22.44 22.56 4.74
3492 39.4292 22.51 22.55 4.74
3493 39.4396 22.63 22.55 4.76
3494 39.4500 22.51 22.55 4.74
3495 39.4605 22.29 22.55 4.72
3496 39.4709 22.32 22.55 4.72
3497 39.4813 22.44 22.55 4.74
3498 39.4918 22.43 22.55 4.74
3499 39.5022 22.49 22.55 4.74
3500 39.5126 22.61 22.56 4.76
3501 39.5231 22.66 22.56 4.76
3502 39.5335 22.69 22.57 4.76
3503 39.5439 22.51 22.58 4.74
3504 39.5544 22.40 22.60 4.73
3505 39.5648 22.47 22.61 4.74
3506 39.5752 22.53 22.64 4.75
3507 39.5857 22.55 22.67 4.75
3508 39.5961 22.76 22.72 4.77
3509 39.6065 22.95 22.80 4.79
3510 39.6170 23.12 22.96 4.81
3511 39.6274 23.88 23.28 4.89
3512 39.6378 25.37 23.89 5.04
3513 39.6483 27.21 24.95 5.22
3514 39.6587 29.09 26.61 5.39
3515 39.6691 30.78 28.81 5.55
3516 39.6796 32.01 31.25 5.66
3517 39.6900 32.49 33.30 5.70
3518 39.7004 32.14 34.17 5.67
3519 39.7108 31.12 33.43 5.58
3520 39.7213 29.42 31.44 5.42
3521 39.7317 27.52 29.01 5.25
3522 39.7421 25.77 26.77 5.08
3523 39.7526 24.52 25.06 4.95
3524 39.7630 23.57 23.95 4.86
3525 39.7734 22.98 23.31 4.79
3526 39.7839 22.82 22.98 4.78
3527 39.7943 22.83 22.82 4.78
3528 39.8047 22.91 22.74 4.79
3529 39.8152 22.79 22.70 4.77
3530 39.8256 22.45 22.68 4.74
3531 39.8360 22.54 22.68 4.75
3532 39.8465 22.78 22.70 4.77
3533 39.8569 23.00 22.78 4.80
3534 39.8673 23.53 22.96 4.85
3535 39.8778 24.14 23.29 4.91
3536 39.8882 24.93 23.83 4.99
3537 39.8986 25.77 24.63 5.08
3538 39.9091 26.34 25.60 5.13
3539 39.9195 26.68 26.55 5.17
3540 39.9299 26.64 27.18 5.16
3541 39.9404 26.20 27.18 5.12
3542 39.9508 25.51 26.58 5.05
3543 39.9612 24.83 25.63 4.98
3544 39.9716 24.27 24.65 4.93
3545 39.9821 23.69 23.84 4.87
3546 39.9925 23.17 23.28 4.81
3547 40.0029 22.92 22.94 4.79
3548 40.0134 22.86 22.77 4.78
3549 40.0238 22.81 22.69 4.78
3550 40.0342 22.64 22.66 4.76
3551 40.0447 22.68 22.65 4.76
3552 40.0551 22.89 22.67 4.78
3553 40.0655 22.82 22.71 4.78
3554 40.0760 23.14 22.79 4.81
3555 40.0864 23.58 22.96 4.86
3556 40.0968 24.54 23.31 4.95
3557 40.1073 26.31 23.98 5.13
3558 40.1177 28.14 25.15 5.30
3559 40.1281 29.93 26.92 5.47
3560 40.1386 31.50 29.22 5.61
3561 40.1490 32.67 31.68 5.72
3562 40.1594 33.23 33.63 5.76
3563 40.1699 32.47 34.26 5.70
3564 40.1803 30.97 33.26 5.56
3565 40.1907 29.27 31.12 5.41
3566 40.2012 27.38 28.64 5.23
3567 40.2116 25.60 26.44 5.06
3568 40.2220 24.22 24.82 4.92
3569 40.2325 23.45 23.79 4.84
3570 40.2429 23.23 23.21 4.82
3571 40.2533 22.80 22.91 4.77
3572 40.2638 22.48 22.77 4.74
3573 40.2742 22.50 22.71 4.74
3574 40.2846 22.55 22.69 4.75
3575 40.2951 22.68 22.70 4.76
3576 40.3055 22.77 22.74 4.77
3577 40.3159 23.09 22.86 4.81
3578 40.3264 24.02 23.12 4.90
3579 40.3368 25.67 23.64 5.07
3580 40.3472 27.28 24.58 5.22
3581 40.3577 28.82 26.07 5.37
3582 40.3681 30.38 28.10 5.51
3583 40.3785 31.41 30.41 5.60
3584 40.3890 31.99 32.41 5.66
3585 40.3994 31.93 33.37 5.65
3586 40.4098 30.68 32.81 5.54
3587 40.4202 28.68 31.01 5.36
3588 40.4307 26.86 28.70 5.18
3589 40.4411 25.36 26.54 5.04
3590 40.4515 24.01 24.86 4.90
3591 40.4620 23.17 23.75 4.81
3592 40.4724 22.98 23.11 4.79
3593 40.4828 22.75 22.76 4.77
3594 40.4933 22.44 22.58 4.74
3595 40.5037 22.25 22.49 4.72
3596 40.5141 22.21 22.43 4.71
3597 40.5246 22.29 22.39 4.72
3598 40.5350 22.34 22.36 4.73
3599 40.5454 22.32 22.34 4.72
3600 40.5559 22.10 22.32 4.70
3601 40.5663 22.06 22.30 4.70
3602 40.5767 22.39 22.29 4.73
3603 40.5872 22.31 22.28 4.72
3604 40.5976 22.12 22.26 4.70
3605 40.6080 22.08 22.25 4.70
3606 40.6185 22.13 22.24 4.70
3607 40.6289 22.10 22.24 4.70
3608 40.6393 22.12 22.23 4.70
3609 40.6498 22.33 22.22 4.73
3610 40.6602 22.06 22.22 4.70
3611 40.6706 21.95 22.21 4.68
3612 40.6811 22.02 22.20 4.69
3613 40.6915 22.18 22.20 4.71
3614 40.7019 22.26 22.19 4.72
3615 40.7123 22.19 22.18 4.71
3616 40.7228 22.09 22.17 4.70
3617 40.7332 22.13 22.17 4.70
3618 40.7436 22.31 22.17 4.72
3619 40.7541 22.29 22.17 4.72
3620 40.7645 22.07 22.16 4.70
3621 40.7749 22.20 22.16 4.71
3622 40.7854 22.41 22.16 4.73
3623 40.7958 22.32 22.16 4.72
3624 40.8062 22.10 22.15 4.70
3625 40.8167 22.07 22.15 4.70
3626 40.8271 22.22 22.15 4.71
3627 40.8375 22.23 22.15 4.71
3628 40.8480 22.17 22.15 4.71
3629 40.8584 22.13 22.15 4.70
3630 40.8688 22.04 22.15 4.69
3631 40.8793 22.15 22.15 4.71
3632 40.8897 22.32 22.15 4.72
3633 40.9001 22.30 22.15 4.72
3634 40.9106 22.21 22.15 4.71
3635 40.9210 22.20 22.16 4.71
3636 40.9314 22.27 22.16 4.72
3637 40.9419 22.17 22.17 4.71
3638 40.9523 22.15 22.17 4.71
3639 40.9627 22.03 22.18 4.69
3640 40.9732 21.96 22.20 4.69
3641 40.9836 22.17 22.22 4.71
3642 40.9940 22.51 22.26 4.74
3643 41.0045 22.74 22.34 4.77
3644 41.0149 23.23 22.48 4.82
3645 41.0253 24.37 22.77 4.94
3646 41.0358 25.27 23.29 5.03
3647 41.0462 25.97 24.13 5.10
3648 41.0566 26.75 25.30 5.17
3649 41.0671 27.41 26.67 5.24
3650 41.0775 28.06 27.92 5.30
3651 41.0879 27.95 28.62 5.29
3652 41.0984 27.33 28.43 5.23
3653 41.1088 26.50 27.44 5.15
3654 41.1192 25.24 26.08 5.02
3655 41.1297 23.98 24.77 4.90
3656 41.1401 23.10 23.73 4.81
3657 41.1505 22.64 23.02 4.76
3658 41.1609 22.38 22.60 4.73
3659 41.1714 22.39 22.38 4.73
3660 41.1818 22.16 22.26 4.71
3661 41.1922 21.91 22.20 4.68
3662 41.2027 21.97 22.17 4.69
3663 41.2131 22.04 22.14 4.70
3664 41.2235 22.13 22.12 4.70
3665 41.2340 22.19 22.11 4.71
3666 41.2444 22.18 22.10 4.71
3667 41.2548 22.24 22.09 4.72
3668 41.2653 22.24 22.08 4.72
3669 41.2757 22.20 22.07 4.71
3670 41.2861 21.89 22.06 4.68
3671 41.2966 21.97 22.06 4.69
3672 41.3070 22.04 22.05 4.69
3673 41.3174 22.05 22.05 4.70
3674 41.3279 22.29 22.05 4.72
3675 41.3383 22.26 22.04 4.72
3676 41.3487 22.16 22.04 4.71
3677 41.3592 22.17 22.04 4.71
3678 41.3696 22.03 22.04 4.69
3679 41.3800 21.93 22.04 4.68
3680 41.3905 22.13 22.04 4.70
3681 41.4009 22.38 22.04 4.73
3682 41.4113 22.35 22.05 4.73
3683 41.4217 22.32 22.05 4.72
3684 41.4322 22.19 22.06 4.71
3685 41.4426 22.05 22.07 4.70
3686 41.4530 22.02 22.09 4.69
3687 41.4635 22.20 22.15 4.71
3688 41.4739 22.77 22.25 4.77
3689 41.4843 23.17 22.43 4.81
3690 41.4948 23.47 22.75 4.84
3691 41.5052 23.48 23.24 4.85
3692 41.5156 23.85 23.88 4.88
3693 41.5261 24.27 24.56 4.93
3694 41.5365 24.48 25.10 4.95
3695 41.5469 24.39 25.28 4.94
3696 41.5574 24.04 25.01 4.90
3697 41.5678 23.72 24.41 4.87
3698 41.5782 23.14 23.73 4.81
3699 41.5887 22.76 23.12 4.77
3700 41.5991 22.49 22.66 4.74
3701 41.6095 22.43 22.38 4.74
3702 41.6200 22.34 22.22 4.73
3703 41.6304 22.06 22.14 4.70
3704 41.6408 21.88 22.09 4.68
3705 41.6513 21.75 22.07 4.66
3706 41.6617 21.89 22.07 4.68
3707 41.6721 22.01 22.07 4.69
3708 41.6826 22.09 22.10 4.70
3709 41.6930 22.15 22.14 4.71
3710 41.7034 22.51 22.24 4.74
3711 41.7139 22.95 22.42 4.79
3712 41.7243 23.15 22.73 4.81
3713 41.7347 23.43 23.18 4.84
3714 41.7452 23.70 23.74 4.87
3715 41.7556 24.16 24.28 4.91
3716 41.7660 24.39 24.65 4.94
3717 41.7765 24.27 24.67 4.93
3718 41.7869 23.73 24.33 4.87
3719 41.7973 23.36 23.79 4.83
3720 41.8078 23.11 23.24 4.81
3721 41.8182 22.68 22.78 4.76
3722 41.8286 22.53 22.46 4.75
3723 41.8391 22.45 22.28 4.74
3724 41.8495 22.33 22.18 4.73
3725 41.8599 22.25 22.14 4.72
3726 41.8703 22.23 22.13 4.71
3727 41.8808 22.34 22.15 4.73
3728 41.8912 22.53 22.18 4.75
3729 41.9016 22.77 22.24 4.77
3730 41.9121 23.07 22.36 4.80
3731 41.9225 23.96 22.60 4.90
3732 41.9329 25.33 23.08 5.03
3733 41.9434 26.49 23.93 5.15
3734 41.9538 27.43 25.27 5.24
3735 41.9642 28.04 27.08 5.29
3736 41.9747 29.20 29.11 5.40
3737 41.9851 30.29 30.86 5.50
3738 41.9955 30.61 31.67 5.53
3739 42.0060 29.78 31.12 5.46
3740 42.0164 28.01 29.50 5.29
3741 42.0268 26.06 27.47 5.10
3742 42.0373 24.72 25.59 4.97
3743 42.0477 23.58 24.14 4.86
3744 42.0581 22.74 23.20 4.77
3745 42.0686 22.38 22.65 4.73
3746 42.0790 22.10 22.36 4.70
3747 42.0894 21.94 22.21 4.68
3748 42.0999 21.94 22.14 4.68
3749 42.1103 22.17 22.10 4.71
3750 42.1207 22.26 22.08 4.72
3751 42.1312 22.11 22.09 4.70
3752 42.1416 22.25 22.11 4.72
3753 42.1520 22.47 22.19 4.74
3754 42.1624 22.90 22.36 4.79
3755 42.1729 23.21 22.65 4.82
3756 42.1833 23.22 23.07 4.82
3757 42.1937 23.35 23.59 4.83
3758 42.2042 23.64 24.12 4.86
3759 42.2146 23.87 24.47 4.89
3760 42.2251 23.87 24.49 4.89
3761 42.2355 23.67 24.16 4.86
3762 42.2459 23.26 23.64 4.82
3763 42.2563 22.71 23.09 4.77
3764 42.2668 22.26 22.64 4.72
3765 42.2772 22.14 22.32 4.70
3766 42.2876 22.17 22.12 4.71
3767 42.2981 21.89 22.02 4.68
3768 42.3085 21.74 21.96 4.66
3769 42.3189 21.77 21.93 4.67
3770 42.3294 21.87 21.92 4.68
3771 42.3398 21.92 21.91 4.68
3772 42.3502 22.11 21.91 4.70
3773 42.3607 22.09 21.92 4.70
3774 42.3711 22.07 21.96 4.70
3775 42.3815 22.23 22.03 4.71
3776 42.3920 22.59 22.16 4.75
3777 42.4024 22.69 22.37 4.76
3778 42.4128 22.83 22.64 4.78
3779 42.4233 23.01 22.94 4.80
3780 42.4337 23.16 23.18 4.81
3781 42.4441 23.07 23.27 4.80
3782 42.4546 22.92 23.15 4.79
3783 42.4650 22.70 22.89 4.76
3784 42.4754 22.57 22.59 4.75
3785 42.4859 22.45 22.32 4.74
3786 42.4963 22.22 22.12 4.71
3787 42.5067 21.97 21.98 4.69
3788 42.5172 21.77 21.91 4.67
3789 42.5276 21.77 21.87 4.67
3790 42.5380 22.04 21.85 4.69
3791 42.5485 22.15 21.84 4.71
3792 42.5589 22.13 21.83 4.70
3793 42.5693 22.22 21.84 4.71
3794 42.5798 22.15 21.85 4.71
3795 42.5902 22.31 21.88 4.72
3796 42.6006 22.45 21.94 4.74
3797 42.6110 22.42 22.06 4.74
3798 42.6215 22.53 22.25 4.75
3799 42.6319 22.58 22.51 4.75
3800 42.6423 22.86 22.82 4.78
3801 42.6528 23.15 23.09 4.81
3802 42.6632 23.28 23.23 4.82
3803 42.6736 23.17 23.17 4.81
3804 42.6841 22.75 22.94 4.77
3805 42.6945 22.32 22.63 4.72
3806 42.7049 22.14 22.34 4.71
3807 42.7154 22.09 22.11 4.70
3808 42.7258 22.11 21.96 4.70
3809 42.7362 22.09 21.87 4.70
3810 42.7467 21.88 21.83 4.68
3811 42.7571 21.89 21.80 4.68
3812 42.7675 22.07 21.79 4.70
3813 42.7780 22.06 21.78 4.70
3814 42.7884 22.04 21.78 4.69
3815 42.7988 22.03 21.78 4.69
3816 42.8093 21.95 21.79 4.69
3817 42.8197 22.06 21.80 4.70
3818 42.8301 22.17 21.84 4.71
3819 42.8406 22.14 21.89 4.71
3820 42.8510 22.04 21.98 4.69
3821 42.8614 21.97 22.07 4.69
3822 42.8719 22.17 22.17 4.71
3823 42.8823 22.46 22.22 4.74
3824 42.8927 22.50 22.22 4.74
3825 42.9031 22.45 22.15 4.74
3826 42.9136 22.07 22.05 4.70
3827 42.9240 21.64 21.95 4.65
3828 42.9344 21.74 21.87 4.66
3829 42.9449 22.17 21.81 4.71
3830 42.9553 22.09 21.78 4.70
3831 42.9658 21.95 21.76 4.69
3832 42.9762 21.80 21.75 4.67
3833 42.9866 21.79 21.74 4.67
3834 42.9970 22.10 21.74 4.70
3835 43.0075 22.12 21.74 4.70
3836 43.0179 21.98 21.74 4.69
3837 43.0283 21.78 21.74 4.67
3838 43.0388 21.83 21.74 4.67
3839 43.0492 21.84 21.74 4.67
3840 43.0596 21.75 21.74 4.66
3841 43.0701 21.83 21.74 4.67
3842 43.0805 21.89 21.74 4.68
3843 43.0909 21.81 21.75 4.67
3844 43.1014 21.68 21.75 4.66
3845 43.1118 21.62 21.75 4.65
3846 43.1222 21.66 21.76 4.65
3847 43.1327 21.88 21.76 4.68
3848 43.1431 22.00 21.77 4.69
3849 43.1535 22.37 21.77 4.73
3850 43.1640 22.02 21.78 4.69
3851 43.1744 21.66 21.79 4.65
3852 43.1848 21.74 21.81 4.66
3853 43.1953 21.97 21.82 4.69
3854 43.2057 21.97 21.85 4.69
3855 43.2161 21.97 21.87 4.69
3856 43.2266 21.98 21.93 4.69
3857 43.2370 22.29 22.01 4.72
3858 43.2474 23.06 22.17 4.80
3859 43.2579 24.22 22.47 4.92
3860 43.2683 25.13 23.03 5.01
3861 43.2787 25.65 23.96 5.06
3862 43.2892 25.86 25.31 5.09
3863 43.2996 26.37 26.96 5.13
3864 43.3100 27.46 28.59 5.24
3865 43.3204 28.81 29.67 5.37
3866 43.3309 29.20 29.71 5.40
3867 43.3413 27.74 28.69 5.27
3868 43.3517 25.85 27.09 5.08
3869 43.3622 24.43 25.43 4.94
3870 43.3726 23.27 24.06 4.82
3871 43.3830 22.63 23.11 4.76
3872 43.3935 22.40 22.53 4.73
3873 43.4039 22.10 22.22 4.70
3874 43.4143 22.07 22.07 4.70
3875 43.4248 22.16 22.00 4.71
3876 43.4352 22.12 21.97 4.70
3877 43.4456 22.11 21.97 4.70
3878 43.4561 22.29 22.00 4.72
3879 43.4665 22.67 22.07 4.76
3880 43.4769 23.20 22.23 4.82
3881 43.4874 23.64 22.55 4.86
3882 43.4978 24.13 23.07 4.91
3883 43.5082 24.36 23.81 4.94
3884 43.5187 24.58 24.73 4.96
3885 43.5291 25.23 25.61 5.02
3886 43.5395 25.97 26.18 5.10
3887 43.5500 26.17 26.16 5.12
3888 43.5604 25.19 25.56 5.02
3889 43.5708 24.15 24.67 4.91
3890 43.5813 23.52 23.77 4.85
3891 43.5917 22.79 23.03 4.77
3892 43.6021 22.45 22.53 4.74
3893 43.6125 22.49 22.24 4.74
3894 43.6230 22.63 22.08 4.76
3895 43.6334 22.38 22.02 4.73
3896 43.6438 22.22 22.00 4.71
3897 43.6543 22.01 22.03 4.69
3898 43.6647 22.26 22.08 4.72
3899 43.6752 22.76 22.18 4.77
3900 43.6856 23.79 22.40 4.88
3901 43.6960 25.28 22.83 5.03
3902 43.7064 26.56 23.62 5.15
3903 43.7169 27.20 24.90 5.22
3904 43.7273 27.63 26.68 5.26
3905 43.7377 28.37 28.80 5.33
3906 43.7482 29.67 30.76 5.45
3907 43.7586 31.39 31.88 5.60
3908 43.7690 31.44 31.61 5.61
3909 43.7795 29.31 30.10 5.41
3910 43.7899 26.84 28.02 5.18
3911 43.8003 24.93 25.99 4.99
3912 43.8108 23.51 24.38 4.85
3913 43.8212 22.68 23.29 4.76
3914 43.8316 22.34 22.66 4.73
3915 43.8421 22.06 22.32 4.70
3916 43.8525 22.14 22.17 4.70
3917 43.8629 22.06 22.10 4.70
3918 43.8734 22.07 22.07 4.70
3919 43.8838 22.22 22.09 4.71
3920 43.8942 22.60 22.16 4.75
3921 43.9047 23.37 22.34 4.83
3922 43.9151 24.36 22.71 4.94
3923 43.9255 25.08 23.38 5.01
3924 43.9360 25.50 24.43 5.05
3925 43.9464 25.61 25.86 5.06
3926 43.9568 26.15 27.47 5.11
3927 43.9673 27.76 28.86 5.27
3928 43.9777 28.58 29.48 5.35
3929 43.9881 28.26 29.03 5.32
3930 43.9986 27.01 27.73 5.20
3931 44.0090 25.22 26.12 5.02
3932 44.0194 23.78 24.63 4.88
3933 44.0299 22.96 23.51 4.79
3934 44.0403 22.37 22.77 4.73
3935 44.0507 22.02 22.36 4.69
3936 44.0611 22.12 22.14 4.70
3937 44.0716 21.95 22.05 4.69
3938 44.0820 22.13 22.01 4.70
3939 44.0924 22.43 22.02 4.74
3940 44.1029 22.23 22.06 4.71
3941 44.1133 22.49 22.16 4.74
3942 44.1237 23.41 22.40 4.84
3943 44.1342 24.65 22.86 4.97
3944 44.1446 25.49 23.65 5.05
3945 44.1550 25.87 24.85 5.09
3946 44.1655 26.23 26.38 5.12
3947 44.1759 27.04 28.00 5.20
3948 44.1863 28.35 29.22 5.32
3949 44.1968 29.11 29.52 5.40
3950 44.2072 28.54 28.73 5.34
3951 44.2176 26.70 27.26 5.17
3952 44.2281 24.83 25.62 4.98
3953 44.2385 23.72 24.21 4.87
3954 44.2489 22.91 23.19 4.79
3955 44.2594 22.30 22.55 4.72
3956 44.2698 21.90 22.19 4.68
3957 44.2802 21.93 22.00 4.68
3958 44.2907 22.01 21.91 4.69
3959 44.3011 22.00 21.86 4.69
3960 44.3115 22.26 21.82 4.72
3961 44.3220 22.28 21.81 4.72
3962 44.3324 22.23 21.81 4.71
3963 44.3428 21.98 21.82 4.69
3964 44.3532 22.09 21.87 4.70
3965 44.3637 22.07 21.96 4.70
3966 44.3741 21.96 22.09 4.69
3967 44.3845 21.94 22.24 4.68
3968 44.3950 22.18 22.39 4.71
3969 44.4054 22.34 22.48 4.73
3970 44.4159 22.47 22.47 4.74
3971 44.4263 22.43 22.36 4.74
3972 44.4367 22.05 22.21 4.70
3973 44.4471 21.78 22.06 4.67
3974 44.4576 21.79 21.94 4.67
3975 44.4680 21.71 21.87 4.66
3976 44.4784 21.74 21.83 4.66
3977 44.4889 21.79 21.82 4.67
3978 44.4993 21.95 21.83 4.69
3979 44.5097 21.89 21.86 4.68
3980 44.5202 22.09 21.90 4.70
3981 44.5306 22.37 21.98 4.73
3982 44.5410 22.89 22.13 4.78
3983 44.5515 23.82 22.44 4.88
3984 44.5619 25.51 23.03 5.05
3985 44.5723 26.71 24.06 5.17
3986 44.5828 26.93 25.62 5.19
3987 44.5932 27.26 27.68 5.22
3988 44.6036 28.50 29.91 5.34
3989 44.6141 30.35 31.70 5.51
3990 44.6245 32.10 32.32 5.67
3991 44.6349 31.87 31.43 5.64
3992 44.6454 29.41 29.50 5.42
3993 44.6558 26.41 27.26 5.14
3994 44.6662 24.27 25.27 4.93
3995 44.6767 22.98 23.81 4.79
3996 44.6871 22.27 22.87 4.72
3997 44.6975 21.97 22.34 4.69
3998 44.7080 21.99 22.06 4.69
3999 44.7184 21.66 21.92 4.65
4000 44.7288 21.51 21.84 4.64
4001 44.7393 21.73 21.79 4.66
4002 44.7497 21.58 21.75 4.65
4003 44.7601 21.54 21.73 4.64
4004 44.7705 21.54 21.71 4.64
4005 44.7810 21.71 21.69 4.66
4006 44.7914 22.09 21.67 4.70
4007 44.8018 22.07 21.66 4.70
4008 44.8123 21.63 21.65 4.65
4009 44.8227 21.61 21.64 4.65
4010 44.8331 21.63 21.63 4.65
4011 44.8436 21.42 21.63 4.63
4012 44.8540 21.65 21.62 4.65
4013 44.8644 21.58 21.62 4.65
4014 44.8749 21.68 21.61 4.66
4015 44.8853 21.53 21.61 4.64
4016 44.8957 21.70 21.60 4.66
4017 44.9062 21.64 21.60 4.65
4018 44.9166 21.66 21.60 4.65
4019 44.9270 21.83 21.59 4.67
4020 44.9375 21.88 21.59 4.68
4021 44.9479 21.59 21.59 4.65
4022 44.9583 21.45 21.59 4.63
4023 44.9688 21.35 21.59 4.62
4024 44.9792 21.60 21.58 4.65
4025 44.9896 21.88 21.58 4.68
4026 45.0001 21.68 21.58 4.66
4027 45.0105 21.35 21.58 4.62
4028 45.0209 21.63 21.58 4.65
4029 45.0314 21.95 21.58 4.69
4030 45.0418 21.71 21.58 4.66
4031 45.0522 21.83 21.58 4.67
4032 45.0626 21.77 21.58 4.67
4033 45.0731 21.35 21.58 4.62
4034 45.0835 21.23 21.58 4.61
4035 45.0939 21.26 21.58 4.61
4036 45.1044 21.41 21.58 4.63
4037 45.1148 21.43 21.58 4.63
4038 45.1253 21.56 21.58 4.64
4039 45.1357 21.48 21.58 4.64
4040 45.1461 21.58 21.59 4.65
4041 45.1565 21.69 21.59 4.66
4042 45.1670 21.68 21.59 4.66
4043 45.1774 21.66 21.60 4.65
4044 45.1878 21.60 21.63 4.65
4045 45.1983 21.87 21.69 4.68
4046 45.2087 22.11 21.79 4.70
4047 45.2191 22.43 21.95 4.74
4048 45.2296 22.39 22.16 4.73
4049 45.2400 22.29 22.39 4.72
4050 45.2504 22.64 22.59 4.76
4051 45.2609 23.02 22.68 4.80
4052 45.2713 22.88 22.60 4.78
4053 45.2817 22.44 22.41 4.74
4054 45.2922 22.21 22.18 4.71
4055 45.3026 22.01 21.97 4.69
4056 45.3130 21.77 21.81 4.67
4057 45.3235 21.68 21.71 4.66
4058 45.3339 21.69 21.66 4.66
4059 45.3443 21.73 21.63 4.66
4060 45.3548 21.68 21.63 4.66
4061 45.3652 21.40 21.63 4.63
4062 45.3756 21.45 21.64 4.63
4063 45.3861 21.73 21.67 4.66
4064 45.3965 21.99 21.72 4.69
4065 45.4069 22.24 21.83 4.72
4066 45.4174 22.55 22.03 4.75
4067 45.4278 22.65 22.34 4.76
4068 45.4382 22.74 22.78 4.77
4069 45.4487 22.97 23.30 4.79
4070 45.4591 23.16 23.76 4.81
4071 45.4695 23.82 24.02 4.88
4072 45.4799 24.08 23.93 4.91
4073 45.4904 23.56 23.55 4.85
4074 45.5008 22.77 23.04 4.77
4075 45.5112 22.26 22.55 4.72
4076 45.5217 22.01 22.17 4.69
4077 45.5321 21.63 21.91 4.65
4078 45.5425 21.51 21.76 4.64
4079 45.5530 21.45 21.68 4.63
4080 45.5634 21.45 21.65 4.63
4081 45.5738 21.44 21.63 4.63
4082 45.5843 21.58 21.62 4.65
4083 45.5947 21.63 21.61 4.65
4084 45.6051 22.03 21.62 4.69
4085 45.6156 21.95 21.63 4.68
4086 45.6260 21.57 21.67 4.64
4087 45.6364 21.53 21.72 4.64
4088 45.6469 21.76 21.80 4.66
4089 45.6573 21.82 21.90 4.67
4090 45.6677 21.82 22.00 4.67
4091 45.6782 21.96 22.06 4.69
4092 45.6886 21.88 22.05 4.68
4093 45.6990 21.81 21.99 4.67
4094 45.7095 21.70 21.90 4.66
4095 45.7199 21.83 21.81 4.67
4096 45.7303 21.61 21.74 4.65
4097 45.7408 21.52 21.70 4.64
4098 45.7512 21.52 21.68 4.64
4099 45.7616 21.43 21.68 4.63
4100 45.7721 21.57 21.70 4.64
4101 45.7825 21.46 21.73 4.63
4102 45.7929 21.44 21.78 4.63
4103 45.8033 22.00 21.86 4.69
4104 45.8138 22.29 22.02 4.72
4105 45.8242 23.23 22.34 4.82
4106 45.8346 24.44 22.92 4.94
4107 45.8451 25.24 23.88 5.02
4108 45.8555 25.69 25.27 5.07
4109 45.8660 25.80 26.96 5.08
4110 45.8764 26.65 28.62 5.16
4111 45.8868 28.31 29.70 5.32
4112 45.8972 29.14 29.68 5.40
4113 45.9077 28.65 28.58 5.35
4114 45.9181 26.91 26.92 5.19
4115 45.9285 24.81 25.23 4.98
4116 45.9390 23.48 23.85 4.85
4117 45.9494 22.49 22.90 4.74
4118 45.9598 21.92 22.33 4.68
4119 45.9703 21.80 22.02 4.67
4120 45.9807 21.76 21.86 4.66
4121 45.9911 21.49 21.78 4.64
4122 46.0016 21.55 21.74 4.64
4123 46.0120 21.58 21.72 4.65
4124 46.0224 21.77 21.73 4.67
4125 46.0329 21.89 21.76 4.68
4126 46.0433 21.97 21.85 4.69
4127 46.0537 22.15 22.01 4.71
4128 46.0642 22.14 22.24 4.71
4129 46.0746 21.93 22.53 4.68
4130 46.0850 22.08 22.82 4.70
4131 46.0955 22.74 23.01 4.77
4132 46.1059 22.82 23.00 4.78
4133 46.1163 22.89 22.81 4.78
4134 46.1268 22.45 22.51 4.74
4135 46.1372 22.06 22.22 4.70
4136 46.1476 21.53 21.98 4.64
4137 46.1581 21.35 21.81 4.62
4138 46.1685 21.28 21.72 4.61
4139 46.1789 21.35 21.67 4.62
4140 46.1894 21.54 21.65 4.64
4141 46.1998 21.62 21.65 4.65
4142 46.2102 21.64 21.67 4.65
4143 46.2206 22.00 21.72 4.69
4144 46.2311 22.24 21.81 4.72
4145 46.2415 22.69 22.00 4.76
4146 46.2519 23.22 22.35 4.82
4147 46.2624 23.62 22.92 4.86
4148 46.2728 23.65 23.75 4.86
4149 46.2832 23.90 24.75 4.89
4150 46.2937 24.44 25.72 4.94
4151 46.3041 25.48 26.32 5.05
4152 46.3145 26.19 26.27 5.12
4153 46.3250 26.08 25.59 5.11
4154 46.3354 25.01 24.60 5.00
4155 46.3458 23.44 23.61 4.84
4156 46.3563 22.59 22.81 4.75
4157 46.3667 21.96 22.26 4.69
4158 46.3771 21.52 21.93 4.64
4159 46.3876 21.69 21.75 4.66
4160 46.3980 21.84 21.66 4.67
4161 46.4084 21.50 21.61 4.64
4162 46.4189 21.34 21.58 4.62
4163 46.4293 21.45 21.56 4.63
4164 46.4397 21.41 21.53 4.63
4165 46.4502 21.34 21.52 4.62
4166 46.4606 21.35 21.51 4.62
4167 46.4710 21.50 21.50 4.64
4168 46.4815 21.37 21.50 4.62
4169 46.4919 21.26 21.49 4.61
4170 46.5023 21.30 21.48 4.62
4171 46.5128 21.16 21.48 4.60
4172 46.5232 21.21 21.48 4.61
4173 46.5336 21.40 21.47 4.63
4174 46.5440 21.35 21.47 4.62
4175 46.5545 21.28 21.47 4.61
4176 46.5649 21.14 21.47 4.60
4177 46.5754 21.28 21.46 4.61
4178 46.5858 21.24 21.46 4.61
4179 46.5962 21.26 21.47 4.61
4180 46.6067 21.44 21.47 4.63
4181 46.6171 21.52 21.47 4.64
4182 46.6275 21.47 21.48 4.63
4183 46.6379 21.44 21.48 4.63
4184 46.6484 21.40 21.50 4.63
4185 46.6588 21.56 21.53 4.64
4186 46.6692 21.68 21.58 4.66
4187 46.6797 21.80 21.67 4.67
4188 46.6901 21.73 21.78 4.66
4189 46.7005 21.85 21.92 4.67
4190 46.7110 21.86 22.03 4.68
4191 46.7214 21.93 22.09 4.68
4192 46.7318 21.86 22.05 4.68
4193 46.7423 21.85 21.95 4.67
4194 46.7527 21.85 21.82 4.67
4195 46.7631 21.68 21.70 4.66
4196 46.7736 21.62 21.60 4.65
4197 46.7840 21.45 21.55 4.63
4198 46.7944 21.28 21.52 4.61
4199 46.8049 21.14 21.51 4.60
4200 46.8153 21.35 21.51 4.62
4201 46.8257 21.42 21.52 4.63
4202 46.8362 21.24 21.53 4.61
4203 46.8466 21.44 21.57 4.63
4204 46.8570 21.80 21.63 4.67
4205 46.8675 22.15 21.76 4.71
4206 46.8779 22.51 21.99 4.74
4207 46.8883 22.71 22.33 4.77
4208 46.8988 22.91 22.78 4.79
4209 46.9092 23.04 23.25 4.80
4210 46.9196 23.51 23.63 4.85
4211 46.9300 23.82 23.75 4.88
4212 46.9405 23.78 23.55 4.88
4213 46.9509 23.24 23.13 4.82
4214 46.9613 22.56 22.66 4.75
4215 46.9718 21.94 22.25 4.68
4216 46.9822 21.32 21.96 4.62
4217 46.9926 21.23 21.78 4.61
4218 47.0031 21.20 21.69 4.60
4219 47.0135 21.16 21.66 4.60
4220 47.0239 21.23 21.66 4.61
4221 47.0344 21.28 21.70 4.61
4222 47.0448 21.68 21.77 4.66
4223 47.0552 21.96 21.92 4.69
4224 47.0657 22.35 22.23 4.73
4225 47.0761 23.45 22.81 4.84
4226 47.0865 24.60 23.76 4.96
4227 47.0970 25.31 25.15 5.03
4228 47.1074 25.91 26.85 5.09
4229 47.1178 26.86 28.54 5.18
4230 47.1283 28.44 29.66 5.33
4231 47.1387 30.28 29.67 5.50
4232 47.1491 30.09 28.58 5.49
4233 47.1596 27.97 26.90 5.29
4234 47.1700 25.39 25.19 5.04
4235 47.1804 23.38 23.80 4.84
4236 47.1909 22.21 22.83 4.71
4237 47.2013 21.62 22.26 4.65
4238 47.2117 21.58 21.95 4.65
4239 47.2222 21.61 21.79 4.65
4240 47.2326 21.69 21.73 4.66
4241 47.2430 21.66 21.71 4.65
4242 47.2534 21.72 21.74 4.66
4243 47.2639 21.66 21.84 4.65
4244 47.2743 22.33 22.05 4.73
4245 47.2848 23.28 22.46 4.83
4246 47.2952 23.75 23.11 4.87
4247 47.3056 23.82 24.00 4.88
4248 47.3161 24.08 25.02 4.91
4249 47.3265 24.58 25.91 4.96
4250 47.3369 25.57 26.33 5.06
4251 47.3473 26.24 26.05 5.12
4252 47.3578 25.64 25.22 5.06
4253 47.3682 24.58 24.19 4.96
4254 47.3786 23.01 23.23 4.80
4255 47.3891 21.86 22.50 4.68
4256 47.3995 21.56 22.03 4.64
4257 47.4099 21.48 21.75 4.63
4258 47.4204 21.31 21.60 4.62
4259 47.4308 21.20 21.53 4.60
4260 47.4412 21.42 21.48 4.63
4261 47.4517 21.46 21.45 4.63
4262 47.4621 21.53 21.43 4.64
4263 47.4725 21.51 21.42 4.64
4264 47.4830 21.43 21.40 4.63
4265 47.4934 21.41 21.39 4.63
4266 47.5038 21.29 21.38 4.61
4267 47.5143 21.14 21.38 4.60
4268 47.5247 21.14 21.37 4.60
4269 47.5351 21.28 21.36 4.61
4270 47.5456 21.55 21.36 4.64
4271 47.5560 21.49 21.35 4.64
4272 47.5664 21.40 21.35 4.63
4273 47.5769 21.43 21.35 4.63
4274 47.5873 21.29 21.34 4.61
4275 47.5977 21.32 21.34 4.62
4276 47.6082 21.23 21.34 4.61
4277 47.6186 21.42 21.34 4.63
4278 47.6290 21.36 21.34 4.62
4279 47.6395 21.26 21.34 4.61
4280 47.6499 21.01 21.34 4.58
4281 47.6603 21.12 21.34 4.60
4282 47.6707 21.45 21.35 4.63
4283 47.6812 21.52 21.37 4.64
4284 47.6916 21.38 21.41 4.62
4285 47.7020 21.67 21.47 4.65
4286 47.7125 21.54 21.56 4.64
4287 47.7229 21.62 21.66 4.65
4288 47.7333 21.66 21.75 4.65
4289 47.7438 21.62 21.79 4.65
4290 47.7542 21.68 21.76 4.66
4291 47.7646 21.66 21.69 4.65
4292 47.7751 21.74 21.59 4.66
4293 47.7855 21.57 21.50 4.64
4294 47.7959 21.39 21.44 4.62
4295 47.8064 21.52 21.40 4.64
4296 47.8168 21.50 21.38 4.64
4297 47.8272 21.51 21.38 4.64
4298 47.8377 21.37 21.39 4.62
4299 47.8481 21.32 21.40 4.62
4300 47.8585 21.53 21.44 4.64
4301 47.8690 21.51 21.52 4.64
4302 47.8794 21.43 21.66 4.63
4303 47.8898 22.01 21.94 4.69
4304 47.9003 22.59 22.40 4.75
4305 47.9107 23.16 23.07 4.81
4306 47.9211 23.62 23.90 4.86
4307 47.9316 24.02 24.73 4.90
4308 47.9420 25.13 25.30 5.01
4309 47.9524 25.98 25.32 5.10
4310 47.9629 25.64 24.80 5.06
4311 47.9733 24.51 23.98 4.95
4312 47.9837 23.03 23.13 4.80
4313 47.9941 22.22 22.44 4.71
4314 48.0046 22.06 21.96 4.70
4315 48.0150 21.72 21.67 4.66
4316 48.0255 21.54 21.51 4.64
4317 48.0359 21.35 21.42 4.62
4318 48.0463 21.50 21.38 4.64
4319 48.0568 21.68 21.36 4.66
4320 48.0672 21.54 21.34 4.64
4321 48.0776 21.30 21.33 4.61
4322 48.0880 21.28 21.32 4.61
4323 48.0985 21.08 21.31 4.59
4324 48.1089 21.40 21.31 4.63
4325 48.1193 21.56 21.30 4.64
4326 48.1298 21.70 21.30 4.66
4327 48.1402 21.66 21.30 4.65
4328 48.1506 21.50 21.30 4.64
4329 48.1611 21.33 21.30 4.62
4330 48.1715 21.16 21.30 4.60
4331 48.1819 21.58 21.30 4.65
4332 48.1924 21.56 21.30 4.64
4333 48.2028 21.60 21.31 4.65
4334 48.2132 21.46 21.31 4.63
4335 48.2237 21.61 21.32 4.65
4336 48.2341 21.63 21.34 4.65
4337 48.2445 21.38 21.35 4.62
4338 48.2550 21.58 21.38 4.65
4339 48.2654 21.75 21.43 4.66
4340 48.2758 21.92 21.52 4.68
4341 48.2863 22.19 21.69 4.71
4342 48.2967 22.42 22.01 4.74
4343 48.3071 23.02 22.51 4.80
4344 48.3176 24.05 23.20 4.90
4345 48.3280 25.04 24.00 5.00
4346 48.3384 25.04 24.72 5.00
4347 48.3489 25.04 25.09 5.00
4348 48.3593 24.61 24.92 4.96
4349 48.3697 24.05 24.30 4.90
4350 48.3801 23.26 23.51 4.82
4351 48.3906 22.21 22.77 4.71
4352 48.4010 21.42 22.20 4.63
4353 48.4114 21.62 21.83 4.65
4354 48.4219 21.50 21.62 4.64
4355 48.4323 21.31 21.52 4.62
4356 48.4427 21.22 21.48 4.61
4357 48.4532 21.41 21.47 4.63
4358 48.4636 21.55 21.50 4.64
4359 48.4740 21.72 21.57 4.66
4360 48.4845 22.31 21.73 4.72
4361 48.4949 22.01 22.03 4.69
4362 48.5053 22.84 22.54 4.78
4363 48.5158 24.52 23.27 4.95
4364 48.5262 25.30 24.16 5.03
4365 48.5366 25.18 25.01 5.02
4366 48.5471 25.41 25.55 5.04
4367 48.5575 25.30 25.50 5.03
4368 48.5679 24.72 24.89 4.97
4369 48.5784 23.89 24.01 4.89
4370 48.5888 23.20 23.14 4.82
4371 48.5992 22.37 22.44 4.73
4372 48.6097 21.73 21.97 4.66
4373 48.6201 21.68 21.70 4.66
4374 48.6305 21.83 21.55 4.67
4375 48.6410 22.00 21.48 4.69
4376 48.6514 21.70 21.46 4.66
4377 48.6618 21.65 21.46 4.65
4378 48.6723 21.41 21.49 4.63
4379 48.6827 21.45 21.58 4.63
4380 48.6931 21.69 21.75 4.66
4381 48.7035 22.32 22.04 4.72
4382 48.7140 23.06 22.47 4.80
4383 48.7244 23.88 23.02 4.89
4384 48.7349 23.74 23.57 4.87
4385 48.7453 23.78 23.96 4.88
4386 48.7557 23.93 23.99 4.89
4387 48.7662 23.97 23.66 4.90
4388 48.7766 23.17 23.12 4.81
4389 48.7870 22.04 22.56 4.69
4390 48.7975 21.79 22.10 4.67
4391 48.8079 21.47 21.78 4.63
4392 48.8183 21.70 21.59 4.66
4393 48.8287 21.64 21.49 4.65
4394 48.8392 21.36 21.44 4.62
4395 48.8496 21.78 21.41 4.67
4396 48.8600 21.63 21.41 4.65
4397 48.8705 21.55 21.42 4.64
4398 48.8809 21.38 21.46 4.62
4399 48.8913 21.26 21.52 4.61
4400 48.9018 21.71 21.64 4.66
4401 48.9122 21.90 21.82 4.68
4402 48.9226 21.82 22.05 4.67
4403 48.9331 22.52 22.30 4.75
4404 48.9435 22.68 22.48 4.76
4405 48.9539 22.41 22.52 4.73
4406 48.9644 22.75 22.41 4.77
4407 48.9748 23.11 22.19 4.81
4408 48.9852 22.41 21.97 4.73
4409 48.9957 21.89 21.78 4.68
4410 49.0061 21.88 21.66 4.68
4411 49.0165 21.51 21.60 4.64
4412 49.0270 21.60 21.58 4.65
4413 49.0374 21.42 21.60 4.63
4414 49.0478 21.43 21.65 4.63
4415 49.0583 21.23 21.73 4.61
4416 49.0687 21.57 21.90 4.64
4417 49.0791 22.26 22.23 4.72
4418 49.0896 22.37 22.85 4.73
4419 49.1000 23.65 23.92 4.86
4420 49.1104 26.88 25.52 5.18
4421 49.1208 30.13 27.59 5.49
4422 49.1313 31.45 29.78 5.61
4423 49.1417 30.28 31.44 5.50
4424 49.1521 29.79 31.85 5.46
4425 49.1626 30.05 30.78 5.48
4426 49.1730 29.15 28.77 5.40
4427 49.1834 26.98 26.58 5.19
4428 49.1939 25.07 24.72 5.01
4429 49.2043 23.45 23.38 4.84
4430 49.2147 22.39 22.55 4.73
4431 49.2252 22.09 22.09 4.70
4432 49.2356 21.83 21.85 4.67
4433 49.2460 22.03 21.73 4.69
4434 49.2565 21.53 21.66 4.64
4435 49.2669 21.18 21.62 4.60
4436 49.2773 21.27 21.59 4.61
4437 49.2878 21.15 21.58 4.60
4438 49.2982 21.65 21.56 4.65
4439 49.3086 21.51 21.56 4.64
4440 49.3191 21.41 21.56 4.63
4441 49.3295 21.55 21.56 4.64
4442 49.3399 21.54 21.56 4.64
4443 49.3504 21.66 21.57 4.65
4444 49.3608 21.55 21.57 4.64
4445 49.3712 21.44 21.57 4.63
4446 49.3817 21.62 21.57 4.65
4447 49.3921 22.08 21.58 4.70
4448 49.4025 21.49 21.59 4.64
4449 49.4130 21.24 21.61 4.61
4450 49.4234 21.04 21.63 4.59
4451 49.4338 21.78 21.66 4.67
4452 49.4442 22.12 21.70 4.70
4453 49.4547 22.02 21.77 4.69
4454 49.4651 21.66 21.88 4.65
4455 49.4756 21.80 22.11 4.67
4456 49.4860 22.35 22.53 4.73
4457 49.4964 22.81 23.23 4.78
4458 49.5069 24.10 24.28 4.91
4459 49.5173 27.00 25.62 5.20
4460 49.5277 29.05 27.01 5.39
4461 49.5381 28.46 28.05 5.33
4462 49.5486 27.66 28.26 5.26
4463 49.5590 27.28 27.53 5.22
4464 49.5694 26.50 26.23 5.15
4465 49.5799 25.75 24.84 5.07
4466 49.5903 24.13 23.67 4.91
4467 49.6007 22.98 22.85 4.79
4468 49.6112 22.80 22.34 4.77
4469 49.6216 22.81 22.06 4.78
4470 49.6320 22.43 21.92 4.74
4471 49.6425 22.17 21.86 4.71
4472 49.6529 21.69 21.82 4.66
4473 49.6633 21.62 21.80 4.65
4474 49.6738 21.85 21.79 4.67
4475 49.6842 22.31 21.79 4.72
4476 49.6946 22.24 21.77 4.72
4477 49.7051 22.08 21.78 4.70
4478 49.7155 21.92 21.78 4.68
4479 49.7259 21.89 21.79 4.68
4480 49.7364 21.74 21.80 4.66
4481 49.7468 21.39 21.81 4.63
4482 49.7572 21.48 21.82 4.63
4483 49.7677 21.56 21.84 4.64
4484 49.7781 21.42 21.85 4.63
4485 49.7885 22.08 21.87 4.70
4486 49.7990 22.36 21.90 4.73
4487 49.8094 22.36 21.93 4.73
4488 49.8198 21.90 21.96 4.68
4489 49.8302 21.95 22.00 4.68
4490 49.8407 21.66 22.06 4.65
4491 49.8511 22.12 22.16 4.70
4492 49.8615 22.23 22.32 4.71
4493 49.8720 22.36 22.64 4.73
4494 49.8824 22.84 23.20 4.78
4495 49.8928 22.85 24.13 4.78
4496 49.9033 24.14 25.45 4.91
4497 49.9137 27.21 27.05 5.22
4498 49.9241 31.57 28.61 5.62
4499 49.9346 32.16 29.58 5.67
4500 49.9450 29.58 29.51 5.44
4501 49.9554 27.05 28.43 5.20
4502 49.9659 25.02 26.86 5.00
4503 49.9763 23.09 25.32 4.80
4504 49.9867 22.58 24.08 4.75
4505 49.9972 22.86 23.25 4.78
loop_
_pd_proc_info_excluded_regions
'from 0.005 to 3.000'
'from 50 to 52.209'
loop_
_refln_index_h
_refln_index_k
_refln_index_l
_refln_F_squared_calc
_refln_F_squared_meas
_refln_observed_status
_refln_d_spacing
1 0 1 13900.20 14094.83 o 6.728271
1 1 1 8193.58 8265.09 o 5.493610
0 0 2 2297.25 2182.03 o 4.757606
1 1 2 1614.76 1555.91 o 3.884569
2 0 2 76347.40 74536.88 o 3.364136
2 1 2 138365.47 136912.55 o 3.171737
1 0 3 402542.16 402626.00 o 3.008974
0 1 3 31068.40 31074.88 o 3.008974
1 1 3 194301.41 193842.19 o 2.868944
2 2 2 154097.30 151544.23 o 2.746805
2 1 3 48964.64 48721.67 o 2.543047
1 2 3 21626.54 21519.23 o 2.543047
0 0 4 811.82 489.52 < 2.378803
2 2 3 65532.04 63400.49 o 2.307778
1 1 4 35164.70 35897.38 o 2.242757
3 0 3 90995.54 92891.48 o 2.242757
3 1 3 18838.83 18527.27 o 2.182939
2 0 4 41021.06 42118.93 o 2.127666
0 2 4 86456.31 88770.20 o 2.127666
2 1 4 1788.17 1618.16 o 2.076390
1 2 4 1953.84 1768.07 o 2.076390
3 2 3 3459.84 3461.92 o 2.028650
2 2 4 3859.40 4099.62 o 1.942284
0 1 5 67710.37 67533.67 o 1.866087
3 1 4 7037.18 7018.81 o 1.866087
1 3 4 246033.22 245391.16 o 1.866087
1 0 5 148245.83 147858.94 o 1.866087
1 1 5 153225.70 152736.61 o 1.831203
3 3 3 67366.58 67151.55 o 1.831203
3 2 4 5116.61 5291.43 o 1.766931
2 3 4 5290.64 5471.41 o 1.766931
2 1 5 17341.97 17499.66 o 1.737232
1 2 5 3838.94 3873.85 o 1.737232
4 0 4 284978.84 280166.72 o 1.682068
4 1 4 789.84 777.14 o 1.656386
2 2 5 86314.11 84926.59 o 1.656386
3 0 5 66270.30 66063.30 o 1.631845
0 3 5 606.14 604.25 o 1.631845
3 3 4 12156.89 12118.92 o 1.631845
3 1 5 4035.82 4274.26 o 1.608364
1 3 5 4623.50 4896.66 o 1.608364
0 0 6 58958.84 58843.14 o 1.585869
4 2 4 214125.53 213705.34 o 1.585869
1 1 6 9271.60 9592.65 o 1.543571
3 2 5 22406.93 23182.83 o 1.543571
2 3 5 15060.18 15581.68 o 1.543571
0 2 6 162279.05 165341.27 o 1.504487
2 0 6 131742.80 134228.80 o 1.504487
4 3 4 1080.81 1095.69 o 1.486026
1 2 6 53698.34 54437.79 o 1.486026
2 1 6 52325.67 53046.21 o 1.486026
4 1 5 55229.71 55361.86 o 1.468229
1 4 5 28106.51 28173.76 o 1.468229
3 3 5 87946.15 90878.34 o 1.451056
2 2 6 32675.45 33657.11 o 1.434472
2 4 5 222.57 57.56 < 1.418444
4 2 5 353.86 91.51 < 1.418444
1 3 6 2063.62 2103.75 o 1.402941
3 1 6 59180.35 60331.09 o 1.402941
4 4 4 153546.55 146470.45 o 1.373402
2 3 6 23752.93 24446.95 o 1.359316
3 2 6 24830.32 25555.83 o 1.359316
1 0 7 9203.53 9140.64 o 1.345654
4 3 5 60395.00 59982.36 o 1.345654
5 0 5 360.17 357.71 o 1.345654
0 1 7 83.24 82.67 o 1.345654
3 4 5 3464.36 3440.69 o 1.345654
5 1 5 2496.10 2467.99 o 1.332396
1 1 7 4666.03 4613.48 o 1.332396
0 4 6 2039.49 1694.61 o 1.319523
4 0 6 6853.50 5694.57 o 1.319523
4 1 6 1320.76 1530.88 o 1.307015
1 4 6 1391.79 1613.21 o 1.307015
2 1 7 184.25 221.38 o 1.294856
3 3 6 1393.92 1674.82 o 1.294856
1 2 7 1660.14 1994.69 o 1.294856
5 2 5 1422.83 1709.55 o 1.294856
4 2 6 23468.46 25227.09 o 1.271524
2 4 6 11060.70 11889.55 o 1.271524
2 2 7 20260.91 23156.71 o 1.260321
4 4 5 354.62 405.30 o 1.260321
0 3 7 153629.91 164468.48 o 1.249408
3 0 7 1578.54 1689.91 o 1.249408
1 3 7 45059.82 46478.64 o 1.238775
5 3 5 77092.89 79520.34 o 1.238775
3 1 7 47197.22 48683.33 o 1.238775
3 4 6 4804.18 6049.71 o 1.218298
4 3 6 4447.95 5601.13 o 1.218298
3 2 7 27062.94 28200.15 o 1.208433
1 5 6 8945.21 9321.10 o 1.208433
5 1 6 31963.62 33306.77 o 1.208433
2 3 7 10709.28 11159.29 o 1.208433
0 0 8 402384.88 421410.88 o 1.189402
5 2 6 38211.97 39649.27 o 1.180217
2 5 6 41437.17 42995.79 o 1.180217
1 1 8 14266.98 14042.56 o 1.171242
5 4 5 784.15 771.82 o 1.171242
1 4 7 7129.71 7017.57 o 1.171242
4 1 7 18498.64 18207.66 o 1.171242
3 3 7 28326.93 29630.07 o 1.162468
4 4 6 23435.97 24430.10 o 1.153889
0 2 8 19102.95 19913.28 o 1.153889
2 0 8 16420.78 17117.34 o 1.153889
4 2 7 6063.28 6586.61 o 1.145497
1 2 8 286.71 311.46 o 1.145497
2 1 8 239.22 259.87 o 1.145497
2 4 7 6609.96 7180.47 o 1.145497
5 3 6 1737.36 1874.59 o 1.137285
3 5 6 23307.73 25148.71 o 1.137285
2 2 8 7074.74 6906.32 o 1.121379
6 0 6 159538.47 155740.39 o 1.121379
6 1 6 24868.93 24833.29 o 1.113671
1 3 8 2.07 2.05 o 1.106121
0 5 7 80781.05 79817.02 o 1.106121
3 4 7 104531.43 103283.98 o 1.106121
3 1 8 60976.01 60248.34 o 1.106121
4 3 7 657.24 649.39 o 1.106121
5 0 7 14355.57 14184.25 o 1.106121
1 5 7 56075.33 55325.42 o 1.098722
5 5 5 53471.99 52756.89 o 1.098722
5 1 7 56771.69 56012.46 o 1.098722
6 2 6 485.71 232.22 < 1.091470
4 5 6 608.62 474.78 o 1.084359
3 2 8 2818.09 2198.35 o 1.084359
2 3 8 3090.61 2410.93 o 1.084359
5 4 6 373.48 291.34 o 1.084359
5 2 7 9465.88 8368.73 o 1.077386
2 5 7 1.34 1.18 o 1.077386
4 0 8 3995.32 255.08 < 1.063833
0 4 8 1046.42 66.81 < 1.063833
4 4 7 571.55 507.34 o 1.057246
4 1 8 861.90 765.08 o 1.057246
6 3 6 6516.67 5784.57 o 1.057246
1 4 8 1309.33 1162.24 o 1.057246
3 3 8 26968.05 23623.08 o 1.050779
1 0 9 14552.67 12747.64 o 1.050779
0 1 9 27399.89 24001.36 o 1.050779
3 5 7 4468.85 3803.29 o 1.044430
1 1 9 3297.24 2806.17 o 1.044430
5 3 7 5515.77 4694.28 o 1.044430
4 2 8 33478.77 31312.62 o 1.038195
2 4 8 37122.50 34720.59 o 1.038195
1 2 9 12090.63 10038.58 o 1.026052
2 1 9 12745.35 10582.18 o 1.026052
1 6 7 1364.61 1133.00 o 1.026052
6 1 7 13159.78 10926.27 o 1.026052
5 5 6 138.86 115.29 o 1.026052
6 4 6 74014.47 65437.78 o 1.014325
4 3 8 1112.34 994.51 o 1.008610
2 2 9 19566.22 17493.58 o 1.008610
6 2 7 5049.41 4514.53 o 1.008610
3 4 8 1296.70 1159.35 o 1.008610
2 6 7 4295.49 3840.47 o 1.008610
4 5 7 7851.17 7165.03 o 1.002991
0 3 9 35311.13 32225.15 o 1.002991
1 5 8 7.16 6.54 o 1.002991
3 0 9 29146.28 26599.07 o 1.002991
5 4 7 33496.18 30568.82 o 1.002991
5 1 8 3423.27 3124.10 o 1.002991
3 1 9 36636.94 32281.35 o 0.997465
1 3 9 37233.39 32806.89 o 0.997465
2 5 8 37.64 41.80 < 0.986681
5 2 8 0.00 0.00 < 0.986681
2 3 9 129.83 118.66 o 0.981419
3 6 7 6663.67 6090.25 o 0.981419
3 2 9 3984.12 3641.28 o 0.981419
6 3 7 31608.89 28888.88 o 0.981419
4 4 8 23638.07 18411.40 o 0.971142
6 5 6 19330.92 17108.58 o 0.966123
4 1 9 9049.26 8143.36 o 0.961182
3 5 8 36.91 33.21 o 0.961182
7 0 7 32.59 29.32 o 0.961182
1 4 9 20439.72 18393.55 o 0.961182
5 3 8 36464.57 32814.20 o 0.961182
3 3 9 4310.37 3442.17 o 0.956315
7 1 7 13555.17 10824.87 o 0.956315
5 5 7 1108.15 884.94 o 0.956315
0 6 8 7630.40 7264.98 o 0.951521
6 0 8 9996.76 9518.02 o 0.951521
0 0 10 684.29 651.52 o 0.951521
4 6 7 4385.95 4220.55 o 0.946799
4 2 9 41.08 39.53 o 0.946799
1 6 8 467.06 449.45 o 0.946799
6 4 7 5070.54 4879.33 o 0.946799
6 1 8 739.95 712.04 o 0.946799
2 4 9 62.30 59.95 o 0.946799
1 1 10 3284.47 3746.26 < 0.942146
7 2 7 94.95 108.30 < 0.942146
0 2 10 1077.93 943.60 o 0.933043
2 0 10 8534.06 7470.53 o 0.933043
6 2 8 26549.47 23240.83 o 0.933043
2 6 8 29455.69 25784.87 o 0.933043
4 5 8 419.45 397.53 o 0.928590
1 2 10 16034.21 15196.03 o 0.928590
2 1 10 17362.22 16454.61 o 0.928590
5 4 8 394.77 374.13 o 0.928590
4 3 9 19455.06 18059.20 o 0.924199
0 5 9 3.53 3.28 o 0.924199
3 4 9 33588.60 31178.67 o 0.924199
5 0 9 45533.71 42266.74 o 0.924199
7 3 7 2151.35 1864.66 o 0.919870
1 5 9 29880.37 25898.56 o 0.919870
5 1 9 28277.68 24509.45 o 0.919870
2 2 10 54589.76 50421.97 o 0.915602
6 6 6 13343.33 12324.60 o 0.915602
3 6 8 2767.40 2228.45 o 0.911392
6 3 8 3307.08 2663.04 o 0.911392
3 1 10 6746.08 6290.31 o 0.907240
6 5 7 24768.06 23094.71 o 0.907240
5 6 7 871.95 813.04 o 0.907240
2 5 9 20349.07 18974.28 o 0.907240
5 2 9 369.66 344.69 o 0.907240
1 3 10 26871.62 25056.15 o 0.907240
2 3 10 4235.46 4753.29 o 0.895116
4 4 9 142.21 159.60 o 0.895116
3 2 10 4836.70 5428.03 o 0.895116
7 1 8 9748.62 8731.62 o 0.891181
7 4 7 7172.55 6424.29 o 0.891181
1 7 8 3338.94 2990.61 o 0.891181
5 5 8 74.55 66.77 o 0.891181
3 5 9 2055.24 1370.90 o 0.887298
5 3 9 1930.67 1287.81 o 0.887298
4 6 8 22515.08 19928.77 o 0.883465
4 0 10 28618.63 25331.22 o 0.883465
0 4 10 32726.12 28966.88 o 0.883465
6 4 8 16087.44 14239.48 o 0.883465
4 1 10 940.83 709.07 < 0.879682
7 2 8 4924.09 3711.10 < 0.879682
1 4 10 1409.41 1062.22 < 0.879682
2 7 8 5013.41 3778.42 < 0.879682
3 3 10 14596.87 13082.32 o 0.875946
1 6 9 17177.90 15395.55 o 0.875946
6 1 9 6642.61 5953.39 o 0.875946
4 2 10 1447.35 1167.03 o 0.868616
2 4 10 1738.09 1401.45 o 0.868616
6 6 7 250.55 247.19 o 0.865019
6 2 9 9308.16 9183.24 o 0.865019
2 6 9 10449.84 10309.60 o 0.865019
4 5 9 17824.04 17103.18 o 0.861467
0 1 11 4481.97 4300.71 o 0.861467
3 7 8 34801.47 33393.99 o 0.861467
7 3 8 806.55 773.93 o 0.861467
1 0 11 25067.78 24053.96 o 0.861467
5 4 9 1777.28 1705.40 o 0.861467
1 1 11 28947.95 25785.28 o 0.857958
7 5 7 14915.97 13286.35 o 0.857958
4 3 10 1900.15 1658.11 o 0.851066
3 4 10 2392.74 2087.95 o 0.851066
6 5 8 2.90 2.53 o 0.851066
5 6 8 6.44 5.62 o 0.851066
1 2 11 28.47 28.86 o 0.847682
2 1 11 6503.58 6591.97 o 0.847682
3 6 9 7571.47 7674.38 o 0.847682
1 5 10 10522.02 10665.03 o 0.847682
6 3 9 8190.69 8302.01 o 0.847682
5 1 10 3028.27 3069.43 o 0.847682
8 0 8 69477.16 68853.38 o 0.841034
4 7 8 1378.07 1406.35 o 0.837768
2 2 11 10404.27 10617.79 o 0.837768
8 1 8 851.85 869.33 o 0.837768
7 4 8 1364.93 1392.94 o 0.837768
2 5 10 13068.49 13336.68 o 0.837768
5 2 10 13150.73 13420.62 o 0.837768
0 7 9 28843.65 29118.03 o 0.834539
7 0 9 11117.81 11223.57 o 0.834539
0 3 11 1502.35 1516.64 o 0.834539
3 0 11 5859.63 5915.37 o 0.834539
1 7 9 1530.77 1691.40 o 0.831348
7 1 9 1541.31 1703.05 o 0.831348
3 1 11 2670.09 2950.27 o 0.831348
5 5 9 1738.49 1920.92 o 0.831348
1 3 11 3364.57 3717.63 o 0.831348
4 4 10 77360.48 75259.72 o 0.828193
8 2 8 18933.61 18419.46 o 0.828193
4 6 9 183.12 129.55 < 0.825073
6 4 9 93.87 66.41 < 0.825073
2 3 11 393.11 414.10 o 0.821989
3 5 10 2186.11 2302.80 o 0.821989
7 6 7 5234.82 5514.25 o 0.821989
3 2 11 6202.76 6533.85 o 0.821989
7 2 9 7839.11 8257.56 o 0.821989
2 7 9 10968.22 11553.70 o 0.821989
5 3 10 27124.68 28572.58 o 0.821989
0 6 10 38967.78 35107.92 < 0.815923
6 6 8 31350.23 28244.90 < 0.815923
6 0 10 44242.66 39860.30 < 0.815923
