#------------------------------------------------------------------------------
#$Date: 2021-05-07 04:25:12 +0300 (Fri, 07 May 2021) $
#$Revision: 265012 $
#$URL: file:///home/coder/svn-repositories/cod/cif/1/56/23/1562391.cif $
#------------------------------------------------------------------------------
#
# This file is available in the Crystallography Open Database (COD),
# http://www.crystallography.net/
#
# All data on this site have been placed in the public domain by the
# contributors.
#
data_1562391
loop_
_publ_author_name
'Niermeier, Philipp'
'Maibom, Kristina'
'Lamm, Jan-Hendrik'
'Neumann, Beate'
'Stammler, Georg'
'Mitzel, Norbert Werner'
_publ_section_title
;
 Hydrogen-Bond-Induced Selectivity of a Head-to-Head Photo- Dimerization
 of Dialkynylanthracene -- Access to Tetra Lewis Acids
;
_journal_name_full               'Chemical Science'
_journal_paper_doi               10.1039/D1SC02065J
_journal_year                    2021
_chemical_formula_moiety         'C16 H8 F6 O6 S2'
_chemical_formula_sum            'C16 H8 F6 O6 S2'
_chemical_formula_weight         474.34
_space_group_crystal_system      triclinic
_space_group_IT_number           2
_space_group_name_Hall           '-P 1'
_space_group_name_H-M_alt        'P -1'
_atom_sites_solution_hydrogens   geom
_atom_sites_solution_primary     direct
_audit_creation_date             2016-07-29
_audit_creation_method
;
  Olex2 1.2-ac2
  (compiled 2012.03.27 svn.r2268, GUI svn.r4156)
;
_audit_update_record
;
2019-09-09 deposited with the CCDC.	2021-05-06 downloaded from the CCDC.
;
_cell_angle_alpha                84.758(6)
_cell_angle_beta                 87.356(7)
_cell_angle_gamma                74.878(9)
_cell_formula_units_Z            2
_cell_length_a                   5.4457(5)
_cell_length_b                   9.7022(10)
_cell_length_c                   17.3622(8)
_cell_measurement_reflns_used    3814
_cell_measurement_temperature    100.00(10)
_cell_measurement_theta_max      71.9880
_cell_measurement_theta_min      4.7090
_cell_volume                     881.63(13)
_computing_cell_refinement       'CrysAlisPro 1.171.38.43 (Rigaku OD, 2015)'
_computing_data_collection       'CrysAlisPro 1.171.38.43 (Rigaku OD, 2015)'
_computing_data_reduction        'CrysAlisPro 1.171.38.43 (Rigaku OD, 2015)'
_computing_molecular_graphics
;
O. V. Dolomanov, L. J. Bourhis, R. J. Gildea, J. A. K. Howard and H. Puschmann,
OLEX2: a complete structure solution, refinement and analysis program.
J. Appl. Cryst. (2009). 42, 339-341.
;
_computing_publication_material
;
O. V. Dolomanov, L. J. Bourhis, R. J. Gildea, J. A. K. Howard and H. Puschmann,
OLEX2: a complete structure solution, refinement and analysis program.
J. Appl. Cryst. (2009). 42, 339-341.
;
_computing_structure_refinement
;
SHELXL, G.M. Sheldrick, Acta Cryst.
(2008). A64, 112-122
;
_computing_structure_solution
;
SHELXS, G.M. Sheldrick, Acta Cryst.
(2008). A64, 112-122
;
_diffrn_ambient_environment      N~2~
_diffrn_ambient_temperature      100.00(10)
_diffrn_detector                 'CCD plate'
_diffrn_detector_area_resol_mean 5.3114
_diffrn_detector_type            Atlas
_diffrn_measured_fraction_theta_full 0.9821
_diffrn_measured_fraction_theta_max 0.9769
_diffrn_measurement_details
;
List of Runs (angles in degrees, time in seconds):

  # Type    Start    End  Width  t~exp~   \w     \q     \k     \f   Frames
#--------------------------------------------------------------------------
  1  \w    -42.00  25.00   1.00   10.64    --  -38.50  37.00 -90.00   67
  2  \w    -27.00  33.00   1.00   10.64    --  -38.50  77.00 -30.00   60
  3  \w    -67.00 -29.00   1.00   10.64    --  -38.50  77.00 -30.00   38
  4  \w     18.00  50.00   1.00   10.64    --   41.95  57.00 -90.00   32
  5  \w     59.00  98.00   1.00   10.64    --   41.95  22.00  31.00   39
  6  \w     79.00 123.00   1.00   10.64    --   41.95-178.00  90.00   44
  7  \w     66.00  99.00   1.00   10.64    --   41.95  77.00   0.00   33
  8  \w     58.00 125.00   1.00   10.64    --   41.95 178.00 -90.00   67
  9  \w     68.00 105.00   1.00   10.64    --   41.95  57.00 -90.00   37
 10  \w     23.00  64.00   1.00   10.64    --   41.95  37.00 120.00   41
 11  \w      6.00  32.00   1.00   10.64    --   41.95  90.00  54.27   26
 12  \w     18.00 111.00   1.00   10.64    --   41.95  77.00-180.00   93
 13  \w     12.00  87.00   1.00   10.64    --   41.95  77.00 120.00   75
 14  \w    -23.00  61.00   1.00   10.64    --   41.95 -37.00  30.00   84
 15  \w     12.00  64.00   1.00   10.64    --   41.95  77.00 -60.00   52
 16  \w     16.00  59.00   1.00   10.64    --   41.95  77.00   0.00   43
 17  \w     13.00  57.00   1.00   10.64    --   41.95  22.00  31.00   44
 18  \w     85.00 111.00   1.00   33.00    --  111.00  61.00  30.00   26
 19  \w     42.00  85.00   1.00   33.00    --  111.00-125.00-150.00   43
 20  \w     85.00 114.00   1.00   33.00    --  111.00  59.00 -88.76   29
 21  \w     81.00 156.00   1.00   33.00    --  111.00  77.00  60.00   75
 22  \w    111.00 176.00   1.00   33.00    --  111.00  77.00  90.00   65
 23  \w     81.00 108.00   1.00   33.00    --  111.00  77.00 120.00   27
 24  \w     81.00 107.00   1.00   33.00    --  111.00  77.00  90.00   26
 25  \w     89.00 150.00   1.00   33.00    --  111.00  45.00   0.00   61
 26  \w     81.00 107.00   1.00   33.00    --  111.00  77.00 -60.00   26
 27  \w     81.00 178.00   1.00   33.00    --  111.00  77.00 -90.00   97
 28  \w     36.00  76.00   1.00   33.00    --  111.00 -94.00 -60.00   40
 29  \w     81.00 109.00   1.00   33.00    --  111.00 -94.00 -60.00   28
 30  \w     82.00 109.00   1.00   33.00    --  111.00  77.00 -30.00   27
 31  \w     82.00 109.00   1.00   33.00    --  111.00  73.00-112.18   27
 32  \w    153.00 178.00   1.00   33.00    --  111.00  52.00 177.87   25
 33  \w     81.00 162.00   1.00   33.00    --  111.00  77.00-150.00   81
 34  \w    116.00 164.00   1.00   33.00    --  111.00  61.00 -30.00   48
 35  \w     85.00 114.00   1.00   33.00    --  111.00  61.00   0.00   29
 36  \w    147.00 178.00   1.00   33.00    --  111.00  61.00 120.00   31
 37  \w     87.00 114.00   1.00   33.00    --  111.00  61.00 120.00   27
 38  \w     85.00 111.00   1.00   33.00    --  111.00  61.00  90.00   26
 39  \w     83.00 130.00   1.00   33.00    --  111.00  67.00  56.17   47
 40  \w     77.00 107.00   1.00   33.00    --  111.00 -94.00   0.00   30
 41  \w     41.00  66.00   1.00   33.00    --  111.00 -94.00   0.00   25
 42  \w     85.00 112.00   1.00   33.00    --  111.00  61.00 -30.00   27
 43  \w     83.00 112.00   1.00   33.00    --  111.00  77.00  30.00   29
 44  \w     33.00 106.00   1.00   33.00    --  111.00 -94.00-150.00   73
 45  \w     86.00 111.00   1.00   33.00    --  111.00  61.00-180.00   25
 46  \w     85.00 177.00   1.00   33.00    --  111.00  61.00 150.00   92
 47  \w     81.00 174.00   1.00   33.00    --  111.00  77.00   0.00   93
 48  \w     33.00  58.00   1.00   33.00    --  111.00 -94.00  60.00   25
 49  \w     82.00 109.00   1.00   33.00    --  111.00 -94.00  60.00   27
 50  \w     90.00 121.00   1.00   33.00    --  111.00  45.00 -90.00   31
 51  \w     31.00 109.00   1.00   33.00    --  111.00 -94.00 -90.00   78
 52  \w     89.00 115.00   1.00   33.00    --  111.00  45.00 120.00   26
 53  \w     85.00 123.00   1.00   33.00    --  111.00  61.00-150.00   38
 54  \w     46.00 108.00   1.00   33.00    --  111.00 -94.00 120.00   62
 55  \w     89.00 116.00   1.00   33.00    --  111.00  45.00-150.00   27
 56  \w     86.00 156.00   1.00   33.00    --  111.00  61.00 -60.00   70
 57  \w     85.00 173.00   1.00   33.00    --  111.00  61.00-120.00   88
 58  \w    131.00 154.00   1.00   33.00    --  111.00  61.00  30.00   23
;
_diffrn_measurement_device       'four-circle diffractometer'
_diffrn_measurement_device_type  'SuperNova, Dual, Cu at zero, Atlas'
_diffrn_measurement_method       '\w scans'
_diffrn_orient_matrix_type
'CrysAlisPro convention (1999,Acta A55,543-557)'
_diffrn_orient_matrix_UB_11      0.0864421000
_diffrn_orient_matrix_UB_12      -0.1640386000
_diffrn_orient_matrix_UB_13      0.0162232000
_diffrn_orient_matrix_UB_21      -0.2666604000
_diffrn_orient_matrix_UB_22      -0.0110048000
_diffrn_orient_matrix_UB_23      -0.0198931000
_diffrn_orient_matrix_UB_31      0.0856810000
_diffrn_orient_matrix_UB_32      -0.0144380000
_diffrn_orient_matrix_UB_33      -0.0853508000
_diffrn_radiation_monochromator  mirror
_diffrn_radiation_probe          x-ray
_diffrn_radiation_type           'Cu K\a'
_diffrn_radiation_wavelength     1.54184
_diffrn_reflns_av_R_equivalents  0.0650
_diffrn_reflns_av_unetI/netI     0.0584
_diffrn_reflns_Laue_measured_fraction_full 0.988
_diffrn_reflns_Laue_measured_fraction_max 0.984
_diffrn_reflns_limit_h_max       6
_diffrn_reflns_limit_h_min       -6
_diffrn_reflns_limit_k_max       11
_diffrn_reflns_limit_k_min       -11
_diffrn_reflns_limit_l_max       19
_diffrn_reflns_limit_l_min       -21
_diffrn_reflns_number            11552
_diffrn_reflns_point_group_measured_fraction_full 0.988
_diffrn_reflns_point_group_measured_fraction_max 0.984
_diffrn_reflns_theta_full        67.684
_diffrn_reflns_theta_max         72.331
_diffrn_reflns_theta_min         2.556
_diffrn_source                   'micro-focus sealed X-ray tube'
_diffrn_source_type              'SuperNova (Cu) X-ray Source'
_exptl_absorpt_coefficient_mu    3.674
_exptl_absorpt_correction_T_max  0.958
_exptl_absorpt_correction_T_min  0.757
_exptl_absorpt_correction_type   gaussian
_exptl_absorpt_process_details
;
CrysAlisPro 1.171.38.43 (Rigaku Oxford Diffraction, 2015)
Numerical absorption correction based on gaussian integration over
			a multifaceted crystal model
Empirical absorption correction using spherical harmonics,
 implemented in SCALE3 ABSPACK scaling algorithm.
;
_exptl_crystal_colour            'clear colourless'
_exptl_crystal_colour_lustre     clear
_exptl_crystal_colour_primary    colourless
_exptl_crystal_density_diffrn    1.787
_exptl_crystal_description       plate
_exptl_crystal_F_000             476
_exptl_crystal_size_max          0.298
_exptl_crystal_size_mid          0.059
_exptl_crystal_size_min          0.023
_refine_diff_density_max         0.478
_refine_diff_density_min         -0.729
_refine_diff_density_rms         0.091
_refine_ls_extinction_method     none
_refine_ls_goodness_of_fit_ref   1.016
_refine_ls_hydrogen_treatment    constr
_refine_ls_matrix_type           full
_refine_ls_number_parameters     311
_refine_ls_number_reflns         3434
_refine_ls_number_restraints     0
_refine_ls_restrained_S_all      1.016
_refine_ls_R_factor_all          0.0769
_refine_ls_R_factor_gt           0.0614
_refine_ls_shift/su_max          0.000
_refine_ls_shift/su_mean         0.000
_refine_ls_structure_factor_coef Fsqd
_refine_ls_weighting_details
'w=1/[\s^2^(Fo^2^)+(0.1110P)^2^+0.2466P] where P=(Fo^2^+2Fc^2^)/3'
_refine_ls_weighting_scheme      calc
_refine_ls_wR_factor_gt          0.1619
_refine_ls_wR_factor_ref         0.1782
_reflns_Friedel_coverage         0.000
_reflns_number_gt                2672
_reflns_number_total             3434
_reflns_threshold_expression     'I > 2\s(I)'
_cod_data_source_file            d1sc02065j2.cif
_cod_data_source_block           4
_cod_original_cell_volume        881.63(14)
_cod_database_code               1562391
_chemical_oxdiff_formula         'C16 H8 F6 O6 S2'
_reflns_odcompleteness_completeness 98.36
_reflns_odcompleteness_iscentric 1
_reflns_odcompleteness_theta     71.98
_olex2_date_sample_data_collection 2016-07-27
_olex2_submission_special_instructions 'No special instructions were received'
_oxdiff_exptl_absorpt_empirical_details
;
Empirical correction (ABSPACK) includes:
- Absorption correction using spherical harmonics
- Frame scaling
- Detector area scaling
;
_oxdiff_exptl_absorpt_empirical_full_max 1.526
_oxdiff_exptl_absorpt_empirical_full_min 0.570
_shelx_hkl_checksum              16159
_shelx_hkl_file
;
   0   0  -1 3774.63 296.816   3
   0   0  -2 9930.79 643.785  14
   0   0   2 10841.0 538.291  10
   0   0  -2 11075.4 669.254   3
   0   0  -3 22924.1 1169.99  14
   0   0  -3 23379.8 1238.70   3
   0   0   3 24307.7 1032.33  10
   0   0   4 444568. 5456.50  10
   0   0  -4 447723. 6290.24  14
   0   0  -4 439433. 7016.84   6
   0   0  -4 455188. 6532.71   3
   0   0  -5 26871.9 1708.59   3
   0   0   5 26197.3 1443.26  10
   0   0  -5 25758.4 1638.69  14
   0   0  -5 27164.3 1872.30   6
   0   0  -6 4033.47 743.897  14
   0   0  -6 4138.11 1010.20   8
   0   0   6 3845.27 567.230  10
   0   0  -6 4494.36 862.329   6
   0   0   7 27356.7 1920.07  10
   0   0  -7 33186.5 2178.59  14
   0   0  -7 32705.3 2573.53   6
   0   0  -7 32011.7 2900.10   8
   0   0  -8 7878.55 1238.41  14
   0   0  -8 6144.33 1376.06   8
   0   0   9 24663.9 2749.89  13
   0   0  -9 21567.4 2786.08   8
   0   0  -9 24201.3 2161.26  14
   0   0 -10 8200.72 1851.14   8
   0   0  10 9996.89 1938.95  13
   0   0  10 8775.21 1304.56  11
   0   0 -11 851.264 733.652   8
   0   0  11 452.320 524.651  13
   0   0  11 909.798 514.258  11
   0   0  12 14648.1 1874.13  11
   0   0 -12 13820.2 2803.76   8
   0   0  12 13795.3 2534.45  13
   0   0 -13 46666.0 2830.55  19
   0   0  13 43279.6 4724.22  13
   0   0 -13 49332.8 2870.96  40
   0   0 -13 49493.1 3224.64  54
   0   0 -13 45080.8 5077.83   8
   0   0 -14-332.768 794.919   8
   0   0 -14 216.279 402.435  19
   0   0  14 581.000 657.062  13
   0   0 -14-397.167 600.604  40
   0   0 -14 385.683 623.220  54
   0   0 -15 2330.71 735.073  19
   0   0 -15 2238.05 866.220  54
   0   0 -15 2538.31 822.997  40
   0   0  15 2785.93 1539.37  12
   0   0 -16 409.453 493.483  40
   0   0 -16 633.586 625.567  54
   0   0 -16-1.03463 433.808  19
   0   0 -17 12941.0 1524.32  40
   0   0 -17 9874.98 1499.52  54
   0   0 -17 10852.8 1738.95  49
   0   0 -18 617.675 525.964  49
   0   0 -18 1004.84 468.439  54
   0   0 -19 7462.96 1239.55  49
   0   0 -19 6000.60 1042.05  54
   0   0 -20 1011.49 547.436  49
   0   0 -20 286.847 264.643  54
   0   0 -21 922.235 324.327  54
   0   1 -21 5711.06 644.547  54
   0   1 -20 326.536 266.465  54
   0   1 -19 992.774 524.311  49
   0   1 -19 1680.75 545.229  54
   0   1 -18 12153.9 1626.98  49
   0   1 -18 11505.1 1444.08  54
   0   1 -17 18561.2 1959.67  54
   0   1 -17 16171.8 1785.04  19
   0   1 -17 17901.0 2058.39  49
   0   1 -16 9348.66 1418.37  19
   0   1 -16 11153.8 1462.93  54
   0   1 -16 10116.3 1790.71  49
   0   1 -15 24490.0 2205.01  40
   0   1 -15 23852.1 2165.22  19
   0   1 -15 26743.1 2515.22  54
   0   1 -15 27858.8 2736.89  49
   0   1 -14 81604.2 3336.11  27
   0   1 -14 91077.6 4302.07  54
   0  -1  14 90831.0 6787.07  12
   0   1 -14 85375.6 3938.86  19
   0   1 -14 92719.1 7614.46   8
   0   1 -14 78972.3 3785.29  40
   0   1 -14 81829.8 4636.95  49
   0  -1  13 32128.6 3852.43  13
   0  -1  13 32993.4 4030.74  12
   0   1 -13 38822.7 2696.88  54
   0   1 -13 33609.8 4366.14   8
   0   1 -13 35115.9 2415.39  19
   0   1 -13 37206.0 2137.89  27
   0   1 -13 33310.5 2376.62  40
   0   1 -12 4837.30 1731.97   8
   0  -1  12 5206.28 1647.27  13
   0  -1  11 32073.3 3402.19  13
   0   1 -11 29006.9 3722.73   8
   0  -1  10 28330.4 3065.66  13
   0   1 -10 27908.3 3396.07   8
   0   1  -9 793.459 631.131   8
   0  -1   9-278.356 583.055  13
   0  -1   9 459.169 410.793  11
   0  -1   8 16333.4 1974.19  13
   0   1  -8 14032.5 2037.98   8
   0   1  -7 20209.7 2336.97   8
   0  -1   7 21354.2 2175.77  13
   0   1  -6 1890.94 601.074   8
   0  -1   6 2253.66 619.646  13
   0   1  -5 39775.1 2680.22   8
   0  -1   5 39287.6 2356.99  13
   0  -1   4 35612.8 2038.63  13
   0   1  -2 109696. 2786.99   1
   0  -1   2 100759. 2485.06  13
   0  -1   1 102203. 2203.96  13
   0   1  -1 101960. 1927.50   7
   0   1   0 46485.6 1416.12   1
   0   1   1 13393.5 605.065   1
   0  -1  -2 56342.0 1759.72   2
   0   1   2 58548.4 1509.38  15
   0  -1  -3 572368. 6112.16  14
   0  -1  -3 564154. 6362.90   2
   0  -1  -4 93044.5 2820.34   2
   0  -1  -4 90798.9 2791.99  14
   0  -1  -4 95701.8 3406.11   6
   0   1   4 91976.3 1571.70   5
   0  -1  -5 10459.6 1099.54   3
   0  -1  -5 11281.2 1217.47   6
   0  -1  -5 10498.0 1040.17  14
   0  -1  -5 11712.4 1446.86   8
   0  -1  -6 6309.21 937.720  14
   0  -1  -6 7127.74 1310.56   8
   0  -1  -6 6231.92 1053.58   3
   0  -1  -6 7406.70 1278.59   6
   0  -1  -7 12468.6 1571.74   3
   0  -1  -7 14148.2 1444.01  14
   0  -1  -7 13213.4 2009.50   8
   0  -1  -7 14949.4 1789.60   6
   0  -1  -8 11788.1 1745.52   6
   0  -1  -8 8389.03 1490.89   3
   0  -1  -8 9947.06 1787.30   8
   0  -1  -8 11620.9 1442.75  14
   0  -1  -9 3342.88 997.834   6
   0   1   9 2467.80 795.876  10
   0  -1  -9 3102.01 685.623  14
   0  -1  -9 3093.18 903.456   3
   0  -1  -9 2412.67 1048.22   8
   0  -1 -10 48749.7 3815.02   6
   0   1  10 45952.8 3131.08  11
   0  -1 -10 41804.9 4230.46   8
   0  -1 -11 5743.77 1827.31   8
   0   1  11 5705.57 1221.24  11
   0   1  12 32959.2 2895.00  11
   0   1  12 32528.9 4113.07  13
   0  -1 -12 26392.4 4014.82   8
   0   1  13 10067.4 1706.32  11
   0  -1 -13 7844.26 1371.96  19
   0   1  13 8296.15 2022.82  13
   0  -1 -13 9149.24 1265.19  40
   0  -1 -13 9699.24 918.651  29
   0  -1 -13 7766.43 1421.97  54
   0  -1 -14 705.533 756.874  54
   0  -1 -14 854.948 785.347  40
   0  -1 -14 1313.93 686.372  29
   0  -1 -14 548.530 606.736  19
   0   1  14 718.415 1121.71  13
   0  -1 -15 2454.14 519.640  29
   0   1  15 1669.25 995.527  13
   0  -1 -15 2096.81 632.043  40
   0  -1 -15 1703.40 774.909  54
   0  -1 -16 2690.41 511.221  29
   0  -1 -16 2032.26 720.443  54
   0  -1 -16 3444.78 954.647  40
   0  -1 -17 13016.4 1504.10  40
   0  -1 -18 20416.5 2373.85  49
   0  -1 -18 20933.5 2100.50  54
   0  -1 -19 5713.40 1067.05  49
   0  -1 -19 6036.85 984.726  54
   0  -1 -20 904.686 439.855  54
   0  -1 -20 1796.77 550.893  49
   0  -1 -21 16219.5 1048.25  54
   0  -1 -21 17611.4 1428.34  49
   0   2 -20 11423.1 1040.65  54
   0   2 -19-280.125 426.024  54
   0   2 -18 11606.8 1375.42  54
   0   2 -18 11883.8 1271.22  19
   0   2 -18 12986.5 1696.01  49
   0   2 -17 24806.5 2345.46  49
   0   2 -17 19409.4 1889.34  54
   0   2 -17 21752.7 1868.10  19
   0   2 -16 3374.10 804.101  54
   0   2 -16 3515.60 1045.77  49
   0   2 -16 4108.29 820.817  19
   0   2 -15 18829.3 1902.09  54
   0   2 -15 18913.3 2254.16  49
   0   2 -15 18510.7 1825.71  19
   0   2 -14 42669.7 2422.37  27
   0   2 -14 42310.7 3245.95  49
   0   2 -14 41134.5 2765.01  19
   0   2 -14 43476.4 2942.78  54
   0  -2  14 42988.9 4562.04  12
   0   2 -14 41390.5 5051.58   8
   0   2 -13 9330.52 1305.93  19
   0   2 -13 9541.07 2448.24   8
   0   2 -13 11252.4 1302.62  27
   0   2 -13 9406.96 1385.23  54
   0  -2  13 10472.3 2294.21  12
   0   2 -13 8965.02 1482.80  49
   0   2 -12 5008.76 829.238  27
   0   2 -12 2651.44 578.100  19
   0   2 -12 5955.33 1154.46  54
   0  -2  12 2272.35 782.489  12
   0  -2  12 2730.36 1009.33  13
   0   2 -12 3775.22 910.616  49
   0   2 -12 2378.68 1169.41   8
   0  -2  11 233298. 9861.58  12
   0  -2  11 240131. 9497.81  13
   0   2 -11 234043. 10874.8   8
   0  -2  10 28411.4 3322.90  12
   0  -2  10 30916.7 3292.46  13
   0   2 -10 29322.3 3590.35   8
   0   2  -9 739.828 320.423   8
   0  -2   9 408.659 666.926  12
   0  -2   9 669.862 532.429  13
   0  -2   8 4255.93 930.919  12
   0  -2   8 3691.53 971.787  13
   0   2  -8 3463.94 1055.41   8
   0  -2   7 69211.6 4112.72  12
   0  -2   7 76944.0 4112.34  13
   0   2  -7 71051.9 4649.18   8
   0   2  -6 26269.6 2700.17   8
   0  -2   6 26971.3 2337.60  12
   0  -2   6 26918.9 2244.81  13
   0   2  -5 18664.6 2069.77   8
   0  -2   5 21232.7 1890.63  12
   0   2  -5 17223.1 1001.50   5
   0  -2   5 20395.3 1790.13  13
   0  -2   4 125721. 4376.92  12
   0  -2   4 120680. 4044.01  13
   0  -2   3 59540.3 2757.04  13
   0  -2   3 63250.8 2867.93  12
   0   2  -2 8157.85 961.668   1
   0   2  -2 9675.60 587.368   7
   0  -2   2 8766.24 993.805  13
   0   2  -1 34800.3 2423.10   1
   0  -2   0 461824. 6303.21  12
   0   2   0 429617. 6120.27   1
   0  -2  -1 43663.5 2074.39  12
   0   2   1 38447.5 1998.42   1
   0  -2  -2 40291.3 2364.34   2
   0   2   2 44428.7 1689.60   1
   0   2   3 3409.76 775.868  16
   0  -2  -3 2247.42 659.243   2
   0   2   3 2513.99 425.284  15
   0   2   4 30784.6 1797.38  16
   0   2   4 29576.6 1483.91  15
   0   2   4 25091.9 1324.24   5
   0  -2  -4 25315.8 1694.72   2
   0  -2  -5 3378.50 649.521   2
   0   2   5 4160.56 592.350  15
   0   2   5 4000.08 701.096  16
   0   2   5 3486.44 481.091   5
   0  -2  -5 2791.38 667.692  14
   0   2   6 116.687 197.438   5
   0  -2  -6 414.968 618.947   6
   0   2   6-322.782 400.382  16
   0  -2  -6 203.314 463.000   2
   0  -2  -6 46.9697 399.323  14
   0   2   6-78.6839 506.771  15
   0   2   7 28831.5 2131.05  16
   0  -2  -7 26902.6 2595.45   6
   0  -2  -7 24170.6 2099.92  14
   0   2   8 1226.95 536.093  16
   0  -2  -8 1603.25 686.003  14
   0  -2  -8 1561.92 760.899   6
   0  -2  -8 1188.41 588.428   3
   0  -2  -9 1013.00 660.732  14
   0  -2  -9 1368.71 824.802   6
   0   2   9 1162.53 527.146  16
   0  -2  -9 1337.60 488.128   3
   0  -2 -10 21856.0 2598.35   6
   0   2  10 19588.8 2043.81  16
   0   2  11 32951.4 2708.10  16
   0   2  11 33465.5 3060.89  11
   0  -2 -11 40758.1 3814.36   6
   0   2  12 2417.38 823.300  11
   0  -2 -12 2335.75 555.318   6
   0  -2 -13 1155.59 778.403  54
   0  -2 -13 1790.70 650.817  29
   0  -2 -13 1777.00 582.215  51
   0   2  13 1652.12 685.226  11
   0  -2 -14 3674.50 915.236  51
   0  -2 -14 3409.39 1189.24  54
   0   2  14 2796.94 1282.42  13
   0  -2 -14 4313.43 937.627  29
   0   2  14 5021.82 1606.39  11
   0  -2 -15 43.1079 441.888  40
   0  -2 -15 97.9332 390.176  54
   0  -2 -15 109.144 437.081  29
   0  -2 -15 297.858 491.134  51
   0  -2 -16 12154.8 1109.92  29
   0  -2 -16 17071.7 1870.74  40
   0  -2 -17 1224.74 442.026  54
   0  -2 -17 1958.82 721.156  40
   0  -2 -18 832.533 693.535  40
   0  -2 -18 518.866 522.091  54
   0  -2 -19 12451.1 1354.08  40
   0  -2 -19 9698.53 1448.67  49
   0  -2 -19 11612.5 1228.14  54
   0  -2 -20 628.012 433.000  49
   0  -2 -21 6977.43 846.055  49
   0   3 -20 5446.33 642.340  54
   0   3 -19 1042.01 474.485  54
   0   3 -18 4471.37 841.582  54
   0   3 -18 4565.19 759.656  19
   0   3 -17 24393.7 1937.70  19
   0   3 -17 26830.7 2107.31  54
   0   3 -16 1355.67 2029.05  49
   0   3 -16 3064.03 665.160  54
   0   3 -16 3110.26 709.089  19
   0   3 -15 24107.4 2161.15  54
   0   3 -15 20993.1 2495.35  49
   0   3 -15 20164.0 1968.24  19
   0   3 -14 53862.7 3159.00  19
   0   3 -14 44902.1 3611.53  49
   0   3 -14 50066.0 2741.07  27
   0   3 -14 54941.6 3321.72  54
   0   3 -13 2646.74 945.937  54
   0   3 -13 1908.25 560.473  44
   0   3 -13 2231.89 696.629  19
   0   3 -13 2709.60 1243.87   8
   0   3 -13 2305.20 926.408  49
   0  -3  13 2890.28 1470.70  12
   0   3 -13 2340.68 733.703  27
   0  -3  12 3887.03 1722.28  12
   0   3 -12 3965.77 1014.01  54
   0   3 -12 3473.92 902.179  19
   0   3 -12 2278.71 985.561   8
   0   3 -12 3831.65 839.418  27
   0   3 -12 2088.53 658.854  44
   0   3 -12 1154.70 554.244  49
   0   3 -11 1055.56 554.573  19
   0   3 -11 297.613 937.584   8
   0  -3  11-180.387 621.820  12
   0   3 -11 350.500 416.506  49
   0  -3  10 8269.86 1948.41  12
   0  -3  10 8904.34 1864.79  13
   0   3 -10 7106.17 1866.91   8
   0  -3   9 5203.56 1357.14  12
   0   3  -9 5173.77 1501.69   8
   0  -3   9 5811.78 1399.85  13
   0  -3   8 71169.7 4501.27  13
   0   3  -8 64428.5 5102.89   8
   0  -3   8 65574.3 4721.70  12
   0  -3   7 75816.9 4478.41  13
   0   3  -7 69944.7 5085.57   8
   0  -3   7 74712.3 4751.86  12
   0   3  -6 1090.75 284.380   5
   0   3  -6 1595.66 836.472   8
   0  -3   6 1645.07 632.575  13
   0  -3   6 1561.57 624.204  12
   0   3  -5 2343.79 516.456   5
   0  -3   5 2853.87 907.037  13
   0  -3   5 3157.70 957.832  12
   0  -3   4 40462.0 2909.98  13
   0  -3   4 46292.9 3147.51  12
   0   3  -4 38085.1 1958.28   5
   0  -3   3 17016.5 1879.42  13
   0   3  -3 17716.3 1336.78   5
   0   3  -3 17919.5 1417.92   7
   0  -3   3 19458.7 2026.59  12
   0  -3   2 114563. 4418.98  12
   0   3  -2 103590. 3576.35   7
   0   3  -2 111426. 3322.03   5
   0  -3   1-171.451 573.694  12
   0   3   0 5771.39 592.020   1
   0  -3   0 7512.34 1102.85  12
   0   3   1 35419.8 2107.67  16
   0  -3  -1 28252.1 2083.51  12
   0   3   2 154736. 4601.22  16
   0  -3  -2 145530. 4940.48  12
   0  -3  -3 14970.1 1566.04   2
   0   3   3 15162.8 1215.41   5
   0   3   3 15169.6 1450.48  16
   0  -3  -3 15875.4 1602.37  12
   0   3   4 10967.5 1040.99   5
   0   3   4 11103.5 1404.12  16
   0  -3  -4 9319.59 1258.93   2
   0   3   5 3699.93 834.078  16
   0   3   5 2651.15 533.449   5
   0  -3  -5 3182.19 606.067   2
   0  -3  -6 26269.7 2229.61  14
   0  -3  -6 27006.4 2207.27   2
   0   3   6 27119.2 1611.11   5
   0   3   6 29935.7 2335.72  16
   0  -3  -7 9391.14 1364.40   2
   0   3   7 9476.98 1394.46  16
   0  -3  -7 9391.63 1281.37  14
   0   3   7 8274.01 903.958   5
   0  -3  -8 2188.97 597.438  14
   0   3   8 2569.83 618.741  16
   0  -3  -8 2501.88 832.400   6
   0   3   9 287.478 680.204  16
   0  -3  -9 1364.11 791.526   3
   0  -3  -9 85.9825 714.181   6
   0   3  10 151450. 6225.38  16
   0  -3 -10 171855. 7921.64   6
   0   3  10 162204. 6862.04  11
   0  -3 -11 4545.30 1521.66   6
   0   3  11 5505.28 1217.14  16
   0  -3 -12 25964.7 2205.79  48
   0  -3 -12 27443.8 3470.20   6
   0   3  12 24346.6 2847.98  11
   0   3  13 18537.5 2578.34  11
   0  -3 -13 18906.3 1587.98  29
   0  -3 -13 19991.4 1969.74  48
   0  -3 -13 20366.0 2987.48   6
   0  -3 -14 556.174 558.235  51
   0   3  14-695.679 1005.37  11
   0  -3 -14 923.681 663.120  29
   0  -3 -15 2040.05 663.049  51
   0  -3 -15 3514.74 564.654  29
   0  -3 -16 9907.32 1459.63  40
   0  -3 -16 7998.21 997.651  29
   0  -3 -17 3288.85 621.175  29
   0  -3 -17 4263.14 917.506  40
   0  -3 -18 2312.21 769.424  40
   0  -3 -19 188.681 453.075  49
   0  -3 -19 407.474 469.567  40
   0  -3 -20 603.308 328.182  49
   0  -3 -20 1086.20 374.326  40
   0  -3 -21 945.161 373.791  49
   0   4 -19 1859.69 444.031  54
   0   4 -18 7728.31 883.511  19
   0   4 -18 8810.96 994.889  54
   0   4 -17 5141.53 843.249  19
   0   4 -17 4735.51 827.786  54
   0   4 -16-11.1804 329.887  54
   0   4 -16 340.256 345.015  19
   0   4 -15 15447.5 1671.74  54
   0   4 -15 12259.4 1225.76  44
   0   4 -15 15994.7 1660.25  19
   0   4 -14 14502.8 1680.66  19
   0   4 -14 15261.6 1829.57  54
   0   4 -14 11362.0 1134.14  44
   0   4 -14 15972.4 1517.54  27
   0   4 -13 426.567 610.050  54
   0   4 -13 463.492 323.659  44
   0   4 -13 447.403 542.071  27
   0   4 -13 142.414 359.151  19
   0   4 -12 377.737 434.730   8
   0   4 -12 187.841 323.522  27
   0   4 -12 240.735 610.033  54
   0   4 -12-148.477 447.482  19
   0  -4  12-507.028 981.924  12
   0  -4  11 20359.4 3144.48  12
   0   4 -11 13161.0 2317.80  49
   0   4 -11 17235.5 1952.65  19
   0   4 -11 16481.4 3203.53   8
   0   4 -11 18839.1 1931.34  54
   0  -4  10 9660.88 2618.60  12
   0   4 -10 8238.83 2329.26   8
   0   4 -10 6343.38 1800.07  49
   0   4  -9 4952.83 1860.65   8
   0  -4   9 7420.54 1638.81  13
   0  -4   9 8279.64 1707.17  12
   0  -4   8 55149.2 4833.70  12
   0   4  -8 47952.1 4989.52   8
   0  -4   8 52140.9 4443.96  13
   0  -4   7 126678. 7079.97  12
   0  -4   7 129653. 6670.27  13
   0   4  -7 111847. 7226.81   8
   0  -4   6 16400.4 2276.45  13
   0  -4   6 18296.3 2557.30  12
   0   4  -6 13893.5 1313.80   5
   0  -4   5 27732.5 3350.73  12
   0   4  -5 25134.5 1837.70   5
   0  -4   5 26833.5 3127.33  13
   0   4  -4 6867.20 998.111   5
   0  -4   4 6658.94 1343.96  12
   0  -4   3 16455.8 1936.73  12
   0   4  -3 19567.5 1680.23   5
   0   4  -3 18370.0 1793.36   7
   0  -4   2 9823.76 1817.32  12
   0   4  -2 10482.1 1455.23   7
   0   4  -2 9791.50 1121.27   5
   0   4  -1 288456. 6345.51   5
   0   4  -1 299674. 7202.89   7
   0  -4   0 10020.6 1626.38  12
   0   4   0 9856.36 1213.01   5
   0  -4  -1 7260.60 1444.31  12
   0  -4  -2 3075.47 960.779  12
   0   4   2 2602.53 649.962   5
   0  -4  -3 62923.2 3764.27   2
   0   4   3 74174.6 3235.32   5
   0  -4  -3 60963.7 4052.91  12
   0   4   3 70075.4 3731.61  16
   0   4   4 18704.3 1986.42  16
   0   4   4 21757.6 1791.57   5
   0  -4  -4 18260.0 2047.53   2
   0   4   5 20423.7 1760.45   5
   0  -4  -5 17592.5 1958.36   2
   0   4   5 16960.4 1948.02  16
   0  -4  -6 738.865 476.826   2
   0   4   6 1006.52 446.649   5
   0   4   6 559.540 429.874  16
   0  -4  -7 35578.1 2985.21  14
   0   4   7 34298.4 2159.29   5
   0   4   7 35504.7 3047.73  16
   0  -4  -7 42461.6 3341.50   2
   0   4   8 30083.0 2883.50  16
   0  -4  -8 33004.4 2836.48  14
   0  -4  -8 34714.1 3172.48   2
   0   4   9 1492.09 762.593  11
   0  -4  -9 1246.36 684.839   6
   0   4   9 785.429 394.305  16
   0   4  10 16992.0 2260.16  11
   0   4  10 11246.8 1889.08  16
   0  -4 -10 14718.9 2437.09   6
   0   4  11 28531.7 3077.09  16
   0  -4 -11 35472.8 3976.90   6
   0  -4 -11 29271.0 2102.30  41
   0   4  11 35513.3 3458.86  11
   0  -4 -12 23259.4 2264.91  48
   0   4  12 26588.8 3103.95  11
   0  -4 -12 24178.1 3315.11   6
   0  -4 -12 22200.3 2167.73  41
   0  -4 -12 24113.8 1744.42  29
   0   4  13 8528.23 1840.36  11
   0  -4 -13 2961.23 790.252  51
   0  -4 -13 9289.87 2165.24   6
   0  -4 -13 7012.43 1123.95  29
   0  -4 -13 6063.30 1308.37  48
   0  -4 -14 778.176 534.987  29
   0  -4 -14 104.809 406.216  51
   0  -4 -14 978.179 672.234  48
   0  -4 -15 1188.01 456.423  29
   0  -4 -16 2231.50 492.115  29
   0  -4 -16 2980.93 845.506  40
   0  -4 -17-10.7434 447.882  40
   0  -4 -18 4331.02 887.802  40
   0  -4 -19 771.257 439.760  40
   0  -4 -20 350.157 244.597  49
   0  -4 -20 258.494 353.513  40
   0   5 -18 1071.93 339.352  54
   0   5 -18 2000.76 359.598  19
   0   5 -17 1560.11 446.803  54
   0   5 -17 1065.19 307.863  19
   0   5 -16 2545.15 587.870  54
   0   5 -16 2206.45 500.575  19
   0   5 -15 993.928 453.061  54
   0   5 -15 795.722 351.884  44
   0   5 -15 829.454 457.024  19
   0   5 -14 107.653 376.654  44
   0   5 -14 349.648 311.725  19
   0   5 -14 69.9696 415.590  54
   0   5 -13 10283.5 1510.96  19
   0   5 -13 11701.3 1540.07  54
   0   5 -13 7798.76 1132.08  44
   0   5 -12 25832.2 2336.56  54
   0   5 -12 23577.6 2312.86  19
   0  -5  11 3604.74 1576.84  12
   0   5 -11 1608.63 812.943  19
   0   5 -11 1734.03 698.439   8
   0   5 -11 2057.94 688.817  27
   0   5 -10 15312.5 1315.27  34
   0   5 -10 15984.1 3307.38   8
   0  -5  10 18959.0 3362.03  12
   0   5  -9 11265.1 2558.65   8
   0   5  -9 11516.3 1127.24  34
   0  -5   9 13654.0 2743.41  12
   0   5  -8 19132.9 3606.29   8
   0  -5   8 26034.8 3792.27  12
   0  -5   7 43116.3 4579.30  12
   0   5  -7 33694.4 4468.27   8
   0   5  -6 2646.88 706.680   5
   0  -5   6 2684.75 1263.13  12
   0   5  -5 437.220 390.915   5
   0  -5   5 790.140 712.817  12
   0   5  -4-195.079 652.784   5
   0  -5   4 296.561 400.264  12
   0   5  -3 27685.1 2258.17   5
   0   5  -3 27248.2 2511.95   7
   0  -5   3 28331.6 3010.26  12
   0  -5   2 21094.1 2722.87  12
   0   5  -2 19651.2 1941.01   5
   0   5  -2 21542.1 2299.06   7
   0   5  -1 127772. 5466.79   7
   0   5  -1 121210. 4835.80   5
   0  -5   1 121541. 6169.44  12
   0   5   0 73121.4 4166.24   7
   0  -5   0 64224.4 4490.21  12
   0   5   0 73796.8 3766.82   5
   0   5   1 43740.1 2947.35   5
   0  -5  -1 41270.3 3522.67  12
   0   5   2 77498.1 3846.65   5
   0  -5  -2 76056.1 4888.43   2
   0  -5  -2 69937.5 4676.00  12
   0   5   2 87335.0 3365.62  11
   0  -5  -3 22822.7 2629.87   2
   0  -5  -3 24228.6 2701.64  12
   0   5   3 25971.8 2233.52   5
   0   5   3 30403.5 2149.69  11
   0   5   4 6007.71 1057.96   5
   0   5   4 6205.96 1049.51  11
   0  -5  -4 4447.21 1064.20   2
   0   5   5 5286.15 1069.14   5
   0   5   5 4988.30 1314.96  16
   0  -5  -5 4982.65 1229.16   2
   0   5   5 6040.08 1132.43  11
   0  -5  -6 13278.6 1986.19   2
   0   5   6 15909.7 1728.79   5
   0   5   6 14128.8 2162.00  16
   0   5   6 18169.8 2059.22  11
   0   5   7 219.526 297.174   5
   0  -5  -7 615.674 519.190  14
   0   5   7 501.862 752.763  16
   0  -5  -7 415.331 525.143   2
   0   5   7 933.691 475.017  11
   0   5   8 26151.1 2935.31  16
   0  -5  -8 29430.0 3210.53   2
   0   5   8 32686.7 3116.99  11
   0   5   9 71825.2 5166.61  16
   0  -5  -9 81454.9 6205.62   6
   0  -5 -10 97933.2 3913.73  46
   0  -5 -10 107187. 7313.06   6
   0   5  10 92402.1 5938.99  16
   0   5  10 113831. 6338.79  11
   0  -5 -11 32027.2 2672.21  48
   0  -5 -11 34329.8 2569.70  41
   0  -5 -11 35703.2 4179.01   6
   0  -5 -11 31971.0 2333.81  46
   0  -5 -11 35105.9 2124.70  29
   0   5  11 30378.6 3478.27  16
   0   5  11 41053.5 3905.35  11
   0  -5 -12 632.860 400.706  51
   0  -5 -12 32.4220 483.976  41
   0   5  12 615.881 932.171  11
   0  -5 -12 584.820 426.008  29
   0  -5 -12-387.012 1186.75   6
   0  -5 -12 324.216 647.487  48
   0  -5 -13 8602.76 1108.92  29
   0  -5 -13 10344.0 1441.74  41
   0  -5 -13 9623.68 1450.59  48
   0  -5 -14 10372.7 1583.32  48
   0  -5 -14 8639.03 1045.21  29
   0  -5 -15 918.362 404.750  29
   0  -5 -16 1698.92 486.310  29
   0  -5 -17 3764.34 968.453  40
   0  -5 -18 1000.98 386.781  40
   0  -5 -19 49.9047 298.572  40
   0  -5 -20-46.9956 250.333  40
   0   6 -17 3697.10 522.584  19
   0   6 -16 1085.25 379.161  19
   0   6 -15 6016.79 974.376  19
   0   6 -15 4575.80 641.812  44
   0   6 -14 2363.05 575.304  44
   0   6 -14 3534.26 762.263  19
   0   6 -13 1364.17 523.145  44
   0   6 -13 1186.40 553.902  19
   0   6 -12 91093.9 4292.09  19
   0   6 -11 7406.50 891.286  34
   0   6 -11 8306.24 1289.48  27
   0   6 -11 6262.84 1268.79  19
   0   6 -10 14616.6 1329.41  34
   0  -6  10 17794.6 1651.50  46
   0   6  -9 3196.15 932.375  27
   0  -6   9 3047.46 679.917  46
   0  -6   9 3135.45 1587.65  12
   0   6  -9 4013.98 786.145  34
   0   6  -9 2779.76 1565.90   8
   0   6  -8 69283.7 2936.83  34
   0  -6   8 79153.3 6820.10  12
   0  -6   8 74711.4 3406.26  46
   0  -6   7 12062.7 1451.80  46
   0   6  -7 7924.86 2480.90   8
   0   6  -7 9116.39 1379.91  56
   0  -6   7 13313.6 2820.29  12
   0   6  -7 9073.08 1329.55  27
   0   6  -7 11960.4 1272.00  34
   0   6  -6 11.6190 476.393  34
   0  -6   6-225.941 657.510  12
   0   6  -6 324.764 448.656  56
   0  -6   6 330.779 563.299  46
   0   6  -5 844.381 376.718   5
   0  -6   5 401.768 628.229  12
   0   6  -5 1009.05 477.270  34
   0   6  -4 22309.3 2293.96   5
   0  -6   4 21640.8 3419.74  12
   0   6  -3 15767.0 2217.53   7
   0  -6   3 14550.2 2742.23  12
   0   6  -3 17047.2 2054.95   5
   0   6  -2 688.734 751.539   7
   0  -6   2-115.331 381.838  12
   0   6  -2 25.5391 568.577   5
   0  -6   1 21330.0 3295.26  12
   0   6  -1 25784.4 2495.57   5
   0   6  -1 25087.6 2748.82   7
   0  -6   0 6472.85 1682.58  12
   0   6   0 10940.3 1662.90   5
   0   6   0 9468.45 1727.32   7
   0  -6  -1 4516.87 1360.89   2
   0   6   1 4928.65 1262.98   7
   0  -6  -1 4415.83 1290.65  12
   0   6   1 6206.95 1340.15   5
   0   6   2 9328.55 1565.49   5
   0  -6  -2 6978.06 1692.28  12
   0  -6  -2 8698.81 1828.60   2
   0   6   3-23.8506 541.204   5
   0  -6  -3 183.831 438.700   2
   0  -6  -3-175.762 597.566  12
   0  -6  -4 692.707 599.400   2
   0   6   4 1247.95 528.643  11
   0   6   4 787.378 336.824   5
   0  -6  -5-143.957 527.443   2
   0   6   5 40.1300 353.751   5
   0   6   5 694.721 418.756  11
   0   6   6 23.6808 364.485   5
   0  -6  -6-277.076 780.605   2
   0   6   6-185.739 542.452  11
   0  -6  -7 54686.7 2610.86  36
   0   6   7 59250.3 3743.60   5
   0  -6  -7 55950.0 2943.99  46
   0  -6  -7 55610.0 4674.85   2
   0  -6  -7 49940.0 4437.12  14
   0   6   7 67819.5 4497.97  11
   0  -6  -8 8118.04 1232.93  46
   0   6   8 10187.2 1854.40  11
   0  -6  -8 6829.29 1112.53  36
   0  -6  -8 9430.54 1053.01  29
   0  -6  -9 7299.77 1307.35  41
   0  -6  -9 8367.04 1202.14  36
   0  -6  -9 10596.1 2278.79   6
   0   6   9 13453.6 2155.61  11
   0  -6  -9 8738.88 1308.61  46
   0  -6  -9 10330.4 1099.72  29
   0  -6 -10 33038.0 4340.25   6
   0  -6 -10 31337.4 1976.07  29
   0  -6 -10 22988.5 2338.47  41
   0   6  10 38695.3 3929.47  11
   0  -6 -10 27342.6 2175.96  46
   0  -6 -11 8773.80 1613.06  41
   0  -6 -11 11849.6 1318.58  29
   0  -6 -11 11299.3 1623.22  48
   0  -6 -11 8753.39 2181.78   6
   0  -6 -11 11100.2 1486.95  46
   0   6  11 12985.7 2380.58  11
   0  -6 -12 55009.3 2712.30  29
   0  -6 -12 57649.5 3150.79  46
   0  -6 -12 50220.0 3369.68  41
   0  -6 -12 50067.1 3446.69  48
   0  -6 -13 9047.63 1394.38  48
   0  -6 -13 7797.70 1412.53  41
   0  -6 -13 9161.62 1099.53  29
   0  -6 -14 1844.92 649.297  48
   0  -6 -14 2104.18 506.491  29
   0  -6 -15 3703.14 684.751  29
   0  -6 -17 404.447 389.690  40
   0  -6 -18 6644.38 927.319  40
   0  -6 -19 716.217 310.003  40
   0   7 -15 910.937 296.573  44
   0   7 -15 1297.44 321.540  19
   0   7 -14 12959.4 1304.43  19
   0   7 -13 8295.09 1144.13  19
   0   7 -13 5846.83 935.065  44
   0   7 -12 5385.73 1010.02  19
   0   7 -11 1516.73 467.700  34
   0   7 -11 1188.41 525.368  19
   0   7 -10 245.375 449.779  34
   0  -7  10-278.799 481.719  46
   0   7  -9 2957.45 816.554  27
   0  -7   9 4949.95 944.844  46
   0   7  -9 4839.90 856.662  34
   0  -7   8-2.20076 490.214  46
   0   7  -8-271.838 554.596  27
   0   7  -8-81.4817 416.525  34
   0   7  -7 8967.18 1133.02  34
   0  -7   7 9685.92 1307.90  46
   0   7  -7 6136.14 1324.65  56
   0   7  -6 168.470 768.927   8
   0  -7   6 1205.22 1097.80  12
   0   7  -6 1408.99 726.880  56
   0   7  -6 977.980 360.082  34
   0  -7   6 726.448 547.051  46
   0   7  -6 1221.13 456.363  25
   0   7  -5 21715.7 1868.82  34
   0  -7   5 22805.1 4015.71  12
   0   7  -5 22711.3 1553.48  25
   0  -7   5 21515.1 1960.84  46
   0   7  -4 5139.09 777.561  25
   0   7  -4 5105.11 795.649  35
   0   7  -4 5404.58 1230.60  56
   0   7  -4 6060.81 1084.09  34
   0  -7   4 5270.63 1929.86  12
   0  -7   4 6206.24 1079.45  46
   0   7  -4 5628.22 1461.50   5
   0  -7   3 1125.83 1196.25  12
   0   7  -3 908.374 791.953  56
   0   7  -3 2517.57 1166.99   5
   0   7  -3 1702.68 560.936  47
   0   7  -3 1933.41 565.939  25
   0   7  -3 1787.25 478.706  35
   0  -7   3 1303.30 439.878  46
   0   7  -2 7493.47 1190.79  47
   0   7  -2 8402.65 1786.71   7
   0   7  -2 8465.21 1638.77   5
   0  -7   2 8506.23 1200.13  45
   0   7  -2 7342.37 1057.94  30
   0  -7   2 7557.35 1242.16  46
   0   7  -2 8887.91 1091.29  25
   0   7  -2 10600.7 1124.57  35
   0  -7   2 6870.95 1907.93  12
   0   7  -1 10314.9 1108.80  35
   0   7  -1 6895.71 1110.24  30
   0  -7   1 8365.11 2190.07   2
   0  -7   1 7921.86 1380.06  46
   0  -7   1 6238.55 1930.61  12
   0  -7   1 9290.58 1270.19  45
   0   7  -1 9445.36 1121.98  25
   0   7  -1 7963.94 1585.02   5
   0   7  -1 7407.17 1777.55   7
   0   7   0 436.048 524.336   5
   0  -7   0 78.2012 332.342  45
   0   7   0-498.469 741.112   7
   0   7   0 413.024 410.048  25
   0  -7   0 517.858 579.226  12
   0  -7   0 186.683 500.524  46
   0   7   0-57.7717 484.753  30
   0  -7   0 777.511 657.671   2
   0  -7  -1 7109.45 1264.44  46
   0  -7  -1 7456.02 1072.59  45
   0   7   1 8472.12 1171.52  25
   0   7   1 8582.13 1631.08   5
   0  -7  -1 6880.36 2103.51  12
   0   7   1 7874.12 1787.02   7
   0  -7  -1 9013.73 2318.56   2
   0   7   1 6290.65 1101.54  30
   0  -7  -2 895.009 398.726  46
   0   7   2-50.7387 509.306  42
   0   7   2-253.105 645.146   5
   0   7   2 683.049 429.416  25
   0  -7  -2 775.292 505.398  45
   0   7   2 169.450 541.987   7
   0  -7  -2 621.446 453.927  12
   0   7   2 698.867 633.246  30
   0  -7  -2 1040.50 797.215   2
   0   7   3 10441.3 1229.43  30
   0   7   3 7033.74 885.515  42
   0  -7  -3 10686.4 2301.01   2
   0  -7  -3 9184.96 1298.16  46
   0   7   3 10750.3 2250.78   7
   0   7   3 10955.9 1819.38   5
   0   7   3 11406.8 1286.06  25
   0  -7  -3 7391.38 2225.28  12
   0  -7  -3 7933.58 1095.31  36
   0  -7  -4 752.562 578.862  36
   0   7   4 359.785 326.606  30
   0   7   4 1326.58 818.861   5
   0  -7  -4 403.654 890.476   2
   0  -7  -4 514.072 443.550  46
   0  -7  -5 12829.0 1504.34  46
   0   7   5 11697.7 1900.00   5
   0  -7  -5 11193.9 1345.62  36
   0  -7  -5 10683.6 2291.58   2
   0  -7  -6 6227.21 1141.09  36
   0   7   6 9609.96 1109.42  25
   0   7   6 8268.79 1640.83   5
   0  -7  -6 8017.40 2048.21   2
   0  -7  -6 7337.98 1240.26  46
   0  -7  -7 12499.1 1622.76  46
   0   7   7 14652.9 1335.28  25
   0  -7  -8 4588.93 1027.64  46
   0  -7  -8 3208.78 757.886  36
   0  -7  -8 3201.72 1061.14  41
   0  -7  -9 59343.5 2589.73  29
   0  -7  -9 63905.3 3419.47  46
   0  -7 -10 129558. 5043.45  41
   0  -7 -10 134618. 4906.67  46
   0  -7 -10 134481. 4060.49  29
   0  -7 -11-469.376 767.414  48
   0  -7 -11 734.573 600.481  46
   0  -7 -11 853.816 879.983  41
   0  -7 -11-224.937 491.018  29
   0  -7 -12 1177.33 658.682  41
   0  -7 -12 2603.69 874.192  46
   0  -7 -12 2218.97 815.065  48
   0  -7 -12 3014.89 708.348  29
   0  -7 -13-467.492 450.225  48
   0  -7 -14 7071.90 1118.49  48
   0  -7 -16 675.726 411.134  40
   0  -7 -17 3920.40 650.527  40
   0  -7 -18 9917.90 846.622  40
   0   8 -14 1512.90 315.957  19
   0  -8  14 2132.54 419.880  45
   0   8 -13 170.985 227.544  19
   0  -8  13-164.379 279.838  45
   0   8 -13-239.039 307.775  44
   0  -8  12 652.355 455.900  45
   0   8 -12 452.312 273.816  19
   0   8 -12 232.725 315.316  44
   0   8 -11 4602.21 611.770  34
   0  -8  11 5407.08 934.136  45
   0   8 -11 3775.74 797.539  19
   0  -8  10 1207.47 609.940  45
   0   8 -10 1201.34 460.809  19
   0   8 -10 1224.14 461.751  34
   0  -8   9 255.767 477.892  46
   0  -8   9 1002.64 327.299  45
   0   8  -9 607.446 340.929  34
   0   8  -8 9891.89 1141.29  34
   0  -8   8 11474.2 1559.26  45
   0  -8   8 10461.8 1323.18  46
   0  -8   7 1369.68 540.509  45
   0  -8   7 480.602 382.763  46
   0   8  -7 1536.78 547.062  34
   0   8  -7 1107.74 404.734  25
   0  -8   6 3558.03 899.705  45
   0   8  -6 4040.46 704.668  25
   0  -8   6 4168.62 946.614  46
   0   8  -6 3945.63 954.267  34
   0  -8   5 1070.50 513.032  45
   0   8  -5 637.281 431.982  25
   0   8  -5 1160.15 636.053  34
   0  -8   5 988.311 575.899  46
   0   8  -4 11861.0 1518.03  56
   0   8  -4 15887.4 1437.06  25
   0  -8   4 14912.5 1742.39  46
   0   8  -4 14462.7 1564.54  34
   0  -8   4 16643.3 1887.74  45
   0   8  -3 78.0347 408.016  34
   0   8  -3-890.350 687.687  56
   0  -8   3 494.548 508.065  46
   0   8  -3-398.725 711.189  47
   0   8  -3 540.790 412.737  25
   0   8  -3 402.037 335.450  35
   0  -8   3 594.513 398.519  45
   0  -8   2 11715.9 1483.36  45
   0  -8   2 11055.8 1432.41  46
   0   8  -2 12912.8 1358.66  25
   0   8  -2 11217.2 1409.71  47
   0   8  -2 11800.3 1226.17  35
   0   8  -1 112.255 395.524  35
   0   8  -1 645.242 706.541   5
   0  -8   1 456.931 456.484  45
   0   8  -1-46.0440 588.943  30
   0  -8   1-609.592 579.057  46
   0   8  -1 178.190 353.330  25
   0  -8   1 24.4086 1064.73  12
   0   8  -1-264.044 711.963  47
   0   8  -1 223.096 875.950   7
   0   8   0 15209.1 2355.56   5
   0  -8   0 14091.9 1630.09  45
   0   8   0 16214.8 1404.66  35
   0   8   0 16594.5 1566.81  25
   0   8   0 13367.4 2414.87   7
   0  -8   0 11267.8 2654.13  12
   0   8   0 11117.6 1487.95  30
   0  -8   0 13602.4 1674.22  46
   0   8   1 1111.17 525.587   5
   0   8   1-156.887 871.994   7
   0  -8  -1 1120.01 881.921  12
   0   8   1 1515.26 477.985  25
   0  -8  -1 1819.61 733.175  45
   0   8   1 1308.58 494.210  35
   0  -8  -1 3117.65 1176.05  36
   0  -8  -1 2235.12 839.005  46
   0   8   1 1116.70 816.690  30
   0   8   2-1127.33 1567.07   7
   0   8   2 577.104 540.359  30
   0   8   2 180.594 502.787  35
   0  -8  -2 64.5805 464.843  36
   0   8   2 38.1362 488.016  25
   0  -8  -2-430.334 587.112  46
   0  -8  -2 276.616 1639.11  12
   0   8   2-149.404 366.861   5
   0  -8  -3 930.284 734.314  36
   0  -8  -3 886.673 816.308  46
   0   8   3 287.714 379.274  25
   0   8   3-447.520 904.671   7
   0   8   3 185.498 636.205  30
   0   8   3-732.207 770.962   5
   0   8   4 30653.1 3407.76   5
   0   8   4 28917.7 2089.11  30
   0  -8  -4 33038.8 2175.63  36
   0  -8  -4 32627.0 2578.76  46
   0   8   4 35251.3 2286.10  25
   0  -8  -5 3695.08 849.213  36
   0   8   5 4644.78 830.008  25
   0   8   5 3444.35 738.144  30
   0  -8  -5 3560.60 1034.93  46
   0   8   6 166.375 375.670  30
   0  -8  -6 638.691 772.966  46
   0   8   6 1678.10 548.262  25
   0  -8  -6 880.949 687.341  36
   0   8   7 18683.1 1514.04  25
   0  -8  -7 15642.8 1606.26  36
   0  -8  -7 16622.4 1895.02  46
   0  -8  -8 3989.45 984.241  41
   0  -8  -8 4605.43 1035.89  46
   0   8   8 2781.80 577.296  25
   0  -8  -8 2820.92 787.499  36
   0  -8  -9 16327.4 1942.34  41
   0  -8  -9 20179.9 2016.62  46
   0  -8 -10 376.115 583.460  41
   0  -8 -10 853.064 628.809  46
   0   8  10-89.2439 444.389  35
   0  -8 -11 5477.09 1036.51  46
   0  -8 -11 3563.92 1079.18  41
   0  -8 -11 4215.19 961.567  48
   0  -8 -12 284.333 518.206  41
   0  -8 -16-202.274 269.223  40
   0  -9  12 913.720 432.329  55
   0  -9  12 1019.13 306.683  45
   0   9 -11 151.265 229.127  44
   0   9 -11 423.009 261.570  19
   0  -9  11 142.733 225.604  45
   0   9 -10 2372.13 552.302  19
   0   9 -10 3852.28 628.694  34
   0  -9  10 4060.77 715.328  45
   0   9  -9 372.802 233.146  19
   0  -9   9-417.526 405.660  46
   0  -9   9 162.941 422.473  45
   0   9  -9 257.337 393.049  34
   0   9  -8-223.653 328.104  34
   0   9  -8 331.314 301.346  19
   0  -9   8-629.284 487.257  46
   0  -9   8 146.681 333.730  45
   0  -9   7 1315.78 612.454  45
   0   9  -7 1226.56 438.363  25
   0  -9   7 1687.08 525.513  46
   0   9  -7 1780.19 509.622  34
   0  -9   6 3438.17 826.146  45
   0   9  -6 2466.94 531.712  25
   0  -9   6 2747.05 757.226  46
   0   9  -6 2812.50 677.912  34
   0  -9   5 13503.3 1516.12  46
   0   9  -5 12475.3 1365.06  34
   0   9  -5 11936.6 1197.90  25
   0  -9   5 13115.9 1583.71  45
   0   9  -4 4652.04 848.665  34
   0  -9   4 5897.52 1160.76  45
   0   9  -4 5854.14 896.910  25
   0  -9   4 4517.39 1049.93  46
   0   9  -3 4279.68 802.937  34
   0  -9   3 2338.83 750.005  46
   0   9  -3 4219.72 726.860  25
   0  -9   3 3533.76 911.889  45
   0   9  -3 2784.55 451.086  47
   0   9  -2 14612.4 1403.89  25
   0  -9   2 13116.3 1562.54  46
   0   9  -2 14323.4 1469.11  34
   0   9  -2 11737.4 1216.62  35
   0   9  -2 10847.6 1362.30  47
   0  -9   2 13436.3 1602.61  45
   0   9  -1 11326.9 1262.23  25
   0   9  -1 10818.3 1379.55  47
   0  -9   1 11085.4 1555.32  45
   0   9  -1 10637.1 1186.20  35
   0   9  -1 11134.2 1399.88  34
   0  -9   1 12334.0 1563.21  46
   0   9   0 674.208 455.991  25
   0  -9   0 353.842 838.943  46
   0   9   0 328.805 661.242  34
   0   9   0 205.443 772.142  47
   0   9   0 424.009 480.092  35
   0   9   1 19902.5 1615.14  35
   0  -9  -1 19224.1 1903.25  46
   0   9   1 18348.2 1742.54  47
   0   9   1 20160.0 1793.43  34
   0  -9  -1 20121.2 1641.49  36
   0   9   1 20490.3 1647.48  25
   0   9   2 2967.83 1249.93  47
   0  -9  -2 1200.14 702.752  46
   0   9   2 3298.86 1075.89  34
   0   9   2 2768.73 566.801  25
   0   9   2 2614.35 784.713  35
   0   9   3 28692.5 1992.31  25
   0   9   3 21931.4 1836.51  34
   0  -9  -3 26010.9 1906.91  36
   0  -9  -3 22033.3 2138.80  46
   0   9   3 24718.5 1834.80  35
   0   9   3 20029.1 1894.79  30
   0   9   3 22145.0 2040.50  47
   0  -9  -4 2320.94 894.592  36
   0   9   4 742.686 520.215  34
   0   9   4 1030.96 660.264  30
   0  -9  -4 1953.05 880.852  46
   0   9   4 1586.57 554.904  35
   0   9   4 751.684 391.966  25
   0   9   5 3289.24 746.149  35
   0  -9  -5 3354.01 804.022  36
   0   9   5 2175.43 656.776  30
   0  -9  -5 3775.49 957.663  46
   0   9   5 3204.22 740.951  25
   0   9   6 635.718 370.267  30
   0   9   6-208.135 328.800  25
   0  -9  -6 1080.11 598.518  36
   0  -9  -6 459.585 503.462  46
   0   9   6 1033.88 528.271  35
   0  -9  -7 1492.61 644.006  36
   0   9   7 593.791 405.635  25
   0  -9  -7 1739.38 703.304  46
   0   9   7 1059.47 468.281  35
   0   9   8 794.664 483.884  35
   0   9   8 612.675 295.696  25
   0  -9  -8 929.074 642.157  46
   0   9   9-271.649 388.819  35
   0  -9  -9-429.701 559.669  46
   0   9  10 1516.77 425.101  35
   0  -9 -10 1417.35 644.232  46
   0  -9 -10 845.117 355.560  41
   0  -9 -11 733.468 518.794  46
   0   9  13 56.3146 360.490  47
   0  -9 -14 4891.67 674.896  40
   0 -10   9 1362.92 537.521  55
   0  10  -9 573.121 227.959  44
   0  10  -8 981.269 322.317  34
   0 -10   8 867.088 345.731  45
   0  10  -8 171.530 145.269  19
   0  10  -7 641.916 293.736  19
   0 -10   7 763.051 323.279  45
   0  10  -7 810.276 317.965  34
   0 -10   7 663.112 314.401  46
   0 -10   7 422.196 464.285  55
   0 -10   6 1011.21 471.606  45
   0  10  -6 1147.58 384.565  34
   0 -10   6 1283.80 606.234  55
   0 -10   6 842.974 334.226  46
   0  10  -6 828.901 350.188  25
   0  10  -6 43.8652 252.819  19
   0  10  -5 326.211 302.990  34
   0 -10   5 106.301 389.976  46
   0  10  -5-510.806 469.005  25
   0 -10   5 276.174 501.572  55
   0 -10   4 1108.10 526.074  46
   0 -10   4 901.666 499.572  55
   0  10  -4 1195.17 447.624  34
   0  10  -4 819.780 281.383  25
   0  10  -3-103.919 360.247  25
   0  10  -3 676.053 425.944  34
   0 -10   3 515.273 388.228  55
   0 -10   3 225.972 456.641  46
   0  10  -2 2014.58 523.648  47
   0  10  -2 2311.48 557.436  25
   0 -10   2 2638.33 738.003  46
   0  10  -2 1940.53 539.407  34
   0  10  -1-158.881 557.815  47
   0 -10   1 119.904 625.309  46
   0  10  -1 81.7750 291.744  25
   0  10  -1-100.635 378.224  34
   0  10   0 6997.55 894.500  34
   0  10   0 5425.04 892.094  47
   0 -10   0 6772.23 1084.09  46
   0  10   0 7353.42 890.531  25
   0  10   1 1796.77 598.434  25
   0 -10  -1 1556.18 628.423  46
   0  10   1 2512.02 860.600  47
   0  10   1 1811.30 431.125  35
   0  10   1 3288.07 764.337  34
   0 -10  -2 1577.48 633.404  36
   0  10   2 100.228 326.235  34
   0 -10  -2 178.464 413.429  46
   0  10   2 566.303 362.245  25
   0  10   2 803.309 725.287  47
   0  10   2-52.0227 387.111  35
   0  10   3 2804.66 640.607  25
   0  10   3 2779.70 606.500  34
   0 -10  -3 2090.08 749.959  46
   0  10   3 2876.34 708.645  47
   0  10   3 1476.46 561.471  35
   0  10   4 9702.58 1108.23  35
   0  10   4 11720.9 1297.20  47
   0  10   4 12600.8 1164.66  25
   0 -10  -4 11767.2 1363.65  46
   0 -10  -4 15169.7 1293.31  36
   0  10   5-124.668 333.752  35
   0  10   5-63.6586 427.323  47
   0  10   5 70.7764 333.287  25
   0 -10  -5-49.8915 375.586  46
   0 -10  -6 106.325 445.031  46
   0  10   6-196.362 371.567  47
   0  10   6 240.282 320.990  35
   0  10   6 95.5335 328.710  25
   0  10   7 1107.14 448.964  25
   0  10   7 735.883 361.268  35
   0  10   7 989.063 361.620  47
   0 -10  -7 306.398 389.000  46
   0  10   8 4401.78 586.294  25
   0  10   8 4048.09 620.302  47
   0 -10  -8 4995.62 862.565  46
   0  10   8 3629.00 543.093  35
   0  10   9 555.817 318.400  35
   0  10   9 869.344 473.365  47
   0 -10  -9 1554.35 517.377  46
   0  10  10-2.13898 372.818  47
   0 -10 -10 227.472 382.185  46
   0  10  11 5627.43 727.944  47
   0  10  12 129.608 255.752  47
   0  11  -5 229.685 244.929  34
   0  11  -4 236.197 209.387  25
   0  11  -4 38.5331 194.310  34
   0 -11   3 1065.90 468.504  46
   0  11  -3 1011.94 352.223  34
   0  11  -3 1079.44 295.286  25
   0  11  -2 2693.71 502.570  34
   0  11  -2 2351.85 456.638  25
   0 -11   2 2437.80 598.340  46
   0 -11   1 527.186 392.373  46
   0  11  -1 294.291 233.902  25
   0  11  -1-81.7741 251.137  34
   0  11   0 718.574 407.198  47
   0  11   0 130.626 277.791  25
   0  11   0 27.3975 265.561  34
   0  11   1 9141.19 866.151  25
   0  11   1 9071.89 838.374  34
   0 -11  -1 12235.8 1178.60  46
   0  11   1 9717.45 930.424  47
   0  11   2 7491.51 804.676  25
   0  11   2 6462.27 831.273  47
   0 -11  -3 12041.5 1192.92  46
   0  11   3 12985.4 1189.99  47
   0  11   3 14361.9 1091.42  25
   0  11   4 2119.54 621.596  47
   0  11   4 1811.07 385.387  25
   0  11   4 1641.16 350.313  18
   0 -11  -4 1070.81 488.445  46
   0  11   5 435.972 313.363  25
   0  11   5 138.746 265.456  18
   0  11   5 405.856 371.552  47
   0 -11  -5 1083.43 461.826  46
   0  11   6 986.635 344.138  18
   0  11   6 763.069 373.204  47
   0  11   6 748.678 215.689  25
   0 -11  -6 1294.89 500.195  46
   0 -11  -7 2362.09 545.908  46
   0  11   7 1534.41 357.862  18
   0  11   7 2495.22 476.318  47
   0  11   8 5063.56 539.762  18
   0 -11  -8 4902.97 677.708  46
   0  11   8 4531.63 518.760  47
  -1  10  10 667.195 360.022  47
  -1  10   9 120.561 255.001  47
  -1  10   9 29.6850 252.549  35
  -1  10   8 7437.11 697.152  35
  -1  10   8 8011.29 858.957  47
  -1  10   7 699.096 345.408  35
  -1  10   7 220.998 250.897  25
   1 -10  -7 1074.80 457.989  46
  -1  10   7-237.434 352.904  47
  -1  10   6 314.320 349.347  35
  -1  10   6 52.1413 247.667  25
   1 -10  -6 1179.34 540.682  46
  -1  10   6 550.322 381.790  47
   1 -10  -5 439.308 317.255  46
  -1  10   5-90.3569 251.965  25
  -1  10   5-3.83323 263.703  35
  -1  10   5 203.046 323.897  47
   1 -10  -5 138.371 286.733  36
  -1  10   4 1289.45 340.150  35
  -1  10   4 1279.72 434.811  25
   1 -10  -4 1372.72 482.427  46
  -1  10   4 1397.38 425.019  34
  -1  10   4 1011.32 406.717  47
   1 -10  -4 1643.25 504.696  36
   1 -10  -3 1448.15 632.760  46
  -1  10   3 582.050 286.472  34
  -1  10   3 1250.86 384.889  35
   1 -10  -3 2061.81 588.379  36
  -1  10   3 863.720 338.820  25
  -1  10   3 669.070 334.287  47
  -1  10   2 1459.86 660.148  47
  -1  10   2 954.383 513.869  35
  -1  10   2 136.676 270.206  25
   1 -10  -2 987.923 577.861  46
  -1  10   2 1598.44 815.875  34
   1 -10  -1 12110.1 1396.89  46
  -1  10   1 14202.3 1145.22  25
  -1  10   1 13996.7 1227.81  34
   1 -10   0 12369.0 1352.61  46
  -1  10   0 10609.9 949.903  25
  -1  10   0 10989.3 1076.06  34
  -1  10  -1 5104.82 756.404  34
  -1  10  -1 5467.07 713.731  25
   1 -10   1 5133.08 848.737  46
   1 -10   2 262.462 370.644  46
  -1  10  -2 518.825 380.100  34
  -1  10  -2 283.953 277.513  25
  -1  10  -3 346.038 302.790  34
   1 -10   3 327.641 329.249  46
  -1  10  -3 20.3889 266.042  25
  -1  10  -4 291.343 233.457  25
   1 -10   4 109.809 352.329  46
  -1  10  -4-128.516 284.966  34
   1 -10   5 517.186 368.252  46
  -1  10  -5 591.442 255.097  25
  -1  10  -5 107.170 251.795  34
   1 -10   6 3304.39 606.198  46
  -1  10  -6 3134.55 477.373  34
  -1  10  -7 1094.60 212.701  34
   1 -10   7 1255.72 360.380  46
  -1   9  13 5683.95 627.341  47
  -1   9  11 109.673 259.476  35
   1  -9 -11 967.743 420.715  41
  -1   9  10-76.9507 320.907  35
   1  -9 -10 371.758 336.432  46
   1  -9 -10 977.743 496.218  41
  -1   9   9 3155.19 498.354  25
   1  -9  -9 2700.21 678.329  41
   1  -9  -9 3121.35 698.306  46
  -1   9   9 3366.77 654.798  35
  -1   9   8 191.127 296.271  25
   1  -9  -8 510.499 370.151  46
  -1   9   8 636.253 356.730  35
  -1   9   8 629.140 300.499  30
   1  -9  -8 407.069 605.669  41
   1  -9  -8 861.177 486.234  36
   1  -9  -7-141.712 445.774  46
  -1   9   7 504.928 314.896  35
  -1   9   7 123.340 311.768  30
  -1   9   7-81.0692 304.605  25
   1  -9  -7 512.340 415.136  36
   1  -9  -7 44.7439 467.295  41
   1  -9  -6 2050.52 675.393  36
  -1   9   6 1655.03 536.057  35
  -1   9   6 1552.05 455.214  30
   1  -9  -6 1926.01 581.724  46
  -1   9   6 1731.25 508.674  25
   1  -9  -5 10271.0 1207.77  36
  -1   9   5 8272.23 1149.57  30
  -1   9   5 11490.5 1179.06  25
  -1   9   5 8641.67 1047.94  35
   1  -9  -5 9977.27 1273.42  46
   1  -9  -4-27.5678 418.206  46
  -1   9   4 435.309 377.164  30
  -1   9   4 1071.58 548.033  25
   1  -9  -4 879.557 636.693  36
  -1   9   4 798.251 514.509  35
  -1   9   3 6385.02 1031.14  30
  -1   9   3 9313.11 1158.01  35
   1  -9  -3 11283.9 1337.13  36
   1  -9  -3 8956.81 1345.38  46
  -1   9   3 9888.85 1127.81  25
  -1   9   2 13492.3 1333.15  35
  -1   9   2 12947.4 1217.02  25
  -1   9   2 9456.17 1272.47  30
   1  -9  -2 12633.0 1574.92  46
  -1   9   2 9828.39 1368.64  47
  -1   9   1 12238.7 1196.29  35
   1  -9  -1 12014.9 1502.76  46
  -1   9   1 9025.72 1257.12  30
  -1   9   1 13377.4 1262.86  25
  -1   9   1 9587.69 1204.23  47
  -1   9   0-142.897 344.258  35
   1  -9   0 92.5664 570.260  46
  -1   9   0-268.803 392.213  47
  -1   9   0-45.2344 406.982  25
  -1   9  -1 2000.36 617.460  35
   1  -9   1 884.817 371.749  36
  -1   9  -1 1740.83 588.791  34
  -1   9  -1 2879.11 609.522  25
   1  -9   1 2202.59 813.879  46
  -1   9  -2 4069.71 738.995  34
   1  -9   2 2677.73 676.985  45
  -1   9  -2 4724.21 809.152  25
   1  -9   2 3562.78 590.715  36
  -1   9  -2 3188.10 644.877  35
   1  -9   2 4186.97 876.395  46
  -1   9  -3 11501.2 1009.43  25
   1  -9   3 10823.2 1333.71  45
   1  -9   3 9644.03 1331.40  46
  -1   9  -3 10439.4 1191.51  34
  -1   9  -4-38.2782 357.451  25
  -1   9  -4 117.583 413.385  34
   1  -9   4 87.9332 324.217  45
   1  -9   4 146.109 455.574  46
   1  -9   5 115.995 324.634  45
  -1   9  -5 100.293 259.432  25
   1  -9   5 209.923 398.369  46
  -1   9  -5 545.280 305.155  34
   1  -9   6 3945.16 763.461  45
   1  -9   6 2975.67 762.725  46
  -1   9  -6 3816.17 667.318  34
   1  -9   7 2880.10 752.988  45
  -1   9  -7 2560.14 577.663  34
   1  -9   7 3342.71 696.948  46
   1  -9   8 346.097 333.556  45
   1  -9   8-200.685 308.241  46
  -1   9  -8 216.339 261.499  34
  -1   9  -9-36.9532 193.749  34
   1  -9   9 699.868 464.423  45
  -1   9  -9 148.447 210.790  19
   1  -9   9 739.099 371.240  46
   1  -9  10 4156.01 609.104  46
   1  -9  10 3266.40 548.688  45
   1  -8 -12 8069.94 1134.25  41
   1  -8 -11 416.877 436.841  41
   1  -8 -10 3949.92 871.516  41
   1  -8 -10 2398.44 585.216  46
   1  -8  -9 477.397 590.475  46
  -1   8   9 108.152 270.997  25
   1  -8  -9 889.986 842.956  41
   1  -8  -9 1057.42 528.544  36
  -1   8   9 99.1725 430.176  30
   1  -8  -8 913.454 523.231  46
  -1   8   8 1468.99 423.333  25
   1  -8  -8 1565.35 661.240  36
  -1   8   8 990.338 449.357  30
  -1   8   7 631.942 383.101  30
   1  -8  -7-71.8003 466.716  46
   1  -8  -7 455.380 629.182  36
  -1   8   7 644.085 396.545  25
   1  -8  -6 5895.74 1009.53  36
  -1   8   6 6400.67 951.120  25
   1  -8  -6 6205.15 1074.60  46
  -1   8   6 4662.04 939.918  30
  -1   8   6 4420.39 753.742  42
  -1   8   5 1304.51 537.905  30
   1  -8  -5 1859.69 716.129  46
   1  -8  -5 1352.23 757.362  36
  -1   8   5 1481.12 597.213  42
  -1   8   4 19484.3 1697.64  42
   1  -8  -4 23994.5 2087.42  46
  -1   8   4 18181.3 1741.50  30
   1  -8  -4 19907.1 1837.00  36
   1  -8  -3 5135.53 1184.49  46
  -1   8   3 4003.09 904.132  42
  -1   8   3 2236.99 736.089  30
   1  -8  -3 3450.65 859.231  36
  -1   8   2 2092.38 681.757  42
   1  -8  -2 832.463 586.675  46
  -1   8   2 1759.36 601.338  25
   1  -8  -2 2621.48 763.934  36
  -1   8   2 1445.94 664.393  30
   1  -8  -1 1149.38 453.213  46
  -1   8   1 1551.18 541.942  25
  -1   8   1 1076.72 538.598  30
  -1   8   0 3865.10 900.122  30
  -1   8   0 5775.16 938.567  35
  -1   8   0 5333.03 868.415  25
   1  -8   0 5360.89 1040.62  46
  -1   8  -1 106.405 436.292  56
  -1   8  -1 230.060 529.992  35
   1  -8   1-408.649 608.676  45
  -1   8  -1 377.737 590.549  30
  -1   8  -1 412.241 446.122  25
   1  -8   1 571.064 540.591  46
  -1   8  -1 481.557 495.192  47
  -1   8  -2 12739.0 1328.77  25
  -1   8  -2 10814.9 1414.92  30
  -1   8  -2 12624.5 1246.28  35
   1  -8   2 13096.4 1574.71  45
  -1   8  -2 10704.9 1413.03  56
   1  -8   2 11282.9 1512.49  46
   1  -8   3 15499.3 1684.48  45
  -1   8  -3 14125.2 1210.57  35
  -1   8  -3 13037.2 1655.98  56
   1  -8   3 14901.0 1612.73  46
  -1   8  -3 13390.9 1324.76  25
  -1   8  -4 707.706 425.341  25
  -1   8  -4 1287.70 546.456  34
   1  -8   4-124.225 485.665  46
   1  -8   4 971.623 403.142  45
  -1   8  -4 1571.23 790.857  56
   1  -8   5 19.7870 675.783  46
  -1   8  -5-436.363 322.096  25
  -1   8  -5-9.11170 437.614  34
   1  -8   5 139.742 411.147  45
  -1   8  -5 621.068 556.658  56
   1  -8   6 12146.9 1480.96  46
   1  -8   6 12261.8 1531.88  45
  -1   8  -6 12773.9 1331.36  34
  -1   8  -6 12490.5 1119.69  25
  -1   8  -7 2153.60 757.211  56
  -1   8  -7 2985.69 641.098  34
   1  -8   7 3048.91 727.302  46
   1  -8   7 3565.42 839.687  45
   1  -8   8-124.421 466.821  45
  -1   8  -8 33.3799 357.553  34
   1  -8   8 1030.19 607.823  46
  -1   8  -9 4844.45 716.842  34
   1  -8   9 5484.11 892.121  46
   1  -8   9 5651.99 901.697  45
  -1   8 -10 1056.16 365.679  34
  -1   8 -10 698.986 367.399  19
   1  -8  10 2137.76 614.239  45
   1  -8  10 1886.67 504.120  46
   1  -8  11 552.608 290.597  45
   1  -8  11 131.817 385.476  46
  -1   8 -11 119.355 160.494  19
   1  -8  12 1540.78 465.651  45
   1  -8  12 1549.97 476.090  46
  -1   8 -12 698.975 340.093  19
   1  -8  13 443.407 275.559  45
   1  -7 -17 6428.20 744.329  40
   1  -7 -14 3446.39 610.449  29
   1  -7 -13 14890.7 1496.34  41
   1  -7 -13 12322.0 1133.01  29
   1  -7 -12 16344.4 1396.25  29
   1  -7 -12 13966.3 1766.41  41
   1  -7 -11 1069.17 394.378  29
   1  -7 -11 1017.51 875.797  41
   1  -7 -10 1739.84 531.246  29
   1  -7 -10 1622.94 776.223  41
   1  -7 -10 1801.85 648.817  36
   1  -7  -9 174.882 395.335  36
   1  -7  -9-96.8806 506.128  46
   1  -7  -8 7139.90 1061.05  36
   1  -7  -8 7072.95 1155.59  46
   1  -7  -7 37165.2 2578.62  46
   1  -7  -7 33760.0 2252.44  36
  -1   7   6 76224.5 3029.55  42
   1  -7  -6 90320.3 3905.22  46
   1  -7  -6 72404.6 2933.86  22
  -1   7   6 92290.2 5403.95   5
   1  -7  -6 82458.2 3476.24  36
   1  -7  -5 971.968 611.248  36
  -1   7   5 700.444 431.167  42
   1  -7  -5 1434.39 761.857  22
   1  -7  -5 502.853 492.310  46
   1  -7  -5-483.159 962.583   2
  -1   7   5 80.0199 629.919   5
   1  -7  -4 13684.9 1404.87  36
   1  -7  -4 18692.9 3338.62   2
   1  -7  -4 16753.4 1733.20  46
  -1   7   4 22048.7 2828.91   5
  -1   7   4 15954.8 1468.46  42
   1  -7  -3 4083.44 1538.40   2
   1  -7  -3 3911.52 757.686  46
  -1   7   3 3904.49 815.759  42
  -1   7   3 5260.84 1270.49   5
   1  -7  -2 611.054 811.597   2
  -1   7   2 688.871 831.987   5
  -1   7   2 406.799 386.451  30
   1  -7  -2 594.730 583.171  46
  -1   7   2 250.787 426.567  42
   1  -7  -1 1295.96 1443.48   2
  -1   7   1 524.028 572.093  42
  -1   7   1-151.211 316.839  30
  -1   7   1-12.0822 535.966   5
   1  -7  -1 1221.73 664.283  46
  -1   7   1 604.440 966.382   7
  -1   7   0 13948.0 2248.15   5
   1  -7   0 14075.2 3102.19   2
  -1   7   0 10389.6 1907.22   7
  -1   7   0 11804.8 1418.76  30
   1  -7   0 13675.0 1665.04  46
  -1   7   0 13127.8 1311.40  42
  -1   7  -1 422.802 441.931  42
  -1   7  -1 332.836 580.945  30
  -1   7  -1 355.930 489.047   5
  -1   7  -1 2459.83 1001.94  56
   1  -7   1-484.948 1250.96   2
   1  -7   1 832.680 544.391  45
   1  -7   1 1007.94 704.731  46
  -1   7  -1 72.6897 864.417   7
  -1   7  -2 18222.4 2475.42   5
  -1   7  -2 17034.2 1594.50  42
  -1   7  -2 18300.0 1630.32  25
   1  -7   2 16359.0 3178.96   2
  -1   7  -2 17246.5 1645.96  30
  -1   7  -2 14462.2 1657.73  56
   1  -7   2 17988.1 1794.62  46
   1  -7   2 19094.8 1755.60  45
  -1   7  -3 23678.9 1655.58  35
   1  -7   3 23899.3 2005.47  46
  -1   7  -3 25363.7 1979.14  30
  -1   7  -3 25214.7 1778.25  25
   1  -7   3 28342.2 4160.19   2
  -1   7  -3 21114.4 2014.02  56
  -1   7  -3 28764.9 3097.39   5
   1  -7   3 26948.8 2169.73  45
  -1   7  -4 11849.3 1645.42  56
  -1   7  -4 13838.0 1280.47  25
  -1   7  -4 14608.0 2175.21   5
   1  -7   4 13498.9 1527.18  46
  -1   7  -4 13819.9 1386.70  30
  -1   7  -5 22102.4 1531.59  25
   1  -7   5 23429.9 2102.07  46
   1  -7   6 62895.3 3365.36  46
  -1   7  -6 57189.4 2981.80  34
  -1   7  -6 60295.7 3424.34  56
  -1   7  -7 1665.18 721.145  56
  -1   7  -7 740.903 349.228  34
   1  -7   7 1027.03 705.724  46
  -1   7  -8 616.074 526.499  56
  -1   7  -8-418.432 541.729  27
   1  -7   8 616.086 610.952  46
  -1   7  -8 277.252 386.279  34
  -1   7  -9 3333.57 757.066  27
  -1   7  -9 4604.18 1038.48  56
  -1   7  -9 5134.50 780.103  34
   1  -7   9 5188.66 988.217  46
   1  -7  10 4460.57 882.757  46
  -1   7 -10 3520.79 587.157  34
  -1   7 -10 4784.45 906.740  27
  -1   7 -11-84.1756 249.180  27
   1  -7  11-265.803 558.953  46
  -1   7 -11 153.132 225.265  19
  -1   7 -12 925.549 451.016  19
   1  -7  12 523.279 378.723  46
  -1   7 -13 9386.26 1082.46  19
   1  -7  13 12807.7 1060.65  46
  -1   7 -14 1385.07 401.140  19
   1  -7  15 3356.43 523.626  45
   1  -6 -18 489.916 312.107  40
   1  -6 -17 7206.04 1004.84  40
   1  -6 -16 10068.9 961.702  29
   1  -6 -15 18563.6 1377.27  29
   1  -6 -14 7429.12 952.261  29
   1  -6 -14 9207.27 1273.31  41
   1  -6 -13 14100.2 1614.20  41
   1  -6 -13 11449.1 1264.68  29
   1  -6 -12 1422.52 723.584  41
   1  -6 -12 1231.23 389.669  29
   1  -6 -11 1962.90 768.574  41
   1  -6 -11 1555.68 639.723  51
   1  -6 -10 26907.0 2497.81  41
   1  -6 -10 29000.5 2068.15  36
   1  -6  -9 189.845 308.749  51
  -1   6   9-629.141 1175.07  16
   1  -6  -9-2192.25 2310.37   6
  -1   6   9-1513.43 1144.83  11
   1  -6  -9 128.460 584.957  36
   1  -6  -8 48281.3 5128.66   2
   1  -6  -8 44876.2 2321.90  22
   1  -6  -8 52619.0 2669.97  36
  -1   6   8 48152.7 4831.80  16
  -1   6   7 19882.6 3054.66  16
  -1   6   7 23989.1 2561.97   5
   1  -6  -7 22684.2 1819.06  36
   1  -6  -7 24489.3 2020.11  46
   1  -6  -7 22987.9 3650.69   2
  -1   6   6 10580.5 1667.93   5
  -1   6   6 10106.7 2205.75  16
   1  -6  -6 8223.56 2144.71   2
   1  -6  -6 8246.48 971.556  22
   1  -6  -6 9392.14 1202.57  36
   1  -6  -6 9135.99 1274.16  46
   1  -6  -5 52105.0 2214.91  22
  -1   6   5 65696.4 4441.33   5
   1  -6  -5 54751.6 5411.45   2
   1  -6  -5 58453.6 2927.18  46
  -1   6   4 15235.2 2151.74   5
   1  -6  -4 11762.8 2447.34   2
  -1   6   3 1350.89 767.490   5
   1  -6  -3 762.507 517.257   2
  -1   6   2 7279.44 1647.84   5
   1  -6  -2 6870.74 1854.32   2
  -1   6   1 572.729 452.933   5
   1  -6  -1 233.783 564.869   2
   1  -6   0 197.855 663.048   2
  -1   6   0 309.408 369.344   5
  -1   6  -1 3379.83 1235.17   7
   1  -6   1 3590.56 1454.56  12
   1  -6   1 2892.64 1298.47   2
  -1   6  -1 3949.37 1063.18   5
  -1   6  -2 20594.9 1567.78  42
   1  -6   2 19298.9 3119.96   2
  -1   6  -2 19398.2 2399.88   5
  -1   6  -2 18740.9 1568.88  30
   1  -6   2 18458.4 1735.93  46
  -1   6  -2 16360.8 2244.31   7
   1  -6   2 16591.5 2795.97  12
  -1   6  -3 58924.9 2655.12  42
  -1   6  -3 60577.5 4155.11   5
   1  -6   3 56844.5 5555.36   2
  -1   6  -3 58593.0 2764.06  30
   1  -6   3 56664.1 2919.50  46
   1  -6   3 52944.9 5026.08  12
   1  -6   4 105.214 466.942  46
   1  -6   4-327.404 746.337  12
  -1   6  -4 769.135 464.426  30
  -1   6  -4 440.124 699.026  56
  -1   6  -4 877.662 487.046   5
   1  -6   4-497.100 869.324   2
   1  -6   4 287.713 313.289  23
  -1   6  -4 449.010 343.745  42
  -1   6  -5 10595.5 1051.43  25
   1  -6   5 10726.1 2438.50  12
   1  -6   5 9525.21 2292.72   2
   1  -6   5 8670.53 1306.06  46
  -1   6  -5 10960.4 1383.95  56
   1  -6   5 10222.0 1329.03  23
  -1   6  -5 10122.1 1124.03  30
  -1   6  -5 10176.2 1704.15   5
  -1   6  -6 4470.37 1027.10   5
  -1   6  -6 2993.21 723.387  27
  -1   6  -6 5988.14 1170.54  56
   1  -6   6 7094.29 2480.87   2
   1  -6   6 4592.99 942.604  46
   1  -6   6 5306.58 1735.83  12
   1  -6   6 5703.59 931.548  23
   1  -6   7 42885.8 5166.30  12
   1  -6   7 42197.7 2672.01  46
   1  -6   7 42542.0 2682.04  23
   1  -6   7 41437.4 4953.31   2
  -1   6  -7 36848.4 2322.16  34
   1  -6   8 1167.64 645.787  46
  -1   6  -8 566.039 638.876  56
  -1   6  -8 99.8883 470.806  27
   1  -6   8 352.437 450.119  23
  -1   6  -8 361.355 411.259  34
  -1   6  -9 7296.15 1032.12  34
  -1   6  -9 8007.64 1291.63  56
   1  -6   9 7576.93 1163.56  23
  -1   6  -9 7691.50 1232.86  27
   1  -6   9 7420.97 1205.00  46
   1  -6  10 21076.9 1930.02  46
  -1   6 -10 17096.6 1478.36  34
   1  -6  11 7335.80 1157.03  46
  -1   6 -12 31333.8 2460.84  19
   1  -6  12 33637.6 2207.95  46
  -1   6 -12 33245.8 2292.28  27
   1  -6  13 592.118 323.637  46
  -1   6 -13 509.832 221.896  19
   1  -6  14 71.6774 303.764  46
  -1   6 -14-94.5693 230.915  19
  -1   6 -15 3204.10 627.381  19
  -1   6 -16 18632.7 1250.90  19
   1  -5 -19 484.802 289.531  40
   1  -5 -18 6186.92 885.833  40
   1  -5 -17 18918.4 1302.48  29
   1  -5 -17 21407.7 1755.12  40
   1  -5 -16 714.672 328.877  29
   1  -5 -15 75.3272 288.941  29
   1  -5 -14 5667.99 1141.40  41
   1  -5 -14 3198.99 831.908  51
   1  -5 -14 3999.13 805.209  29
   1  -5 -13 1290.01 781.529  41
   1  -5 -13-236.981 312.456  51
   1  -5 -12 3951.21 957.923  51
   1  -5 -12 5779.68 1265.61  41
   1  -5 -11 26697.4 2283.22  41
  -1   5  11 19499.2 3184.54  16
   1  -5 -11 23034.4 3702.00   6
   1  -5 -10 17368.3 1834.16  41
   1  -5 -10 16035.8 1501.51  36
   1  -5 -10 18422.7 3118.71   6
  -1   5  10 14102.2 2582.34  16
  -1   5   9-696.446 861.620  16
   1  -5  -9-254.663 449.547  51
   1  -5  -9-27.3084 333.683  22
   1  -5  -9 607.067 625.813   6
   1  -5  -9 277.765 591.152  36
   1  -5  -8 10915.5 1087.69  22
   1  -5  -8 13907.1 1353.32  36
   1  -5  -8 12210.3 2676.13   6
  -1   5   8 11100.1 2222.87  16
   1  -5  -8 12426.2 2450.53   2
   1  -5  -7 20676.3 3082.05   2
  -1   5   7 17482.3 2709.54  16
  -1   5   7 24475.2 2315.10   5
  -1   5   6 2978.26 914.052   5
  -1   5   6 2130.35 867.886  16
   1  -5  -6 2246.34 1134.89   2
  -1   5   5 25090.7 2998.03  16
   1  -5  -5 30236.2 3472.64   2
  -1   5   4 11764.3 2132.93  16
   1  -5  -4 13658.5 2391.38   2
  -1   5   3 2798.71 835.480  16
   1  -5  -3 2013.86 437.235   2
   1  -5  -2 505.833 380.879  12
  -1   5   2 760.193 508.501  16
   1  -5  -2 1289.31 844.854   2
   1  -5  -1-88.0575 824.919   2
   1  -5  -1 213.536 336.377  12
   1  -5   0 16162.3 2577.38   2
   1  -5   0 14919.3 2212.49  12
   1  -5   1 480.929 456.217   2
   1  -5   1-308.780 496.222  12
   1  -5   2 48560.6 4544.67   2
   1  -5   2 46648.6 3993.22  12
  -1   5  -2 47706.3 3359.25   7
   1  -5   3 25663.3 3387.67   2
   1  -5   3 23571.2 2869.83  12
  -1   5  -3 22176.4 2282.40   7
   1  -5   4 4900.27 1506.45  12
  -1   5  -4 5421.65 1176.35   5
  -1   5  -5 15274.4 1882.61   5
   1  -5   5 15979.5 2831.06  12
  -1   5  -6 75204.7 4129.17   5
   1  -5   6 81201.6 6094.36  12
  -1   5  -7 28.4860 469.473  56
   1  -5   7-546.787 1190.54  12
   1  -5   7 382.079 355.641  23
  -1   5  -7-37.8056 407.164   8
  -1   5  -7 338.570 542.438  27
   1  -5   8 908.163 705.985  12
  -1   5  -8 1172.64 664.750  27
  -1   5  -8 1464.46 632.062  56
   1  -5   8 1489.07 638.614  23
  -1   5  -8 1329.65 597.324  34
  -1   5  -8 97.6034 460.190   8
   1  -5   9 48906.9 2765.06  23
  -1   5  -9 51310.5 2902.18  56
   1  -5   9 51547.5 5554.85  12
   1  -5  10 45684.3 2765.73  23
  -1   5 -10 47807.5 2809.23  56
  -1   5 -11 2178.80 909.098  27
   1  -5  11 2934.83 664.144  23
  -1   5 -11 2506.00 719.013  56
  -1   5 -12 2309.09 847.070  27
  -1   5 -12 3248.04 849.434  19
  -1   5 -13 13309.6 1705.51  19
  -1   5 -14 2858.18 728.183  27
   1  -5  14 3973.56 689.245  46
  -1   5 -14 3245.25 817.811  19
  -1   5 -15 1535.79 585.253  19
  -1   5 -15 2200.21 544.657  27
   1  -5  15 2411.96 541.314  46
  -1   5 -16 1259.64 453.307  19
  -1   5 -17 9417.88 899.031  19
   1  -4 -20 1084.09 385.150  40
   1  -4 -19 1540.75 485.107  40
   1  -4 -18 5967.80 903.362  40
   1  -4 -18 5530.12 653.212  29
   1  -4 -17-115.991 281.936  29
   1  -4 -17 470.187 424.304  40
   1  -4 -16 1440.42 481.733  29
   1  -4 -16 950.304 485.089  51
   1  -4 -15 3245.05 813.428  51
   1  -4 -15 5091.24 831.771  29
   1  -4 -14 141.401 330.194  51
   1  -4 -13 16330.8 1731.73  41
  -1   4  12 970.158 1131.66  16
   1  -4 -12 1116.89 709.041  41
   1  -4 -12 450.575 633.863  51
   1  -4 -12-1716.16 1725.24   6
   1  -4 -11 33401.4 4199.65   6
   1  -4 -11 37570.0 2541.58  41
  -1   4  11 30263.4 3518.89  16
   1  -4 -10 10328.6 2206.76   6
   1  -4 -10 10015.9 2413.86   3
   1  -4 -10 13533.5 1682.34  41
  -1   4  10 9169.95 1733.46  16
  -1   4   9 4096.69 1345.14  16
   1  -4  -9 5023.61 1865.85   6
   1  -4  -8 36973.2 4100.77   6
  -1   4   8 35652.1 2514.52   5
   1  -4  -8 33615.1 3646.11   2
  -1   4   8 33783.6 3461.52  16
  -1   4   7 7261.22 1563.91  16
   1  -4  -7 7965.22 1755.79   2
   1  -4  -6 10131.3 1912.51   2
  -1   4   6 9386.06 1572.14  16
   1  -4  -5 1099.60 859.487   2
  -1   4   5 1303.39 770.676  16
   1  -4  -4 39748.2 3652.68   2
  -1   4   4 41738.6 3316.61  16
  -1   4   3 12309.9 1776.92  16
   1  -4  -3 11513.9 1918.31   2
  -1   4   2 5151.48 1133.24  16
  -1   4   2 4980.39 949.675  17
   1  -4  -2 3519.06 1178.38   2
   1  -4  -2 4375.39 970.012  12
  -1   4   1 14519.0 1792.13  16
   1  -4  -1 14878.2 1735.03  12
  -1   4   1 15410.2 1874.06  17
   1  -4  -1 14786.5 2215.69   2
  -1   4   0 41866.9 2956.40  16
   1  -4   0 45033.9 3113.93  12
  -1   4   0 43754.1 3151.01  17
   1  -4   0 40262.9 3591.44   2
   1  -4   1 6064.42 1144.34  12
   1  -4   1 6419.38 1507.53   2
   1  -4   2 9469.04 1537.94  12
  -1   4  -3 10684.0 1369.98   7
   1  -4   3 9086.95 1339.73  12
   1  -4   4 81222.3 4901.04  12
  -1   4  -4 73986.4 3540.87   7
   1  -4   5 39275.8 4055.84  13
   1  -4   5 48892.2 4179.51  12
   1  -4   6 153609. 8175.13  13
   1  -4   6 173103. 8103.19  12
   1  -4   7 993.290 869.681  12
   1  -4   7 1892.55 1231.22  13
  -1   4  -7 40.8014 865.822   8
   1  -4   8 109013. 7108.96  12
  -1   4  -8 90408.6 7086.33   8
   1  -4   8 101405. 7130.59  13
   1  -4   9 16087.0 3048.67  13
   1  -4   9 20103.2 3092.41  12
  -1   4  -9 15105.7 3051.22   8
  -1   4  -9 16900.4 1540.90  56
  -1   4 -10 8821.17 2279.03   8
   1  -4  10 12333.8 2508.58  13
  -1   4 -10 13967.3 1416.15  56
   1  -4  10 12798.4 2611.53  12
  -1   4 -11 4432.67 950.207  27
   1  -4  11 5943.34 1750.54  12
   1  -4  11 5295.25 1825.61  13
  -1   4 -11 5620.20 1019.96  56
  -1   4 -11 4021.09 1766.72   8
  -1   4 -12 22846.0 2355.43  19
  -1   4 -12 33151.9 2328.96  27
  -1   4 -13 12461.7 1702.00  19
  -1   4 -13 12517.7 1669.29  54
  -1   4 -14 330.732 305.892  27
  -1   4 -14-23.8862 349.746  54
  -1   4 -14 70.7912 209.366  19
  -1   4 -15 4459.90 803.874  27
  -1   4 -15 3355.81 684.674  54
  -1   4 -15 3663.13 735.266  19
  -1   4 -16 11837.9 1278.77  54
  -1   4 -16 10089.5 1226.33  19
  -1   4 -17 510.237 283.416  19
  -1   4 -17 799.434 439.248  54
  -1   4 -18-182.725 225.081  54
  -1   4 -18-9.82718 223.948  19
   1  -3 -20 1858.74 406.910  40
   1  -3 -19 524.123 376.870  40
   1  -3 -18 1376.82 546.892  40
   1  -3 -18 1206.80 529.536  49
   1  -3 -18 1324.34 358.804  29
   1  -3 -17-147.270 275.820  51
   1  -3 -17 54.7378 319.456  29
   1  -3 -16 349.751 359.181  51
   1  -3 -16 866.223 494.466  29
   1  -3 -13 906.781 611.169  41
   1  -3 -13-214.801 844.377   6
   1  -3 -13 299.099 495.657  51
  -1   3  13 1010.58 624.133  16
   1  -3 -13 334.632 359.051  44
   1  -3 -12 1011.65 634.070  44
   1  -3 -12 2575.09 905.410  41
   1  -3 -12 2031.86 1264.85   6
  -1   3  12 1488.21 897.069  16
   1  -3 -12 1406.85 616.619  51
   1  -3 -11 7443.97 979.849  51
  -1   3  11 5411.83 1338.53  16
   1  -3 -11 7309.96 1171.22  41
   1  -3 -11 5233.24 1739.33   6
   1  -3 -11 5988.05 1009.63  28
   1  -3 -11 2608.22 826.392  44
   1  -3 -11 6014.57 1858.19   3
  -1   3  10 27095.1 2991.96  16
   1  -3 -10 27955.3 3625.61   6
   1  -3 -10 26485.7 3380.00   3
  -1   3   9 40275.9 3537.74  16
   1  -3  -9 39769.5 4170.29   6
   1  -3  -9 39956.3 3997.99   3
  -1   3   8-253.919 440.377  16
  -1   3   8 41.7627 535.953  15
   1  -3  -8 6.57574 671.639   6
   1  -3  -7 66056.1 4958.58   6
   1  -3  -7 66644.5 4582.17   2
  -1   3   7 66124.0 4177.64  16
  -1   3   7 67922.4 4342.91  15
  -1   3   6 134466. 5666.16  16
   1  -3  -6 136499. 6377.78   2
  -1   3   6 129998. 5826.91  15
   1  -3  -5 46264.3 3604.65   2
  -1   3   5 42978.8 3286.72  15
  -1   3   5 45018.6 3098.35  16
  -1   3   5 44986.7 2889.79  17
   1  -3  -4 4097.90 1237.23   2
  -1   3   4 3699.65 795.980  17
  -1   3   4 3616.72 1015.34  15
  -1   3   4 3242.09 798.559  16
   1  -3  -3 44.1790 542.650   2
  -1   3   3 352.296 596.782  16
  -1   3   3 615.571 363.423  17
  -1   3   3 246.430 611.616  15
  -1   3   2 686.676 512.541  17
   1  -3  -2 181.399 247.266  12
   1  -3  -2 721.458 688.980   2
  -1   3   2 720.373 438.721  16
   1  -3  -1 110339. 5048.97   2
  -1   3   1 121355. 4248.77  17
  -1   3   1 123676. 4394.56  16
   1  -3  -1 116155. 4071.84  12
   1  -3   0 19308.3 2140.51   2
  -1   3   0 23752.0 1862.15  17
  -1   3   0 22129.5 1804.95  16
   1  -3   0 22727.2 1755.99  12
   1  -3   1 2229.31 849.265   2
   1  -3   1 2199.49 636.836  12
  -1   3  -1 3172.36 743.447  16
  -1   3  -1 3757.14 782.708  17
   1  -3   2 52371.0 3118.62  12
  -1   3  -2 55924.1 2900.36  17
   1  -3   3 78396.7 4697.59  13
  -1   3  -3 83192.4 3664.43  17
   1  -3   3 84264.2 4319.46  12
  -1   3  -4 10048.3 1025.35   7
  -1   3  -4 10182.4 1292.68  17
   1  -3   4 10009.6 1790.98  13
   1  -3   4 11693.0 1743.90  12
   1  -3   5 30427.2 3122.66  13
   1  -3   5 32998.6 2953.26  12
   1  -3   6 11243.3 1881.14  12
   1  -3   6 9616.24 1869.46  13
  -1   3  -6 8706.47 1812.74   8
   1  -3   7 5887.30 1377.88  13
   1  -3   7 5872.60 1365.31  12
  -1   3  -7 4928.90 1446.96   8
  -1   3  -8 23796.5 3366.43   8
   1  -3   8 28206.9 3333.05  13
   1  -3   8 28883.6 3310.81  12
  -1   3  -9 79688.4 6276.39   8
   1  -3   9 87221.6 6055.37  12
   1  -3   9 90023.0 6360.01  13
  -1   3 -10 21.4268 349.854  27
   1  -3  10-355.043 822.495  12
   1  -3  10 319.197 507.497  13
  -1   3 -10-169.652 390.778   8
  -1   3 -11 31792.7 2071.78  27
   1  -3  11 25662.6 3515.99  13
  -1   3 -11 24670.2 3667.65   8
   1  -3  11 27528.5 3618.46  12
  -1   3 -11 23104.2 2486.39  49
  -1   3 -11 28455.8 2402.90  54
  -1   3 -11 24473.3 1749.59  56
  -1   3 -12 4415.71 815.571  27
  -1   3 -12 3585.27 877.188  19
   1  -3  12 4163.38 1289.09  12
  -1   3 -12 3872.61 1700.53   8
   1  -3  12 2928.83 1180.26  13
  -1   3 -12 2762.86 923.135  49
  -1   3 -12 2695.79 726.685  54
  -1   3 -13 3262.78 823.760  54
  -1   3 -13 3970.93 774.357  27
  -1   3 -13 1142.39 946.859  49
  -1   3 -13 923.966 645.166  19
  -1   3 -14 913.931 517.430  19
  -1   3 -14 904.255 374.097  27
  -1   3 -14 1361.63 907.585  49
  -1   3 -14 732.128 389.263  54
  -1   3 -15 4748.21 813.773  27
  -1   3 -15 4568.63 1013.32  54
  -1   3 -15 3459.36 796.326  19
  -1   3 -15 5773.46 2273.36  49
  -1   3 -16-49.8911 229.016  19
  -1   3 -16-571.878 443.090  54
  -1   3 -16-229.110 320.629  27
  -1   3 -17 1040.30 469.198  19
  -1   3 -17 720.405 292.243  54
  -1   3 -18 3253.24 609.969  54
  -1   3 -18 2910.49 503.270  19
  -1   3 -19 671.398 273.176  54
   1  -2 -19 494.685 374.037  40
   1  -2 -19 625.074 353.955  49
   1  -2 -18 369.319 240.432  29
   1  -2 -18 933.989 413.477  40
   1  -2 -18 821.640 481.717  49
   1  -2 -17 8839.29 1209.55  40
   1  -2 -17 7609.09 1406.56  49
   1  -2 -17 4750.86 807.243  51
   1  -2 -17 6952.12 857.952  29
   1  -2 -16 4399.94 776.814  51
   1  -2 -16 3927.62 794.240  44
   1  -2 -16 4956.19 801.552  29
   1  -2 -16 6783.55 1170.43  40
  -1   2  14-276.182 665.107  11
   1  -2 -14 192.057 369.414  44
   1  -2 -14 811.960 478.563  51
   1  -2 -13 1676.56 637.589  44
   1  -2 -13 1319.92 512.245  51
   1  -2 -12 4852.38 1742.92   6
  -1   2  12 4569.04 1130.46  16
   1  -2 -12 7568.86 1035.38  28
   1  -2 -12 3664.73 839.613  51
   1  -2 -12 3116.19 963.146  44
   1  -2 -11 2827.84 1079.45   6
   1  -2 -11 2276.33 956.643   3
  -1   2  11 3006.43 1123.72  16
   1  -2 -10 28862.3 3357.01   3
  -1   2  10 27857.5 3245.94  15
   1  -2 -10 30194.8 3624.82   6
  -1   2   9 72728.7 5047.48  15
   1  -2  -9 75071.9 5364.69   6
   1  -2  -9 71657.9 5204.74   3
   1  -2  -8 4628.95 1326.15   6
  -1   2   8 4488.13 1172.89  15
   1  -2  -8 3725.31 1170.35   3
   1  -2  -7 2164.50 950.218   6
  -1   2   7 2272.12 490.622  15
  -1   2   6 390451. 6656.21  17
  -1   2   6 381611. 9550.23  15
   1  -2  -6 361867. 9484.24   2
   1  -2  -6 358013. 10123.9   6
  -1   2   5 216.337 481.800  15
  -1   2   5 370.076 251.044   9
  -1   2   5 319.758 268.833  17
   1  -2  -5-46.0186 611.351   2
  -1   2   4 118642. 4866.53  15
  -1   2   4 123107. 3698.71  17
   1  -2  -4 117147. 4979.02   2
  -1   2   3 109286. 3470.68  17
  -1   2   3 102134. 3046.47   9
  -1   2   3 109201. 4326.60  15
   1  -2  -3 105648. 4525.38   2
   1  -2  -2 210409. 6084.25   2
  -1   2   2 192468. 4517.33   9
  -1   2   2 203931. 6026.90  15
  -1   2   2 220601. 4834.13  17
  -1   2   1 11862.6 1086.86  17
  -1   2   1 11321.7 1497.84  15
  -1   2   1 13583.6 1231.07  16
   1  -2  -1 12158.7 1429.34   2
   1  -2  -1 13043.6 934.017  12
  -1   2   0 12501.6 1156.06  17
   1  -2   0 11258.0 1267.43   2
   1  -2   0 10053.2 897.835  12
  -1   2   0 11323.6 1063.85  16
  -1   2  -1 8834.87 835.069  16
  -1   2  -1 8917.36 966.486  17
   1  -2   1 8035.27 1107.49   2
   1  -2   1 6591.68 1235.26  13
   1  -2   1 6007.70 705.065  12
   1  -2   2 18243.9 1652.09  12
  -1   2  -2 21057.4 1616.90  17
  -1   2  -2 22835.0 1371.45  16
   1  -2   2 20067.4 2020.86  13
   1  -2   3 8450.80 1140.39  12
   1  -2   3 7660.22 1321.69  13
  -1   2  -3 7891.27 980.095  17
  -1   2  -4 7350.03 892.904  17
   1  -2   4 8268.08 1322.85  13
  -1   2  -4 6144.93 651.955   7
   1  -2   4 8214.34 1300.25  12
   1  -2   5 141446. 5602.39  12
   1  -2   5 143859. 5966.36  13
  -1   2  -5 131510. 3821.40  17
   1  -2   6 195026. 7217.95  13
   1  -2   6 187668. 6767.01  12
  -1   2  -6 179800. 7425.13   8
   1  -2   7 90961.1 5104.03  12
   1  -2   7 95525.2 5395.75  13
  -1   2  -7 85640.9 5410.97   8
   1  -2   8 30874.4 3249.91  13
  -1   2  -8 29037.6 3294.62   8
   1  -2   8 30250.7 3096.01  12
   1  -2   9 1107.14 752.398  13
   1  -2   9 1251.56 707.516  12
  -1   2  -9 1296.35 699.723   8
   1  -2  10 9931.48 2021.10  12
  -1   2 -10 8530.33 1988.79   8
   1  -2  10 10149.7 1998.65  13
   1  -2  11 87.6149 403.485  13
   1  -2  11-173.957 636.205  12
  -1   2 -11-212.395 674.895   8
  -1   2 -12 15135.5 2048.40  49
  -1   2 -12 13258.0 2588.96   8
   1  -2  12 15386.9 2619.96  12
   1  -2  12 13279.4 2474.85  13
  -1   2 -12 19139.5 1982.04  54
  -1   2 -12 14692.3 1578.98  19
  -1   2 -12 20381.2 1647.31  27
   1  -2  13 9902.13 2022.63  13
  -1   2 -13 12277.1 1574.61  54
   1  -2  13 13464.6 2461.00  12
  -1   2 -13 11397.6 1392.51  19
  -1   2 -13 10128.1 1652.91  49
  -1   2 -13 11282.0 2558.66   8
  -1   2 -13 13687.4 1348.35  27
  -1   2 -14 947.510 284.899  27
  -1   2 -14 30.3156 311.200  19
  -1   2 -14 1081.07 635.895  54
  -1   2 -14 126.405 458.577  49
  -1   2 -15 41145.2 3188.70  49
  -1   2 -15 42263.9 2387.58  27
  -1   2 -15 42454.1 2990.35  54
  -1   2 -15 39659.3 2593.62  19
  -1   2 -16 1140.51 642.978  54
  -1   2 -16 868.155 298.982  19
  -1   2 -16 1138.49 532.562  49
  -1   2 -16 705.042 413.106  27
  -1   2 -17 270.804 274.920  19
  -1   2 -17 731.236 498.915  54
  -1   2 -17 595.571 802.756  49
  -1   2 -18-4.39704 261.680  19
  -1   2 -18 221.396 323.297  54
  -1   2 -19 7704.82 968.937  54
  -1   2 -20 627.793 395.878  54
   1  -1 -19 1264.60 410.132  54
   1  -1 -19 2148.83 624.064  49
   1  -1 -18 93428.9 3860.66  54
   1  -1 -18 96882.8 3720.51  40
   1  -1 -18 99439.5 4309.45  49
   1  -1 -17 542.357 596.970  40
   1  -1 -17-67.6287 341.347  54
   1  -1 -17 312.027 360.747  29
   1  -1 -17 127.982 609.735  49
   1  -1 -17 407.832 326.437  51
   1  -1 -16 13926.2 1842.33  49
   1  -1 -16 12261.7 1628.22  40
   1  -1 -16 8940.72 1064.74  51
   1  -1 -16 11463.5 1563.23  54
   1  -1 -15 4500.41 893.883  44
   1  -1 -15 4832.24 1080.56  54
   1  -1 -15 3663.93 772.932  51
   1  -1 -15 4763.59 1109.36  40
   1  -1 -14 27770.6 2433.34  54
   1  -1 -14 21979.5 1967.23  44
   1  -1 -13 32.9558 373.184  51
   1  -1 -13-275.799 595.887  54
   1  -1 -13 535.079 311.654  44
   1  -1 -12 1787.39 1067.29   6
   1  -1 -11 1179.00 834.769   6
  -1   1  11 389.082 663.984  15
   1  -1 -11 717.514 558.227   3
  -1   1  10 9265.42 2086.66  15
   1  -1 -10 11029.7 2039.59   6
   1  -1 -10 10081.4 2065.52   3
   1  -1  -9 107496. 6141.87   6
   1  -1  -9 102614. 5942.86   3
   1  -1  -8 30240.9 3166.22   6
   1  -1  -8 34530.4 3327.36   3
  -1   1   7 44263.9 1803.96  17
   1  -1  -7 45168.6 3534.98   3
   1  -1  -7 44604.3 3512.27   6
  -1   1   6 432189. 7482.14   4
  -1   1   6 422393. 5601.90  17
   1  -1  -6 432570. 10235.0   3
   1  -1  -6 436312. 10229.1   6
  -1   1   6 421181. 9854.55  15
   1  -1  -5 344246. 8605.10   6
  -1   1   5 345405. 5287.34  17
  -1   1   5 342353. 8262.48  15
  -1   1   4 220077. 6126.48  15
   1  -1  -4 217947. 6250.23   2
   1  -1  -4 219346. 6532.86   6
   1  -1  -3 119057. 4359.06   2
  -1   1   3 114023. 4148.00  15
   1  -1  -2 27348.4 1965.83   2
   1  -1  -1 4698.33 898.466   2
  -1   1   1 3859.86 606.689   9
  -1   1   0 631.868 558.520   9
   1  -1   0 535.397 219.485  12
   1  -1   0 188.632 348.583   2
   1  -1   0 309.254 243.201  13
   1  -1   1 56043.2 2478.95   2
  -1   1  -1 49438.4 2509.84  14
  -1   1  -2 71822.0 1692.88  16
  -1   1  -2 62650.1 3051.34  14
   1  -1   3 31334.9 2253.03  13
  -1   1  -3 29889.6 2303.00  14
  -1   1  -4 295997. 4922.02  17
  -1   1  -4 319890. 7514.55   8
   1  -1   4 316155. 7565.17  13
  -1   1  -4 326282. 8240.52  14
  -1   1  -5 34105.7 2760.63  14
  -1   1  -5 28452.5 1444.64  17
   1  -1   5 31312.5 2530.54  13
  -1   1  -5 33253.0 2662.44   8
  -1   1  -6 326.525 178.077  17
   1  -1   6 460.308 285.792  13
  -1   1  -6 638.804 597.510  14
  -1   1  -6 612.640 427.789   8
  -1   1  -7 59375.5 3991.05  14
   1  -1   7 58613.4 3989.38  13
  -1   1  -7 57103.3 3971.86   8
  -1   1  -8 22160.7 2511.35  14
   1  -1   8 20276.4 2489.96  13
  -1   1  -8 20535.2 2550.80   8
  -1   1  -9 11201.5 1927.50   8
   1  -1   9 12010.5 1960.34  13
  -1   1  -9 12203.6 1958.05  14
  -1   1 -10 16570.9 2563.24   8
   1  -1  10 17148.1 2546.65  13
  -1   1 -11 700.183 587.354   8
   1  -1  11 1255.59 754.354  13
  -1   1 -12 569.081 344.098  27
  -1   1 -12 99.4713 241.137  19
  -1   1 -12 874.344 711.926  40
   1  -1  12 459.512 599.443  13
  -1   1 -12 347.937 574.587   8
  -1   1 -13 13751.9 1364.42  27
  -1   1 -13 10816.6 1340.59  19
  -1   1 -13 14460.7 1630.72  54
  -1   1 -13 9810.86 2050.90   8
   1  -1  13 10726.5 2176.30  13
  -1   1 -14 299.189 268.355  19
  -1   1 -14 1669.47 723.960  54
   1  -1  14 262.663 879.566  12
  -1   1 -14 596.869 611.729  49
  -1   1 -14 2002.66 484.748  27
   1  -1  14 1017.64 1211.30  13
  -1   1 -14 377.666 1012.58   8
  -1   1 -15 7807.69 1232.34  54
  -1   1 -15 6468.34 1446.81  49
  -1   1 -15 7596.80 985.532  27
  -1   1 -15 6667.21 1032.37  19
  -1   1 -16 3022.78 725.835  19
  -1   1 -16 3058.37 1136.21  49
  -1   1 -16 3181.38 673.100  27
  -1   1 -16 3930.21 899.266  54
  -1   1 -17-238.307 409.050  49
  -1   1 -17-190.501 358.527  19
  -1   1 -17-430.037 525.241  54
  -1   1 -18 18778.3 1959.72  49
  -1   1 -18 18283.3 1734.21  54
  -1   1 -19 394.677 581.806  49
  -1   1 -19 744.782 475.757  54
  -1   1 -20 843.152 402.674  54
   1   0 -20 5774.85 777.310  54
   1   0 -19 8231.89 1157.82  49
   1   0 -19 6728.36 974.547  54
   1   0 -18 5828.81 1203.20  54
   1   0 -18 8030.34 1358.29  49
   1   0 -17 5866.19 1154.33  54
   1   0 -17 4502.37 840.455  44
   1   0 -17 6849.47 1218.85  49
   1   0 -17 6485.39 1000.56  40
   1   0 -16 396.916 332.681  44
   1   0 -16-110.767 480.340  49
   1   0 -16 463.664 520.821  54
   1   0 -16 12.5995 590.624  40
   1   0 -15 16893.3 1968.29  54
   1   0 -15 16428.5 2253.65  49
   1   0 -15 16137.4 1769.68  40
   1   0 -15 12985.3 1446.33  44
   1   0 -14 1924.13 748.220  54
   1   0 -14 1702.43 352.732  51
   1   0 -14 1628.13 685.338  40
   1   0 -14 1984.96 624.029  44
   1   0 -13 22542.7 1859.01  44
   1   0 -13 20083.6 2126.78  19
   1   0 -13 26464.1 2468.63  54
   1   0 -13 25246.7 1628.34  51
  -1   0  12 8901.87 1930.71  12
   1   0 -12 10718.1 1475.03  19
   1   0 -11 35092.8 4413.86   8
   1   0 -10 2582.60 1115.33   8
  -1   0  10 2673.42 749.442   4
   1   0  -9 1303.38 929.293   8
   1   0  -9 1261.74 512.373   3
   1   0  -9 1178.35 602.296   6
  -1   0   9 545.896 382.575   4
   1   0  -8 60924.7 4299.06   6
   1   0  -8 59155.8 4488.38   8
   1   0  -8 62811.5 4276.55   3
   1   0  -7 1583.84 626.068   3
   1   0  -7 1422.98 898.773   6
   1   0  -7 1468.59 752.773   8
   1   0  -7 1719.67 547.843   1
   1   0  -6 257765. 7617.72   6
   1   0  -6 239800. 7935.40   8
   1   0  -6 244147. 7571.34   3
  -1   0   6 251574. 6508.23   4
   1   0  -6 246498. 4862.62   1
   1   0  -5 14890.1 1831.25   6
   1   0  -5 15977.5 1048.60   1
   1   0  -5 16281.8 1802.25   8
  -1   0   5 15418.2 1450.08   4
   1   0  -5 15793.3 1846.79   3
   1   0  -4-368.328 621.945   1
   1   0  -4 304.261 306.122   3
  -1   0   4 31.2622 658.010   4
   1   0  -4 585.674 631.122   6
   1   0  -4 312.692 266.680   8
  -1   0   3 23767.1 1475.35   4
   1   0  -3 24257.3 1750.13   8
   1   0  -3 22436.7 2041.51   3
   1   0  -3 22805.5 1784.90   6
   1   0  -2 16141.3 1545.89   6
  -1   0   2 17322.6 1536.04   4
   1   0  -1 283803. 5635.88   2
  -1   0   1 275320. 3700.80  14
   1   0  -1 273002. 4900.70   6
   1   0   0 15606.2 1055.86  13
  -1   0   0 14425.4 1109.96  14
   1   0   0 16045.3 1260.48   2
  -1   0  -1 134542. 3692.49  14
   1   0   1 131806. 3330.26  13
   1   0   1 139143. 3115.36   2
  -1   0  -1 141736. 3282.13  15
   1   0   2 24954.8 1741.61  13
   1   0   2 24929.4 1273.85   2
  -1   0  -2 21747.2 1378.13   8
   1   0   3 842335. 6230.85   2
  -1   0  -3 821462. 9753.15   8
  -1   0  -4 635570. 10120.8  14
   1   0   4 622224. 10278.4  13
  -1   0  -4 632041. 9239.21   8
   1   0   4 599793. 10142.4  10
   1   0   5 309582. 7440.23  10
  -1   0  -5 301292. 7237.10   8
  -1   0  -5 302042. 7558.59  14
   1   0   5 306045. 7845.16  13
   1   0   6 39392.3 3100.85  13
  -1   0  -6 41859.1 2965.03   8
  -1   0  -6 42635.1 2995.73  14
  -1   0  -7 269.591 170.758  17
   1   0   7 208.393 502.079  13
  -1   0  -7 1377.08 754.408   8
  -1   0  -7 1340.28 760.307  14
  -1   0  -8 46137.4 3456.42  14
   1   0   8 42313.6 3682.88  13
  -1   0  -8 41594.1 3506.35   8
  -1   0  -9 58611.9 4489.62   8
  -1   0  -9 64777.3 4263.37  14
   1   0   9 62914.2 4725.15  13
  -1   0 -10 45333.8 4266.78   8
  -1   0 -10 46981.3 3780.92  14
   1   0  10 46192.8 4239.29  13
  -1   0 -11 28979.5 3610.79   8
  -1   0 -11 32988.7 3335.33  14
   1   0  11 30651.5 3668.66  13
   1   0  12 40492.9 4365.89  13
  -1   0 -12 40008.0 4479.50   8
  -1   0 -13 3171.65 567.273  40
  -1   0 -13 3796.07 904.412  19
  -1   0 -13 4297.58 1579.75   8
   1   0  13 3706.76 1243.27  13
  -1   0 -14 10182.1 1487.91  40
  -1   0 -14 9298.73 1273.50  19
   1   0  14 9081.86 2206.04  13
  -1   0 -14 12731.6 1749.03  54
  -1   0 -14 9727.12 2217.49   8
  -1   0 -15 12851.9 1630.68  19
  -1   0 -15 17658.6 1950.55  54
  -1   0 -15 15396.9 1693.84  40
  -1   0 -16 17643.7 1841.44  19
  -1   0 -16 20254.1 2141.81  54
  -1   0 -17 141.362 275.838  19
  -1   0 -17 424.871 442.000  54
  -1   0 -17 487.338 491.743  49
  -1   0 -18 3887.51 951.417  54
  -1   0 -18 2850.38 963.615  49
  -1   0 -19 19401.3 1662.23  54
  -1   0 -19 19084.4 1850.84  49
  -1   0 -20 15177.7 1417.09  49
  -1   0 -20 12766.0 1258.02  54
  -1   0 -21 1590.83 416.377  54
   1   1 -20 2600.31 557.239  54
   1   1 -19 4749.02 860.938  54
   1   1 -18 3737.06 831.151  54
   1   1 -18 3582.08 623.873  44
   1   1 -18 5207.32 1164.79  49
   1   1 -17 12706.3 1613.27  54
   1   1 -17 11684.3 1241.80  44
   1   1 -16 3322.09 938.853  54
   1   1 -16 4009.62 1172.84  49
   1   1 -16 2629.16 642.249  44
   1   1 -15 7330.88 1265.61  54
   1   1 -15 5913.67 939.940  44
   1   1 -15 7951.38 1592.62  49
   1   1 -14 461.074 513.308  19
   1   1 -14 915.910 675.189  49
   1   1 -14 166.804 473.307  44
   1   1 -14 1021.50 564.984  54
   1   1 -14 838.475 1128.74   8
   1   1 -13 13917.3 1694.75  19
   1   1 -13 17661.3 1952.28  54
   1   1 -13 17223.0 3386.26   8
   1   1 -13 19020.3 2159.29  49
   1   1 -13 15795.6 1443.22  44
   1   1 -12 3773.50 862.682  19
   1   1 -12 4208.98 1568.94   8
  -1  -1  12 3212.42 1093.52  12
   1   1 -12 5338.84 1144.15  54
   1   1 -11 8206.60 1997.64   8
  -1  -1  11 7915.45 1601.99  12
  -1  -1  10 17922.5 2457.48  13
   1   1 -10 19087.1 2951.95   8
   1   1  -9 8517.33 1817.44   8
  -1  -1   9 7554.72 1480.79  12
  -1  -1   9 10181.9 1621.38  13
  -1  -1   8 1324.65 723.684  13
  -1  -1   8 1462.05 697.242  12
   1   1  -8 1100.70 346.319   8
   1   1  -7 3261.78 966.596   1
  -1  -1   7 1651.13 758.140  12
  -1  -1   7 1629.39 641.736  13
   1   1  -7 2335.21 903.255   8
   1   1  -6 1959.69 736.752   8
  -1  -1   6 1443.71 531.284  12
   1   1  -6 2377.91 886.358   3
   1   1  -5 17004.8 1309.96   1
   1   1  -5 15906.5 1843.61   3
   1   1  -5 15166.6 1792.22   8
   1   1  -4 902.518 405.777   3
  -1  -1   4 641.157 400.192  12
   1   1  -4 805.036 333.094   8
   1   1  -4 731.444 591.795   1
   1   1  -3 19575.7 1847.28   3
   1   1  -3 21089.5 1323.88   1
   1   1  -3 22131.7 1636.62   8
  -1  -1   3 17568.4 1291.26  12
   1   1  -2 159706. 3619.64   1
   1   1  -2 180935. 3908.25   8
   1   1  -2 177689. 4963.17   3
  -1  -1   2 153426. 3541.42  12
   1   1  -1 138163. 3083.81  10
  -1  -1   1 141295. 2944.52  12
   1   1  -1 139108. 2732.56   8
   1   1  -1 130767. 3937.44   3
  -1  -1   0 3244.85 634.692  12
   1   1   0 2352.06 671.594   3
  -1  -1   0 2171.13 662.533  14
   1   1   0 2352.32 366.407  13
   1   1   0 2476.73 605.955  10
   1   1   1 148552. 3470.79  13
   1   1   1 150466. 2999.85   3
  -1  -1  -2 248470. 4531.05   9
  -1  -1  -2 238614. 3418.95  15
  -1  -1  -3 509374. 6667.54   9
  -1  -1  -3 501946. 6837.47   8
  -1  -1  -4 170172. 5216.92  14
  -1  -1  -4 171284. 4715.33   8
   1   1   4 159497. 5056.95  10
  -1  -1  -4 166512. 3347.16   6
   1   1   5 452070. 8992.49  10
  -1  -1  -5 467320. 8899.29   8
  -1  -1  -5 464803. 9289.44  14
  -1  -1  -5 468730. 6656.53   6
  -1  -1  -6 10004.9 1456.10  14
   1   1   6 9369.17 1374.97  10
  -1  -1  -6 10109.6 1104.76   6
  -1  -1  -6 9887.67 1466.21   8
  -1  -1  -7 499.558 530.587   8
   1   1   7 558.648 584.406  10
  -1  -1  -7 672.007 494.614  14
   1   1   7 778.672 681.716  13
  -1  -1  -8 110333. 5185.69  14
  -1  -1  -8 103149. 5648.12   8
   1   1   8 105530. 5118.11  10
   1   1   8 104963. 6154.81  13
   1   1   9 38028.5 3143.12  10
  -1  -1  -9 35186.3 3591.56   8
  -1  -1  -9 36504.9 3248.86  14
   1   1   9 36422.2 3766.86  13
   1   1  10 67463.7 5476.21  13
  -1  -1 -10 65172.0 5206.96   8
  -1  -1 -10 71568.5 4730.23  14
   1   1  10 73862.1 4637.95  10
  -1  -1 -11 2961.29 1250.50   8
   1   1  11 2514.27 1032.43  13
  -1  -1 -11 2312.86 857.242  14
  -1  -1 -12 423.788 462.913   8
  -1  -1 -12 391.595 507.402  14
   1   1  12 376.145 825.147  13
  -1  -1 -13 6196.57 1132.00  40
  -1  -1 -13 6242.16 1040.54  19
  -1  -1 -13 5191.23 1664.79   8
   1   1  13 6166.85 1741.76  13
   1   1  14 2776.54 1598.94  13
  -1  -1 -14 2714.13 784.465  40
  -1  -1 -14 1833.02 664.165  19
  -1  -1 -14 2453.22 1043.01  54
  -1  -1 -15 1374.44 821.278  54
  -1  -1 -15 2767.14 1023.32  40
  -1  -1 -15 2740.85 837.544  19
  -1  -1 -16 4430.57 1126.90  54
  -1  -1 -16 5770.64 1056.41  40
  -1  -1 -17 16791.7 1790.75  40
  -1  -1 -18 5010.31 1144.66  49
  -1  -1 -18 4860.89 1085.01  54
  -1  -1 -19 1912.40 594.854  54
  -1  -1 -19 764.284 465.643  49
  -1  -1 -20 2727.88 690.868  49
  -1  -1 -20 2068.45 576.175  54
  -1  -1 -21 14642.5 1242.22  49
  -1  -1 -21 13881.6 1015.82  54
   1   2 -20 931.563 380.745  54
   1   2 -19 3724.27 711.717  54
   1   2 -18 16.2554 367.588  54
   1   2 -18 131.236 233.229  44
   1   2 -17 1457.77 469.551  44
   1   2 -17 1752.65 626.651  54
   1   2 -16 16760.1 1895.87  54
   1   2 -16 15077.0 1775.57  19
   1   2 -16 14965.1 1441.34  44
   1   2 -16 19720.4 2256.79  49
   1   2 -15 917.841 571.205  19
   1   2 -15 1685.63 837.226  54
   1   2 -15 1750.48 649.440  49
   1   2 -15 1350.58 522.920  44
   1   2 -14 580.107 438.797  44
   1   2 -14-36.7319 360.471  19
   1   2 -14 135.474 659.801  49
   1   2 -14 718.909 768.264  54
  -1  -2  14-80.2122 1268.48  12
   1   2 -14 1796.62 1327.65   8
   1   2 -13 10157.1 1585.39  49
   1   2 -13 9160.12 1187.28  44
  -1  -2  13 8176.95 1944.11  12
   1   2 -13 7929.52 1286.07  19
   1   2 -13 9866.83 1493.93  54
   1   2 -13 9610.28 2350.95   8
   1   2 -12 82188.4 3811.29  19
   1   2 -12 85295.1 4153.37  54
   1   2 -12 73753.6 3266.44  44
   1   2 -12 81485.1 6871.65   8
  -1  -2  12 77979.6 6124.29  12
   1   2 -12 86404.3 4454.24  49
   1   2 -11 394.130 453.455   8
  -1  -2  11 307.047 736.038  12
  -1  -2  10 9267.62 1751.01  12
   1   2 -10 8778.04 1909.08   8
   1   2  -9 3741.30 1256.44   8
  -1  -2   9 5157.41 1244.79  12
   1   2  -8 125280. 6675.18   8
  -1  -2   8 120559. 5860.72  12
  -1  -2   8 128999. 4816.54  13
  -1  -2   7 225.479 371.490  12
   1   2  -7 564.316 562.173   8
  -1  -2   7 277.077 244.168  13
   1   2  -7-662.636 930.521   1
  -1  -2   6 387642. 6681.42  13
   1   2  -6 395021. 8263.03   1
   1   2  -5 12319.0 1245.70   1
  -1  -2   5 11259.2 1490.77  12
  -1  -2   5 11934.0 1003.89  13
   1   2  -5 12011.9 1755.77   8
   1   2  -4 129699. 4168.29   1
  -1  -2   4 116205. 4345.41  12
  -1  -2   4 112047. 2672.36  13
   1   2  -4 123025. 4941.00   8
   1   2  -3-56.6199 447.852   1
  -1  -2   3-436.803 707.231  12
   1   2  -3-169.132 379.284   8
  -1  -2   2 22980.3 1634.84  12
   1   2  -2 24114.9 1733.33   1
  -1  -2   1 208638. 4850.96  12
   1   2  -1 218288. 4852.21   1
  -1  -2   0 14489.3 1303.32  12
   1   2   0 12737.1 1168.96   1
  -1  -2   0 13709.9 1209.30   4
   1   2   1 242834. 5004.93   7
  -1  -2  -1 252170. 4634.73   4
   1   2   2 773.024 463.668   7
   1   2   3 9769.15 942.919   7
  -1  -2  -3 8666.90 1177.50  14
  -1  -2  -3 9452.95 570.871   9
  -1  -2  -4 395178. 8248.07  14
  -1  -2  -4 371534. 6322.24   9
  -1  -2  -5 50435.3 3178.79  14
  -1  -2  -6 39943.2 2502.28   6
  -1  -2  -6 40842.5 3036.49  14
   1   2   6 38554.1 3124.32  10
  -1  -2  -7 87845.0 4508.46  14
  -1  -2  -7 78695.3 3877.01   6
   1   2   7 77337.4 4500.05  10
  -1  -2  -8 12934.1 1726.98  14
  -1  -2  -8 12955.2 1588.32   6
   1   2   8 13380.4 1942.71  10
  -1  -2  -9 10019.3 1585.32   6
   1   2   9 9139.23 1602.66  10
  -1  -2  -9 7662.11 1517.37  14
   1   2  10 8844.09 1622.75  10
  -1  -2 -10 7407.17 1507.76  14
  -1  -2 -10 9349.16 1488.52   6
   1   2  11 30456.9 3340.38  10
  -1  -2 -11 30165.9 3275.99  14
   1   2  12 7617.60 2352.11  13
  -1  -2 -12 9534.60 1814.80  14
  -1  -2 -13 1290.49 627.497  40
   1   2  13 1266.16 1031.72  13
  -1  -2 -14 1932.64 792.979  40
   1   2  14 828.185 670.120  13
  -1  -2 -14 1709.77 755.499  54
  -1  -2 -15 826.846 810.248  40
  -1  -2 -15 178.773 653.968  54
  -1  -2 -16 30092.4 2551.72  40
  -1  -2 -17 1391.47 753.786  40
  -1  -2 -17 302.138 386.712  54
  -1  -2 -18 2166.90 800.131  40
  -1  -2 -18 1254.05 613.097  54
  -1  -2 -19 2530.19 721.031  49
  -1  -2 -19 2818.79 687.783  54
  -1  -2 -20 14284.0 1471.65  49
  -1  -2 -20 13119.3 1235.70  54
  -1  -2 -21 363.722 238.513  49
   1   3 -20 2003.81 496.488  54
   1   3 -19 2887.53 654.177  54
   1   3 -18 2938.03 737.416  54
   1   3 -18 2738.95 512.016  44
   1   3 -17 2249.88 587.410  19
   1   3 -17 2465.13 599.283  44
   1   3 -17 2780.57 808.655  54
   1   3 -16 3954.90 950.851  54
   1   3 -16 3079.91 795.514  19
   1   3 -16 3231.95 695.182  44
   1   3 -15 20884.2 2145.88  54
   1   3 -15 19645.3 1979.66  19
   1   3 -15 19503.2 2838.59  49
   1   3 -15 18496.2 1610.14  44
   1   3 -14-122.082 415.558  19
   1   3 -14 643.488 1470.90  49
   1   3 -14 336.772 522.127  54
   1   3 -14 349.740 435.604  44
   1   3 -13 63467.5 4488.10  49
   1   3 -13 64820.1 3685.73  19
   1   3 -13 57876.2 3052.54  44
   1   3 -13 60630.9 3793.74  54
  -1  -3  13 70561.8 6262.62  12
   1   3 -13 73306.6 6718.27   8
   1   3 -12 4025.90 779.823  44
   1   3 -12 4916.07 1693.74   8
   1   3 -12 3390.10 944.352  49
   1   3 -12 4059.05 930.367  19
   1   3 -12 4310.65 1027.48  54
  -1  -3  12 4964.35 1467.70  12
   1   3 -11 265.517 656.515  44
   1   3 -11 445.289 399.719  19
   1   3 -11 426.702 864.473   8
   1   3 -11 468.358 493.539  49
   1   3 -11 460.935 435.629  54
  -1  -3  11 451.308 572.899  12
  -1  -3  10 3243.89 1207.02  12
   1   3 -10 2800.36 946.430   8
  -1  -3   9 25773.4 3176.76  12
   1   3  -9 24552.6 3320.34   8
  -1  -3   8 46803.7 3985.49  12
   1   3  -8 48644.0 4333.12   8
   1   3  -7 71299.8 4068.04   1
  -1  -3   7 62340.6 4325.48  12
   1   3  -7 59957.7 4641.54   8
  -1  -3   6 417.673 664.596  12
   1   3  -6 628.273 590.128   1
   1   3  -6 282.444 454.824   8
   1   3  -5 4038.70 1116.54   1
   1   3  -5 2594.93 947.304   8
  -1  -3   5 4871.44 1462.92  12
  -1  -3   4 16786.2 1929.39  12
   1   3  -4 18837.3 1991.34   1
  -1  -3   3 73095.0 3877.72  12
   1   3  -3 78972.8 3734.24   1
   1   3  -2 25022.0 1971.27   1
  -1  -3   2 21422.5 2018.84  12
   1   3  -1 121.332 330.141   1
   1   3  -1-45.5679 436.471   7
  -1  -3   1 863.780 483.906  12
   1   3   0-166.237 450.001   1
  -1  -3   0-246.003 568.302  12
  -1  -3   0-85.5176 541.058   4
   1   3   0-156.555 452.768   7
  -1  -3  -1 4074.22 729.426  12
   1   3   1 3397.66 576.414   1
  -1  -3  -1 3704.89 482.556   4
  -1  -3  -2 44300.2 2830.05  12
   1   3   2 40627.7 2535.24   7
   1   3   2 38404.8 2112.09   1
   1   3   3 96845.9 3252.74   1
  -1  -3  -3 104252. 4642.59  12
   1   3   4 48155.7 2197.31   1
  -1  -3  -4 39588.7 2981.91  14
  -1  -3  -5 9528.93 922.660   2
  -1  -3  -5 9528.11 1539.64  14
  -1  -3  -6 137701. 3620.03   2
  -1  -3  -6 150013. 5906.68  14
   1   3   6 148245. 3807.39   1
  -1  -3  -7 107010. 4936.57   6
  -1  -3  -7 99717.3 5136.27  14
  -1  -3  -8 10589.6 1599.84   6
  -1  -3  -8 8868.80 1700.15  14
   1   3   8 8277.48 1471.44  11
   1   3   8 10572.6 1880.19  10
  -1  -3  -9-372.248 747.030   6
   1   3   9-143.444 400.559  10
  -1  -3  -9 392.326 666.110  14
   1   3  10 23906.3 3165.47  10
  -1  -3 -10 26539.6 2802.62   6
  -1  -3 -10 23714.8 2948.71  14
   1   3  11 3632.94 1295.11  10
  -1  -3 -11 3381.51 1134.69  14
   1   3  12 554.204 700.574  10
  -1  -3 -12 924.830 494.640  29
  -1  -3 -12 790.865 659.062  48
  -1  -3 -13 30400.9 2667.63  40
  -1  -3 -13 35210.1 2641.68  48
  -1  -3 -14 25696.8 2246.63  40
  -1  -3 -15 4897.27 1065.83  40
  -1  -3 -15 2915.60 855.048  54
  -1  -3 -16 8699.08 1467.63  40
  -1  -3 -17 8300.55 1289.26  40
  -1  -3 -17 5695.84 1172.73  54
  -1  -3 -18 216.337 264.834  54
  -1  -3 -18-85.9413 365.437  40
  -1  -3 -19 966.404 359.633  54
  -1  -3 -19 2966.33 698.054  40
  -1  -3 -20 1194.14 516.646  49
  -1  -3 -21-16.4025 213.537  49
   1   4 -19 1130.54 496.599  54
   1   4 -18 351.492 219.237  54
   1   4 -18 441.036 246.799  44
   1   4 -17 3458.75 701.929  19
   1   4 -17 3710.30 768.936  54
   1   4 -17 3784.83 651.224  44
   1   4 -16 12395.7 1505.45  54
   1   4 -16 12332.2 1413.68  19
   1   4 -16 10753.1 1134.08  44
   1   4 -15 9380.13 1455.03  54
   1   4 -15 9460.20 1367.92  19
   1   4 -15 9296.80 1148.14  44
   1   4 -14 10894.1 1455.73  19
   1   4 -14 9150.93 1506.97  54
   1   4 -14 8505.88 1177.10  44
   1   4 -13 5229.74 1068.42  19
   1   4 -13 5849.12 1126.61  54
   1   4 -13 5036.36 947.010  44
  -1  -4  12 28299.2 4097.40  12
   1   4 -12 26427.5 2460.02  19
   1   4 -12 26538.3 2478.74  54
   1   4 -12 29357.0 4229.10   8
   1   4 -12 23164.7 2069.20  44
   1   4 -11 2706.84 917.836  19
   1   4 -11 2781.54 1254.71   8
   1   4 -11 2568.36 896.051  54
  -1  -4  11 2855.28 991.078  12
   1   4 -10 7058.07 1160.73  54
  -1  -4  10 5751.30 1596.77  12
   1   4 -10 6761.80 1230.94  19
   1   4 -10 6013.40 787.408  34
   1   4 -10 6420.41 1820.23   8
  -1  -4   9 11116.4 2522.74  12
   1   4  -9 9904.41 2236.39   8
   1   4  -8 18647.1 2936.02   8
  -1  -4   8 19129.9 3001.56  12
  -1  -4   7 7959.84 1864.90  12
   1   4  -7 6918.36 1788.95   8
  -1  -4   6 54972.4 4294.82  12
   1   4  -6 50872.9 4593.23   8
   1   4  -6 64477.9 4239.44   1
  -1  -4   5 84122.3 5462.73  12
   1   4  -5 104200. 5277.03   1
  -1  -4   4 69834.0 4613.05  12
   1   4  -4 81940.9 4583.94   1
   1   4  -3 6502.25 1528.20   1
  -1  -4   3 7983.02 1470.58  12
   1   4  -2 5040.23 1168.83   1
  -1  -4   2 4299.88 1118.20  12
   1   4  -1 263.384 478.919   7
   1   4  -1 1322.59 688.473   1
  -1  -4   1 219.687 418.916  12
  -1  -4   0 477.907 555.252  12
   1   4   0 106.815 353.221   1
   1   4   0 349.819 605.500   7
   1   4   1 11704.5 1448.17   1
  -1  -4  -1 14378.4 1884.04  12
   1   4   1 13651.4 1693.73   7
  -1  -4  -2 8395.89 1462.12  12
  -1  -4  -2 8607.28 1176.22   4
   1   4   2 8300.63 1390.85   1
   1   4   2 9024.75 1588.32   7
  -1  -4  -3 155494. 6310.60  12
   1   4   3 154619. 5588.27   7
   1   4   3 142189. 4498.00   1
  -1  -4  -4 66227.4 3351.94   2
   1   4   4 68732.6 2997.50   1
  -1  -4  -5 72206.3 3257.47   2
  -1  -4  -5 65416.7 4231.37  14
  -1  -4  -6 78266.2 3390.58   2
  -1  -4  -6 73725.7 4604.27  14
  -1  -4  -7 4507.12 1260.94  14
  -1  -4  -8 6887.23 1430.17   6
  -1  -4  -8 5658.58 1392.63  14
  -1  -4  -9 9433.74 1875.64  14
  -1  -4  -9 11750.2 1914.48   6
  -1  -4 -10 6661.75 1641.85   6
  -1  -4 -10 4824.33 1249.44  14
   1   4  10 5513.30 1631.19  10
  -1  -4 -11 4687.72 1086.45  48
   1   4  11 2851.91 1376.43  10
  -1  -4 -11 2904.50 1266.26  14
  -1  -4 -11 3360.74 668.071  29
  -1  -4 -12 19797.2 1609.49  29
  -1  -4 -12 25138.6 2256.21  48
   1   4  12 23696.1 3586.91  10
  -1  -4 -13 14983.1 1907.89  48
  -1  -4 -13 10664.0 1237.40  29
  -1  -4 -14 3143.20 1013.16  40
  -1  -4 -14 4668.79 1285.50  48
  -1  -4 -15 5259.86 1253.25  40
  -1  -4 -16 3342.07 996.160  40
  -1  -4 -17-149.152 392.902  40
  -1  -4 -18 212.771 375.475  40
  -1  -4 -19 932.477 504.935  40
  -1  -4 -20 1120.49 375.042  49
   1   5 -17 836.555 439.859  54
   1   5 -17 1438.56 415.644  44
   1   5 -17 1535.24 418.358  19
   1   5 -16 7328.78 861.742  44
   1   5 -16 7954.05 1006.36  19
   1   5 -16 8564.41 1206.22  54
   1   5 -15 2750.75 578.416  44
   1   5 -15 3909.43 805.724  19
   1   5 -15 3495.53 835.088  54
   1   5 -14 2355.89 706.607  44
   1   5 -14 2282.36 669.206  19
   1   5 -14 2592.78 874.989  54
   1   5 -13 29181.0 2513.93  54
   1   5 -13 31525.2 2514.41  19
   1   5 -12 3875.80 1049.11  19
   1   5 -12 3464.58 975.669  54
   1   5 -12 2805.09 771.460  44
  -1  -5  11-150.837 1164.14  12
   1   5 -11 1040.79 667.768  19
   1   5 -11 317.185 1249.48   8
   1   5 -11 986.578 730.274  54
   1   5 -10 1583.16 652.327  34
  -1  -5  10 836.245 942.801  12
   1   5 -10 1057.40 709.202  19
   1   5 -10 1345.59 697.959  54
   1   5 -10 131.075 1078.66   8
   1   5  -9 4641.35 851.452  34
   1   5  -9 4324.94 1650.25   8
   1   5  -9 5530.63 1177.41  19
  -1  -5   9 3299.16 1828.87  12
   1   5  -9 4317.69 1070.48  54
  -1  -5   8 61.4302 884.251  12
   1   5  -8-240.302 1000.53   8
  -1  -5   7 10146.4 2437.79  12
   1   5  -7 10114.0 2302.11   8
   1   5  -6 56681.7 5243.23   8
  -1  -5   6 59587.9 5322.82  12
  -1  -5   5 28502.0 3543.47  12
   1   5  -5 38874.8 3479.93   1
   1   5  -4-180.320 644.812   1
  -1  -5   4 581.186 430.970  12
   1   5  -3 4994.64 1211.05   1
  -1  -5   3 4757.69 1285.59  12
  -1  -5   2 691.654 705.279  12
   1   5  -2 635.868 601.727   1
  -1  -5   1 13921.9 2100.57  12
   1   5  -1 12707.3 1885.13   7
  -1  -5   0-9.07262 561.716  12
   1   5   0 474.091 483.097   7
   1   5   0 196.480 511.825   1
   1   5   1 25001.4 2357.52   1
  -1  -5  -1 29385.6 2489.25   4
   1   5   1 33961.6 2901.47   7
  -1  -5  -1 30445.4 3175.82  12
   1   5   2 17167.4 1840.90   1
  -1  -5  -2 21430.0 2577.76  12
   1   5   2 22536.0 2371.69   7
   1   5   3 15079.4 1715.10   1
   1   5   3 20954.6 2326.87   7
  -1  -5  -3 15082.5 2460.93  12
  -1  -5  -4 130199. 5421.06   2
   1   5   4 130012. 5784.50   7
  -1  -5  -5 4669.45 1046.19   2
  -1  -5  -6 16922.5 2682.87  14
  -1  -5  -7 1207.74 364.343  14
  -1  -5  -8 59528.6 4937.47  14
  -1  -5  -9 36192.5 3729.37   6
  -1  -5  -9 31066.8 3607.74  14
  -1  -5 -10 196.922 431.479  14
  -1  -5 -10 901.060 564.511  46
  -1  -5 -10 112.324 347.422  29
  -1  -5 -11 82.4106 493.075  29
  -1  -5 -11 152.965 547.428  32
   1   5  11-491.089 1041.38  10
  -1  -5 -11 708.647 561.384  46
  -1  -5 -12 386.440 394.713  29
   1   5  12-481.356 1080.29  10
  -1  -5 -12 221.150 684.745  48
  -1  -5 -13 42889.5 3151.26  48
  -1  -5 -14 5663.90 1200.08  48
  -1  -5 -15 3381.08 1110.73  40
  -1  -5 -15 4593.87 1028.98  48
  -1  -5 -16 281.911 407.706  40
  -1  -5 -17 920.855 521.993  40
  -1  -5 -18 4896.74 949.951  40
  -1  -5 -19 531.837 446.626  40
  -1  -5 -20 6201.58 809.221  49
   1   6 -17-176.605 216.985  44
   1   6 -16 11104.1 1056.82  19
   1   6 -16 8452.48 830.153  44
   1   6 -15 2346.48 580.623  19
   1   6 -15 1938.07 532.654  54
   1   6 -15 1998.94 513.099  44
   1   6 -14 1652.57 601.349  44
   1   6 -14 2225.90 666.267  19
   1   6 -14 2567.06 778.938  54
   1   6 -13 4004.80 898.389  54
   1   6 -13 3679.97 851.040  19
   1   6 -13 3427.23 848.584  44
   1   6 -12 4393.83 989.253  19
   1   6 -12 2963.34 810.612  54
   1   6 -12 3527.44 958.297  44
   1   6 -11 8429.43 1114.09  34
   1   6 -11 9097.95 1400.91  54
   1   6 -10 17331.4 1517.26  34
   1   6  -9 42709.5 2361.18  34
  -1  -6   9 52463.7 5841.24  12
  -1  -6   8 70756.2 6294.34  12
   1   6  -8 56883.9 2708.14  34
   1   6  -7 4964.62 2019.32   8
  -1  -6   7 8302.00 2372.24  12
   1   6  -7 7428.36 1025.89  34
  -1  -6   6 7686.24 2201.70  12
   1   6  -6 8875.65 1038.87  34
   1   6  -6 6904.38 2008.31   8
  -1  -6   5 31868.7 4144.59  12
  -1  -6   4 815.396 982.435  12
  -1  -6   3-529.475 783.479  12
  -1  -6   2 4270.75 1514.57  12
   1   6  -2 3822.70 1309.38   1
  -1  -6   1 6332.75 1706.56  12
   1   6  -1 7272.08 1526.25   7
   1   6  -1 6146.98 1533.92   1
   1   6   0-41.9220 602.798   1
  -1  -6   0-291.503 751.602  12
   1   6   0-265.608 845.922   7
   1   6   1-7.46330 441.507   7
  -1  -6  -1 793.165 575.670  12
   1   6   1 270.863 727.060   1
   1   6   2 8886.96 1694.47   7
   1   6   2 8208.85 1754.81   1
  -1  -6  -2 6220.61 1764.04  12
  -1  -6  -3 18248.1 2996.05  12
   1   6   3 20946.4 2630.59   7
   1   6   3 20053.3 2237.60   1
  -1  -6  -4 24389.3 2832.55   2
   1   6   4 24057.0 2834.74   7
  -1  -6  -5 19372.7 2371.77   2
   1   6   5 19059.4 2582.80   7
   1   6   6-90.5304 561.089   7
  -1  -6  -6 452.380 797.250  14
  -1  -6  -7 641.828 555.280  14
   1   6   7 1152.67 1100.15   7
  -1  -6  -8 4007.94 1477.64  14
  -1  -6  -8 3469.24 955.243  46
  -1  -6  -9 3140.25 1395.50  14
  -1  -6  -9 3536.19 1015.14  46
  -1  -6 -10 42448.3 2814.50  32
  -1  -6 -10 43601.0 2889.58  46
   1   6  10 40794.4 3871.22   7
  -1  -6 -11 2766.64 877.657  46
  -1  -6 -11 3193.62 830.161  32
   1   6  11 2866.06 1504.87  10
  -1  -6 -12 29129.0 2695.18  48
  -1  -6 -13 13528.0 1860.60  48
  -1  -6 -14 3558.50 879.234  48
  -1  -6 -15 677.782 509.822  48
  -1  -6 -15-3.18807 449.494  40
  -1  -6 -16 5408.01 1016.67  40
  -1  -6 -17 4430.54 904.951  40
  -1  -6 -18-360.810 330.205  40
  -1  -6 -19 2914.28 611.376  40
   1   7 -16 499.673 266.490  44
   1   7 -15 3209.73 526.659  19
   1   7 -15 2179.69 381.310  44
   1   7 -14 858.003 384.554  19
  -1  -7  14 720.205 466.677  45
   1   7 -14 668.659 449.353  44
   1   7 -13 848.393 480.104  44
   1   7 -13 480.861 290.208  19
  -1  -7  13 422.100 309.511  45
   1   7 -12 108.873 248.667  19
  -1  -7  12-320.027 539.757  45
   1   7 -12 729.402 572.774  44
   1   7 -11 1713.10 718.266  19
   1   7 -10 56.3282 376.500  19
   1   7 -10 643.437 424.594  34
   1   7  -9 14510.2 1446.34  34
   1   7  -8-151.607 383.089  34
   1   7  -7 48447.9 2682.69  34
   1   7  -7 43772.4 2173.20  25
   1   7  -6 6259.70 1115.95  34
  -1  -7   6 7450.73 2062.56  12
   1   7  -6 2480.97 1376.15   8
   1   7  -6 5970.96 704.479  25
   1   7  -6 4254.74 946.398  47
  -1  -7   5 9725.75 2402.65  12
  -1  -7   5 9515.05 1516.24  45
   1   7  -5 8467.30 1018.23  25
   1   7  -5 8431.70 1212.66  47
   1   7  -5 10397.0 1244.67  34
   1   7  -4 556.809 585.144  47
  -1  -7   4 947.948 728.897  12
   1   7  -4 1025.37 391.098  34
   1   7  -4 651.895 339.335  25
  -1  -7   4 903.689 549.387  45
   1   7  -3 19135.5 1762.33  47
   1   7  -3 22229.2 1553.68  25
  -1  -7   3 19664.6 1956.48  45
  -1  -7   3 22674.5 3641.67  12
   1   7  -3 23184.2 1872.37  34
  -1  -7   2 18441.0 3397.80  12
   1   7  -2 22361.0 1841.80  34
   1   7  -2 21259.7 1623.24  25
   1   7  -2 18884.9 1812.09  47
   1   7  -2 20983.3 1589.75  35
  -1  -7   2 18946.0 1847.83  45
   1   7  -1-544.161 408.272  25
   1   7  -1 102.965 555.720  47
  -1  -7   1-252.768 729.650  12
   1   7  -1-119.933 327.121  35
  -1  -7   1 89.8589 372.794  45
  -1  -7   0 393.826 484.668  12
   1   7   0 2005.02 473.656  35
   1   7   0 1580.63 899.272   7
   1   7   0 914.791 304.519  25
  -1  -7   0 2332.72 906.391  45
  -1  -7  -1 459.046 725.887  12
   1   7   1-65.7090 495.079   7
   1   7   2 10889.8 2149.88   7
  -1  -7  -2 12042.4 2451.45   2
  -1  -7  -2 8626.79 2524.79  12
   1   7   3 5015.80 1437.20   7
  -1  -7  -3 2694.45 1371.09  12
   1   7   3 5637.32 847.611  35
  -1  -7  -3 3914.47 1223.88   2
  -1  -7  -4 3321.42 1193.33   2
  -1  -7  -4 3979.19 774.075  46
   1   7   4 2971.70 748.780   7
   1   7   4 5214.62 866.621  35
  -1  -7  -5 6485.34 1156.63  46
   1   7   5 8392.44 1905.00   7
   1   7   5 10212.6 1123.81  25
   1   7   5 10464.1 1200.40  35
  -1  -7  -6 7411.05 1179.76  36
   1   7   6 10793.4 1123.15  35
  -1  -7  -6 7032.64 1277.82  46
  -1  -7  -6 6384.02 2049.07  14
   1   7   6 9223.36 1954.27   7
  -1  -7  -7 15609.0 2838.43  14
   1   7   7 19900.7 1490.21  35
  -1  -7  -7 20792.9 2034.82  46
   1   7   7 19322.3 2772.20   7
  -1  -7  -8 1214.85 586.193  46
   1   7   8-195.184 1177.28   7
  -1  -7  -8 834.778 706.955  14
  -1  -7  -9 69792.6 3692.70  46
   1   7   9 77081.5 5964.61   7
  -1  -7 -10 4267.64 932.370  32
  -1  -7 -10 3150.78 1039.49  46
  -1  -7 -11 5704.18 1025.53  32
  -1  -7 -11 5081.58 1096.87  46
  -1  -7 -12 1863.42 991.407  48
  -1  -7 -13 100120. 4701.44  48
  -1  -7 -14 685.782 577.177  48
  -1  -7 -15 3022.04 826.056  40
  -1  -7 -15 3585.62 821.560  48
  -1  -7 -16-165.156 471.756  40
  -1  -7 -17 1387.99 456.642  40
  -1  -7 -18 428.609 374.414  40
   1   8 -14-23.4328 157.113  19
   1   8 -14 41.2311 266.322  44
   1   8 -13 708.659 341.640  44
  -1  -8  13 614.967 352.706  45
   1   8 -13 746.954 224.030  19
   1   8 -12 4351.52 694.776  19
   1   8 -12 2334.43 734.961  44
  -1  -8  12 4458.18 868.921  45
   1   8 -11 155.189 288.466  44
   1   8 -11 458.789 392.682  19
  -1  -8  11-74.8026 386.571  45
   1   8 -10 3398.19 769.049  19
   1   8 -10 4393.56 784.287  34
  -1  -8  10 4928.99 879.019  45
   1   8  -9 1692.01 605.994  19
  -1  -8   9 2813.97 875.339  45
   1   8  -9 2271.05 569.869  34
   1   8  -8 11046.5 1301.16  34
   1   8  -8 10374.3 1466.29  19
   1   8  -8 10665.9 956.719  25
  -1  -8   8 13629.4 1643.89  45
   1   8  -7 502.477 328.051  25
   1   8  -7 1089.58 519.559  34
  -1  -8   7 768.811 582.197  45
   1   8  -6 2691.16 586.253  25
   1   8  -6 2602.55 825.778  47
   1   8  -6 3462.81 808.338  34
  -1  -8   6 2863.09 783.433  45
   1   8  -5 10888.9 1191.55  34
   1   8  -5 10789.4 1178.73  25
  -1  -8   5 10985.3 1497.34  45
   1   8  -5 8583.53 1184.53  47
   1   8  -4 2512.84 793.390  34
  -1  -8   4 2036.88 464.230  45
  -1  -8   4 2531.64 714.636  46
   1   8  -4 2054.16 587.370  47
   1   8  -4 2697.86 602.123  25
   1   8  -3 22613.8 2068.00  34
   1   8  -3 19754.2 1959.22  47
   1   8  -3 21990.0 1736.92  25
  -1  -8   3 25222.2 4327.51  12
  -1  -8   3 20579.7 2084.75  45
  -1  -8   3 19419.3 1909.93  46
   1   8  -2 10871.0 1517.64  47
  -1  -8   2 12317.4 1549.31  46
   1   8  -2 12547.6 1524.03  34
   1   8  -2 11593.7 1291.25  25
  -1  -8   2 12134.5 1723.27  45
  -1  -8   2 10918.4 2732.63  12
   1   8  -1 5450.82 978.238  35
   1   8  -1 5561.55 1160.37  34
   1   8  -1 4184.61 926.509  47
  -1  -8   1 4924.87 1149.82  45
  -1  -8   1 3728.49 1542.21  12
  -1  -8   1 4558.52 1025.83  46
   1   8  -1 4233.59 961.166  25
  -1  -8   0-734.581 1375.54  12
   1   8   0 176.607 355.378  25
  -1  -8   0-290.623 602.601  55
   1   8   0 741.000 620.407  35
   1   8   0-313.960 388.139  34
   1   8   0 64.0399 587.916  47
  -1  -8   0 289.374 582.095  46
  -1  -8   0 58.6512 478.534  45
  -1  -8  -1 759.111 592.093  55
   1   8   1 881.745 599.798  35
   1   8   1 648.068 400.064  34
  -1  -8  -1 1469.05 1255.52   2
   1   8   1 945.303 592.790  25
   1   8   1 1626.38 1180.14   7
   1   8   1 1252.70 709.349  47
  -1  -8  -1-682.871 1406.18  12
  -1  -8  -1 541.150 553.825  46
  -1  -8  -2-518.141 671.571  12
   1   8   2 514.916 635.128  35
   1   8   2 183.902 526.555  34
  -1  -8  -2 601.781 812.673   2
   1   8   2-426.721 660.876   7
   1   8   2 760.977 581.652  25
   1   8   2 105.735 596.255  47
  -1  -8  -2 653.148 636.041  46
   1   8   3 37994.5 2286.14  35
  -1  -8  -3 30512.4 2597.59  46
   1   8   3 33835.3 4187.58   7
   1   8   3 38864.3 2353.23  25
   1   8   3 35877.0 2576.37  47
  -1  -8  -4 1289.84 809.194  36
   1   8   4 830.917 551.786  25
   1   8   4 744.879 814.359   7
  -1  -8  -4 542.777 737.558  46
   1   8   4 457.839 477.731  35
   1   8   5 1614.45 733.168   7
  -1  -8  -5 1820.88 924.437  46
   1   8   5 1576.98 666.914  35
   1   8   5 1517.50 560.902  25
  -1  -8  -5 934.151 574.819  36
   1   8   6 31531.3 2055.57  35
  -1  -8  -6 22255.7 3771.38  14
  -1  -8  -6 25766.5 2391.49  46
   1   8   6 34512.3 2078.69  25
   1   8   6 30095.4 4050.55   7
   1   8   7 10186.9 1163.90  35
  -1  -8  -7 10569.4 1569.55  46
   1   8   8 3663.71 637.347  35
  -1  -8  -8 3842.28 1042.54  46
  -1  -8  -9 1451.06 854.907  46
  -1  -8 -10 6231.50 1085.59  32
  -1  -8 -10 7188.31 1189.28  46
  -1  -8 -11 1203.06 404.039  32
  -1  -8 -11 1655.42 499.543  46
  -1  -8 -12-462.943 670.960  48
  -1  -8 -13 3460.56 779.539  48
  -1  -8 -14 17956.3 1525.20  40
  -1  -8 -14 16524.0 1707.02  48
  -1  -8 -15 3473.00 659.029  40
  -1  -8 -16 16357.7 1270.25  40
   1   9 -12 125.370 217.374  44
  -1  -9  12 1328.42 578.591  55
  -1  -9  12 745.394 346.251  45
   1   9 -11 198.562 295.986  44
  -1  -9  11 1036.94 549.126  55
  -1  -9  11 898.064 454.971  45
  -1  -9  10 1222.18 535.961  45
   1   9  -9 2023.60 552.264  34
  -1  -9   9 2789.22 713.750  45
   1   9  -8 1434.53 463.025  34
  -1  -9   8 1156.75 603.232  45
   1   9  -7 352.025 541.813  34
   1   9  -7 349.222 258.744  25
  -1  -9   7 466.712 431.476  45
   1   9  -6 6863.75 1042.17  34
   1   9  -6 5627.01 898.828  47
   1   9  -6 6329.68 878.475  25
  -1  -9   6 6039.96 1164.28  45
   1   9  -5 5976.42 1024.88  34
   1   9  -5 5366.56 978.833  47
  -1  -9   5 4048.05 1021.25  45
   1   9  -5 5156.21 768.860  25
  -1  -9   4 1120.04 653.109  46
   1   9  -4 1304.51 539.849  25
   1   9  -4 1489.11 633.369  34
   1   9  -4 1543.49 688.697  47
  -1  -9   4 1312.78 722.321  45
  -1  -9   3 985.640 563.773  46
  -1  -9   3 551.828 724.959  45
   1   9  -3 651.489 557.516  34
  -1  -9   3 1026.50 750.428  55
  -1  -9   3 394.149 391.736  53
   1   9  -3 247.420 437.410  25
   1   9  -3-436.770 593.307  47
  -1  -9   2 17156.0 1745.75  53
   1   9  -2 17375.9 1682.68  34
  -1  -9   2 16235.8 1965.88  45
  -1  -9   2 18035.9 2049.39  55
   1   9  -2 16937.7 1537.13  25
  -1  -9   2 14516.9 1714.23  46
   1   9  -2 15688.4 1599.59  47
   1   9  -1 5772.84 952.371  34
  -1  -9   1 5630.25 1084.00  55
   1   9  -1 6083.61 1110.05  47
   1   9  -1 4962.50 808.866  25
  -1  -9   1 4520.93 860.572  46
  -1  -9   1 5817.74 1169.81  45
   1   9   0-126.121 443.664  34
   1   9   0 454.635 504.615  18
   1   9   0 47.8295 560.804  47
  -1  -9   0-56.2948 520.131  55
  -1  -9   0-898.411 679.993  46
   1   9   0 174.593 421.519  25
   1   9   1-751.251 479.345  47
   1   9   1 278.927 662.005  35
   1   9   1-451.192 676.952  34
   1   9   1-140.458 439.931  25
  -1  -9  -1-16.0535 505.482  55
  -1  -9  -1 94.6591 1296.98  46
   1   9   2 42500.1 2757.17  47
   1   9   2 40670.9 2388.70  35
   1   9   2 43281.6 2438.70  34
  -1  -9  -2 38920.1 2883.12  55
  -1  -9  -2 42499.8 2952.90  46
   1   9   2 45656.3 2530.29  25
   1   9   3 11488.5 1360.56  25
   1   9   3 9980.03 1306.15  35
  -1  -9  -3 11580.8 1780.45  46
   1   9   4 18038.6 1882.94  47
   1   9   4 17244.2 1594.18  35
  -1  -9  -4 18974.3 2042.12  46
   1   9   4 18293.1 1571.46  25
   1   9   5 17266.6 1541.52  35
   1   9   5 20197.2 1615.46  25
  -1  -9  -5 16327.1 1973.51  46
   1   9   5 17221.9 1918.17  47
   1   9   6 23755.5 1817.59  35
  -1  -9  -6 24086.7 2291.48  46
   1   9   6 27876.1 1834.42  25
   1   9   6 23157.5 2111.32  47
   1   9   7 1893.21 620.400  47
   1   9   7 1080.53 449.937  35
  -1  -9  -7 880.219 529.094  46
   1   9   7 836.030 314.615  25
   1   9   8 309.094 319.670  35
   1   9   8 130.840 528.131  47
  -1  -9  -8 104.421 569.770  46
   1   9   9 7910.32 920.535  35
  -1  -9  -9 9164.70 1355.07  32
   1   9   9 9356.52 1253.62  47
  -1  -9  -9 9346.44 1404.79  46
  -1  -9 -10 477.781 364.033  32
  -1  -9 -10-154.063 431.870  46
   1   9  10-399.613 528.750  47
  -1  -9 -11 182.375 400.429  48
  -1  -9 -11 874.810 643.065  46
   1   9  11 871.939 394.460  47
   1   9  12 2445.04 710.080  47
  -1  -9 -12 2914.55 788.772  48
  -1  -9 -14 8648.99 1077.17  48
   1   9  14 10522.0 841.727  18
  -1 -10  10 403.048 278.528  53
  -1 -10  10 1491.83 501.640  55
  -1 -10   9 5485.51 791.195  53
  -1 -10   9 5461.42 867.500  55
  -1 -10   8 4490.73 858.821  55
  -1 -10   8 5887.05 888.695  53
   1  10  -7 1994.11 525.147  34
  -1 -10   7 2698.62 783.996  55
  -1 -10   7 1867.91 605.021  53
  -1 -10   6-281.114 597.533  55
  -1 -10   6 372.975 350.154  53
   1  10  -6 394.539 384.084  34
  -1 -10   5 2407.22 647.220  53
   1  10  -5 2275.56 610.428  47
   1  10  -5 2947.82 634.043  34
  -1 -10   5 2163.50 673.484  55
   1  10  -5 2579.06 584.194  25
   1  10  -4 3812.87 746.066  34
  -1 -10   4 4370.21 863.849  53
   1  10  -4 4001.67 775.571  47
  -1 -10   4 3565.51 755.816  46
   1  10  -4 3577.04 665.285  25
  -1 -10   4 4021.04 911.774  55
   1  10  -3 5477.34 799.621  47
   1  10  -3 6784.15 1029.30  34
   1  10  -3 5824.92 963.323  25
  -1 -10   3 5212.81 1046.06  55
  -1 -10   3 5538.88 900.875  46
   1  10  -2 5994.58 877.019  34
  -1 -10   2 4146.63 985.691  55
   1  10  -2 6010.50 928.382  25
   1  10  -2 4807.68 776.577  47
  -1 -10   2 5821.73 1064.77  46
   1  10  -1 4858.09 950.235  47
  -1 -10   1 3810.78 916.274  46
   1  10  -1 3849.37 764.308  25
  -1 -10   1 4404.66 1009.50  55
   1  10  -1 4363.76 848.112  34
   1  10   0 295.210 431.527  34
   1  10   0-227.141 582.709  47
  -1 -10   0 951.847 705.353  55
  -1 -10   0-117.888 528.072  46
   1  10   0-335.053 416.749  25
   1  10   0 257.371 436.474  18
   1  10   1-68.2958 390.693  18
   1  10   1 44.0143 297.457  25
   1  10   1 390.408 403.078  47
   1  10   1 314.692 376.810  34
  -1 -10  -1-147.155 632.347  46
   1  10   2 2737.91 537.944  34
   1  10   2 4020.03 990.789  47
   1  10   2 4248.13 852.187  18
   1  10   2 3776.58 693.109  25
  -1 -10  -2 4020.15 1063.44  46
   1  10   3 5351.86 894.805  18
   1  10   3 5483.70 845.973  25
  -1 -10  -3 4667.31 1029.58  46
   1  10   3 5551.87 920.435  47
   1  10   4 1904.17 820.202  47
  -1 -10  -4 1330.32 577.651  46
   1  10   4 1830.72 437.035  25
   1  10   5 17649.9 1402.16  25
   1  10   5 15161.7 1529.23  47
  -1 -10  -5 15667.7 1792.04  46
   1  10   6 3495.88 806.367  47
  -1 -10  -6 4682.54 1034.20  46
   1  10   6 3957.60 656.861  25
   1  10   7 300.139 410.487  47
  -1 -10  -7 41.7285 464.449  46
   1  10   7 329.964 271.232  25
  -1 -10  -8 1382.30 551.867  32
  -1 -10  -8 2292.03 821.462  46
   1  10   8 1374.29 668.578  47
  -1 -10  -9 8.87892 346.478  32
  -1 -10  -9 826.177 542.045  46
   1  10   9-418.348 518.692  47
  -1 -10 -10 2409.78 602.194  48
  -1 -10 -10 1839.65 604.702  46
   1  10  10 1465.74 501.272  47
  -1 -10 -11-354.895 433.223  48
   1  10  11 470.078 300.392  18
   1  10  11-90.1954 451.558  47
   1  10  12 4117.20 622.573  47
  -1 -10 -12 4722.53 812.220  48
   1  10  13 356.110 197.274  18
  -1 -11   6 1463.90 406.624  55
   1  11  -5 5801.86 676.625  34
  -1 -11   5 5021.94 779.696  55
  -1 -11   4 829.071 400.045  55
   1  11  -4 330.714 314.685  34
  -1 -11   3-180.516 375.180  55
   1  11  -3 532.936 393.754  47
   1  11  -3-304.531 270.661  34
   1  11  -3 248.947 283.977  25
  -1 -11   2 2754.15 702.184  55
   1  11  -2 2592.57 510.235  34
   1  11  -2 3471.17 647.056  47
   1  11  -2 2908.96 523.679  25
  -1 -11   2 3157.88 626.496  46
   1  11  -1 1138.45 480.047  47
   1  11  -1 712.167 345.176  34
   1  11  -1 562.283 318.866  25
  -1 -11   1 267.515 337.797  46
   1  11   0 368.864 405.399  34
   1  11   0-59.7848 398.220  47
   1  11   0-500.221 353.149  25
  -1 -11   0 507.348 436.308  46
   1  11   1 222.899 287.263  25
   1  11   1 331.497 294.238  34
   1  11   1 502.591 596.061  47
  -1 -11  -2 22291.5 1759.31  46
   1  11   2 23913.8 1557.55  25
   1  11   2 23517.2 1636.72  47
   1  11   3 390.136 440.963  25
   1  11   3 273.674 461.611  18
   1  11   3 1191.55 1048.58  47
  -1 -11  -3 1418.33 1041.10  46
   1  11   4 1405.91 474.199  47
   1  11   4 1132.02 394.201  25
  -1 -11  -4 1135.81 541.805  46
   1  11   4 1241.11 417.606  18
   1  11   5 5892.10 821.928  47
   1  11   5 6954.46 811.936  18
  -1 -11  -5 6020.61 881.412  46
   1  11   5 7525.95 790.926  25
   1  11   6 2200.94 624.102  43
   1  11   6 2379.90 468.506  18
   1  11   6 2739.31 452.681  25
   1  11   6 2995.11 605.804  47
  -1 -11  -6 2856.58 683.521  46
   1  11   7-80.5735 376.185  43
   1  11   7 180.068 290.139  18
  -1 -11  -7 61.0931 366.329  32
   1  11   7-257.511 304.034  47
  -1 -11  -7-286.413 292.086  46
   1  11   8-333.322 282.458  18
   1  11   8-144.784 298.903  43
   1  11   8 193.140 351.524  47
  -1 -11  -8 550.465 327.266  32
   1  11   9 3187.13 555.665  47
   1  11   9 3180.41 528.207  18
   1  11   9 2217.05 484.983  43
   1  11  10-20.8253 277.841  43
   1  11  10-366.242 272.723  18
   1  11  10-272.070 239.644  47
  -2  10   4-247.072 301.105  25
  -2  10   4 448.177 238.037  35
  -2  10   3 10.1725 229.509  25
  -2  10   3 78.4409 215.040  35
  -2  10   3 376.948 223.380  34
  -2  10   2 1609.11 338.944  25
  -2  10   2 1041.32 306.204  34
  -2  10   1 1657.91 351.003  25
   2 -10  -1 2153.96 560.115  46
   2 -10  -1 2871.79 561.761  36
  -2  10   1 1494.98 369.397  34
  -2  10   0 1051.92 300.600  34
  -2  10   0 761.081 277.929  25
   2 -10   0 932.029 496.493  46
   2 -10   1 5741.38 743.878  46
  -2  10  -1 4191.82 453.833  34
  -2  10  -1 5484.90 560.567  25
  -2   9  10 4811.50 488.986  35
   2  -9 -10 5057.78 683.386  41
  -2   9   9 1331.59 325.277  30
  -2   9   9 2447.15 451.311  35
   2  -9  -9 1721.33 498.162  41
  -2   9   8 1077.35 356.856  30
  -2   9   8 939.043 310.717  35
   2  -9  -8 1345.27 515.291  41
  -2   9   8 1219.59 337.180  25
   2  -9  -7 325.792 362.277  41
  -2   9   7 393.504 228.629  30
   2  -9  -7 151.244 311.830  36
  -2   9   7 550.167 370.924  35
  -2   9   7 499.363 325.220  25
   2  -9  -6 4845.29 720.720  36
  -2   9   6 5802.16 728.910  35
  -2   9   6 5496.23 718.283  25
  -2   9   6 4758.67 709.595  30
   2  -9  -5 1346.28 504.208  36
  -2   9   5 663.890 372.046  35
  -2   9   5 384.503 296.297  30
  -2   9   5 575.456 348.132  25
   2  -9  -5-195.536 342.497  46
  -2   9   4 1154.12 341.640  25
   2  -9  -4 645.739 422.955  36
  -2   9   4 1283.71 506.139  35
  -2   9   4 780.715 284.984  30
   2  -9  -4 471.766 327.563  46
  -2   9   3 45.3667 259.662  30
  -2   9   3 924.915 554.260  35
  -2   9   3-47.0324 251.228  25
  -2   9   3 304.605 485.913  47
   2  -9  -3-264.010 374.501  46
   2  -9  -3 350.457 461.505  36
  -2   9   2 17774.9 1260.37  35
  -2   9   2 15119.4 1367.78  30
  -2   9   2 18291.2 1298.69  25
   2  -9  -2 17633.5 1357.05  36
   2  -9  -2 17191.2 1535.72  46
  -2   9   1 897.852 386.276  35
  -2   9   1 317.983 396.464  30
  -2   9   1 641.159 374.204  25
   2  -9  -1 1186.76 541.529  46
   2  -9   0 603.934 453.291  36
  -2   9   0 1082.28 434.407  35
  -2   9   0 500.285 298.143  25
   2  -9   0 476.173 518.489  46
   2  -9   1 3434.24 719.672  36
  -2   9  -1 2483.70 453.267  35
   2  -9   1 3560.98 813.064  46
  -2   9  -1 3176.38 512.187  25
  -2   9  -2 4880.49 767.827  56
   2  -9   2 8289.86 871.753  36
  -2   9  -2 7214.12 801.542  25
  -2   9  -2 6180.09 810.676  34
   2  -9   2 7412.29 1021.37  46
   2  -9   3 1013.11 491.816  36
  -2   9  -3 141.945 345.339  34
  -2   9  -3 396.340 464.932  56
   2  -9   3 297.139 386.420  46
  -2   9  -3-65.2892 265.537  25
  -2   9  -4 795.302 374.741  34
  -2   9  -4 559.486 334.561  25
   2  -9   4 696.393 453.472  46
  -2   9  -5 1398.94 284.706  34
   2  -9   5 2625.00 627.252  46
  -2   9  -6 2068.55 431.740  34
   2  -9   6 2128.06 425.013  46
  -2   9  -7 1795.44 389.470  34
   2  -9   7 3587.09 601.119  46
   2  -8 -12 21573.0 1400.21  41
  -2   8  11 4066.40 617.597  30
   2  -8 -11 6900.08 930.951  41
  -2   8  10-165.562 281.656  30
   2  -8 -10-243.578 411.011  41
   2  -8  -9 48.5800 320.028  36
   2  -8  -9 374.001 434.337  41
  -2   8   9-379.292 366.466  30
  -2   8   9-434.071 354.184  25
  -2   8   8 2086.84 533.423  30
   2  -8  -8 3257.81 874.757  41
  -2   8   8 2171.18 440.921  25
   2  -8  -8 2967.71 651.382  36
  -2   8   7 13.8687 322.569  42
   2  -8  -7 568.388 502.635  36
  -2   8   7 387.168 307.404  30
  -2   8   6 696.002 477.307  30
   2  -8  -6 970.684 463.054  36
  -2   8   6 902.900 476.821  42
  -2   8   5 15569.8 1331.35  42
   2  -8  -5 20398.6 1652.83  36
  -2   8   5 14108.2 1477.07  30
   2  -8  -5 16822.8 1709.01  46
   2  -8  -5 18467.4 1255.47  22
  -2   8   4 169.150 315.998  42
   2  -8  -4 106.520 386.030  36
  -2   8   4 131.756 390.163  30
   2  -8  -4-91.2153 466.458  46
   2  -8  -4 471.724 698.440  22
  -2   8   3 17044.0 1516.92  42
   2  -8  -3 20063.5 1658.08  36
  -2   8   3 17922.1 1663.31  30
   2  -8  -3 20210.6 1869.36  46
  -2   8   2 649.051 689.736  42
  -2   8   2 38.4957 362.128  30
   2  -8  -2-9.50729 502.854  36
   2  -8  -2-23.0118 398.488  46
  -2   8   1 1921.44 553.171  30
   2  -8  -1 1803.05 662.605  46
  -2   8   1 1707.10 645.256  42
  -2   8   0 4436.93 884.654  42
  -2   8   0 6495.10 1101.78  56
  -2   8   0 5533.20 1031.42  30
  -2   8   0 7572.71 993.180  25
   2  -8   0 7564.38 1163.73  46
  -2   8  -1 10996.0 1105.28  35
  -2   8  -1 12743.1 1250.99  25
  -2   8  -1 9932.73 1204.99  30
   2  -8   1 10420.4 1345.37  46
  -2   8  -1 9222.12 1224.68  56
  -2   8  -2 38.2976 381.355  25
  -2   8  -2-707.511 524.612  35
  -2   8  -2 416.530 430.751  30
  -2   8  -2 883.644 622.828  56
   2  -8   2-173.029 479.664  46
  -2   8  -3 1764.60 800.000  56
   2  -8   3 2178.44 740.202  46
  -2   8  -3 1667.99 263.486  25
   2  -8   4 5251.81 855.263  46
  -2   8  -4 4371.04 983.971  56
  -2   8  -4 5101.21 683.600  25
   2  -8   5 8189.83 1128.15  46
  -2   8  -5 7243.14 768.008  25
  -2   8  -5 6742.26 900.988  34
  -2   8  -5 5447.89 948.478  56
  -2   8  -6 427.354 326.558  34
  -2   8  -6 361.698 381.878  56
   2  -8   6 52.0540 389.659  46
  -2   8  -7 423.432 370.048  56
  -2   8  -7 149.095 274.384  34
   2  -8   7 606.068 485.778  46
   2  -8   7-646.080 395.285  45
  -2   8  -8 3689.61 600.424  34
   2  -8   8 4565.26 819.306  46
   2  -8   8 4612.94 721.953  45
   2  -8   9 268.813 355.801  46
   2  -8   9 449.454 261.826  45
   2  -8  10 9209.77 879.725  45
   2  -8  10 10216.0 919.361  46
   2  -7 -13 5945.46 934.437  41
   2  -7 -13 3923.10 504.778  29
   2  -7 -12 7682.08 1096.92  41
   2  -7 -12 4844.52 597.030  29
   2  -7 -11 2752.26 726.135  41
   2  -7 -11 1300.09 350.405  29
   2  -7 -10 2137.80 618.137  41
   2  -7 -10 1990.60 541.376  36
   2  -7  -9 743.482 520.020  36
  -2   7   8 7722.67 1006.88  42
   2  -7  -8 9951.51 1187.67  36
   2  -7  -8 9202.96 1013.26  22
   2  -7  -7 5240.84 970.176  36
  -2   7   7 4486.71 804.323  42
   2  -7  -7 4300.53 702.893  22
  -2   7   6 22043.2 1738.49  42
   2  -7  -6 25468.8 1936.86  36
   2  -7  -6 22012.9 1567.06  22
  -2   7   5 445.381 544.732  42
   2  -7  -5 842.948 548.176  36
   2  -7  -5 675.097 445.852  22
  -2   7   4-111.166 576.267  42
   2  -7  -4 470.761 551.970  46
   2  -7  -4 875.842 594.240  22
   2  -7  -3 29592.1 2210.77  46
  -2   7   3 25109.4 1971.65  42
  -2   7   2 56101.0 2827.02  42
  -2   7   2 53201.4 2914.84  30
   2  -7  -2 53654.9 3004.03  46
   2  -7  -2 58482.6 2756.13  22
  -2   7   1 21304.1 1904.11  42
  -2   7   1 17795.8 1731.63  30
   2  -7  -1 21599.9 1940.50  46
  -2   7   0 9036.11 1249.93  42
  -2   7   0 7736.82 1125.14  30
   2  -7   0 9155.49 1317.17  46
  -2   7  -1 640.395 484.215  42
  -2   7  -1 617.143 420.610  30
  -2   7  -1 1495.98 716.567  56
   2  -7   1 143.603 628.830  46
  -2   7  -2 6700.22 1169.24  56
  -2   7  -2 9368.02 1186.70  30
  -2   7  -2 8413.79 1118.84  42
   2  -7   2 8326.57 1254.29  46
  -2   7  -3 5084.98 945.055  30
  -2   7  -3 4565.62 999.652  56
  -2   7  -3 4575.17 845.660  42
   2  -7   3 5594.53 1184.50  46
  -2   7  -4 10249.8 1062.17  25
  -2   7  -4 8372.56 1245.74  56
  -2   7  -4 9350.29 1131.27  30
   2  -7   4 9700.31 1415.89  46
  -2   7  -5 17161.3 1365.09  25
  -2   7  -5 15582.3 1658.49  56
   2  -7   5 17855.2 1778.97  46
   2  -7   6 2776.34 795.530  46
  -2   7  -6 2453.19 823.788  56
  -2   7  -7 20949.6 1600.21  34
  -2   7  -7 23521.0 1966.00  56
  -2   7  -8 411.625 354.161  34
  -2   7  -8 963.024 647.607  56
  -2   7  -8 308.528 257.636  27
   2  -7   8 1083.23 691.728  46
   2  -7   9 2242.51 710.477  46
  -2   7  -9 1367.45 313.661  34
  -2   7  -9 2038.49 644.682  56
  -2   7  -9 1331.13 460.342  27
  -2   7 -10 104.134 244.483  27
  -2   7 -10 359.889 417.815  56
  -2   7 -11 394.108 335.207  19
  -2   7 -11-201.497 305.729  27
   2  -7  11-165.295 269.470  46
  -2   7 -12 3455.99 583.297  19
   2  -7  12 5280.20 711.039  46
   2  -7  12 5492.37 748.620  45
  -2   7 -13 372.646 198.621  19
   2  -7  13 23.8330 207.843  45
   2  -6 -16 11036.6 778.488  29
   2  -6 -15 10988.2 879.766  29
   2  -6 -14 9979.07 900.346  29
   2  -6 -13-113.534 378.531  41
   2  -6 -13 338.800 323.545  29
   2  -6 -12 13853.3 1538.66  41
   2  -6 -11 5114.78 945.740  41
   2  -6 -11 2886.36 723.359  51
   2  -6 -10 8061.82 1404.12  41
   2  -6 -10 4498.87 902.606  51
   2  -6 -10 6287.79 914.300  36
   2  -6  -9 6672.69 989.918  36
   2  -6  -9 5046.52 942.805  51
   2  -6  -9 5071.75 846.269  22
   2  -6  -8-119.324 355.765  36
   2  -6  -8-85.7025 351.943  51
   2  -6  -8-92.5362 546.501  22
   2  -6  -7 4100.55 889.578  36
   2  -6  -7 4044.66 741.270  22
   2  -6  -6 733.930 417.193  36
   2  -6  -6 307.946 387.490  22
  -2   6   5 37268.3 3470.48   5
  -2   6   5 33470.4 4015.96  16
   2  -6  -5 28008.8 1800.87  22
   2  -6  -4-221.019 392.014  22
   2  -6  -4 629.097 1181.16   2
   2  -6  -3 1445.00 1251.72   2
   2  -6  -3 3200.67 565.606  46
   2  -6  -2 51530.6 5893.79   2
  -2   6   2 46822.4 2702.20  26
   2  -6  -2 59668.7 3010.92  46
  -2   6   1 49429.7 2657.44  42
   2  -6  -1 49557.6 5596.31   2
   2  -6  -1 48310.3 2796.10  46
  -2   6   1 58195.8 3433.25  56
   2  -6   0 13795.2 3148.58   2
   2  -6   0 15740.5 1565.39  46
  -2   6  -1 33619.5 2022.45  42
   2  -6   1 32467.0 4505.82   2
  -2   6  -1 31199.1 2118.73  30
  -2   6  -1 27841.2 2278.27  56
  -2   6  -1 27141.0 2162.89  26
   2  -6   1 29639.3 2141.24  46
  -2   6  -2 3230.73 660.631  42
  -2   6  -2 1354.10 766.240  56
  -2   6  -2 2382.57 564.966  30
   2  -6   2 2689.38 1410.64   2
   2  -6   2 2311.50 790.330  46
  -2   6  -3 16085.0 1460.31  42
  -2   6  -3 16762.0 2388.48   5
  -2   6  -3 15988.4 1452.83  30
   2  -6   3 14135.5 2932.00   2
   2  -6   3 16772.2 1697.77  46
  -2   6  -3 17799.3 1799.12  56
  -2   6  -4 93012.5 3369.57  42
  -2   6  -4 94792.3 4145.21  56
   2  -6   4 88444.7 3945.89  46
  -2   6  -4 93818.6 5631.57   5
  -2   6  -4 90308.8 3453.10  30
   2  -6   5 13605.6 1640.78  46
  -2   6  -5 12535.1 1530.46  56
  -2   6  -5 14617.8 1374.79  30
   2  -6   5 12585.1 1591.16  23
   2  -6   6 5410.10 1116.70  46
  -2   6  -6 5091.60 809.593  56
  -2   6  -6 4277.18 975.831  27
   2  -6   6 5110.82 1082.42  23
  -2   6  -7 8581.20 1334.71  56
  -2   6  -7 7300.22 1135.82  27
   2  -6   7 7960.94 1262.12  23
   2  -6   7 8712.48 1351.04  46
   2  -6   8 13376.1 1532.18  23
   2  -6   8 15121.8 1726.33  46
  -2   6  -8 13707.5 1510.99  27
  -2   6  -8 15511.3 1826.33  56
  -2   6  -9 4727.42 1016.79  56
  -2   6  -9 3102.85 802.347  27
   2  -6   9 3859.41 887.745  23
   2  -6   9 4611.73 905.752  46
  -2   6 -10 72.5198 358.659  56
  -2   6 -10-92.1189 377.471  27
   2  -6  10 500.305 339.225  23
   2  -6  10-210.636 511.464  46
  -2   6 -11 5466.91 976.774  27
   2  -6  11 6030.97 974.252  46
  -2   6 -11 6019.64 937.735  56
   2  -6  11 5844.05 899.464  23
  -2   6 -12 493.997 368.548  27
  -2   6 -12 150.835 290.597  19
   2  -6  12 229.965 378.564  46
  -2   6 -13-174.420 161.759  19
  -2   6 -13 38.7005 187.952  27
   2  -6  14 2357.65 517.111  46
  -2   6 -14 1132.29 365.299  19
  -2   6 -14 1874.48 383.418  27
  -2   6 -15 2233.04 390.014  19
   2  -6  15 4356.88 535.620  46
   2  -5 -17 6005.43 613.380  29
   2  -5 -17 5575.54 825.559  40
   2  -5 -16 5454.38 652.444  29
   2  -5 -15 577.526 286.127  29
   2  -5 -15 516.246 292.740  51
   2  -5 -14 34071.5 2221.16  41
   2  -5 -13 22650.3 1926.99  41
   2  -5 -13 14172.7 1435.52  51
   2  -5 -12 1617.63 650.380  51
   2  -5 -12 2865.35 776.264  41
   2  -5 -11 6495.32 1063.64  51
   2  -5 -11 10481.7 1476.15  41
   2  -5 -10 12909.0 1376.25  28
   2  -5 -10 10581.6 1274.09  51
   2  -5 -10 10123.6 1192.24  36
   2  -5 -10 11054.2 1166.58  22
   2  -5  -9 6674.35 977.852  36
   2  -5  -9 5441.02 941.221  51
   2  -5  -9 5789.66 908.498  28
   2  -5  -9 7168.17 966.890  22
   2  -5  -8 15380.3 1478.11  36
   2  -5  -8 11385.9 2849.67   6
  -2   5   8 13999.5 2598.92  16
   2  -5  -8 14881.0 1472.90  28
   2  -5  -8 14836.6 1286.33  22
   2  -5  -7 6568.25 2009.98   2
   2  -5  -7 7277.24 1031.37  36
   2  -5  -7 6727.63 2138.61   6
  -2   5   7 7740.50 1978.34  16
   2  -5  -7 7918.30 1043.92  51
   2  -5  -7 9171.00 1225.83  28
   2  -5  -7 8669.23 893.535  22
  -2   5   6 28440.5 3633.54  16
   2  -5  -6 31088.9 4260.31   2
   2  -5  -6 33068.3 1795.63  22
  -2   5   5 5312.35 1651.45  16
   2  -5  -5 4578.86 1126.65   2
   2  -5  -5 5854.34 846.263  22
   2  -5  -4 5714.18 840.934  22
  -2   5   4 5039.86 1400.82  16
   2  -5  -4 7625.65 2327.55   2
   2  -5  -3 2351.68 617.200  22
  -2   5   3 1643.10 448.516  16
   2  -5  -3 1873.68 1280.88   2
   2  -5  -2 40897.6 4564.11   2
  -2   5   2 39952.2 3959.58  16
   2  -5  -1 9886.36 2162.52   2
   2  -5   0 8339.42 2254.62   2
  -2   5  -1 4356.78 996.075  56
   2  -5   1 4157.36 1661.43   2
  -2   5  -1 3507.31 878.276  26
  -2   5  -2 21635.0 1520.75  42
   2  -5   2 16077.8 1723.05  23
   2  -5   2 18528.4 3476.65   2
   2  -5   2 16766.4 1746.36  46
  -2   5  -2 14843.0 1495.45  26
  -2   5  -3 13412.8 1212.81  42
  -2   5  -3 11048.8 1196.17  26
   2  -5   3 11638.7 1342.33  46
  -2   5  -3 13088.3 1260.41  30
   2  -5   3 10775.5 1305.17  23
   2  -5   3 11532.4 2612.50   2
  -2   5  -3 15853.9 1692.06  56
  -2   5  -4 39094.2 2607.79  27
   2  -5   4 42747.2 4779.26   2
  -2   5  -4 44137.4 2265.73  30
   2  -5   4 38876.3 2500.37  46
   2  -5   4 41756.9 2645.76  23
  -2   5  -4 42218.1 2114.70  42
  -2   5  -5 58488.4 2525.45  42
   2  -5   5 58431.4 3091.72  46
   2  -5   5 53838.4 3271.97  37
   2  -5   5 58700.3 5574.39   2
  -2   5  -5 54426.9 3083.66  27
   2  -5   5 56725.3 3128.79  23
  -2   5  -5 67600.9 3449.58  56
   2  -5   6 4377.42 938.038  37
  -2   5  -6 6596.56 1154.58  56
  -2   5  -6 5528.59 891.456  42
   2  -5   6 5326.50 1015.35  23
  -2   5  -6 4584.66 1036.54  27
  -2   5  -6 3453.69 1198.09   8
   2  -5   7 30573.0 2574.77  37
  -2   5  -7 36540.4 2648.44  56
  -2   5  -7 34092.6 2517.89  27
   2  -5   7 33959.5 2472.45  23
   2  -5   8-498.631 721.072  37
  -2   5  -8-111.158 487.171  56
  -2   5  -8 157.206 549.405  27
   2  -5   8-122.845 460.657  23
   2  -5   9 2006.73 698.945  37
  -2   5  -9 1850.67 615.150  56
   2  -5   9 2214.87 745.441  23
  -2   5  -9 1323.34 578.981  27
  -2   5 -10 2012.40 787.621  27
   2  -5  10 2377.90 808.120  37
  -2   5 -10 2733.95 672.636  56
   2  -5  10 2679.49 709.767  23
   2  -5  11 1931.75 748.656  23
  -2   5 -11 1644.69 645.499  27
  -2   5 -11 2753.31 791.923  56
  -2   5 -12 1106.86 561.952  19
  -2   5 -12 2309.01 626.304  56
  -2   5 -12 2486.05 678.752  27
   2  -5  12 2805.55 620.421  23
  -2   5 -13 797.008 442.072  19
   2  -5  13 1404.96 379.136  23
  -2   5 -13 2065.92 637.986  27
   2  -5  13 1611.64 612.728  46
  -2   5 -14 6934.11 962.933  27
  -2   5 -14 5226.98 874.845  19
   2  -5  14 7138.25 901.721  23
   2  -5  14 7919.77 943.018  46
  -2   5 -15 760.176 386.487  19
  -2   5 -15 905.391 340.091  27
   2  -5  15 1443.71 475.830  46
   2  -5  15 1071.61 422.169  23
  -2   5 -16 266.285 144.284  19
   2  -5  16 799.906 333.237  46
   2  -4 -18 367.298 185.318  29
   2  -4 -18 199.840 351.732  40
   2  -4 -17 300.638 367.908  40
   2  -4 -17 752.633 367.964  29
   2  -4 -16 4915.90 678.742  29
   2  -4 -16 3022.88 708.863  51
   2  -4 -15 955.789 484.092  51
   2  -4 -14 223.133 616.944  41
   2  -4 -14 439.851 281.606  51
   2  -4 -13 8468.83 1258.49  41
   2  -4 -13 5232.11 1006.91  51
   2  -4 -12 2953.21 740.226  28
   2  -4 -12 3221.85 905.065  41
   2  -4 -12 1927.17 695.308  51
   2  -4 -11 4670.61 1085.15  41
   2  -4 -11 2723.55 778.645  28
   2  -4 -11 3541.19 761.302  51
   2  -4 -11 3065.55 567.025  22
   2  -4 -10 70622.3 6522.89   6
  -2   4  10 68257.8 5646.64  16
   2  -4 -10 74230.3 3243.56  28
   2  -4 -10 63773.5 6321.06   3
   2  -4 -10 71760.7 2809.56  22
   2  -4  -9 16775.1 1577.44  28
   2  -4  -9 12813.2 2991.65   6
  -2   4   9 14967.6 2406.09  16
   2  -4  -9 13402.1 2789.84   3
   2  -4  -9 15509.1 1267.05  22
   2  -4  -8 18940.2 3194.30   6
  -2   4   8 17914.4 2751.00  16
   2  -4  -8 22683.8 1739.66  28
   2  -4  -8 15780.0 1409.62  22
   2  -4  -7 11392.9 2545.44   2
   2  -4  -7 10070.1 2507.73   6
   2  -4  -7 12989.9 1345.66  28
  -2   4   7 10651.3 1773.55  16
   2  -4  -7 13412.5 1226.89  22
   2  -4  -6 5915.23 1611.03   2
   2  -4  -6 7157.43 1954.12   6
  -2   4   6 7608.23 1918.41  16
   2  -4  -5 1281.97 1191.61   2
  -2   4   5 1647.79 1027.78  16
  -2   4   5 1482.51 801.308  17
  -2   4   4 3062.34 1087.59  16
  -2   4   4 3311.82 1028.77  17
   2  -4  -4 2684.47 1128.22   2
  -2   4   3 1775.43 776.755  16
  -2   4   3 1427.17 675.737  17
   2  -4  -3 1443.09 614.686   2
  -2   4   2 1024.31 637.790  16
  -2   4   2 1123.93 336.398  17
   2  -4  -2 874.619 678.584   2
  -2   4   1 1754.58 632.103  16
  -2   4   1 1662.27 600.527  17
   2  -4  -1 899.028 485.766   2
  -2   4   0 8134.95 1456.02  16
  -2   4   0 8878.34 1649.27  17
   2  -4   0 7167.83 1638.72   2
  -2   4  -1 78.0794 312.665  17
   2  -4   1 145.789 604.530   2
  -2   4  -2 12325.3 1934.82  17
   2  -4   2 11434.1 2202.94   2
  -2   4  -3 2301.69 1125.89  17
   2  -4   3 983.501 509.127   2
  -2   4  -4 41579.7 3601.92  17
   2  -4   4 44180.8 4567.92   2
   2  -4   5 129.508 895.004   2
   2  -4   6 9238.21 1258.77  23
  -2   4  -6 9877.57 1338.24  27
   2  -4   6 7942.29 1211.40  37
  -2   4  -6 11344.9 1357.84  56
   2  -4   6 8475.74 1826.95   2
  -2   4  -6 5211.83 1810.11   8
   2  -4   7 830.804 638.992  37
  -2   4  -7 569.434 519.159  56
   2  -4   7-211.252 350.072  23
  -2   4  -7 99.3058 365.140  27
  -2   4  -7 727.529 985.434   8
   2  -4   7-37.6314 852.494  13
   2  -4   8 51592.7 3090.42  37
   2  -4   8 46218.2 5555.26  13
  -2   4  -8 56679.6 2909.97  56
   2  -4   8 49826.3 2957.21  23
  -2   4  -9 24844.3 3912.73   8
   2  -4   9 30398.8 4732.45  13
   2  -4   9 37324.9 2620.90  37
  -2   4  -9 42083.7 2829.43  27
  -2   4  -9 41788.0 2541.19  56
   2  -4  10 8643.78 1287.31  37
  -2   4 -10 9900.61 1214.11  56
   2  -4  11 5257.26 903.232  37
  -2   4 -11 7327.79 1088.91  56
  -2   4 -11 7119.00 1148.04  27
   2  -4  11 6489.56 1144.76  23
   2  -4  12 5028.90 915.821  37
  -2   4 -12 5168.42 923.312  56
  -2   4 -12 5490.98 1016.39  27
   2  -4  12 6476.60 1041.58  23
  -2   4 -13 562.524 439.077  19
  -2   4 -13 947.537 534.298  27
   2  -4  13 521.219 392.893  23
  -2   4 -14 90.4260 296.889  19
  -2   4 -14 636.003 368.538  27
   2  -4  14 181.831 315.126  23
  -2   4 -15 3945.47 733.564  27
  -2   4 -15 2737.42 575.650  19
   2  -4  15 3729.34 646.483  23
  -2   4 -16 490.723 313.538  27
  -2   4 -16 216.537 232.272  19
   2  -4  16 298.053 349.924  46
   2  -4  16-275.338 293.959  23
   2  -4  17 1528.77 373.454  46
  -2   4 -17 841.670 268.139  19
   2  -3 -18 2539.46 667.000  40
   2  -3 -18 2257.70 490.859  29
   2  -3 -17 856.875 513.203  40
   2  -3 -17 511.259 380.042  29
   2  -3 -17 836.209 326.833  51
   2  -3 -16 710.904 422.799  51
   2  -3 -15 267.619 448.606  51
   2  -3 -14 1432.60 469.020  51
   2  -3 -13 44000.6 2803.37  41
   2  -3 -13 38906.2 2364.31  28
   2  -3 -12 4256.47 972.543  41
   2  -3 -12 3201.91 805.588  28
   2  -3 -12 2134.41 698.169  44
   2  -3 -12 3560.61 715.693  51
   2  -3 -11 3164.53 1591.15   3
   2  -3 -11 5818.12 1077.73  51
   2  -3 -11 5908.44 1209.75  41
  -2   3  11 3962.49 1503.81  16
   2  -3 -11 3132.36 1854.05   6
   2  -3 -11 5626.49 906.984  28
   2  -3 -11 1762.25 895.492  44
   2  -3 -11 5143.99 864.126  22
   2  -3 -10 780.667 685.570  41
  -2   3  10 418.163 717.740  16
   2  -3 -10 623.127 360.496  28
   2  -3 -10 512.467 788.465   6
   2  -3 -10 298.950 338.254  51
   2  -3 -10 769.220 492.977  22
   2  -3 -10-357.491 1310.74   3
   2  -3 -10 868.741 524.258  44
  -2   3   9 25425.4 3178.47  16
   2  -3  -9 25345.6 3588.23   6
  -2   3   9 22916.7 3303.68  15
   2  -3  -9 25693.5 1872.01  28
   2  -3  -9 22745.6 3671.83   3
   2  -3  -9 24342.5 1503.17  22
   2  -3  -9 25837.0 1867.60  51
  -2   3   8-873.233 1110.44  16
   2  -3  -8 504.329 889.397   6
  -2   3   8-47.6126 659.744  15
   2  -3  -7 25742.2 3484.50   6
  -2   3   7 27088.7 3447.07  15
  -2   3   7 29656.0 2643.26  17
  -2   3   7 27644.9 3164.86  16
   2  -3  -6 11585.4 2215.87   2
   2  -3  -6 9818.06 2231.45   6
  -2   3   6 13926.8 1834.54  17
  -2   3   6 12476.9 2029.75  16
  -2   3   6 10491.1 1983.93  15
  -2   3   5 18.1950 341.488  17
   2  -3  -5 560.607 680.497   2
  -2   3   5 319.148 581.922  16
  -2   3   5 354.479 594.446  15
  -2   3   4-234.957 411.473  15
   2  -3  -4 56.7029 733.096   2
  -2   3   4-90.2153 582.749  16
  -2   3   4-436.895 527.351  17
   2  -3  -3 111360. 6589.04   2
  -2   3   3 120635. 5134.78  17
  -2   3   3 116783. 5453.87  16
  -2   3   3 113887. 6425.65  15
  -2   3   2 3901.64 941.092  17
  -2   3   2 4057.53 973.136  16
   2  -3  -2 3208.32 764.140   2
  -2   3   1-423.081 564.674  16
  -2   3   1-220.500 316.298  17
   2  -3  -1-115.711 527.291   2
  -2   3   0 620.848 453.853  17
  -2   3   0 483.884 554.808  16
   2  -3   0 503.339 521.084   2
   2  -3   1 16976.6 2466.23   2
  -2   3  -1 17377.2 1954.38  17
  -2   3  -1 15300.8 1639.35  16
   2  -3   2 187.143 440.254   2
  -2   3  -2 96.3571 359.528  17
  -2   3  -2-63.5560 517.058  16
   2  -3   3 17359.1 2544.52   2
  -2   3  -3 17725.5 2014.90  17
   2  -3   4 18756.0 2235.46  12
   2  -3   4 19008.5 2607.41   2
  -2   3  -4 19239.0 2068.32  17
   2  -3   4 14872.4 2567.33  13
   2  -3   5 49227.6 3858.56  12
   2  -3   5 39769.6 3885.75   2
  -2   3  -5 43140.9 3151.23  17
   2  -3   5 42008.6 4465.23  13
   2  -3   6 330.055 678.606  13
   2  -3   6 250.516 436.517  12
  -2   3  -6 232.326 340.485  17
   2  -3   6-234.148 801.119   2
  -2   3  -6 270.263 582.731   8
   2  -3   7 7662.00 1730.98  12
  -2   3  -7 5089.59 1748.89   8
   2  -3   7 5798.72 1865.59  13
   2  -3   8-274.883 444.872  12
  -2   3  -8-25.3418 559.783  27
  -2   3  -8-112.083 631.883   8
   2  -3   8 162.513 660.583  13
  -2   3  -9 933.281 488.731  27
   2  -3   9 704.378 679.613  12
  -2   3  -9 2386.82 572.365  56
   2  -3   9 1460.66 496.030  52
  -2   3  -9 679.216 873.060  57
  -2   3  -9 1162.57 541.758   8
   2  -3   9 591.377 795.353  13
  -2   3 -10 13946.6 1612.28  27
   2  -3  10 10231.8 2188.37  12
  -2   3 -10 7001.78 1888.44   8
  -2   3 -10 11827.5 1326.33  56
   2  -3  10 10157.5 2725.36  13
   2  -3  10 11699.5 1381.25  52
   2  -3  11 37378.7 4419.78  12
   2  -3  11 37287.0 4880.24  13
  -2   3 -11 33053.7 2170.55  56
  -2   3 -11 40715.4 2712.85  27
  -2   3 -11 32077.1 4287.12   8
   2  -3  12 2705.22 370.240  37
  -2   3 -12 2053.69 596.233  19
  -2   3 -12 4221.19 852.468  27
  -2   3 -12 2829.19 961.861  54
  -2   3 -13 587.287 349.813  27
  -2   3 -13 328.855 474.390  19
  -2   3 -13 977.298 667.532  54
   2  -3  13 216.893 359.796  37
   2  -3  14 12051.5 1356.96  37
  -2   3 -14 9507.95 1366.43  19
  -2   3 -14 9435.57 1414.10  54
  -2   3 -14 13729.1 1410.78  27
  -2   3 -15 9709.44 1331.93  54
  -2   3 -15 9090.63 1204.09  19
  -2   3 -16 1117.13 431.244  19
  -2   3 -16 824.841 437.029  54
  -2   3 -16 1350.89 392.092  27
   2  -3  16 1352.52 408.120  23
  -2   3 -17 884.438 352.492  27
  -2   3 -17 347.284 156.544  19
  -2   3 -17 174.449 265.216  54
   2  -3  17 329.391 224.117  23
   2  -3  18 6559.64 664.111  46
  -2   3 -18 5131.68 734.838  54
   2  -2 -18 1467.52 423.479  29
   2  -2 -18 1123.53 349.888  51
   2  -2 -17-300.957 363.142  51
   2  -2 -17 7.14663 254.048  29
   2  -2 -16 752.662 426.750  40
   2  -2 -16 1036.23 554.696  44
   2  -2 -16 724.374 394.613  51
   2  -2 -15 2558.38 591.984  51
   2  -2 -15 2078.52 656.160  44
   2  -2 -14 762.063 369.585  51
   2  -2 -14 641.960 306.099  44
   2  -2 -13 3837.22 822.839  44
   2  -2 -13 4292.56 694.842  28
   2  -2 -13 3971.63 878.423  51
   2  -2 -12 18057.0 3341.82   3
   2  -2 -12 19277.4 1651.95  28
  -2   2  12 17002.0 2710.70  16
   2  -2 -12 17548.5 3477.43   6
  -2   2  11-10.5884 640.412  15
   2  -2 -11 360.601 1147.19   6
   2  -2 -11 272.071 386.179  51
   2  -2 -11 387.037 590.746  28
   2  -2 -11 301.338 655.918   3
   2  -2 -11-70.0583 499.017  44
   2  -2 -10 67949.4 5855.94   6
   2  -2 -10 78326.4 3232.40  28
   2  -2 -10 66197.7 5994.27   3
  -2   2  10 63973.8 5729.00  15
   2  -2  -9 1848.88 965.608   6
   2  -2  -9 2160.04 1227.17   3
  -2   2   9 1740.09 996.004  15
   2  -2  -8 20769.7 3121.71   6
  -2   2   8 21688.8 3137.27  15
   2  -2  -8 21411.8 3285.23   3
   2  -2  -7 5579.65 1467.14   6
  -2   2   7 6167.27 1030.46  17
  -2   2   7 6010.10 1568.19  15
   2  -2  -6 3307.60 1275.17   6
  -2   2   6 3693.66 857.064  17
  -2   2   6 3929.06 1310.85  15
   2  -2  -5 17717.1 2664.37   6
   2  -2  -5 21001.0 2750.96   2
  -2   2   5 19151.3 2607.47  15
  -2   2   5 21682.8 2015.48  17
  -2   2   4-376.332 416.965  17
  -2   2   4-187.936 392.976  15
   2  -2  -4-167.610 784.747   2
  -2   2   3 143983. 6541.26  15
  -2   2   3 145841. 5286.09  17
   2  -2  -3 138974. 6714.32   2
  -2   2   3 139508. 5384.22   9
  -2   2   2 35128.6 3286.87  15
   2  -2  -2 36161.8 3326.99   2
  -2   2   2 36507.4 2671.52  17
  -2   2   2 30340.0 2800.78   9
  -2   2   1-99.9265 571.035   9
  -2   2   1 216.081 265.236  17
  -2   2   1 288.329 645.924  15
   2  -2  -1 365.268 447.339   2
   2  -2   0 26859.6 2695.62   2
  -2   2   0 26939.7 2253.43  17
  -2   2   0 27288.8 2065.30  16
  -2   2  -1 1565.59 656.430  17
  -2   2  -1 1074.00 393.644  16
   2  -2   1 1122.36 733.688   2
   2  -2   2 98182.5 4023.66  12
   2  -2   2 105207. 5262.55   2
  -2   2  -2 105342. 4427.66  17
   2  -2   2 96126.4 5347.49  13
  -2   2  -2 103119. 3570.33  16
   2  -2   3 18577.3 2200.57   2
  -2   2  -3 19096.2 1874.08  17
   2  -2   3 16583.9 2347.84  13
   2  -2   3 17701.7 1737.71  12
   2  -2   4 31675.6 2601.48  12
   2  -2   4 28676.2 2633.90   2
  -2   2  -4 29231.2 2308.26  17
   2  -2   4 28124.4 3090.06  13
  -2   2  -5 18086.0 2463.32   8
   2  -2   5 19089.7 2192.89  12
   2  -2   5 21351.4 2331.94   2
  -2   2  -5 18356.1 1805.27  17
   2  -2   5 18822.4 2724.72  13
   2  -2   6 3969.44 1361.90  13
   2  -2   6 3261.58 982.310  12
  -2   2  -6 3003.41 784.966  17
  -2   2  -6 3418.27 1268.23   8
   2  -2   7 62093.9 5244.69  13
   2  -2   7 54967.7 4504.04  12
  -2   2  -7 52709.3 3072.76  17
  -2   2  -7 52024.4 4676.53   8
   2  -2   8 54430.4 5193.95  13
  -2   2  -8 43556.9 4482.30   8
   2  -2   9 26823.4 3736.33  13
   2  -2   9 25768.1 3378.41  12
  -2   2  -9 24954.2 3369.35   8
  -2   2 -10 568.571 510.571  57
   2  -2  10 1429.18 573.006  12
   2  -2  10 1729.32 1271.87  13
  -2   2 -10 3662.65 931.690  27
  -2   2 -10 1124.02 499.243   8
   2  -2  10 2485.87 587.223  52
  -2   2 -11 1634.27 902.182  57
   2  -2  11 1718.27 941.884  12
  -2   2 -11 2269.51 572.750  27
  -2   2 -11 1690.11 1221.65   8
   2  -2  11 1130.25 583.506  13
   2  -2  12 31897.3 4111.47  12
   2  -2  12 36647.2 4782.43  13
  -2   2 -12 30836.4 4231.31   8
  -2   2 -12 28865.2 2424.14  19
  -2   2 -12 38876.8 2482.32  27
  -2   2 -12 31784.3 2707.27  49
  -2   2 -13 12.5868 227.725  19
  -2   2 -13 499.125 429.613  27
  -2   2 -13 213.869 657.953  49
  -2   2 -13 479.578 599.840  54
  -2   2 -14 12263.9 1491.15  19
  -2   2 -14 15241.3 1517.13  27
  -2   2 -14 10570.1 1608.01  49
  -2   2 -15 19280.6 1741.53  19
  -2   2 -15 23651.4 1727.90  27
  -2   2 -15 21045.2 2065.04  54
  -2   2 -15 20274.3 2028.31  49
  -2   2 -16 10624.2 1201.99  19
  -2   2 -16 14183.2 1144.78  27
  -2   2 -16 11996.6 1501.18  54
  -2   2 -17 4103.12 663.365  19
  -2   2 -17 3559.49 811.786  54
  -2   2 -17 4787.51 645.257  27
  -2   2 -18 53.6048 290.475  54
  -2   2 -19 3538.31 574.627  54
   2  -1 -18 4.21981 251.022  29
   2  -1 -18-65.6133 328.517  44
   2  -1 -18 48.2290 175.721  51
   2  -1 -17 2639.49 541.549  51
   2  -1 -17 2133.07 559.860  29
   2  -1 -17 1844.70 530.440  44
   2  -1 -16 3409.91 679.216  51
   2  -1 -16 3158.85 695.049  44
   2  -1 -15 44420.0 2617.71  44
   2  -1 -15 46107.4 2425.53  51
   2  -1 -14 10996.7 1118.85  28
   2  -1 -14 10431.9 1386.80  44
   2  -1 -14 12029.5 1273.40  51
   2  -1 -13 128.662 354.693  51
   2  -1 -13 589.806 480.089  44
   2  -1 -13-149.591 407.227  28
   2  -1 -12 10561.0 1430.20  44
   2  -1 -12 12508.0 1345.39  51
   2  -1 -12 14369.9 1471.94  28
   2  -1 -12 14154.8 2818.70   3
  -2   1  12 12110.6 2828.53  15
   2  -1 -11 3556.61 819.816  44
   2  -1 -11 2106.33 942.640   3
   2  -1 -11 2015.72 1243.11   6
   2  -1 -11 4214.78 870.781  28
   2  -1 -11 4488.03 787.387  51
  -2   1  11 2388.90 980.136  15
   2  -1 -10 3613.80 1578.57   3
   2  -1 -10 4428.36 1738.70   6
  -2   1  10 4294.26 1592.80  15
   2  -1  -9 363.623 403.387   3
   2  -1  -9 790.384 832.584   6
  -2   1   9 1062.35 842.224  15
   2  -1  -8 6453.89 1748.29   6
  -2   1   8 7785.64 1774.13  15
   2  -1  -8 6835.95 1717.10   3
   2  -1  -7 34748.5 3499.18   6
  -2   1   7 31611.2 3490.74  15
  -2   1   7 29735.7 2147.52  17
   2  -1  -7 31533.1 3761.59   3
   2  -1  -6 66689.3 4587.03   6
  -2   1   6 68519.0 4932.95  15
  -2   1   6 68018.4 3383.04  17
   2  -1  -5 43265.4 3483.35   6
  -2   1   5 43212.0 3790.38  15
   2  -1  -4 102435. 5184.85   6
  -2   1   4 102509. 5519.93  15
   2  -1  -3 108119. 5542.71   2
  -2   1   3 99245.6 4482.37   9
   2  -1  -3 110053. 5102.83   6
  -2   1   3 101944. 5301.19  15
  -2   1   2 423662. 9993.58  15
  -2   1   2 415394. 9194.53   9
   2  -1  -2 420018. 10464.7   2
  -2   1   1 49042.1 3487.89  15
   2  -1  -1 49959.8 3466.07   2
  -2   1   1 50560.1 3180.08   9
   2  -1   0 150097. 5803.95   2
  -2   1   0 140731. 5568.26   9
  -2   1   0 157507. 5812.36  15
   2  -1   1 152608. 5752.66  13
  -2   1  -1 169726. 6006.17  15
  -2   1  -1 139878. 5373.45  14
   2  -1   1 155757. 5709.44   2
  -2   1  -1 158113. 5920.54   9
  -2   1  -2-50.1186 465.001   9
   2  -1   2-12.7314 300.250  12
  -2   1  -2 77.2862 457.338  14
   2  -1   2 196.259 401.034   2
   2  -1   2 429.496 553.689  13
   2  -1   3 43431.3 2857.97   2
  -2   1  -3 39876.7 1706.70  16
  -2   1  -3 40563.6 3338.05  14
   2  -1   3 45661.1 3350.71  13
   2  -1   4 77880.7 4537.19  13
   2  -1   4 78295.5 3682.50   2
  -2   1  -4 77815.6 4751.71  14
  -2   1  -4 71863.3 3953.83   8
   2  -1   5 112604. 4339.94   2
  -2   1  -5 115767. 5959.77  14
  -2   1  -5 113903. 5255.41   8
   2  -1   6 63171.4 4526.41  13
  -2   1  -6 64607.6 4723.76  14
  -2   1  -6 54671.1 2998.50  17
  -2   1  -6 63478.2 4157.81   8
  -2   1  -7 44005.0 4389.65  14
  -2   1  -7 32946.4 2276.25  17
  -2   1  -7 45094.6 3733.84   8
   2  -1   7 43636.0 4011.62  13
   2  -1   8 3827.03 1216.38  13
  -2   1  -8 3176.92 899.093  14
  -2   1  -8 3566.70 1174.77   8
  -2   1  -9 567.152 744.053   8
  -2   1  -9 245.824 839.335  14
   2  -1   9 66.0978 332.873  13
  -2   1 -10 4646.99 1360.71   8
   2  -1  10 4407.88 1511.10  13
  -2   1 -11 28849.6 2102.70  27
  -2   1 -11 28093.7 3717.15   8
   2  -1  11 26798.4 3675.38  13
  -2   1 -12 714.452 661.205   8
  -2   1 -12 1131.23 580.874  57
  -2   1 -12-52.8055 317.265  27
  -2   1 -12 504.896 604.998  49
   2  -1  12-144.901 668.443  13
  -2   1 -13 6660.87 1040.00  19
   2  -1  13 6821.07 2013.34  12
  -2   1 -13 7724.19 1231.26  27
  -2   1 -13 7311.42 1353.12  49
  -2   1 -13 9018.44 1253.55  57
   2  -1  13 6783.23 1796.91  13
  -2   1 -14 8515.81 1241.53  19
  -2   1 -14 9301.27 1434.88  49
  -2   1 -15 67041.0 3011.73  27
  -2   1 -15 67718.7 3159.34  19
  -2   1 -15 63335.6 3782.00  54
  -2   1 -15 56414.0 3726.92  49
  -2   1 -16 837.343 398.526  19
  -2   1 -16 829.515 504.087  54
  -2   1 -16 1193.46 435.663  27
  -2   1 -16 468.279 661.917  49
  -2   1 -17 1145.63 577.842  54
  -2   1 -17 2006.07 444.379  27
  -2   1 -17 1422.33 590.318  49
  -2   1 -18 320.538 391.757  54
  -2   1 -18-415.637 876.949  49
  -2   1 -19 6337.92 839.560  54
  -2   1 -20 310.108 218.130  54
   2   0 -19 1393.68 383.800  44
   2   0 -18 1969.27 510.107  54
   2   0 -18 2657.08 494.021  51
   2   0 -18 2559.72 545.333  44
   2   0 -17-72.7199 375.788  54
   2   0 -17 221.609 263.639  44
   2   0 -17 777.476 412.878  51
   2   0 -16 5320.74 752.044  51
   2   0 -16 4476.13 983.534  54
   2   0 -16 4926.00 867.170  44
   2   0 -15 93546.6 4469.47  54
   2   0 -15 91973.8 3222.91  51
   2   0 -15 87080.8 3744.78  44
   2   0 -14 37323.5 2830.34  54
   2   0 -14 37114.0 2048.58  28
   2   0 -14 36324.3 2088.75  51
   2   0 -14 37528.2 2509.15  44
  -2   0  13 3044.52 1840.25  15
   2   0 -13 1699.35 491.269  28
   2   0 -13 1855.06 431.246  51
   2   0 -13 1218.28 471.522  44
   2   0 -13 1658.99 762.818  54
   2   0 -12 24625.8 1770.09  28
   2   0 -12 24378.9 2219.93  54
  -2   0  12 20945.0 3496.79  15
   2   0 -12 22526.5 1896.05  44
   2   0 -12 22332.1 1591.69  51
   2   0 -11 9223.74 1040.18  28
   2   0 -11 7575.37 1928.01   3
   2   0 -11 7881.96 1386.99  54
   2   0 -11 8335.19 933.757  51
   2   0 -11 8476.46 1213.25  44
  -2   0  11 7344.78 1969.70  15
   2   0 -10 1184.60 870.441   3
  -2   0  10 993.128 1325.49  15
   2   0  -9 911.481 466.473   3
   2   0  -9 1491.32 713.027   6
  -2   0   9 1219.96 1068.04  15
  -2   0   9 1449.89 660.309   4
  -2   0   8 24507.4 2888.88   4
  -2   0   8 26448.7 3488.43  15
   2   0  -8 29467.5 3353.84   6
   2   0  -8 29410.1 3542.16   3
   2   0  -7 55107.9 4378.37   6
  -2   0   7 51516.4 4538.15  15
  -2   0   7 49052.4 3892.75   4
   2   0  -7 56841.1 4751.77   3
   2   0  -6 1187.55 961.147   6
  -2   0   6 966.094 913.295  15
   2   0  -6 1350.58 766.516   1
   2   0  -6 1070.51 894.726   3
   2   0  -5 8721.83 1715.45   6
   2   0  -5 8549.89 1105.20   1
  -2   0   5 8510.93 1679.15  15
   2   0  -5 8745.58 1728.99   3
   2   0  -4 64712.3 3790.28   6
  -2   0   4 59982.4 4101.17  15
   2   0  -3 306733. 7589.47   6
  -2   0   3 310626. 8685.80  15
   2   0  -3 299872. 8994.75   3
   2   0  -2 3694.84 746.356   6
  -2   0   2 3630.45 1238.81  15
  -2   0   2 3289.76 456.783  14
   2   0  -1 5724.32 717.706   6
  -2   0   1 5189.86 1133.06  15
  -2   0   1 5643.92 824.228  14
  -2   0   0 19346.2 1920.94  15
   2   0   0 19757.3 1389.91   6
   2   0   0 20753.9 1770.11  13
  -2   0   0 18357.5 1980.53   9
   2   0   0 19916.2 1970.08   2
  -2   0   0 19501.3 1776.34  14
   2   0   1 46035.1 2681.80  13
  -2   0  -1 45457.4 2841.19   9
   2   0   1 46394.6 2823.41   2
  -2   0  -1 47517.2 2786.43  15
   2   0   1 41449.1 1730.40   6
  -2   0  -1 44593.4 2784.89  14
  -2   0  -2 203011. 6578.25  14
  -2   0  -2 225693. 6554.44   9
  -2   0  -2 212787. 6043.31  15
   2   0   2 212952. 6167.83  13
   2   0   2 212232. 5709.87   2
  -2   0  -3 17207.6 2100.10  14
   2   0   3 17193.6 1456.95   2
  -2   0  -3 19172.6 2106.00   9
  -2   0  -3 14993.1 1312.39   8
   2   0   3 16769.5 1818.20  13
  -2   0  -4 76717.6 4526.62  14
   2   0   4 75999.1 2897.46   2
  -2   0  -4 73464.9 3305.59   8
   2   0   4 76715.0 4194.37  13
  -2   0  -5 2578.73 787.214   8
  -2   0  -5 2272.55 802.433  14
   2   0   5 2747.20 831.485  13
  -2   0  -6 477.074 410.058  14
  -2   0  -6-120.627 562.301   8
   2   0   6 721.185 548.959  13
  -2   0  -7 196217. 7402.86   8
  -2   0  -7 195831. 8457.41  14
   2   0   7 195392. 8166.20  13
  -2   0  -8 4375.18 1275.99  14
  -2   0  -8 4764.36 1295.80   8
   2   0   8 4102.63 1112.69  13
  -2   0  -9 75877.3 5144.65   8
  -2   0  -9 76686.9 5675.35  14
   2   0   9 77986.4 5744.06  13
  -2   0 -10 17099.3 2695.24  14
  -2   0 -10 14610.7 2319.02   8
   2   0  10 14948.0 2710.59  13
  -2   0 -11 6101.84 1760.07  14
  -2   0 -11 6591.82 1035.27  57
  -2   0 -11 4427.49 1254.92   8
   2   0  11 5215.14 1628.37  13
  -2   0 -12 21499.4 1793.28  57
  -2   0 -12 19159.1 2979.96  14
  -2   0 -12 16280.4 2886.63   8
   2   0  12 16704.8 3015.70  13
  -2   0 -13 572.810 440.748  27
   2   0  13 481.327 431.323  13
  -2   0 -13 1195.27 625.307  57
  -2   0 -14 9711.48 1255.99  57
  -2   0 -14 8777.96 1109.21  27
  -2   0 -15 10089.2 1799.59  49
  -2   0 -15 13642.1 1345.00  27
  -2   0 -15 14369.3 1873.83  54
  -2   0 -16 13019.9 1765.47  54
  -2   0 -16 10863.4 1729.05  49
  -2   0 -17 2609.64 891.747  54
  -2   0 -17 1578.17 800.833  49
  -2   0 -18 1377.86 538.966  54
  -2   0 -18 1532.34 671.421  49
  -2   0 -19 10764.1 1196.68  54
  -2   0 -19 10007.6 1275.67  49
  -2   0 -20-73.6262 205.118  54
   2   1 -19 178.429 256.250  44
   2   1 -18-72.8517 353.234  54
   2   1 -18-144.374 359.220  44
   2   1 -17 12145.3 1227.09  44
   2   1 -16 1134.96 384.298  44
   2   1 -16 1041.45 653.969  54
   2   1 -16 1563.84 406.036  51
   2   1 -15 477.770 571.246  44
   2   1 -15 921.308 572.187  54
   2   1 -15 466.307 336.277  51
   2   1 -15 883.151 1029.88  49
   2   1 -14 43748.2 3158.03  54
   2   1 -14 42274.2 2144.80  51
   2   1 -14 43360.0 2628.11  44
   2   1 -13 41434.0 2132.73  51
  -2  -1  13 39485.7 5043.39  15
   2   1 -13 42024.7 3216.50  54
   2   1 -13 40931.8 2565.85  44
   2   1 -12 56838.5 3709.20  54
   2   1 -12 56351.1 3028.47  44
   2   1 -12 56019.5 2514.49  51
   2   1 -11 648.993 453.249  44
   2   1 -11 1002.89 427.430  51
   2   1 -11 988.250 760.025  54
   2   1 -11 1272.11 888.381   8
  -2  -1  10 149653. 7714.90   4
   2   1 -10 160509. 8669.08   8
   2   1  -9 10333.3 1998.11   8
  -2  -1   9 8732.43 1800.59   4
   2   1  -9 9300.64 2166.76   3
  -2  -1   8 12695.4 2097.21   4
   2   1  -8 13437.8 2397.13   3
  -2  -1   7 28517.4 2907.15   4
   2   1  -7 31003.5 3099.72   8
   2   1  -7 30261.6 3481.38   3
   2   1  -6 82660.5 4679.45   8
  -2  -1   6 71017.8 4596.23   4
   2   1  -6 72264.6 5314.29   3
  -2  -1   5 29680.8 2010.03  12
   2   1  -5 31768.2 2193.15   1
   2   1  -5 38734.2 2757.49   8
   2   1  -5 30429.7 2891.52   6
   2   1  -5 31859.9 3272.09   3
  -2  -1   5 28547.1 2855.57   4
   2   1  -4 56562.4 3518.06   6
   2   1  -4 56534.4 2941.75   1
   2   1  -4 66607.5 3253.12   8
  -2  -1   4 52724.7 3700.98   4
   2   1  -4 59044.7 4139.88   3
  -2  -1   4 63079.5 2532.85  12
  -2  -1   3 3595.67 564.980  12
   2   1  -3 2126.48 690.833   6
  -2  -1   3 2298.76 905.437   4
  -2  -1   3 2171.70 418.203  14
   2   1  -3 2538.51 891.835   3
   2   1  -2 93487.6 4788.33   3
  -2  -1   2 95168.9 4523.53  15
  -2  -1   2 87033.3 3229.30  14
  -2  -1   1 3023.42 678.147  15
  -2  -1   1 2717.35 615.060  14
   2   1  -1 2808.88 756.071   3
  -2  -1   0 246576. 6389.65  15
   2   1   0 264204. 5159.31  13
  -2  -1   0 259721. 6402.70  14
   2   1   0 254058. 6850.42   3
  -2  -1  -1 4664.26 1012.83   9
  -2  -1  -1 5426.63 878.923  15
  -2  -1  -1 4825.81 1072.45  14
   2   1   1 5980.16 862.917  13
   2   1   1 5611.63 882.999   3
  -2  -1  -2 689.215 643.504   9
   2   1   2 262.898 418.857  10
  -2  -1  -2-278.682 502.212  14
   2   1   2-73.4085 383.096  13
   2   1   2 270.067 326.946   3
   2   1   3 46.6228 296.292   3
   2   1   3 344.122 513.282  10
  -2  -1  -3-158.163 494.123   9
  -2  -1  -3 40.0036 403.104  14
   2   1   3 65.0860 238.537  13
   2   1   4 73204.0 4447.62  10
  -2  -1  -4 77741.9 3968.68   9
  -2  -1  -4 70523.5 4193.44  14
   2   1   4 64716.0 3893.76  13
  -2  -1  -5 12559.8 1919.75  14
   2   1   5 13039.1 2021.04  10
  -2  -1  -5 17759.8 1928.12   9
  -2  -1  -5 11914.9 1409.72   8
   2   1   5 11986.4 1891.43  13
   2   1   6 58903.1 4340.38  10
  -2  -1  -6 58071.1 3376.09   8
  -2  -1  -6 53784.8 4030.45  14
   2   1   6 49936.6 3959.53  13
   2   1   7 2449.48 950.321  13
  -2  -1  -7 1788.11 953.832  14
  -2  -1  -7 1611.95 545.669   8
  -2  -1  -8 274675. 9191.37   8
  -2  -1  -8 292463. 10321.9  14
   2   1   8 295724. 10567.6  13
  -2  -1  -9 12367.7 2077.46   8
   2   1   9 11360.4 2226.77  13
  -2  -1  -9 12379.6 2288.66  14
  -2  -1 -10 37704.6 3912.12  14
  -2  -1 -10 32663.3 3582.31   8
   2   1  10 32650.5 4033.51  13
  -2  -1 -11 3554.15 1332.58   8
  -2  -1 -11 5584.56 1557.79  14
   2   1  11 4560.77 1755.63  13
  -2  -1 -12 1326.51 427.794  40
  -2  -1 -12 2806.87 735.152  57
  -2  -1 -12 3109.64 1027.33  14
   2   1  12 1564.42 952.603  13
  -2  -1 -13 2091.11 846.505  40
   2   1  13 2011.85 1357.72  13
  -2  -1 -13 928.072 747.262  14
  -2  -1 -13 2647.92 803.839  57
  -2  -1 -16 10.5014 456.201  54
  -2  -1 -17 823.290 488.199  54
  -2  -1 -17 291.557 473.410  49
  -2  -1 -18 136.081 360.885  54
  -2  -1 -18-193.631 456.880  49
  -2  -1 -19 1349.57 482.278  54
  -2  -1 -19 1558.83 581.936  49
  -2  -1 -20 334.642 377.363  49
  -2  -1 -20 607.381 301.266  54
   2   2 -19 1018.89 351.622  44
   2   2 -18 4694.61 637.908  44
   2   2 -18 3733.38 834.399  54
   2   2 -17 4200.41 641.865  44
   2   2 -17 3821.42 885.366  54
   2   2 -16 5009.04 1072.76  54
   2   2 -16 5413.52 895.328  44
   2   2 -15 4483.95 895.671  44
   2   2 -15 5106.47 1157.82  54
   2   2 -14 5236.64 1157.52  54
   2   2 -14 6098.18 969.377  44
   2   2 -14 3640.93 682.973  51
   2   2 -13 40758.5 5123.47   8
   2   2 -13 38256.8 3134.09  54
   2   2 -13 34126.8 1952.01  51
   2   2 -13 48025.3 3165.89  49
   2   2 -13 39528.6 2613.24  44
  -2  -2  12 13332.0 2751.01   4
   2   2 -12 15618.6 2977.29   8
   2   2 -12 12301.9 1851.61  54
   2   2 -12 13421.9 1511.78  44
   2   2 -12 12246.6 1175.97  51
   2   2 -12 15144.0 1798.69  49
   2   2 -11 31650.1 2521.88  19
  -2  -2  11 32285.0 3859.40   4
   2   2 -11 36998.1 4348.41   8
   2   2 -11 30983.9 2813.94  54
   2   2 -11 32475.9 1830.86  51
   2   2 -11 34468.5 2331.88  44
  -2  -2  10 6549.88 1824.94   4
   2   2 -10 8959.41 2142.61   8
  -2  -2   9 41077.8 4281.16   4
   2   2  -9 48118.6 4541.76   8
   2   2  -8 12912.7 1687.16   1
  -2  -2   8 13715.2 1998.33  12
  -2  -2   8 13859.6 2398.00   4
   2   2  -8 15161.1 2362.50   8
  -2  -2   7 17704.3 2065.29  12
  -2  -2   7 17831.5 2632.38   4
   2   2  -7 20693.8 2225.81   1
   2   2  -7 20809.1 2608.19   8
  -2  -2   6 581.095 827.054   4
  -2  -2   6 1166.61 648.639  12
   2   2  -6 1133.70 873.662   1
   2   2  -6 750.853 396.895   8
  -2  -2   5 60127.3 3400.58  12
  -2  -2   5 55072.4 4036.82   4
   2   2  -5 65841.8 3809.01   8
   2   2  -5 61234.5 3465.70   1
  -2  -2   4 31392.3 2306.51  12
   2   2  -4 33365.2 2501.42   1
  -2  -2   4 32937.5 2974.56   4
   2   2  -4 38975.5 2657.03   8
   2   2  -4 32482.8 3347.74   3
   2   2  -3 838.000 683.302   3
  -2  -2   3 1105.08 574.241  12
  -2  -2   3 998.258 596.836   4
   2   2  -3 1545.08 749.437   1
   2   2  -3 1446.37 588.572   8
  -2  -2   3 893.258 550.949  14
  -2  -2   2 17829.1 1507.31  12
   2   2  -2 16222.5 1280.49   8
   2   2  -2 12982.2 1446.67   1
  -2  -2   2 14444.6 1787.16   4
  -2  -2   2 13181.6 1464.81  14
   2   2  -2 14213.2 1950.71   3
  -2  -2   1 28004.4 1926.08  12
   2   2  -1 27701.5 2071.77  10
  -2  -2   1 22446.6 2092.45   4
  -2  -2   1 20441.7 1909.27  14
   2   2  -1 23860.8 2291.09   3
  -2  -2   0 26138.8 2073.34  15
  -2  -2   0 24643.4 2156.71  14
   2   2   0 30013.2 2365.24  10
   2   2   0 26490.0 1358.45  13
  -2  -2  -1 2494.85 812.483  14
   2   2   1 3206.13 769.594  10
   2   2   1 2697.31 551.659  13
   2   2   2 60409.9 3555.74  10
  -2  -2  -2 45846.1 3215.78  14
   2   2   3 7332.09 1351.77  10
  -2  -2  -3 5948.36 1190.25   9
  -2  -2  -3 4782.97 1125.05  14
  -2  -2  -4 7524.24 1448.18   9
   2   2   4 10259.3 1759.01  10
  -2  -2  -4 7337.56 1434.18  14
  -2  -2  -5 15540.6 2181.91  14
   2   2   5 17740.1 2242.33  10
  -2  -2  -5 18759.5 1988.67   9
   2   2   6 20850.6 2561.85  10
  -2  -2  -6 19797.9 2582.45  14
   2   2   6 20195.5 2518.39  13
  -2  -2  -7 41287.6 3841.34  14
   2   2   7 46193.2 3919.90  10
   2   2   7 45110.0 4114.84  13
   2   2   8 237076. 9253.42  10
  -2  -2  -8 216282. 9025.82  14
   2   2   8 224281. 9567.29  13
   2   2   9 32119.9 3582.64  10
  -2  -2  -9 29204.9 3328.82  14
   2   2   9 27500.8 3619.70  13
   2   2  10 16675.7 2745.32  10
  -2  -2 -10 15674.1 2600.48  14
   2   2  10 13844.0 2767.06  13
   2   2  11 20308.4 3326.50  13
  -2  -2 -11 22191.8 3024.49  14
  -2  -2 -12 10545.3 1402.08  40
  -2  -2 -12 14892.4 1426.50  33
  -2  -2 -12 13062.0 2440.08  14
   2   2  12 10864.3 2593.99  13
  -2  -2 -13 2425.99 980.004  40
  -2  -2 -13 2027.03 848.571  14
   2   2  13 2426.96 1370.23  13
  -2  -2 -14 6557.64 1471.08  40
  -2  -2 -15 14584.5 1699.09  40
  -2  -2 -16 259.155 403.913  54
  -2  -2 -17 356.945 481.508  54
  -2  -2 -18 1421.81 627.601  54
  -2  -2 -19 5634.79 983.957  49
  -2  -2 -19 6686.11 966.462  54
  -2  -2 -20 1251.17 383.781  54
  -2  -2 -20 1199.92 469.543  49
   2   3 -19 478.063 261.217  44
   2   3 -18 837.824 327.969  44
   2   3 -18 936.519 676.591  54
   2   3 -17 12186.2 1156.70  44
   2   3 -17 9499.88 1454.34  54
   2   3 -16 760.278 511.939  44
   2   3 -16 877.116 640.899  54
   2   3 -15 133.974 402.794  44
   2   3 -15 885.941 703.498  54
   2   3 -14 9794.80 1605.65  54
   2   3 -14 7877.11 1179.11  44
   2   3 -13 3029.65 861.551  44
   2   3 -13 2922.76 782.346  19
   2   3 -13 1825.19 931.418  54
   2   3 -12 505.324 612.449  44
   2   3 -12 194.963 438.427  19
   2   3 -12-167.831 661.775  54
  -2  -3  12 1148.73 895.048   4
   2   3 -12 142.985 488.366   8
   2   3 -11 845.175 730.909  54
  -2  -3  11-168.086 1001.77   4
   2   3 -11 495.734 407.654  19
   2   3 -11 896.725 533.462  44
   2   3 -11 588.251 904.908   8
   2   3 -11 518.216 449.827  47
  -2  -3  10 72894.3 5599.48  12
   2   3 -10 79721.8 3628.47  19
   2   3 -10 80731.8 6392.24   8
  -2  -3  10 76095.4 6416.07   4
   2   3 -10 73218.2 3961.14  54
   2   3 -10 74517.3 3078.01  47
  -2  -3   9 4239.12 1313.10   4
   2   3  -9 6267.66 1227.63   1
  -2  -3   9 5239.30 1696.88  12
   2   3  -9 5957.02 1846.78   8
  -2  -3   8 618.347 1353.54  12
   2   3  -8 3306.50 1042.64   1
  -2  -3   8 1204.97 1111.11   4
   2   3  -8 1275.61 928.626   8
  -2  -3   7 2098.14 522.037  12
  -2  -3   7 2858.60 1273.42   4
   2   3  -7 2756.76 948.647   1
   2   3  -7 2832.29 1095.65   8
  -2  -3   6 4027.59 998.114  12
   2   3  -6 4296.55 928.106   1
   2   3  -6 4440.29 1113.27   8
  -2  -3   6 3666.63 1246.44   4
  -2  -3   5 126646. 5586.20  12
  -2  -3   5 121349. 6426.72   4
   2   3  -5 138378. 5590.47   1
   2   3  -5 132582. 5956.40   8
   2   3  -4 15903.7 1963.83   1
  -2  -3   4 14460.9 2142.73   4
  -2  -3   4 16192.6 1840.10  12
   2   3  -4 15349.9 1913.17   8
  -2  -3   3 9171.58 1440.51  12
  -2  -3   3 8035.23 1542.18   4
   2   3  -3 10489.4 1072.98  10
   2   3  -3 10248.2 1421.64   1
   2   3  -3 9341.31 1396.42   8
  -2  -3   2 8076.44 1419.18  12
   2   3  -2 7794.83 1424.51   1
   2   3  -2 8291.31 1154.17  10
   2   3  -2 7216.50 1159.04   8
  -2  -3   2 7224.81 1434.46   4
   2   3  -1 96291.2 4283.28   1
  -2  -3   1 101796. 4762.66  12
  -2  -3   1 97931.4 4739.57   4
  -2  -3   0 15025.3 1805.07   4
  -2  -3   0 14815.7 1837.28  12
   2   3   0 14250.7 1659.78   1
   2   3   0 18038.2 1799.47  10
  -2  -3  -1 49487.8 3432.01  12
   2   3   1 45928.5 2902.78   1
  -2  -3  -1 42124.4 3363.03  14
  -2  -3  -2 36343.5 2002.27  15
  -2  -3  -2 34499.7 3144.27  14
   2   3   3 42087.0 3327.80  10
  -2  -3  -3 28287.2 2989.63  14
   2   3   4 5700.35 1386.16  10
  -2  -3  -4 4234.48 995.269   9
  -2  -3  -4 4829.29 1297.01  14
   2   3   4 4889.59 1178.02  13
  -2  -3  -5-206.722 696.228  14
  -2  -3  -5-67.4154 451.773   9
   2   3   5-28.4688 390.070  13
   2   3   5-215.939 742.505  10
   2   3   6 32201.8 3294.70  10
  -2  -3  -6 27662.8 3106.94  14
   2   3   6 28205.4 3180.84  13
   2   3   7 14615.4 2324.56  10
  -2  -3  -7 13445.2 2347.24  14
   2   3   7 16405.2 2490.84  13
   2   3   8 1006.02 567.733  10
  -2  -3  -8 835.670 821.800  14
   2   3   8 1275.85 767.693  13
   2   3   9 16205.8 2628.97  10
  -2  -3  -9 14659.2 2496.08  14
   2   3   9 14089.2 2724.03  13
   2   3  10 2678.45 1180.02  10
  -2  -3 -10 2696.30 969.022  14
   2   3  10 1838.66 1135.26  13
  -2  -3 -11 1037.73 660.153  33
   2   3  11 917.676 1050.11  10
  -2  -3 -11 882.428 626.973  48
  -2  -3 -11 828.149 813.687  14
   2   3  11 271.594 894.865  13
  -2  -3 -12 25491.3 2160.96  48
  -2  -3 -12 22834.6 2254.75  40
  -2  -3 -12 25664.5 2065.84  33
   2   3  12 27264.4 3849.05  10
  -2  -3 -12 27092.6 3600.44  14
  -2  -3 -13 4088.62 1351.48  40
  -2  -3 -13 7230.14 1234.29  33
  -2  -3 -13 7974.72 1531.34  48
   2   3  13 5230.45 2104.99  13
  -2  -3 -13 5748.43 1711.88  14
  -2  -3 -14 6585.06 1224.26  40
  -2  -3 -15 16595.4 1924.61  40
  -2  -3 -16 10968.6 1631.18  40
  -2  -3 -20 21.9837 234.455  54
  -2  -3 -20-1.67374 290.889  49
   2   4 -18 4808.73 565.199  44
   2   4 -17 25.6380 234.456  44
   2   4 -17 980.576 633.773  54
   2   4 -16 3708.58 700.829  44
   2   4 -16 2930.90 747.008  54
   2   4 -15 1128.55 540.808  44
   2   4 -15 1065.68 619.011  54
   2   4 -14 21228.6 2044.33  19
   2   4 -14 18682.9 2076.12  54
   2   4 -14 21140.5 1810.73  44
   2   4 -13 7168.62 1209.92  44
   2   4 -13 6045.28 1328.17  54
   2   4 -12 3533.43 925.340  19
   2   4 -12 3585.91 1013.79  44
   2   4 -12 2323.16 910.075  54
   2   4 -11 71234.6 3596.46  19
   2   4 -11 65801.6 6497.55   8
   2   4 -11 51049.3 3830.42  54
  -2  -4  11 63845.2 6538.53   4
   2   4 -11 60737.9 2802.14  47
   2   4 -10 3867.65 676.615  44
  -2  -4  10 3664.44 1529.71  12
   2   4 -10 5428.28 1050.25  19
   2   4 -10 3933.94 1538.10   8
   2   4 -10 3837.62 973.778  54
  -2  -4  10 3598.47 1444.94   4
   2   4 -10 4148.23 830.340  47
   2   4  -9 598.371 592.572  44
   2   4  -9 2097.76 867.314   1
   2   4  -9 271.384 719.107  54
  -2  -4   9-433.636 592.413  12
  -2  -4   9 802.410 832.625   4
   2   4  -9 570.819 1007.51   8
   2   4  -9 875.871 436.977  47
   2   4  -8 114.852 475.259   8
  -2  -4   8-855.755 1020.35  12
  -2  -4   8 70.3182 907.680   4
   2   4  -8 0.67630 852.052   1
   2   4  -7 2759.23 1281.77   1
  -2  -4   7 2374.17 917.803  12
   2   4  -7 1454.54 779.993   8
  -2  -4   7 2414.05 1377.92   4
  -2  -4   6 12299.0 1986.03  12
  -2  -4   6 12693.0 2586.92   4
   2   4  -6 11869.4 2039.07   1
   2   4  -6 12167.1 2159.08   8
   2   4  -5 53419.9 4033.02   1
  -2  -4   5 48359.3 4592.26   4
   2   4  -5 47257.1 4041.12   8
  -2  -4   5 50600.6 4105.82  12
   2   4  -4 51639.7 3748.12   1
  -2  -4   4 46291.0 3810.50  12
  -2  -4   4 41779.6 4003.68   4
   2   4  -3 3735.40 1082.84   1
  -2  -4   3 2824.39 881.273  12
  -2  -4   3 2861.39 922.329   4
   2   4  -3 2432.38 875.244   8
  -2  -4   2 22184.2 2794.11  12
   2   4  -2 27350.3 2301.90  10
   2   4  -2 26692.2 2519.42   1
  -2  -4   2 26698.1 2906.81   4
  -2  -4   1 664.531 538.708  12
  -2  -4   1 897.924 535.845   4
   2   4  -1 458.885 406.537  10
   2   4  -1 388.825 385.557   1
  -2  -4   0 30627.5 3044.28  12
  -2  -4   0 28969.1 2732.29   4
   2   4   0 30461.1 2686.50   1
  -2  -4  -1 34858.1 3253.14  12
   2   4   1 38291.6 2876.28   1
  -2  -4  -1 35148.1 2824.86   4
   2   4   2 31489.7 2569.57   1
   2   4   3 14013.8 1785.12   1
   2   4   3 14763.5 2184.94  10
  -2  -4  -3 10479.5 1897.67  14
  -2  -4  -4 22446.6 2872.06  14
   2   4   4 30361.6 2507.95   1
   2   4   4 31181.4 3238.42  10
  -2  -4  -5 6447.18 1637.09  14
   2   4   5 7892.17 1411.80   1
   2   4   5 10115.4 1888.74  10
   2   4   5 9235.09 1382.61   7
   2   4   6 1999.02 800.398   1
   2   4   6 3374.78 1227.22  10
  -2  -4  -6 2736.94 1086.55  14
   2   4   6 3369.99 901.133   7
   2   4   7 49490.3 4480.95  10
  -2  -4  -7 44565.8 4286.39  14
   2   4   7 46973.9 3065.63   7
   2   4   8 22406.7 3074.41  10
  -2  -4  -8 20590.4 2949.15  14
   2   4   9 2327.36 668.041  10
  -2  -4  -9 1811.83 639.854  14
  -2  -4 -10 9395.11 2214.44  14
  -2  -4 -10 8504.50 1293.13  32
   2   4  10 9393.82 1993.97  10
   2   4  10 6020.43 2110.09  13
  -2  -4 -11 6954.87 1338.11  40
  -2  -4 -11 7005.31 1171.19  33
  -2  -4 -11 8009.08 1307.48  32
   2   4  11 8988.40 2015.93  10
   2   4  11 5464.21 1797.14  13
  -2  -4 -11 7683.61 1943.23  14
  -2  -4 -11 8176.96 1481.40  48
  -2  -4 -12 1260.82 911.875  40
  -2  -4 -12 1044.20 573.146  33
   2   4  12 477.409 940.128  10
  -2  -4 -12 567.680 518.794  14
  -2  -4 -12 2028.70 1055.85  48
   2   4  12 505.246 775.719  13
  -2  -4 -13 11011.4 1725.81  40
  -2  -4 -13 11948.1 1422.46  33
   2   4  13 8959.15 1833.88  10
  -2  -4 -13 5294.13 864.466  14
  -2  -4 -13 13112.6 1767.96  48
   2   4  13 7526.96 2540.08  13
  -2  -4 -14 17394.9 1889.91  40
  -2  -4 -14 18674.4 2018.32  48
  -2  -4 -15 39225.5 2897.17  40
  -2  -4 -16-119.307 582.885  40
  -2  -4 -16 477.606 564.343  54
  -2  -4 -17 555.464 416.755  40
  -2  -4 -17 338.903 409.938  54
  -2  -4 -18 1294.44 478.353  54
  -2  -4 -20 1257.39 403.650  49
   2   5 -18 584.180 258.875  44
   2   5 -17 7754.18 782.362  44
   2   5 -16 1027.45 437.874  44
   2   5 -15 337.216 417.806  54
   2   5 -15 140.582 253.689  44
   2   5 -14 30392.3 2256.65  19
   2   5 -14 29260.7 2557.09  54
   2   5 -13 281.309 449.622  44
   2   5 -13 113.787 265.910  19
   2   5 -13 554.169 530.891  54
   2   5 -12 8641.18 1589.23  54
   2   5 -11 1458.29 672.854  19
   2   5 -11 1486.85 765.156  54
   2   5 -11 756.054 472.124  44
  -2  -5  10 5334.08 1810.09  12
   2   5 -10 7740.82 1216.40  19
   2   5 -10 8189.57 1112.23  47
   2   5 -10 6904.56 1369.05  54
  -2  -5  10 7044.59 2097.78   4
   2   5 -10 5994.86 1937.67   8
   2   5 -10 6806.89 1334.69  44
  -2  -5   9-524.382 866.506  12
   2   5  -9 838.223 725.596  54
   2   5  -9-401.723 1132.35   8
   2   5  -9 1288.57 443.570  47
  -2  -5   9 164.051 754.669   4
   2   5  -8 486.449 618.785  47
  -2  -5   8 899.551 1280.48  12
   2   5  -8 1645.72 1357.50   1
   2   5  -8 600.461 854.606  54
   2   5  -8 503.323 785.292   8
  -2  -5   8 1413.39 1496.57   4
   2   5  -7 6205.75 1652.82   1
  -2  -5   7 4427.44 1616.76  12
  -2  -5   7 4274.63 1623.87   4
   2   5  -7 4009.62 723.426  34
   2   5  -7 3014.57 1454.33   8
  -2  -5   6 4623.85 1537.22  12
   2   5  -6 5434.53 1435.78   1
  -2  -5   6 3709.86 1137.92   4
   2   5  -6 3222.28 1339.16   8
   2   5  -5 5458.60 1380.49   1
  -2  -5   5 5791.41 1543.07  12
   2   5  -5 4210.14 1446.85   8
  -2  -5   5 5419.32 1682.36   4
   2   5  -4 921.712 785.091   1
   2   5  -4 883.951 632.642   8
  -2  -5   4 1419.05 833.361  12
  -2  -5   4 1100.47 841.145   4
  -2  -5   3 64615.4 5099.19   4
  -2  -5   3 68027.3 5367.00  12
   2   5  -3 65503.9 4712.02   1
  -2  -5   2 3644.50 1251.81  12
   2   5  -2 4396.11 1161.37   1
  -2  -5   2 4027.15 1204.16   4
   2   5  -1 22415.8 2689.14   1
  -2  -5   1 23831.5 3041.21  12
  -2  -5   1 20695.1 2646.03   4
   2   5   0 4705.77 1174.21   1
  -2  -5   0 3551.14 1328.69  12
  -2  -5   0 3653.71 1097.01   4
   2   5   1 2436.35 1050.69   1
  -2  -5  -1 2994.22 1081.58  12
  -2  -5  -1 2520.16 844.447   4
  -2  -5  -2-86.9020 649.421  12
   2   5   2 329.253 656.360   1
   2   5   3 33117.1 2859.96   1
   2   5   4 16064.0 1926.85   1
  -2  -5  -4 12723.0 2473.42  14
   2   5   4 16728.9 2319.87   7
   2   5   5 12261.8 1642.36   1
  -2  -5  -5 11465.0 2282.85  14
   2   5   5 15522.8 2283.68   7
   2   5   6 6523.14 1704.70  10
   2   5   6 7056.12 1745.82   7
  -2  -5  -6 5879.75 1790.35  14
   2   5   7 201471. 9681.89  10
  -2  -5  -7 180621. 8898.94  14
   2   5   7 194161. 7963.97   7
   2   5   8 36825.0 4273.56  10
  -2  -5  -8 33409.3 3998.04  14
  -2  -5  -9 558.883 497.355  46
  -2  -5  -9 816.671 355.126  32
   2   5   9 567.574 818.086  10
  -2  -5  -9 514.294 810.531  14
  -2  -5 -10 2192.01 757.679  33
  -2  -5 -10 2632.34 751.634  32
   2   5  10 3043.12 1666.70  10
  -2  -5 -10 1773.89 1110.85  14
  -2  -5 -11 1200.88 603.993  33
  -2  -5 -11 1893.95 752.895  32
   2   5  11 1645.88 1191.01  10
  -2  -5 -11 2408.99 1238.32  14
  -2  -5 -11 1097.96 630.036  48
   2   5  11 989.856 1281.72  13
  -2  -5 -12 12996.7 1722.87  40
   2   5  12 13960.7 2882.64  10
  -2  -5 -12 16293.3 1791.71  32
  -2  -5 -12 11922.4 2448.14  14
  -2  -5 -12 15767.7 1974.81  48
   2   5  12 9400.19 2976.32  13
  -2  -5 -13 6440.93 1034.72  40
  -2  -5 -13 6145.07 1011.22  33
  -2  -5 -13 8294.54 1486.25  48
  -2  -5 -14 12953.3 1667.65  40
  -2  -5 -14 14905.6 1747.09  48
  -2  -5 -15 546.755 630.174  40
  -2  -5 -15 665.336 848.800  48
  -2  -5 -16 147.943 528.829  40
  -2  -5 -17 1936.44 610.892  40
   2   6 -17 3982.48 475.559  44
   2   6 -16 875.679 424.558  44
   2   6 -15 434.781 306.776  44
   2   6 -14-231.737 275.386  44
   2   6 -14 181.815 278.638  19
   2   6 -13 1058.26 267.715  19
   2   6 -13 953.612 414.700  44
   2   6 -12-160.862 256.502  19
   2   6 -12 511.367 559.413  44
   2   6 -11 6514.23 1065.56  19
   2   6 -11 4013.63 983.620  44
   2   6 -11 5226.99 1251.91  54
   2   6 -10 3835.17 1096.71  44
   2   6 -10 2882.51 874.933  54
   2   6 -10 3153.17 667.682  47
   2   6  -9-257.354 433.804  47
   2   6  -9-229.972 486.562  54
  -2  -6   8-6.78379 1087.33  12
   2   6  -8 350.331 615.872  34
   2   6  -8 387.182 427.796  54
  -2  -6   8-488.911 1499.63   4
   2   6  -8 370.025 829.116   8
   2   6  -8 894.617 607.911  47
   2   6  -7 9362.39 1284.51  34
  -2  -6   7 12842.2 3058.60   4
   2   6  -7 7589.05 2575.11   8
   2   6  -7 9659.38 1247.06  47
  -2  -6   7 9142.82 2687.77  12
   2   6  -7 13350.8 2415.01   1
  -2  -6   6 16279.0 3207.66   4
   2   6  -6 11979.7 1270.37  34
   2   6  -6 9437.76 2661.25   8
   2   6  -6 11469.9 1186.14  25
   2   6  -6 11117.1 1213.35  47
  -2  -6   6 14061.1 2866.33  12
   2   6  -6 14920.0 2624.15   1
   2   6  -5 37463.0 2137.78  25
   2   6  -5 38368.2 2366.63  47
   2   6  -5 40862.2 2403.01  34
  -2  -6   5 45597.3 4811.98  12
  -2  -6   5 43082.0 4789.87   4
  -2  -6   4 6008.18 2117.43  12
   2   6  -4 8173.02 2209.38   1
  -2  -6   4 6845.88 1817.17   4
   2   6  -4 3063.08 1378.50   8
   2   6  -3 3796.11 1226.74   1
  -2  -6   3 2721.56 1345.95  12
  -2  -6   3 4058.35 1298.20   4
  -2  -6   2 8067.38 2329.11  12
  -2  -6   2 10770.0 2058.02   4
   2   6  -2 9468.61 2078.93   1
  -2  -6   1 14046.8 2232.42   4
   2   6  -1 11349.3 2268.75   1
  -2  -6   1 11669.3 2619.96  12
  -2  -6   0 29800.5 4169.35  12
   2   6   0 34927.1 3492.36   1
  -2  -6   0 36930.5 3479.76   4
  -2  -6  -1 929.162 907.740  12
   2   6   1 1329.15 666.800   1
  -2  -6  -2 1279.24 1036.57  12
   2   6   2 417.852 529.406   1
   2   6   3 47914.9 3840.19   1
   2   6   4 54210.3 3876.57   1
  -2  -6  -4 49655.9 4891.94  14
   2   6   4 58452.9 4720.80   7
  -2  -6  -5 27961.0 3666.26  14
   2   6   5 31876.0 3521.59   7
  -2  -6  -6 7756.77 2113.35  14
   2   6   6 7506.70 1711.18   7
   2   6   7 31380.4 4171.76  10
  -2  -6  -7 29417.5 3881.63  14
  -2  -6  -7 33827.6 2454.55  46
   2   6   7 31831.6 3427.49   7
   2   6   8 20682.5 3424.76  10
  -2  -6  -8 19234.3 3319.07  14
  -2  -6  -8 20244.6 2064.27  46
  -2  -6  -9 2961.46 867.593  33
  -2  -6  -9 3801.49 887.700  32
   2   6   9 3881.13 1480.89  10
  -2  -6  -9 2601.99 940.606  14
  -2  -6  -9 4033.35 1004.77  46
  -2  -6 -10 7624.96 1242.01  33
  -2  -6 -10 10139.0 1433.66  32
   2   6  10 10527.1 2529.46  10
  -2  -6 -10 9235.24 2269.42  14
  -2  -6 -11 14230.3 3002.33  14
  -2  -6 -11 15542.6 1787.60  32
  -2  -6 -12 526.549 371.754  33
  -2  -6 -12 1011.81 628.348  32
  -2  -6 -12 490.742 676.844  48
  -2  -6 -13-974.713 692.812  40
  -2  -6 -13-129.176 522.483  48
  -2  -6 -14-177.773 425.450  40
  -2  -6 -14-586.561 592.027  48
  -2  -6 -15 12630.9 1513.58  40
  -2  -6 -15 13168.3 1627.17  48
  -2  -6 -16 427.167 542.183  40
  -2  -6 -17 9237.47 1030.46  40
   2   7 -15-117.758 200.814  44
   2   7 -14 3045.40 688.324  44
   2   7 -13 755.376 431.771  44
   2   7 -12 2319.62 709.567  44
  -2  -7  12 2085.56 803.930  55
   2   7 -11 3227.10 788.705  44
   2   7 -10 512.856 499.696  44
   2   7 -10 145.301 378.624  47
   2   7  -9 1007.09 466.007  47
  -2  -7   9 562.372 453.917  45
   2   7  -8 8670.15 1193.75  34
   2   7  -8 9968.12 1292.04  47
  -2  -7   8 10057.7 1411.56  45
   2   7  -7 177.970 556.397  47
   2   7  -7 1289.78 743.388  34
  -2  -7   7 431.967 505.873  45
  -2  -7   6 9538.95 2404.83  12
   2   7  -6 9709.71 1200.09  34
   2   7  -6 8438.82 1168.80  47
  -2  -7   6 10434.1 2396.82   4
   2   7  -6 8620.44 1021.37  25
  -2  -7   6 8971.88 1359.01  45
   2   7  -5 13323.9 1349.08  34
   2   7  -5 12440.8 2455.88   1
  -2  -7   5 11365.2 2872.34  12
  -2  -7   5 13582.7 2768.08   4
   2   7  -5 11149.0 1122.01  25
   2   7  -5 12495.9 1495.82  47
  -2  -7   5 12874.4 1624.29  45
  -2  -7   4 84409.8 7438.06  12
   2   7  -4 78333.3 3442.78  34
   2   7  -4 66210.2 3491.15  47
   2   7  -4 71345.9 3114.21  25
  -2  -7   4 89596.4 6895.92   4
  -2  -7   4 76727.7 3841.84  45
   2   7  -4 86142.9 6500.86   1
  -2  -7   3 4814.19 1743.30  12
   2   7  -3 5680.45 929.220  34
   2   7  -3 7141.35 1757.13   1
  -2  -7   3 5760.11 1791.90   4
   2   7  -3 6559.43 986.886  25
  -2  -7   3 4780.37 1016.68  45
   2   7  -3 4659.31 860.054  47
  -2  -7   2 38176.8 5241.19  12
   2   7  -2 48480.7 2635.26  34
   2   7  -2 41062.0 2141.88  18
   2   7  -2 41891.0 2366.54  25
  -2  -7   2 42152.1 4485.82   4
   2   7  -2 44673.2 2706.93  47
  -2  -7   2 49093.9 3086.08  55
   2   7  -2 48558.5 4918.90   1
  -2  -7   2 41082.2 2844.31  45
  -2  -7   1 8933.63 2450.83  12
   2   7  -1 12375.4 1280.41  34
   2   7  -1 11965.6 1180.40  18
  -2  -7   1 12388.8 1689.50  55
   2   7  -1 11987.1 1268.88  25
   2   7  -1 10214.9 1459.90  47
   2   7  -1 13778.6 2615.32   1
  -2  -7   1 8346.73 1403.17  45
  -2  -7   0 2573.51 1227.99  12
   2   7   0 3454.07 1327.34   1
   2   7   0 5211.09 879.072  18
  -2  -7   0 3810.78 931.350  33
   2   7   0 4251.73 899.860  43
  -2  -7   0 4745.89 1220.68  55
  -2  -7   0 5197.27 1080.90  53
   2   7   0 4678.29 899.379  25
   2   7   0 3852.48 1019.93  47
  -2  -7  -1 19846.1 3716.21  12
  -2  -7  -1 23574.7 1811.69  33
   2   7   1 25445.3 1773.05  18
  -2  -7  -1 31223.4 2389.23  55
   2   7   1 24784.6 1780.30  25
   2   7   1 28354.4 2238.63  47
   2   7   1 21458.1 3153.52   1
  -2  -7  -1 27444.5 2163.19  53
   2   7   2 40017.4 3909.38   1
  -2  -7  -2 39187.4 2541.67  53
  -2  -7  -2 39756.1 2681.46  55
   2   7   2 39379.2 2195.66  25
   2   7   2 41477.9 2588.66  47
  -2  -7  -2 30132.7 4486.30  12
  -2  -7  -3 2916.90 835.389  55
  -2  -7  -3 3446.12 956.294  53
   2   7   3 3066.94 784.684  25
   2   7   3 3291.05 1035.60  47
  -2  -7  -4 2460.94 988.765  55
  -2  -7  -4 1472.54 715.945  53
   2   7   4 2687.48 735.520  25
  -2  -7  -4 1247.91 1184.24  14
   2   7   4 1333.02 774.133  47
  -2  -7  -4 2092.29 883.498  46
  -2  -7  -5 18907.1 1870.67  53
  -2  -7  -5 12482.9 2803.75  14
   2   7   5 20072.5 1963.06  47
  -2  -7  -5 15210.5 1855.06  46
   2   7   5 18350.4 3085.63   7
  -2  -7  -6 233.234 616.933  53
  -2  -7  -6 441.926 568.029  46
  -2  -7  -6-83.8437 912.727  14
   2   7   6-305.794 470.448  47
   2   7   6 137.415 1418.12   7
   2   7   7 4262.32 1589.79  10
  -2  -7  -7 4708.20 1950.47  14
  -2  -7  -7 2922.31 935.282  46
   2   7   7 4555.03 897.402  47
   2   7   7 5409.86 1402.36   7
   2   7   8 615.914 748.320  10
  -2  -7  -8-276.190 1278.57  14
  -2  -7  -8 1431.96 562.873  46
  -2  -7  -9 459.860 575.774  32
  -2  -7  -9 97.3559 514.808  46
  -2  -7 -10-102.097 500.859  32
  -2  -7 -10-394.123 685.356  46
  -2  -7 -11 2010.64 762.850  32
  -2  -7 -12 1645.28 711.628  32
  -2  -7 -12 1908.32 939.687  48
  -2  -7 -13-57.9669 453.479  48
  -2  -7 -13-145.114 358.109  32
  -2  -7 -14 3726.27 917.327  48
  -2  -7 -15 3026.78 921.864  48
   2   8 -14 1541.36 409.089  44
  -2  -8  14 1451.86 423.883  53
   2   8 -13 798.728 419.379  44
  -2  -8  12 3089.93 749.123  55
   2   8 -12 3600.75 893.610  44
   2   8 -11 294.316 299.129  44
  -2  -8  11 445.508 465.376  55
   2   8 -10 819.190 563.541  44
  -2  -8  10 1322.21 594.588  55
  -2  -8  10 1091.64 427.607  45
  -2  -8   9 1032.06 799.302  55
  -2  -8   9-251.528 465.445  45
   2   8  -9-463.130 525.697  47
   2   8  -8 912.879 358.114  47
  -2  -8   8 743.971 375.070  45
   2   8  -7 5343.07 924.286  34
   2   8  -7 5004.60 875.770  47
  -2  -8   7 5752.84 1098.84  45
   2   8  -6 12364.4 1364.84  47
   2   8  -6 11830.7 1351.07  34
   2   8  -6 10648.3 1136.17  25
  -2  -8   6 11684.8 1691.02  45
   2   8  -5 2500.31 828.025  47
   2   8  -5 3280.57 852.068  34
  -2  -8   5 2235.63 1043.70  55
   2   8  -5 2401.87 417.395  25
  -2  -8   5 2762.38 901.801  45
   2   8  -4 57682.6 2980.61  34
  -2  -8   4 59086.0 3694.01  55
   2   8  -4 50982.2 2707.13  25
   2   8  -4 55864.1 3085.74  47
  -2  -8   4 54397.9 3460.47  45
   2   8  -3 4597.45 935.719  34
  -2  -8   3 4944.64 1417.07  55
   2   8  -3 3692.42 708.024  25
   2   8  -3 4309.76 894.517  47
  -2  -8   3 3617.68 1093.68  45
  -2  -8   2 6483.76 2254.01  12
   2   8  -2 8245.59 1252.62  34
  -2  -8   2 8841.84 1457.90  53
  -2  -8   2 9139.09 1606.55  55
   2   8  -2 5644.57 859.535  25
  -2  -8   2 7120.33 1260.62  45
   2   8  -2 7274.43 1098.98  47
  -2  -8   1 12765.4 1816.29  55
  -2  -8   1 9861.28 2798.70  12
   2   8  -1 11148.2 1271.32  34
  -2  -8   1 9835.00 1177.45  33
   2   8  -1 10034.5 1098.93  18
  -2  -8   1 11251.9 1667.45  53
   2   8  -1 9596.07 1128.93  25
   2   8  -1 10240.5 1473.65  47
  -2  -8   0 45072.1 5512.22  12
   2   8   0 39902.8 4483.42   1
   2   8   0 40563.5 2420.39  43
   2   8   0 41849.1 2371.18  25
   2   8   0 44792.2 2516.38  34
  -2  -8   0 37959.4 2439.38  33
   2   8   0 40629.8 2303.87  18
  -2  -8   0 44033.7 3205.55  55
  -2  -8   0 40771.5 2925.44  53
   2   8   0 44813.3 2902.44  47
  -2  -8  -1 28029.9 2414.63  55
  -2  -8  -1 22622.2 1857.31  33
   2   8   1 24923.9 1902.25  18
   2   8   1 26465.6 1916.97  25
  -2  -8  -1 25939.8 2352.91  53
   2   8   1 25297.9 2157.71  47
   2   8   1 25125.9 2053.71  43
  -2  -8  -1 21539.3 3776.53  12
  -2  -8  -2 3858.33 912.185  53
   2   8   2 2913.90 742.211  18
  -2  -8  -2 3667.75 1117.22  55
   2   8   2 2781.03 782.195  47
   2   8   2 2114.60 366.387  25
  -2  -8  -3 406.805 717.342  55
  -2  -8  -3-26.4228 665.631  53
   2   8   3-413.019 562.433  25
  -2  -8  -3 676.690 1296.96  14
   2   8   3-186.396 560.154  47
  -2  -8  -3 1273.80 928.123  46
  -2  -8  -4 7698.66 2368.24  14
   2   8   4 11923.9 1271.16  25
  -2  -8  -4 10086.2 1482.99  53
   2   8   4 11337.8 1441.66  47
  -2  -8  -4 11423.0 1642.61  46
  -2  -8  -5 2200.33 756.173  53
   2   8   5 2772.81 675.185  25
  -2  -8  -5 1203.41 1161.29  14
   2   8   5 2055.90 841.971  47
  -2  -8  -5 2669.17 1063.31  46
   2   8   6 2892.44 803.297  47
  -2  -8  -6 2999.87 822.389  46
   2   8   7 6877.48 1215.85  47
  -2  -8  -7 4561.75 1284.63  46
   2   8   8 4227.04 674.037  47
  -2  -8  -8 5076.81 1045.41  46
  -2  -8  -9 136.592 523.002  32
   2   8   9-98.4292 649.143  47
  -2  -8  -9 35.4262 555.501  46
  -2  -8 -10 5437.17 1147.91  46
  -2  -8 -10 6873.53 1095.04  32
  -2  -8 -11 1486.15 638.907  32
   2   8  12 456.080 329.731  18
  -2  -8 -12 485.406 562.381  32
  -2  -8 -12 1029.38 761.593  48
   2   8  13 3363.79 535.021  18
  -2  -8 -13 4469.49 1128.85  48
  -2  -8 -14 1026.87 626.684  48
  -2  -8 -15 1168.12 581.256  48
   2   8  16 4748.22 642.886  43
   2   8  17 8351.91 715.161  39
  -2  -9  12 1278.27 388.876  33
  -2  -9  12 801.748 396.345  53
  -2  -9  11 819.656 483.417  53
   2   9 -11-69.0605 235.126  44
  -2  -9  11 221.307 445.966  55
   2   9 -10 1057.51 542.501  44
  -2  -9  10 1611.51 706.107  55
  -2  -9  10 2189.55 641.636  53
   2   9  -9 981.250 541.506  44
  -2  -9   9 1984.03 764.519  55
  -2  -9   8 349.979 430.619  55
   2   9  -8 1591.48 559.588  47
  -2  -9   8 607.767 363.295  45
  -2  -9   7 1108.46 816.089  55
   2   9  -7 259.598 487.685  47
  -2  -9   7 648.481 449.844  45
   2   9  -6 334.122 422.568  34
  -2  -9   6 1018.39 705.459  55
   2   9  -6 193.620 491.623  47
  -2  -9   6 256.700 471.811  45
   2   9  -5 648.714 397.121  34
  -2  -9   5-670.292 669.476  55
  -2  -9   5 127.684 567.045  53
   2   9  -5 250.694 422.558  25
   2   9  -5 744.757 519.408  47
  -2  -9   5 555.178 589.872  45
   2   9  -4-7.13784 415.472  47
   2   9  -4 226.417 405.899  34
  -2  -9   4-582.284 545.088  33
  -2  -9   4 51.0775 789.666  55
  -2  -9   4 18.2780 543.396  53
   2   9  -4-16.6656 361.913  25
  -2  -9   3 2709.38 776.608  53
   2   9  -3 1629.10 484.489  47
   2   9  -3 2344.85 642.269  34
  -2  -9   3 1811.61 470.745  33
  -2  -9   3 2125.03 832.755  55
   2   9  -3 2868.06 703.409  25
  -2  -9   2 11037.3 1722.31  55
  -2  -9   2 11891.8 1690.64  53
   2   9  -2 12280.7 1415.58  34
   2   9  -2 12164.7 1481.30  47
  -2  -9   2 11057.0 1332.51  33
   2   9  -2 11612.0 1331.00  25
   2   9  -1 8105.76 1000.53  34
  -2  -9   1 5016.58 906.270  33
   2   9  -1 8031.49 1282.94  47
  -2  -9   1 7506.95 1326.26  53
  -2  -9   1 7276.03 1460.87  55
   2   9  -1 6414.13 884.266  25
  -2  -9   0 8103.52 1388.01  53
   2   9   0 9599.77 1128.32  34
   2   9   0 8502.47 1067.08  18
  -2  -9   0 7832.59 1446.86  55
   2   9   0 8842.56 1128.94  25
   2   9   0 8645.00 1268.50  47
   2   9   1 4563.44 833.816  34
   2   9   1 4045.93 791.408  18
   2   9   1 4635.00 1023.82  43
  -2  -9  -1 4594.80 1147.91  55
  -2  -9  -1 4022.33 922.402  53
   2   9   1 4923.85 952.426  25
   2   9   1 4423.10 959.137  47
  -2  -9  -1 3875.73 1136.19  46
   2   9   2-63.3049 468.615  43
   2   9   2 314.496 368.040  18
  -2  -9  -2-548.605 694.285  53
  -2  -9  -2 2.76441 605.077  55
   2   9   2 543.353 673.198  25
   2   9   2 332.184 692.986  47
  -2  -9  -2-390.414 458.728  46
   2   9   3-250.386 598.158  43
   2   9   3-45.4746 509.093  18
  -2  -9  -3 105.519 430.897  53
   2   9   3 841.423 471.844  25
   2   9   3 798.787 984.994  47
  -2  -9  -3-511.614 719.777  46
   2   9   4 2447.49 827.006  18
  -2  -9  -4 1862.89 756.326  53
   2   9   4 2123.32 507.579  25
   2   9   4 2040.44 805.833  47
  -2  -9  -4 2065.71 912.744  46
   2   9   5 28961.1 2196.40  18
  -2  -9  -5 22672.6 2325.36  46
   2   9   5 27668.6 1929.57  25
   2   9   5 25137.8 2146.65  47
   2   9   6 619.646 714.781  47
   2   9   6 700.497 577.382  18
   2   9   6 370.356 385.825  25
  -2  -9  -6 639.765 718.118  46
   2   9   7 813.661 569.118  18
  -2  -9  -7 537.830 668.104  46
   2   9   7 348.301 691.520  47
   2   9   8 9533.59 1139.11  18
   2   9   8 8957.62 1271.37  47
  -2  -9  -8 9778.08 1438.94  46
   2   9   9-496.664 521.164  18
  -2  -9  -9-95.2092 339.147  32
   2   9   9-444.677 453.360  47
  -2  -9  -9 187.960 591.427  46
   2   9  10 6135.97 935.828  18
  -2  -9 -10 4721.55 970.217  32
   2   9  10 5378.77 795.845  47
   2   9  11 142.239 290.891  18
  -2  -9 -11 472.157 360.015  32
  -2  -9 -11 347.638 422.268  48
   2   9  12-149.527 362.728  18
  -2  -9 -12 1070.76 381.822  32
  -2  -9 -12 84.1011 464.178  48
  -2  -9 -13 287.849 410.776  48
  -2  -9 -14 5934.47 883.813  48
   2   9  15 951.636 383.639  43
  -2 -10  10 1645.48 551.781  55
  -2 -10  10 1274.39 360.554  53
  -2 -10   9 3655.03 630.182  53
  -2 -10   9 2458.16 549.220  55
   2  10  -8-47.1238 292.118  44
  -2 -10   8 95.9175 382.337  53
  -2 -10   8-462.381 228.832  33
  -2 -10   7 4028.44 635.633  33
   2  10  -7 4311.11 653.159  47
  -2 -10   7 3307.76 895.400  55
  -2 -10   7 5298.44 886.190  53
  -2 -10   6 2412.18 624.583  53
  -2 -10   6 2159.27 794.363  55
  -2 -10   6 1051.64 276.656  33
   2  10  -6 1809.75 533.377  47
  -2 -10   5 2683.01 734.130  53
  -2 -10   5 2751.78 891.091  55
   2  10  -5 1517.54 442.624  47
   2  10  -4 1456.80 637.348  47
  -2 -10   4 1921.49 724.789  53
   2  10  -4 1399.46 556.396  34
  -2 -10   4 1287.92 658.443  55
   2  10  -3 1265.42 449.379  34
  -2 -10   3 623.675 422.004  55
  -2 -10   3 1564.43 733.967  53
   2  10  -3 765.072 426.156  25
   2  10  -3 452.199 364.898  47
   2  10  -2 1596.84 590.855  34
   2  10  -2 1383.92 534.874  25
  -2 -10   2 807.285 777.529  55
   2  10  -2 1388.05 557.072  47
  -2 -10   2 174.644 534.126  53
  -2 -10   1 301.071 471.832  53
   2  10  -1 1208.40 571.868  34
  -2 -10   1 1189.79 892.136  55
   2  10  -1 374.104 472.762  47
   2  10  -1 75.4018 393.259  25
   2  10   0 3700.06 637.133  34
  -2 -10   0 2648.96 802.691  55
  -2 -10   0 2165.42 696.862  53
   2  10   0 3269.92 850.651  47
   2  10   0 3285.70 731.088  25
   2  10   1 622.128 423.845  47
  -2 -10  -1 339.839 560.655  55
  -2 -10  -1-539.235 705.940  53
   2  10   1-315.023 317.717  25
  -2 -10  -1 979.044 855.888  46
   2  10   2 534.669 508.381  43
   2  10   2 1397.60 660.363  18
  -2 -10  -2 255.614 392.098  53
   2  10   2 477.346 385.419  25
   2  10   2 696.885 494.071  47
  -2 -10  -2 371.138 504.664  46
   2  10   3 371.822 442.920  43
   2  10   3 432.948 335.589  18
   2  10   3-178.732 413.827  25
   2  10   3 108.951 438.626  47
  -2 -10  -3-305.663 430.261  46
   2  10   4 3168.47 811.692  18
   2  10   4 2700.19 638.106  25
   2  10   4 2445.55 786.465  47
  -2 -10  -4 1617.37 878.997  46
   2  10   4 2644.67 605.517  43
   2  10   5 17796.6 1562.67  18
   2  10   5 15977.9 1565.40  43
   2  10   5 17015.1 1384.82  25
   2  10   5 14345.7 1580.33  47
  -2 -10  -5 12914.7 1568.78  46
   2  10   6 1240.77 661.321  43
   2  10   6 567.476 456.839  47
   2  10   6 531.340 303.554  18
   2  10   6 441.858 384.486  25
  -2 -10  -6 737.364 384.747  46
   2  10   7 5034.59 890.100  18
   2  10   7 3956.27 804.780  47
  -2 -10  -7 4493.90 971.795  46
   2  10   8 6814.34 909.097  18
  -2 -10  -8 5403.92 981.934  32
   2  10   8 5935.60 900.099  47
  -2 -10  -8 4977.80 915.135  46
   2  10   9 1812.09 559.591  18
  -2 -10  -9 2188.77 724.627  32
   2  10   9 1295.81 487.287  47
  -2 -10 -10 788.209 610.484  48
   2  10  10 542.129 398.092  18
  -2 -10 -10 360.238 394.045  32
   2  10  10 980.096 377.615  47
   2  10  11 6176.21 928.663  43
   2  10  11 5516.57 717.424  18
  -2 -10 -11 3907.46 718.987  32
  -2 -10 -11 5397.09 938.403  48
   2  10  12 304.260 330.574  43
  -2 -10 -12 774.788 553.508  48
   2  10  13 2693.93 502.203  43
  -2 -10 -13 2713.56 548.917  48
  -2 -11   6 997.407 468.339  55
  -2 -11   6-297.811 344.779  53
   2  11  -5 176.082 205.100  44
  -2 -11   5 1026.48 552.705  55
  -2 -11   5 301.550 328.729  53
   2  11  -5 1071.08 367.083  47
  -2 -11   4 7062.53 996.127  53
  -2 -11   4 7443.78 1075.51  55
   2  11  -4 7307.29 761.167  47
  -2 -11   3 2242.75 660.713  55
  -2 -11   3 2639.70 601.933  53
   2  11  -3 2977.92 634.995  47
   2  11  -2 2009.52 611.182  47
  -2 -11   2 225.042 340.904  53
  -2 -11   1 2069.43 646.134  53
   2  11  -1 3133.53 627.983  25
   2  11  -1 2314.72 564.259  47
   2  11   0 1510.70 569.331  47
   2  11   0 884.776 397.020  25
   2  11   1 2770.26 601.927  25
   2  11   1 2794.85 677.224  47
   2  11   2 2349.41 749.224  47
   2  11   2 2509.53 531.386  25
  -2 -11  -2 2773.19 960.830  46
   2  11   3 3516.05 622.293  25
   2  11   3 2607.68 658.325  47
  -2 -11  -3 2482.09 853.967  46
   2  11   4 1717.09 646.371  43
   2  11   4 2044.69 520.403  25
   2  11   4 1800.02 643.047  47
  -2 -11  -4 1529.10 689.093  46
   2  11   5 4017.30 676.275  43
   2  11   5 4964.00 836.341  47
  -2 -11  -5 3929.46 721.762  46
   2  11   6 5839.24 798.512  43
  -2 -11  -6 6716.28 1050.17  32
   2  11   6 6021.74 805.801  47
  -2 -11  -6 7017.95 931.343  46
   2  11   7 1452.44 392.133  43
  -2 -11  -7 2291.85 634.445  32
   2  11   7 2470.26 612.832  47
   2  11   8 8479.87 874.249  43
   2  11   8 8316.90 785.407  39
  -2 -11  -8 9873.31 1071.57  32
   2  11   8 8671.17 896.403  47
   2  11   9 359.242 318.171  39
  -2 -11  -9 194.516 261.661  32
   2  11   9-47.6334 300.809  43
  -2 -11  -9 762.943 485.429  48
   2  11   9 466.947 374.049  47
   2  11  10 7642.97 784.370  43
  -2 -11 -10 7876.29 869.967  48
   2  12   2 678.304 326.056  47
   3  -8  -9 20675.9 1296.58  41
  -3   8   9 12461.0 856.894  30
   3  -8  -8 4113.89 644.959  41
  -3   8   8 2934.46 499.477  30
  -3   8   8 2692.62 420.386  25
   3  -8  -7 2325.11 575.919  41
   3  -8  -7 1461.58 373.051  36
  -3   8   7 1718.16 438.776  30
  -3   8   7 1451.59 426.678  25
  -3   8   6 644.008 315.723  42
   3  -8  -6 861.079 397.888  36
  -3   8   6 508.018 259.174  30
  -3   8   6 484.226 279.665  25
  -3   8   5 222.245 240.015  42
  -3   8   5 484.895 307.533  30
   3  -8  -5 673.556 323.692  36
  -3   8   5 920.259 256.680  25
  -3   8   4 1729.03 452.044  42
   3  -8  -4 2599.37 600.168  36
  -3   8   4 1624.19 384.795  25
  -3   8   4 1522.03 361.161  30
  -3   8   3 843.084 389.969  30
  -3   8   3 326.426 295.351  25
  -3   8   3 364.127 371.256  42
   3  -8  -3 381.649 344.055  36
   3  -8  -3 1017.59 455.083  22
  -3   8   2 2484.60 522.494  42
  -3   8   2 3672.69 586.108  25
   3  -8  -2 4048.13 680.236  36
  -3   8   2 3402.08 652.661  30
  -3   8   1 364.132 472.191  35
  -3   8   1-203.618 342.012  25
  -3   8   1 175.208 244.130  30
  -3   8   0 5074.72 741.386  56
   3  -8   0 5749.77 787.731  36
  -3   8   0 5282.61 737.547  30
  -3   8   0 7173.54 774.105  25
  -3   8  -1-198.134 540.055  56
  -3   8  -1 178.119 289.606  25
   3  -8   1-523.697 378.657  46
  -3   8  -2 2341.64 519.553  56
  -3   8  -2 3471.59 462.322  25
   3  -8   2 3490.45 577.765  46
  -3   8  -3-291.809 326.190  56
  -3   8  -3 620.822 262.327  25
   3  -8   3 484.630 329.121  46
  -3   8  -4 2949.33 477.428  34
  -3   8  -4 2791.48 597.594  56
  -3   8  -5 635.695 308.475  34
  -3   8  -5 1007.83 479.673  56
   3  -8   5 1175.42 428.202  46
  -3   8  -6-179.495 332.566  56
   3  -8   6 331.099 267.241  46
   3  -8   7 11078.3 863.087  46
   3  -7 -11 685.091 344.258  41
  -3   7  11 612.081 279.887  30
   3  -7 -10 24703.1 1632.37  41
  -3   7   9 883.389 413.985  42
   3  -7  -9 1100.72 425.567  41
  -3   7   8 4380.46 612.590  42
   3  -7  -8 4082.23 773.917  36
  -3   7   7 897.186 458.379  42
   3  -7  -7 36.4595 312.630  36
   3  -7  -7 504.333 369.361  22
   3  -7  -6 1136.77 452.081  36
  -3   7   6 1313.67 414.373  42
   3  -7  -6 1394.75 454.790  22
  -3   7   5 151.269 312.792  42
   3  -7  -5 94.3447 303.238  36
   3  -7  -5-565.534 391.717  22
  -3   7   4 1327.92 450.577  42
  -3   7   4 326.313 435.012  30
   3  -7  -4 1640.23 554.133  36
   3  -7  -4 951.033 339.892  22
  -3   7   3 1953.66 549.890  42
  -3   7   3 1958.60 379.292  30
   3  -7  -3 2600.26 620.659  22
  -3   7   2 386.916 668.700  42
  -3   7   2 389.912 414.816  30
  -3   7   2 370.650 1078.31  56
  -3   7   1 15785.1 1504.41  42
  -3   7   1 15317.2 1496.93  56
  -3   7   1 17923.9 1535.07  30
   3  -7  -1 18073.2 1245.12  22
  -3   7   0 218.037 445.039  42
  -3   7   0 225.189 485.825  30
  -3   7   0 913.898 1027.17  56
   3  -7   0-134.625 438.264  46
  -3   7  -1 2457.39 596.240  42
  -3   7  -1 2768.91 672.021  30
  -3   7  -1 1888.86 638.930  56
   3  -7   1 1546.12 525.887  46
  -3   7  -2 5052.37 838.164  42
  -3   7  -2 4092.35 877.098  56
  -3   7  -2 4856.77 786.169  30
   3  -7   2 5251.82 883.152  46
  -3   7  -3 218.314 314.225  30
  -3   7  -3 399.489 478.316  56
  -3   7  -3 319.064 349.393  25
   3  -7   3 651.106 457.359  46
  -3   7  -4 920.003 570.844  56
  -3   7  -4-116.596 269.979  25
   3  -7   4 90.8563 336.441  46
  -3   7  -5 2419.97 557.272  56
   3  -7   5 3498.03 757.144  46
  -3   7  -6 2337.91 469.653  34
   3  -7   6 4043.20 782.675  46
  -3   7  -6 3776.22 807.731  56
  -3   7  -7 412.576 327.013  34
  -3   7  -7 628.026 440.529  56
   3  -7   7 215.664 345.933  46
  -3   7  -8 878.993 457.162  56
   3  -7   8 827.428 377.483  46
  -3   7  -9 2735.28 538.017  56
   3  -7   9 3343.07 622.404  46
  -3   7 -10 2511.03 428.447  19
   3  -7  10 8399.96 793.760  46
   3  -6 -13 4318.92 574.202  29
   3  -6 -12 578.936 262.734  29
   3  -6 -11 10246.8 1145.98  41
   3  -6 -10 960.379 570.142  41
  -3   6  10-267.256 505.535  42
   3  -6  -9 2459.40 820.118  41
   3  -6  -9 895.269 285.242  22
   3  -6  -8-212.220 369.568  36
   3  -6  -8-213.061 280.217  22
   3  -6  -7 520.022 497.070  36
   3  -6  -7 517.310 328.006  22
   3  -6  -6 2079.45 599.599  36
  -3   6   6 879.390 338.663  26
   3  -6  -6 2477.63 645.509  22
   3  -6  -5 690.072 608.557  36
  -3   6   5 99.0473 347.425  26
   3  -6  -5 474.232 442.410  22
  -3   6   4 20220.9 1762.90  26
   3  -6  -4 23609.5 1605.36  22
  -3   6   3 6110.87 1086.64  56
  -3   6   3 3964.73 1089.51  26
   3  -6  -3 5585.40 1041.86  22
  -3   6   2 19606.8 1622.98  42
  -3   6   2 19602.0 1798.06  26
   3  -6  -2 21394.9 1632.26  22
  -3   6   2 21064.7 1917.95  56
  -3   6   1 4439.79 827.115  42
  -3   6   1 6094.51 1409.11  56
  -3   6   1 3482.50 1047.34  26
  -3   6   0 302.249 435.221  42
  -3   6   0 1014.68 790.739  56
  -3   6   0 119.436 434.844  30
   3  -6   0 442.366 595.664  22
  -3   6   0 204.931 535.909  26
  -3   6  -1 143.666 374.801  42
  -3   6  -1 162.102 766.481  56
  -3   6  -1 79.9561 439.149  26
  -3   6  -1 253.339 339.215  30
   3  -6   1-28.8164 623.972  46
  -3   6  -2 82980.8 3179.44  42
  -3   6  -2 84282.6 3256.58  30
  -3   6  -2 70368.6 3582.35  56
   3  -6   2 83981.7 3520.01  46
   3  -6   2 70038.5 2592.86  22
  -3   6  -3 5840.73 870.189  42
  -3   6  -3 5889.38 856.627  30
  -3   6  -3 6297.72 1346.00  56
   3  -6   3 6355.71 1061.41  46
  -3   6  -4 43372.2 2268.74  42
  -3   6  -4 45903.3 2323.88  30
  -3   6  -4 41454.2 2644.06  56
   3  -6   4 47431.9 2703.18  46
  -3   6  -5 1231.86 536.706  56
  -3   6  -5 377.164 320.501  27
   3  -6   5 1424.88 621.508  46
  -3   6  -6 381.752 534.207  56
  -3   6  -6-746.133 481.882  27
   3  -6   6-928.277 526.331  46
  -3   6  -7 8690.04 1069.91  27
  -3   6  -7 10233.4 1225.73  56
   3  -6   7 10255.3 1215.78  46
  -3   6  -8 5131.83 797.205  56
  -3   6  -8 4537.27 825.444  27
   3  -6   8 5021.59 865.766  46
  -3   6  -9 6698.79 888.335  56
  -3   6  -9 6819.48 861.667  27
   3  -6   9 6923.84 1002.27  46
  -3   6 -10 1111.47 421.606  27
  -3   6 -10 1866.63 512.662  56
   3  -6  10 1745.99 513.314  46
  -3   6 -11 245.948 270.214  19
  -3   6 -11-35.8511 242.038  27
   3  -6  11 160.852 443.555  46
  -3   6 -12-52.1463 130.029  19
  -3   6 -12-80.2859 220.517  27
   3  -6  12 220.161 238.775  46
   3  -5 -15 134.155 210.143  29
   3  -5 -14 2325.61 376.638  29
   3  -5 -13-393.552 314.006  51
   3  -5 -12-268.615 540.901  41
   3  -5 -12 303.391 315.288  51
   3  -5 -11 1252.86 603.614  41
   3  -5 -11 138.715 252.740  51
   3  -5 -10 8611.63 1024.32  51
   3  -5 -10 9215.57 1040.32  22
   3  -5  -9 6721.14 918.397  28
   3  -5  -9 6638.42 895.416  51
   3  -5  -9 7537.12 958.113  22
   3  -5  -8 2549.96 686.231  28
   3  -5  -8 2505.23 554.395  22
   3  -5  -7 14608.1 1385.24  36
   3  -5  -7 13711.9 1273.34  28
   3  -5  -7 14898.6 1391.00  22
   3  -5  -6-312.934 544.994  36
   3  -5  -6 232.522 357.602  22
   3  -5  -5 1853.54 522.197  22
  -3   5   4 602.318 496.768  56
  -3   5   4 510.600 506.608  26
   3  -5  -4 1048.65 470.975  22
  -3   5   3 24083.5 2124.78  56
   3  -5  -3 27538.4 1760.01  22
  -3   5   2 7342.28 1671.09  56
  -3   5   2 3779.35 1097.12  26
  -3   5   1 30999.9 2614.21  56
  -3   5   1 35084.2 2320.52  26
   3  -5  -1 38929.3 2073.86  22
  -3   5   0 1105.09 1468.62  56
  -3   5   0 634.228 655.149  26
  -3   5  -1 33085.5 2585.02  56
  -3   5  -1 23435.1 1945.97  26
  -3   5  -2 94947.7 3446.42  42
  -3   5  -2 97815.9 3524.45  30
  -3   5  -2 88992.9 4242.63  56
   3  -5   2 95976.4 3813.73  46
   3  -5   2 91148.3 3153.60  22
  -3   5  -3 3784.98 526.874  42
  -3   5  -3 3603.23 680.106  30
  -3   5  -3 1239.34 502.386  27
  -3   5  -3 3297.19 981.523  56
  -3   5  -3 1678.82 688.471  26
   3  -5   3 3004.96 973.578  46
   3  -5   3 2529.31 704.815  22
   3  -5   4 14637.9 1214.79  22
  -3   5  -4 15660.9 1416.31  42
  -3   5  -4 11780.4 1603.80  27
  -3   5  -4 17563.5 1740.58  56
   3  -5   4 13893.8 1664.78  23
   3  -5   4 13812.0 1594.54  46
  -3   5  -5 157.657 425.603  42
   3  -5   5-15.7432 414.780  46
  -3   5  -5 2.70558 545.307  27
  -3   5  -5 1025.36 705.602  56
   3  -5   5 927.052 490.076  23
  -3   5  -6 52124.3 3152.39  27
   3  -5   6 56445.6 3298.26  23
   3  -5   6 57730.2 3191.37  46
  -3   5  -7-177.098 338.694  27
  -3   5  -7 612.042 392.912  56
   3  -5   7-253.659 507.358  23
   3  -5   7 567.685 547.207  46
  -3   5  -8 3600.76 739.752  56
  -3   5  -8 1409.74 643.508  27
   3  -5   8 2980.19 766.528  46
   3  -5   8 2929.74 778.202  23
   3  -5   9 691.063 529.661  46
  -3   5  -9 1597.79 637.975  56
  -3   5  -9 49.9832 306.778  27
   3  -5   9 981.826 572.975  23
  -3   5 -10 3615.91 794.504  56
  -3   5 -10 2331.29 662.402  27
   3  -5  10 3115.02 769.157  23
   3  -5  10 2705.58 672.586  46
  -3   5 -11 464.616 362.910  19
  -3   5 -11 308.359 288.104  56
  -3   5 -11 75.3410 223.655  27
   3  -5  11 531.562 290.923  23
   3  -5  11 566.770 480.171  46
  -3   5 -12 84.8346 286.481  19
  -3   5 -12 73.7735 287.184  27
   3  -5  12 189.543 222.385  23
   3  -5  12 98.6194 331.338  46
  -3   5 -13 4287.79 612.128  27
   3  -5  13 4959.77 723.544  46
  -3   5 -14 2495.29 400.515  27
   3  -5  14 2844.32 516.797  46
   3  -4 -16 449.812 233.441  29
   3  -4 -15 1652.33 401.266  51
   3  -4 -14 566.597 322.147  51
   3  -4 -13 407.063 369.884  41
   3  -4 -13 734.985 388.499  51
   3  -4 -12 203.586 366.269  41
   3  -4 -12 662.107 485.687  28
   3  -4 -12 368.259 264.656  51
   3  -4 -11 625.763 498.947  28
   3  -4 -11 831.529 480.883  51
   3  -4 -11 195.281 338.799  22
   3  -4 -10-274.053 445.439  41
   3  -4 -10-197.793 455.367  28
   3  -4 -10-231.778 343.014  51
   3  -4 -10 22.6220 346.608  22
   3  -4  -9 20688.5 1737.59  28
   3  -4  -9 23467.3 1776.59  51
   3  -4  -9 21159.5 1508.49  22
   3  -4  -8 38710.8 2378.06  28
   3  -4  -8 45909.7 2445.43  51
   3  -4  -8 42008.0 2132.63  22
   3  -4  -7 12691.0 1309.08  28
   3  -4  -7 11918.3 1220.07  51
   3  -4  -7 12432.1 1235.49  22
   3  -4  -6-1212.96 2079.74   6
  -3   4   6-1562.07 1156.63  17
  -3   4   6 567.965 596.853  16
   3  -4  -6 531.719 566.150  28
   3  -4  -6 470.913 484.749  22
  -3   4   5 2432.48 951.890  16
   3  -4  -5 1842.88 1437.44   6
  -3   4   5 3584.14 1114.41  17
   3  -4  -5 3042.67 705.399  22
   3  -4  -5 2094.23 481.684  28
   3  -4  -4 38826.7 4733.40   6
  -3   4   4 43352.3 4144.89  17
  -3   4   4 42755.6 4102.34  16
  -3   4   4 35845.0 2593.67  56
   3  -4  -4 41495.3 5211.57   2
   3  -4  -4 44097.5 2129.90  22
   3  -4  -3 507.740 1035.04   2
  -3   4   3 997.891 714.967  16
  -3   4   3 617.175 799.764  17
  -3   4   3 668.285 630.976  56
   3  -4  -3 900.419 450.902  22
   3  -4  -2 3405.27 1331.11   2
  -3   4   2 4579.90 1076.54  56
  -3   4   2 5248.61 1495.08  17
  -3   4   2 2846.58 1091.25  16
   3  -4  -2 4147.73 942.392  22
  -3   4   1 36780.5 3821.01  17
   3  -4  -1 32678.9 4603.63   2
  -3   4   1 32552.1 2613.90  56
  -3   4   0 51098.2 4507.47  17
   3  -4   0 47663.4 5414.58   2
  -3   4   0 35518.5 2744.74  56
   3  -4   0 46570.9 2314.13  22
  -3   4  -1 649.199 546.924  17
  -3   4  -1 802.838 748.688  27
  -3   4  -1 726.869 646.783  56
  -3   4  -1 699.847 439.092  26
   3  -4   1 874.936 1097.20  22
   3  -4   1-131.332 1188.78   2
  -3   4  -2 8062.12 1480.53  27
  -3   4  -2 14508.9 2429.63  17
  -3   4  -2 12240.0 1520.59  56
  -3   4  -2 13014.7 1436.16  26
   3  -4   2 13224.0 1529.88  23
   3  -4   2 13455.8 1201.81  22
   3  -4   2 13189.1 2796.84   2
  -3   4  -3 22988.3 1880.62  26
   3  -4   3 18325.9 1880.73  37
  -3   4  -3 24477.5 3118.96  17
  -3   4  -3 27774.8 2227.00  56
  -3   4  -3 15794.6 1914.38  27
   3  -4   3 18490.5 1855.60  23
   3  -4   3 18989.5 1782.46  46
   3  -4   3 20873.3 1435.17  22
   3  -4   4-160.873 421.516  22
  -3   4  -4-78.3560 432.761  42
   3  -4   4 281.886 466.927  37
  -3   4  -4 328.203 755.627  17
  -3   4  -4 1155.85 733.137  56
  -3   4  -4 72.5502 475.625  27
   3  -4   4-23.1658 468.050  23
   3  -4   4-0.58032 436.506  46
  -3   4  -4 799.582 569.695  26
  -3   4  -5 34245.0 2614.81  27
   3  -4   5 30777.3 2534.90  37
  -3   4  -5 35161.6 3766.11  17
  -3   4  -5 39689.7 2378.12  26
   3  -4   5 36466.8 2583.49  23
   3  -4   5 33501.2 1759.48  22
   3  -4   6 2221.78 437.826  22
  -3   4  -6 2075.48 735.444  56
   3  -4   6 1967.34 591.032  37
  -3   4  -6 3433.32 890.167  27
   3  -4   6 2422.58 639.539  23
   3  -4   7 2979.86 824.992  37
  -3   4  -7 2926.31 719.262  27
  -3   4  -7 4769.96 1036.57  56
   3  -4   7 3977.15 993.773  23
  -3   4  -8 4370.84 1132.83  27
   3  -4   8 5277.26 1090.52  37
  -3   4  -8 7834.19 1186.41  56
   3  -4   8 5935.79 1081.03  23
   3  -4   9 13733.0 1710.82  37
   3  -4   9 15368.1 1718.43  23
   3  -4  10-12.1594 520.718  37
  -3   4 -10 171.958 377.375  56
  -3   4 -10 173.791 362.394  27
   3  -4  10 142.785 394.645  23
  -3   4 -11-140.397 359.618  56
   3  -4  11 368.084 471.149  37
  -3   4 -11-56.7868 301.724  27
   3  -4  11 99.8326 386.794  23
   3  -4  12-202.010 436.194  37
  -3   4 -12 102.948 259.794  19
  -3   4 -12 182.909 280.545  56
  -3   4 -12 198.766 349.569  27
   3  -4  12 614.251 408.310  23
  -3   4 -13 2587.05 543.449  27
   3  -4  13 2353.86 592.043  37
  -3   4 -13 1113.77 440.099  19
   3  -4  13 2353.50 611.536  23
   3  -4  14 577.333 451.437  46
  -3   4 -14 404.631 246.220  19
  -3   4 -14 484.337 279.013  27
   3  -4  14 911.759 430.182  23
  -3   4 -15 1219.37 284.469  27
   3  -4  15 793.291 387.488  23
   3  -4  15 1516.23 427.824  46
   3  -3 -17 2736.17 472.655  29
   3  -3 -17 2269.80 413.624  51
   3  -3 -16 829.197 322.273  51
   3  -3 -15 247.466 355.524  51
   3  -3 -14 2828.21 604.040  51
   3  -3 -13-359.661 390.024  51
   3  -3 -13 494.118 483.754  28
   3  -3 -12 12071.3 1278.13  51
   3  -3 -12 10253.5 1199.20  28
   3  -3 -11 13026.2 1342.09  28
   3  -3 -11 14925.4 1433.32  51
   3  -3 -11 13621.5 1256.75  22
   3  -3 -10 14404.3 1440.57  51
   3  -3 -10 12543.8 1375.47  28
   3  -3 -10 13497.5 1182.96  22
   3  -3  -9 31458.7 2255.89  28
   3  -3  -9 36402.9 1928.74  22
   3  -3  -8 14658.2 3147.97   6
   3  -3  -8 13051.5 1485.57  28
  -3   3   8 16959.1 2772.41  16
  -3   3   8 15734.0 3077.98  15
   3  -3  -8 17612.0 1557.20  51
   3  -3  -8 16252.9 1305.55  22
   3  -3  -7 10498.5 1240.99  28
   3  -3  -7 12424.2 2552.52   6
  -3   3   7 12426.1 1888.57  17
  -3   3   7 13538.5 2575.33  16
  -3   3   7 10284.8 2780.53  15
   3  -3  -7 13631.3 1348.48  51
   3  -3  -7 11678.4 1093.76  22
   3  -3  -7 10353.2 2762.98   3
   3  -3  -6 9140.85 1964.12   6
  -3   3   6 12065.6 1953.46  17
   3  -3  -6 9828.29 1287.38  28
  -3   3   6 12764.3 2378.27  16
  -3   3   6 11361.5 2686.14  15
   3  -3  -6 11825.6 1096.47  22
   3  -3  -5 33729.5 4106.91   6
  -3   3   5 39838.1 3575.85  17
  -3   3   5 40312.0 4012.01  16
  -3   3   5 38332.3 4711.81  15
   3  -3  -5 33369.0 2067.86  28
   3  -3  -5 38756.7 1966.38  22
  -3   3   4 6805.41 1632.32  16
   3  -3  -4 4388.95 1608.83   6
  -3   3   4 6129.91 1413.66  17
   3  -3  -4 5267.82 859.921  22
   3  -3  -3 35539.8 2766.66  21
   3  -3  -3 31541.3 3677.57   6
  -3   3   3 38769.3 3528.05  17
  -3   3   3 38086.9 3616.71  16
   3  -3  -3 36815.6 4582.88   2
   3  -3  -3 36188.2 1837.59  22
   3  -3  -2 48922.8 5078.90   2
  -3   3   2 50386.8 4054.35  17
  -3   3   2 49515.2 3988.39  16
   3  -3  -2 44930.2 1970.95  22
  -3   3   1 15572.1 2269.34  17
  -3   3   1 14197.1 2068.70  16
   3  -3  -1 15296.0 2941.58   2
   3  -3  -1 14421.8 1271.35  22
  -3   3   0 6597.77 1484.54  17
   3  -3   0 5629.08 1653.29   2
  -3   3  -1 23030.1 2005.34  56
  -3   3  -1 21389.1 2614.53  17
   3  -3   1 21134.0 3260.62   2
   3  -3   1 19574.1 1451.22  22
   3  -3   2 28098.5 2148.22  37
  -3   3  -2 29890.5 3133.53  17
   3  -3   2 31704.6 3853.76   2
  -3   3  -2 29849.4 2244.29  56
   3  -3   2 29006.8 2126.36  23
   3  -3   3 11775.4 1408.14  52
   3  -3   3 11506.6 1419.18  37
  -3   3  -3 14084.6 2135.73  17
  -3   3  -3 10006.7 1343.29  27
   3  -3   3 11725.8 1367.89  23
   3  -3   4 51.2281 342.351  37
  -3   3  -4-452.429 623.609  17
  -3   3  -4 1075.04 814.454  56
  -3   3  -4-8.10462 401.216  27
  -3   3  -4-100.768 416.892  26
   3  -3   4-413.026 668.770  52
   3  -3   4 81.4269 308.129  23
   3  -3   5 40034.7 2751.14  37
  -3   3  -5 39836.3 3482.36  17
  -3   3  -5 46229.1 2832.80  56
  -3   3  -5 37868.9 2711.65  27
  -3   3  -5 47111.2 2314.14  26
   3  -3   5 39070.1 2560.98  23
   3  -3   5 34378.1 2520.08  52
   3  -3   6 44280.2 2917.84  52
   3  -3   6 45557.0 2958.70  37
  -3   3  -6 58431.5 3263.37  27
  -3   3  -6 48519.6 3874.23  17
  -3   3  -6 50756.2 3075.71  56
  -3   3  -6 57427.6 2558.05  26
   3  -3   6 42621.4 3001.64  24
   3  -3   6 44814.6 2805.79  23
   3  -3   7 15040.3 1712.88  37
  -3   3  -7 19030.4 1793.06  56
   3  -3   7 14764.9 1741.57  52
   3  -3   7 12806.8 2882.05  13
   3  -3   7 14297.3 1707.32  24
   3  -3   7 14180.7 1654.25  23
   3  -3   8 16502.5 1888.07  37
  -3   3  -8 21594.0 1839.03  56
   3  -3   8 16824.8 1808.61  52
   3  -3   8 15583.5 3500.21  13
   3  -3   8 16533.8 1889.77  24
   3  -3   8 17510.4 1812.22  23
   3  -3   9 1415.55 610.301  24
   3  -3   9 1574.13 707.132  37
  -3   3  -9 278.442 759.469  57
  -3   3  -9 2068.84 452.040  56
  -3   3  -9 1373.59 451.229  27
   3  -3   9 1275.90 512.366  52
   3  -3   9 2242.84 841.469  23
   3  -3  10 1779.99 737.333  37
  -3   3 -10 1823.17 456.236  56
  -3   3 -10 2713.39 889.378  27
   3  -3  10 1220.04 544.709  52
   3  -3  10 1221.45 409.879  24
   3  -3  11 386.137 396.073  37
  -3   3 -11 556.442 384.959  56
  -3   3 -11 409.146 488.851  27
   3  -3  11-12.7861 430.903  23
   3  -3  12 25494.0 2114.54  37
   3  -3  12 23740.9 2047.60  23
   3  -3  13 615.692 498.458  37
  -3   3 -13 1677.76 591.144  27
   3  -3  13 413.448 259.435  23
   3  -3  14 8847.25 1091.58  37
  -3   3 -14 10272.8 1088.06  27
   3  -3  14 9632.54 1173.05  23
   3  -3  15 1276.61 368.272  37
  -3   3 -15 1983.38 497.068  27
   3  -3  15 2216.18 565.315  23
  -3   3 -16 1019.33 320.561  27
   3  -3  16 777.670 328.690  23
   3  -3  17 2660.63 423.910  23
   3  -3  17 2472.14 444.163  46
   3  -2 -18 795.572 243.469  51
   3  -2 -18 840.989 287.533  29
   3  -2 -17 3499.56 503.378  29
   3  -2 -17 3717.23 598.688  51
   3  -2 -16 382.750 345.635  51
   3  -2 -15 3292.48 683.215  51
   3  -2 -14 518.565 433.013  51
   3  -2 -14-12.3563 311.510  28
   3  -2 -13 311.823 459.864  28
   3  -2 -13-205.502 308.950  51
   3  -2 -13 583.430 462.698  44
   3  -2 -12 6970.13 985.740  28
   3  -2 -12 6375.86 918.440  51
   3  -2 -12 6224.45 1149.25  44
   3  -2 -11 28230.6 2082.51  28
   3  -2 -11 26630.4 1874.58  51
   3  -2 -10 494.069 511.492  28
   3  -2 -10 333.972 276.603  51
   3  -2 -10-354.396 519.633  22
   3  -2 -10-443.266 404.577  44
  -3   2   9 71885.5 6448.32  15
   3  -2  -9 69791.6 6373.25   6
   3  -2  -9 68035.8 3100.13  28
   3  -2  -9 81560.2 3330.11  51
   3  -2  -9 70833.5 7015.08   3
   3  -2  -9 69931.2 2619.13  22
   3  -2  -8 56400.8 5544.21   6
   3  -2  -8 63319.3 2890.39  28
  -3   2   8 56899.7 5739.78  15
   3  -2  -8 58537.2 6139.00   3
   3  -2  -8 66896.6 2927.01  51
   3  -2  -8 59856.7 2379.87  22
   3  -2  -7 850.292 802.501   6
  -3   2   7 1310.36 710.379  17
   3  -2  -7 2070.36 574.699  28
  -3   2   7 1370.71 517.182  15
   3  -2  -7 1984.37 707.922  51
   3  -2  -7 953.923 892.452   3
   3  -2  -7 2277.81 544.023  22
   3  -2  -7 471.534 601.219  44
   3  -2  -6 36767.6 4200.59   6
  -3   2   6 39771.6 3253.44  17
  -3   2   6 37624.2 4575.24  15
   3  -2  -6 34836.5 4681.35   3
   3  -2  -6 39398.2 1845.43  22
   3  -2  -5 987.405 742.575   6
  -3   2   5 1636.53 720.901  17
  -3   2   5 1480.95 1009.69  15
   3  -2  -5 1752.69 1256.57   3
   3  -2  -4 13779.4 2296.74   6
  -3   2   4 15975.4 2169.06  17
  -3   2   4 16864.1 3024.11  15
  -3   2   3 595.537 579.368   9
  -3   2   3 1583.62 1222.62  15
   3  -2  -3 927.650 742.338   6
  -3   2   3 957.321 291.632  17
   3  -2  -2 699.725 945.241   2
  -3   2   2 1503.20 818.180  17
  -3   2   2 1583.04 597.434   9
  -3   2   2 1590.81 1049.72  15
  -3   2   1 38347.9 3352.96  17
  -3   2   1 34615.7 3621.76   9
   3  -2  -1 36252.7 4190.92   2
  -3   2   1 38172.1 3065.63  16
   3  -2   0 13011.0 2274.47   2
  -3   2   0 13813.6 2060.49  17
  -3   2   0 12309.5 1647.86  16
  -3   2  -1 87782.9 5085.49  17
   3  -2   1 91305.4 6113.79   2
  -3   2  -2 53480.4 3940.87  17
   3  -2   2 56488.8 4784.11   2
  -3   2  -3 34342.6 3135.73  17
  -3   2  -4 15027.6 2047.74  17
   3  -2   4 12702.6 2683.29  13
  -3   2  -5-114.664 552.612  17
   3  -2   5 726.326 803.628  13
  -3   2  -6 874.279 771.161  17
  -3   2  -6 1069.32 555.933  56
  -3   2  -6 802.117 647.843  27
   3  -2   6 597.066 550.266  52
   3  -2   6 506.621 439.686  24
   3  -2   6 189.200 465.073  13
   3  -2   7 16517.2 1721.27  52
  -3   2  -7 16879.1 2108.13  17
   3  -2   7 17599.7 3520.08  13
  -3   2  -7 11535.0 1432.70  57
  -3   2  -7 20348.7 1683.47  56
   3  -2   7 20240.4 2012.05  24
  -3   2  -8 744.222 487.907  56
   3  -2   8 973.877 683.011  52
  -3   2  -8 1768.19 753.980  27
  -3   2  -8 402.662 794.634  57
   3  -2   8 1704.31 704.984  24
   3  -2   8 1888.67 1064.48  13
  -3   2  -9 39007.6 2704.39  27
  -3   2  -9 28754.6 2080.45  56
   3  -2   9 26926.9 2276.62  52
   3  -2   9 31250.8 4625.25  13
   3  -2   9 30006.1 2482.69  24
   3  -2  10 2784.34 635.376  52
  -3   2 -10 3938.37 893.023  27
   3  -2  10 2802.70 690.033  24
   3  -2  11 1769.79 628.257  52
  -3   2 -11 237.787 744.795  57
  -3   2 -11 1284.90 606.785  27
   3  -2  11 919.544 535.743  24
   3  -2  12 11006.5 1392.65  52
  -3   2 -12 11518.4 1504.71  27
  -3   2 -12 10356.2 1413.08  57
   3  -2  12 10509.1 1340.06  24
   3  -2  13 229.757 297.116  37
  -3   2 -13 630.926 295.831  27
  -3   2 -13 447.758 591.922  54
   3  -2  13 396.456 448.856  52
   3  -2  13-35.7389 349.403  24
   3  -2  14 7720.02 1164.21  37
  -3   2 -14 9581.56 1104.67  27
  -3   2 -14 5759.22 1096.15  54
   3  -2  15 1011.42 367.175  37
  -3   2 -15 488.442 343.538  27
  -3   2 -15 704.015 563.651  54
   3  -2  16 4825.11 717.284  37
  -3   2 -16 5053.41 635.588  27
  -3   2 -16 2748.94 653.218  54
   3  -2  16 5231.01 801.486  23
  -3   2 -17-69.3138 177.720  27
  -3   2 -17 43.5690 198.628  54
   3  -2  17 8.55946 179.236  23
   3  -1 -18 6428.39 608.988  51
   3  -1 -17 1047.06 285.457  51
   3  -1 -16 2136.68 479.398  51
   3  -1 -16 2375.95 596.334  44
   3  -1 -15 132.700 218.126  51
   3  -1 -15-495.023 506.208  44
   3  -1 -14 7695.59 938.917  28
   3  -1 -14 7385.01 968.378  51
   3  -1 -14 5260.18 899.368  44
   3  -1 -13 456.569 441.845  28
   3  -1 -13 183.701 328.823  51
   3  -1 -13 434.416 421.580  44
   3  -1 -12 21701.8 1663.06  28
   3  -1 -12 19893.0 1660.83  51
   3  -1 -11 39328.8 2572.80  44
   3  -1 -11 45309.9 2535.24  28
   3  -1 -11 43846.1 2388.97  51
   3  -1 -10 3849.07 1490.83   3
   3  -1 -10 2416.18 756.819   6
   3  -1 -10 4125.97 835.862  28
  -3   1  10 3706.20 1596.77  15
   3  -1 -10 4047.38 782.689  51
   3  -1 -10 3200.49 713.792  44
   3  -1  -9 6306.16 2001.18   3
  -3   1   9 6847.03 2224.76  15
   3  -1  -9 5517.32 1733.59   6
   3  -1  -9 9387.24 1097.19  28
   3  -1  -9 8043.15 1144.06  44
   3  -1  -8 48885.1 5053.35   6
   3  -1  -8 57332.9 2674.95  51
  -3   1   8 53359.2 5452.06  15
   3  -1  -8 60804.7 2731.29  28
   3  -1  -8 52261.4 5809.83   3
   3  -1  -8 52169.7 2854.55  44
   3  -1  -7 1820.67 507.145  21
   3  -1  -7 1230.23 597.125   6
  -3   1   7 1463.68 713.271  17
  -3   1   7 1700.42 808.213  15
   3  -1  -7 2253.79 589.227  51
   3  -1  -7 1338.54 954.194   3
   3  -1  -7 2190.91 592.717  44
   3  -1  -6 34368.3 3761.31   6
  -3   1   6 35856.6 3134.85  17
  -3   1   6 32627.0 3600.03   9
   3  -1  -6 32711.6 4394.35   3
  -3   1   6 35001.6 4350.01  15
   3  -1  -5 30482.6 3370.65   6
  -3   1   5 28124.3 3330.55   9
  -3   1   5 33592.2 4073.72  15
   3  -1  -5 32859.2 4250.88   3
  -3   1   4 24387.6 3235.84  15
   3  -1  -4 22731.2 2662.88   6
  -3   1   4 21117.5 2890.07   9
   3  -1  -4 22472.2 3458.84   3
  -3   1   3 12173.0 2151.68  15
   3  -1  -3 9483.38 1802.97   6
  -3   1   3 8791.81 1864.64   9
   3  -1  -3 11530.8 2466.09   3
  -3   1   2 24010.5 3065.71   9
  -3   1   2 23735.4 3059.23  15
  -3   1   1 60156.7 4776.45   9
  -3   1   1 64173.4 4928.52  15
  -3   1   0 8967.71 1770.96  15
  -3   1   0 6871.24 1809.18   9
  -3   1  -1 18042.9 2646.15   9
   3  -1   1 19418.3 2551.85   2
   3  -1   2-1035.01 814.918   2
  -3   1  -2-19.5550 922.289   9
   3  -1   4 9752.09 2088.19  13
  -3   1  -5 5994.55 1652.41  14
   3  -1   5 4752.74 1629.10  13
  -3   1  -6 4431.84 1085.72  17
  -3   1  -6 4443.79 1717.85  14
   3  -1   6 5596.25 1694.33  13
  -3   1  -7 4318.39 1036.43  27
  -3   1  -7 2657.81 656.998  17
  -3   1  -7 4643.25 1783.68  14
   3  -1   7 4048.61 1463.74  13
   3  -1   8 811.397 449.444  38
  -3   1  -8 1530.06 628.622  27
  -3   1  -8 87.4055 433.146  57
   3  -1   8 325.028 366.039  24
   3  -1   8 247.915 470.146  13
  -3   1  -9 8397.06 1165.14  27
   3  -1   9 6032.11 1129.99  38
  -3   1  -9 4164.22 1183.61  57
   3  -1   9 6091.00 1066.20  24
   3  -1   9 4894.60 1818.15  13
   3  -1  10 12456.7 2857.49  13
  -3   1 -10 14081.0 1660.67  27
   3  -1  10 11891.9 1509.72  38
  -3   1 -10 8737.93 1451.33  57
   3  -1  10 13856.4 1664.44  24
   3  -1  11 2330.69 726.352  38
  -3   1 -11 1753.67 842.318  27
  -3   1 -11 456.684 467.244  57
   3  -1  11 1304.13 293.956  24
  -3   1 -12 392.381 692.831  57
  -3   1 -12 340.080 335.000  27
   3  -1  12 385.002 380.632  52
   3  -1  12 902.358 452.976  24
  -3   1 -13 544.020 589.767  57
  -3   1 -13 28.0849 470.899  27
   3  -1  13 805.800 576.184  52
   3  -1  13 694.886 296.130  24
  -3   1 -14 3789.23 685.334  27
   3  -1  14 4283.53 807.731  52
   3  -1  14 4212.19 791.012  24
  -3   1 -15 507.174 317.851  54
  -3   1 -15 878.028 352.659  27
   3  -1  15 867.016 250.697  24
   3  -1  16 1302.90 538.679  37
  -3   1 -16 1004.84 265.906  27
  -3   1 -16 1196.92 612.280  54
   3  -1  17 12942.2 1095.93  37
  -3   1 -17 7673.95 1149.29  54
  -3   1 -18 2156.05 519.311  54
   3  -1  18 3012.08 480.424  23
   3   0 -18 1459.69 275.501  51
   3   0 -17 128.769 212.313  51
   3   0 -17-208.117 377.057  44
   3   0 -16-160.145 194.792  51
   3   0 -16-14.3920 406.077  44
   3   0 -15 20116.6 1497.21  51
   3   0 -15 19246.4 1686.45  44
   3   0 -14 2542.34 578.445  28
   3   0 -14 2703.50 557.589  51
   3   0 -14 2598.07 773.207  44
   3   0 -13 698.448 431.819  28
   3   0 -13 946.617 472.750  51
   3   0 -13 607.144 342.888  44
   3   0 -12 3534.07 783.628  44
   3   0 -12 3170.28 681.730  28
   3   0 -12 3761.59 677.340  51
  -3   0  11 8760.91 2314.52  15
   3   0 -11 7405.08 1036.17  28
   3   0 -11 7861.18 968.537  51
   3   0 -11 8060.60 1256.72  44
  -3   0  10 54368.5 5977.81  15
   3   0 -10 57255.1 2687.55  51
   3   0 -10 52523.8 5842.63   3
   3   0 -10 55431.7 2983.32  44
   3   0 -10 58877.8 2731.80  28
   3   0  -9 21768.6 1580.67  28
   3   0  -9 17978.1 1428.75  51
  -3   0   9 16794.6 3383.67  15
   3   0  -9 17085.9 3441.44   3
   3   0  -9 19587.6 1745.64  44
  -3   0   8 91082.6 7286.83  15
   3   0  -8 87299.8 7195.30   3
   3   0  -8 99438.3 3784.36  44
   3   0  -7 2049.82 1174.99   3
   3   0  -7 1890.77 828.521   6
  -3   0   7 1581.41 510.396  15
   3   0  -6 21517.4 2935.61   6
  -3   0   6 24620.2 3464.08  15
   3   0  -6 24072.2 3582.30   3
   3   0  -5 614.301 1082.08   3
   3   0  -5 283.345 685.986   1
   3   0  -5 879.649 815.279   6
  -3   0   5 1150.07 577.426  15
   3   0  -4 10967.9 1722.20   6
  -3   0   4 10719.9 2133.21   9
  -3   0   4 13797.6 2236.85  15
   3   0  -4 14041.3 2620.20   3
   3   0  -3 6018.07 1013.89   6
  -3   0   3 6056.06 1478.94   9
  -3   0   3 9180.11 1949.29  15
   3   0  -3 6951.29 2013.75   3
  -3   0   2 22796.3 2974.67  15
  -3   0   2 19689.3 2841.85   9
   3   0  -2 24990.5 3310.59   3
  -3   0   1 8008.62 1786.97   9
  -3   0   1 9188.99 1732.86  15
   3   0  -1 8033.57 1887.87   3
  -3   0   0 919.220 760.314  15
  -3   0   0 1465.66 904.689   9
  -3   0   0-46.1223 450.403  14
   3   0   0 37.4374 877.056   3
  -3   0  -1 12642.5 2157.61   9
  -3   0  -1 13352.2 2148.56  15
  -3   0  -1 14034.8 1960.48  14
   3   0   1 12807.4 2166.90   3
  -3   0  -2 16791.1 2631.49   9
   3   0   2 15547.3 2176.18  13
  -3   0  -3 13993.6 2396.69   9
  -3   0  -3 13203.4 2160.03  14
   3   0   3 13319.3 2049.05  13
  -3   0  -4 3658.49 1073.13   9
  -3   0  -4 2155.22 784.715  14
   3   0   4 2763.42 1066.87  13
  -3   0  -5 3143.82 1369.08  14
   3   0   5 3498.43 1162.63  13
  -3   0  -6 31595.0 3795.96  14
   3   0   6 32144.8 3801.24  13
  -3   0  -7 20378.2 3224.10  14
   3   0   7 20675.4 3053.55  13
  -3   0  -8 41910.2 2634.80  57
  -3   0  -8 48412.4 5087.03  14
   3   0   8 49489.3 4924.29  13
   3   0   9 1179.84 500.151  38
  -3   0  -9 221.981 388.916  33
  -3   0  -9 367.644 594.359  57
  -3   0  -9 1295.48 600.600  27
  -3   0  -9 1165.47 749.663  14
   3   0   9 1428.18 1172.32  13
   3   0  10 1461.74 750.204  38
  -3   0 -10 2149.32 787.475  57
  -3   0 -10 1687.96 1398.65  14
  -3   0 -10 1299.01 602.460  27
   3   0  10 2146.65 1438.04  13
   3   0  11 29755.1 2388.89  38
  -3   0 -11 34131.4 2370.91  57
  -3   0 -11 29556.5 4408.07  14
   3   0  11 29824.4 4350.61  13
  -3   0 -12 6981.98 1253.72  57
   3   0  12 7746.71 1110.40  38
  -3   0 -12 6698.40 1052.62  27
   3   0  13 1697.04 574.000  38
  -3   0 -13 1220.05 584.541  57
  -3   0 -13 1754.99 489.736  27
  -3   0 -14 1330.78 615.884  57
  -3   0 -14 798.991 413.723  27
  -3   0 -15 7329.05 889.606  27
   3   0  15 8661.04 1015.47  52
   3   0  15 9148.15 1200.52  24
   3   0  16 7167.50 1029.82  24
  -3   0 -16 3442.13 856.378  54
   3   0  17 6701.55 814.720  24
  -3   0 -17 3374.69 757.178  54
   3   0  18 706.462 335.261  37
  -3   0 -18 293.410 345.520  54
  -3   0 -19-291.191 252.418  54
   3   1 -17-195.523 217.296  51
   3   1 -17 329.716 309.555  44
   3   1 -16 18177.0 1200.39  51
   3   1 -16 21061.5 1603.12  44
   3   1 -15 1821.27 730.277  44
   3   1 -15 1146.87 441.328  51
   3   1 -14 9848.02 1008.82  28
   3   1 -14 8829.22 991.424  51
   3   1 -14 9784.15 1294.38  44
   3   1 -13 139.222 333.153  44
   3   1 -13-399.871 455.781  28
   3   1 -13 26.7584 294.856  51
   3   1 -12 38561.5 2167.16  28
   3   1 -12 36561.1 2072.56  51
   3   1 -12 36339.6 2472.34  44
   3   1 -11 99127.8 3648.42  28
   3   1 -11 105727. 3671.82  51
   3   1 -11 107611. 4268.71  44
   3   1 -10 72688.2 2998.69  28
  -3  -1  10 63081.0 6501.06  15
   3   1 -10 69342.9 2964.82  51
   3   1 -10 69244.7 3393.73  44
   3   1  -9 1500.46 546.992  44
   3   1  -9 1024.06 1191.52   3
  -3  -1   9 555.484 822.085  15
   3   1  -9 1222.21 321.387  51
  -3  -1   8 28266.2 4224.04  15
   3   1  -8 26120.5 4028.43   3
   3   1  -8 33262.9 2163.40  44
   3   1  -7 2277.63 1440.25   3
  -3  -1   7 1608.07 1080.83  15
   3   1  -6 29065.5 2728.11   1
  -3  -1   6 31532.0 3960.90  15
   3   1  -6 24370.9 3673.11   3
   3   1  -5-93.4037 779.415   3
   3   1  -5 167.818 404.759   1
  -3  -1   5 371.005 610.668  15
   3   1  -4 1771.41 1003.81   3
   3   1  -4 1635.15 471.414   1
  -3  -1   4 2166.55 1097.31  15
   3   1  -3 168.249 650.727   3
  -3  -1   3 818.754 695.385  15
   3   1  -2 227.877 377.583   3
  -3  -1   2 849.603 967.958  15
   3   1  -1 6627.38 1524.79   3
  -3  -1   1 5968.34 1389.01  15
  -3  -1   1 4468.93 1356.98   9
  -3  -1   1 6970.62 1125.76  14
  -3  -1   0 12315.1 1989.08  15
  -3  -1   0 10848.0 2021.37   9
  -3  -1   0 13560.3 1785.41  14
   3   1   0 12174.0 2107.15   3
   3   1   1 1510.83 786.694   3
  -3  -1  -1 1125.22 672.823  15
  -3  -1  -1 1393.19 951.071   9
  -3  -1  -1 936.581 386.066  14
   3   1   1 810.130 258.677  13
  -3  -1  -2 8391.99 1660.67   9
  -3  -1  -2 8525.26 1669.15  14
  -3  -1  -2 7387.51 1400.70  15
   3   1   2 9860.01 1496.39  13
  -3  -1  -3 4085.19 1213.14   9
  -3  -1  -3 3349.64 983.724  14
   3   1   3 3640.90 1106.83  13
  -3  -1  -4 782.798 853.747   9
  -3  -1  -4 292.237 352.143  14
   3   1   4 384.272 352.217  13
  -3  -1  -5 80224.5 5187.98   9
  -3  -1  -5 69137.9 5391.70  14
   3   1   5 66839.9 4746.31  13
  -3  -1  -6 5283.02 1601.33  14
   3   1   6 5196.40 1439.76  13
   3   1   7 37684.9 3942.34  13
  -3  -1  -7 35231.9 4111.07  14
  -3  -1  -8 4280.19 1531.85  14
   3   1   8 4442.89 1398.22  13
  -3  -1  -9 46004.1 2874.30  57
  -3  -1  -9 45529.1 4842.46  14
   3   1   9 48781.7 4942.23  13
  -3  -1 -10 931.350 508.932  33
  -3  -1 -10 600.751 688.879  27
  -3  -1 -10 887.057 396.717  57
  -3  -1 -10 492.148 555.166  14
   3   1  10 912.058 897.743  13
  -3  -1 -11 87844.5 3799.29  57
  -3  -1 -11 71936.9 6541.65  14
   3   1  11 74493.5 6625.44  13
  -3  -1 -12 39517.8 2535.15  57
  -3  -1 -13 69627.6 3408.46  57
   3   1  14 65954.8 3242.90  38
  -3  -1 -14 68741.0 3362.25  57
   3   1  15 339.171 424.817  38
  -3  -1 -15 200.366 550.231  57
  -3  -1 -17 5201.67 1004.36  54
  -3  -1 -18 627.663 348.841  54
   3   1  18 1425.72 416.913  24
   3   1  19 870.314 293.616  37
  -3  -1 -19 265.334 186.143  54
   3   2 -18-20.6760 245.234  44
   3   2 -17 1732.70 414.112  44
   3   2 -16 346.948 298.192  44
   3   2 -16 160.960 245.268  51
   3   2 -15 10505.8 1013.23  51
   3   2 -15 16172.1 1538.69  44
   3   2 -14 2883.79 760.494  44
   3   2 -14 1231.27 308.782  51
   3   2 -13 1769.64 465.766  44
   3   2 -13 1814.43 469.785  51
   3   2 -12 12114.9 2070.21  54
   3   2 -12 10820.9 1181.36  51
   3   2 -12 12603.2 1600.62  44
   3   2 -11 7290.14 1192.71  44
   3   2 -11 7091.95 923.202  51
   3   2 -11 6596.53 1495.97  54
  -3  -2  10 11208.3 3045.56  15
   3   2 -10 6974.53 1299.93  54
   3   2 -10 7971.74 957.363  51
   3   2 -10 8925.22 1347.14  44
  -3  -2   9 24926.3 3897.78  15
   3   2  -9 20467.5 1531.59  51
   3   2  -9 24553.5 2097.59  47
  -3  -2   8 45464.0 5228.37  15
   3   2  -8 45525.2 2675.88  44
  -3  -2   7 12770.6 2889.88  15
   3   2  -7 13129.3 1943.49   1
  -3  -2   6 5357.87 1770.80  15
   3   2  -6 6231.93 1305.52   1
   3   2  -5 5807.43 2058.25   3
  -3  -2   5 7750.23 1872.87  15
   3   2  -5 7723.22 1484.45   1
   3   2  -4 7607.03 1848.00   3
   3   2  -4 9625.27 1531.61   1
  -3  -2   4 9602.76 1914.10  15
   3   2  -3 444.249 640.989   3
   3   2  -3 663.491 423.322   1
  -3  -2   3 742.049 536.748  15
   3   2  -2 698.225 501.137   1
   3   2  -2 1032.45 883.166   3
  -3  -2   2 664.937 437.981  15
  -3  -2   1 14963.4 2143.16  15
  -3  -2   1 20120.5 2166.16  14
   3   2  -1 19623.4 2522.91   3
   3   2   0 3345.61 1041.78   3
  -3  -2   0 3226.34 826.396  15
  -3  -2   0 4108.92 980.373  14
  -3  -2  -1 158.421 688.655   9
  -3  -2  -1 614.506 483.070  14
  -3  -2  -1-131.813 732.042  15
  -3  -2  -2 19243.6 2156.13  15
  -3  -2  -2 18668.0 2459.97   9
  -3  -2  -2 22220.3 2673.97  14
   3   2   2 24129.3 2158.48  13
  -3  -2  -3 446.269 428.710   9
  -3  -2  -3 299.988 626.049  14
   3   2   3 475.649 412.695  13
  -3  -2  -4 22077.8 2761.85   9
  -3  -2  -4 18159.8 2716.75  14
   3   2   4 20026.9 2290.15  13
  -3  -2  -5 1070.94 957.516   9
  -3  -2  -5 136.897 583.201  14
   3   2   5 1018.55 689.700  13
  -3  -2  -6 2968.08 879.865   9
  -3  -2  -6 2827.50 1342.34  14
   3   2   6 3030.25 887.497  13
  -3  -2  -7 46678.0 4690.16  14
   3   2   7 49077.8 4505.26  13
  -3  -2  -8 88844.2 6752.59  14
   3   2   8 92938.7 6648.81  13
  -3  -2  -9 4675.06 879.580  33
  -3  -2  -9 4732.02 740.775  57
  -3  -2  -9 5558.34 1809.81  14
   3   2   9 4727.51 1459.45  13
  -3  -2 -10 3890.63 821.319  33
  -3  -2 -10 6195.51 916.546  57
  -3  -2 -10 3244.25 1483.95  14
   3   2  10 3916.54 1725.26  13
  -3  -2 -11 245830. 6227.55  33
  -3  -2 -11 226858. 11655.0  14
   3   2  11 228816. 11734.8  13
  -3  -2 -12 26183.0 2133.66  33
  -3  -2 -12 24647.1 3901.61  14
  -3  -2 -12 27029.6 2167.07  57
   3   2  12 27029.1 4027.12  13
   3   2  13 6511.70 1104.54  21
  -3  -2 -13 10732.8 1290.80  57
  -3  -2 -14 2309.22 567.012  57
  -3  -2 -15-224.306 384.787  57
   3   2  16 2383.07 683.725  38
  -3  -2 -17-41.1549 350.139  54
  -3  -2 -17 249.139 465.062  49
  -3  -2 -18 741.358 387.174  54
  -3  -2 -18 448.654 375.820  49
  -3  -2 -19 698.000 319.573  54
   3   2  19 1320.68 360.579  24
   3   3 -18 2111.85 372.544  44
   3   3 -17 602.330 273.742  44
   3   3 -16 8352.36 996.411  44
   3   3 -15 541.064 286.202  44
   3   3 -15 685.728 265.450  51
   3   3 -14-143.848 490.903  44
   3   3 -14 341.599 318.290  51
   3   3 -13-153.963 346.824  44
   3   3 -13 81.7113 367.274  51
   3   3 -12 1882.70 683.105  44
   3   3 -12 979.045 374.821  51
   3   3 -11 40067.9 2297.26  51
   3   3 -11 52259.2 3162.16  44
  -3  -3  10 17406.7 3546.43  15
   3   3 -10 13048.8 2124.74  54
  -3  -3  10 14415.5 2876.78   4
   3   3 -10 11581.7 1288.74  51
   3   3 -10 17939.6 1675.69  47
   3   3 -10 16252.5 1729.65  44
  -3  -3   9 32655.2 4574.44   4
   3   3  -9 35187.6 2351.72  47
   3   3  -9 33140.5 2437.42  44
   3   3  -8 1674.39 822.913  44
   3   3  -8 3430.88 950.726   1
   3   3  -8 3134.29 903.752  47
   3   3  -7 698.906 928.509   1
  -3  -3   7 1105.53 1407.40   4
   3   3  -7 672.044 681.602  47
   3   3  -6 57077.4 4292.61   1
  -3  -3   6 50920.6 5143.65   4
  -3  -3   5 2065.53 1053.68   4
   3   3  -5 2269.81 1161.03   1
  -3  -3   4 5596.07 1644.05  15
   3   3  -4 5004.00 1270.83   1
   3   3  -3 874.721 573.661   1
  -3  -3   3 1889.39 681.483  15
   3   3  -2 4166.52 1059.95   1
  -3  -3   2 4025.43 1053.50  15
  -3  -3   2 4075.13 997.035  14
   3   3  -1-7.34925 535.888   1
  -3  -3   1 820.648 481.860  15
  -3  -3   1 446.691 494.589  14
   3   3   0 84352.5 4949.20   1
  -3  -3   0 89637.1 5163.66  14
  -3  -3   0 78875.5 4791.56  15
   3   3   1 23974.4 2797.69  10
  -3  -3  -1 18216.3 2399.33  14
  -3  -3  -1 16414.8 2030.18  15
   3   3   2 96963.5 5872.59  10
  -3  -3  -2 81302.4 5009.22   9
  -3  -3  -2 82827.7 5420.32  14
  -3  -3  -3 31832.3 3650.66  14
   3   3   3 39868.3 3860.39  10
  -3  -3  -3 36148.2 3384.48   9
   3   3   4 40978.1 4079.15  10
  -3  -3  -4 29985.1 3731.45  14
  -3  -3  -4 37281.1 3392.61   9
   3   3   4 35965.5 2970.94  13
   3   3   5-51.6135 397.598  10
  -3  -3  -5 149.424 502.901   9
  -3  -3  -5-4.86663 718.451  14
   3   3   5-39.0462 324.268  13
   3   3   6 6183.62 1881.46  10
  -3  -3  -6 6163.90 1544.16   9
  -3  -3  -6 4040.03 1263.37  14
   3   3   6 6818.02 1611.99  13
   3   3   7 5920.16 1882.86  10
  -3  -3  -7 5212.07 1716.07  14
   3   3   7 5941.21 1613.97  13
  -3  -3  -8 17930.6 3036.84  14
   3   3   8 19618.9 3284.73  10
   3   3   8 18754.3 2905.22  13
  -3  -3  -9 31214.0 4127.82  14
  -3  -3  -9 35231.2 2281.52  33
   3   3   9 37337.9 4682.79  10
  -3  -3  -9 38015.1 2478.46  57
   3   3   9 31207.7 4036.83  13
   3   3  10 40153.8 2617.19  39
  -3  -3 -10 48673.7 2683.62  33
  -3  -3 -10 42866.6 5081.52  14
  -3  -3 -10 45453.9 2771.28  57
   3   3  10 45736.8 5072.38  13
   3   3  11 26.4791 423.739  39
  -3  -3 -11 1275.52 777.538  33
  -3  -3 -11 120.809 654.852  57
  -3  -3 -11-642.558 788.758  14
   3   3  11-278.635 563.221  13
  -3  -3 -12 22408.2 1903.60  33
  -3  -3 -13 592.534 356.963  57
  -3  -3 -13 1045.65 576.045  33
  -3  -3 -14 2214.07 760.381  57
   3   3  15 2687.02 742.682  21
  -3  -3 -17 2202.21 667.409  54
  -3  -3 -18 577.038 425.611  54
  -3  -3 -18 357.559 331.480  49
  -3  -3 -19 123.453 199.310  54
  -3  -3 -19 102.506 347.801  49
   3   4 -17 1015.86 324.801  44
   3   4 -16 225.367 290.915  44
   3   4 -15 3428.21 630.985  44
   3   4 -14 1826.18 486.051  44
   3   4 -13 2081.84 791.824  44
   3   4 -13 482.311 258.896  51
   3   4 -12 5716.71 917.596  51
   3   4 -12 11386.2 1459.78  44
   3   4 -11 3708.78 982.678  44
   3   4 -11 2425.72 696.653  51
   3   4 -11 4865.61 1073.34  47
   3   4 -10 3663.40 687.349  51
   3   4 -10 7800.31 1218.44  47
   3   4 -10 6567.84 1257.75  44
  -3  -4   9 35934.8 4970.99   4
   3   4  -9 38874.8 2551.36  47
   3   4  -9 38870.2 2715.64  44
   3   4  -8 43052.5 4056.61   1
   3   4  -8 39126.6 2521.20  47
  -3  -4   8 36606.8 4820.75   4
   3   4  -7 33493.9 2118.47  58
  -3  -4   7 28189.8 4159.21   4
   3   4  -7 33451.7 3549.67   1
   3   4  -7 28876.6 2126.83  47
  -3  -4   6 473.973 802.700   4
   3   4  -6 973.158 1060.63   1
   3   4  -6 202.822 568.696  47
  -3  -4   5 4724.69 1549.91   4
   3   4  -5 4659.09 1304.12   1
  -3  -4   4 5769.51 1893.72   4
   3   4  -4 7375.85 1715.74   1
  -3  -4   3 7594.93 2157.06   4
   3   4  -3 8633.44 1660.95   1
  -3  -4   2 1023.08 922.533  12
   3   4  -2 1482.96 846.232   1
  -3  -4   2 801.033 694.933  15
  -3  -4   2 1102.95 963.158  14
   3   4  -1 29804.5 3173.41   1
   3   4  -1 36286.8 3191.52  10
  -3  -4   1 31063.6 3117.86  15
  -3  -4   1 29815.1 3154.35  14
   3   4   0 58774.9 4380.90   1
  -3  -4   0 62021.6 4672.90  14
   3   4   1 29715.3 2993.77   1
   3   4   1 35971.0 3447.66  10
  -3  -4  -1 29572.0 3347.39  14
   3   4   2 5386.11 1388.95   1
   3   4   2 6598.44 1616.51  10
  -3  -4  -2 4091.16 1357.75  14
   3   4   3 11344.3 1989.22   1
   3   4   3 15216.4 2557.73  10
  -3  -4  -3 11180.8 1958.71   9
  -3  -4  -3 11231.8 2295.51  14
   3   4   4 600.754 561.281   1
   3   4   4 1188.95 882.428  10
  -3  -4  -4 471.949 478.888   9
  -3  -4  -4 672.811 544.479  14
   3   4   5 76.8910 813.346   1
   3   4   5 26.1497 745.141  10
  -3  -4  -5-13.3358 513.755   9
  -3  -4  -5 529.013 785.257  14
   3   4   6 197.220 662.904  10
  -3  -4  -6 548.086 888.769  14
   3   4   6 226.000 477.584  13
   3   4   7 51578.8 5237.40  10
  -3  -4  -7 38837.4 4596.77  14
   3   4   7 43427.7 4406.98  13
  -3  -4  -8 8075.32 1142.59  33
   3   4   8 7358.82 1968.69  10
  -3  -4  -8 4678.94 1225.40  32
  -3  -4  -8 7009.69 2131.43  14
   3   4   8 5789.48 1583.80  13
  -3  -4  -9 22101.6 1835.75  33
   3   4   9 24787.8 3712.87  10
  -3  -4  -9 21988.6 2010.11  32
  -3  -4  -9 19916.2 1844.54  57
  -3  -4  -9 18118.8 3467.91  14
   3   4   9 21920.3 3397.75  13
  -3  -4 -10 5275.31 918.372  33
   3   4  10 5313.27 1819.51  10
  -3  -4 -10 3724.43 800.328  57
  -3  -4 -10 3980.31 1773.41  14
   3   4  10 4246.10 1483.52  13
  -3  -4 -11 677.606 835.995  14
  -3  -4 -11 2431.92 720.223  33
   3   4  11 1815.44 808.693  10
   3   4  11 1162.82 445.421  13
  -3  -4 -12 2346.69 673.007  33
  -3  -4 -12 1150.46 590.379  48
   3   4  13 6380.17 967.873  39
  -3  -4 -13 7929.14 1049.70  33
  -3  -4 -14 11204.9 1298.96  33
   3   4  16 3187.66 691.929  21
   3   4  17 291.882 286.985  21
  -3  -4 -17 352.339 386.131  54
   3   4  18 2384.82 573.940  38
  -3  -4 -18 995.618 332.523  54
  -3  -4 -19 416.296 298.669  49
   3   5 -16 1425.01 470.270  44
   3   5 -15 4904.02 857.370  44
   3   5 -14-61.5374 353.253  44
   3   5 -13 10728.7 1343.82  44
   3   5 -12 896.441 490.554  44
   3   5 -12 1226.23 601.615  47
   3   5 -11 20785.6 1877.45  47
   3   5 -10 3587.13 868.725  44
   3   5 -10 1802.38 599.803  51
   3   5 -10 3131.56 802.028  47
   3   5  -9 3811.68 1229.55  44
   3   5  -9 4192.11 994.619  47
   3   5  -8 219.936 470.677  44
  -3  -5   8 378.445 1446.75   4
   3   5  -8 2977.34 867.231   1
   3   5  -8 1338.09 588.446  47
   3   5  -7 5710.23 1815.59   1
   3   5  -7 4206.45 1064.53  44
   3   5  -7 4952.92 1060.33  47
  -3  -5   7 3694.37 1792.40   4
   3   5  -6 6499.49 1184.79  44
   3   5  -6 5921.48 1565.59   1
  -3  -5   6 4256.68 1825.34   4
   3   5  -6 6509.98 1062.01  47
   3   5  -5 4598.81 1371.30   1
  -3  -5   5 4582.16 2028.84   4
   3   5  -5 4378.40 963.587  47
  -3  -5   4 3474.43 1270.20  12
   3   5  -4 3832.18 1266.04   1
  -3  -5   4 3734.73 1570.56   4
   3   5  -4 4111.35 680.018  47
  -3  -5   3 12843.5 2588.23  12
   3   5  -3 16456.7 2557.76   1
  -3  -5   3 13009.6 2580.59   4
  -3  -5   2 5905.57 1816.97  12
  -3  -5   2 6047.81 1547.41  14
   3   5  -2 8906.49 1843.96   1
  -3  -5   1 16281.7 2742.39  12
   3   5  -1 17357.8 2513.03   1
  -3  -5   1 14665.8 2647.93  14
  -3  -5   0 2492.37 1147.66  12
   3   5   0 2724.22 928.696  10
   3   5   0 2463.44 934.746   1
  -3  -5   0 1387.54 763.480  14
   3   5   1 3762.73 1365.21  10
   3   5   1 2617.55 1206.45   1
  -3  -5  -1 2655.05 1228.06  14
   3   5   2 4613.91 1270.38   1
   3   5   2 6042.80 1666.37  10
  -3  -5  -2 4548.44 1618.68  14
   3   5   3 8928.41 2058.56  10
   3   5   3 7556.45 1671.19   1
  -3  -5  -3 8182.53 1649.34   9
  -3  -5  -3 5524.95 1668.54  14
   3   5   4 1615.10 1193.15   1
   3   5   4 1054.72 711.515  10
  -3  -5  -4 1062.30 1047.13  14
   3   5   5 5328.62 1571.18   1
   3   5   5 6582.24 1730.15  10
  -3  -5  -5 4535.76 1821.36  14
   3   5   6 21918.2 2915.70   1
  -3  -5  -6 21479.2 1819.45  33
   3   5   6 25641.7 3560.39  10
  -3  -5  -6 18118.4 3385.26  14
  -3  -5  -7 92.9243 453.195  33
   3   5   7 232.430 697.435  10
  -3  -5  -7 59.0864 476.670  32
  -3  -5  -7 127.556 728.508  14
  -3  -5  -8 1773.94 633.065  33
   3   5   8 379.569 510.378  10
  -3  -5  -8 162.254 467.653  32
  -3  -5  -8-357.580 1157.08  14
  -3  -5  -9 9970.57 1338.30  33
   3   5   9 8245.65 2210.24  10
  -3  -5  -9 7367.97 1374.52  32
  -3  -5  -9 7640.78 2456.60  14
   3   5   9 8333.74 2193.19  13
  -3  -5 -10 26376.9 2101.01  33
   3   5  10 25533.3 3970.66  10
  -3  -5 -10 23058.3 2105.13  32
  -3  -5 -10 20637.0 3729.87  14
  -3  -5 -10 24887.4 2421.38  48
  -3  -5 -11 2676.39 848.097  33
  -3  -5 -11 1929.61 866.210  48
  -3  -5 -12 10514.1 1333.77  33
  -3  -5 -12 9875.29 1521.88  48
  -3  -5 -13 18235.7 1734.97  33
  -3  -5 -13 15987.6 1955.98  48
   3   5  14-17.4225 385.110  39
  -3  -5 -14 93.1585 318.197  33
   3   5  15 3738.67 697.186  39
  -3  -5 -16 583.063 333.698  54
   3   5  17 31801.1 1871.12  21
   3   5  18 582.890 285.394  21
   3   6 -16 2050.43 385.045  44
   3   6 -15 549.812 307.380  44
   3   6 -14 361.592 404.792  44
   3   6 -13 242.424 417.163  44
   3   6 -12-57.2860 350.941  44
   3   6 -12-224.474 415.117  47
   3   6 -11 1020.35 435.245  44
   3   6 -11 2034.23 684.216  47
   3   6 -10 1329.89 508.018  44
   3   6 -10 1740.28 630.450  47
   3   6  -9-197.075 480.511  44
   3   6  -9 102.783 500.564  47
   3   6  -8 2265.29 913.127  44
   3   6  -8 3065.52 758.527  47
   3   6  -7 6611.47 1273.97  44
   3   6  -7 7091.30 1101.37  47
   3   6  -6 492.672 422.148  44
  -3  -6   6 1531.43 1598.80   4
   3   6  -6-916.014 1221.81   1
   3   6  -6 538.551 505.004  47
   3   6  -5 4315.76 1091.83  44
  -3  -6   5 4941.00 1929.82  12
  -3  -6   5 4762.56 1892.39   4
   3   6  -5 4224.51 1015.80  47
   3   6  -5 4463.10 1515.73   1
   3   6  -4 31926.1 3969.78   1
  -3  -6   4 26537.9 4031.53   4
  -3  -6   4 30154.1 2523.14  55
   3   6  -4 31215.0 2355.84  47
  -3  -6   3-582.229 686.746  12
  -3  -6   3-11.8390 675.746  55
   3   6  -3-823.548 1181.12   1
  -3  -6   3 146.972 679.326   4
  -3  -6   3 129.468 490.918  53
   3   6  -3-92.3494 674.645  47
  -3  -6   2-5.74844 519.169  12
   3   6  -2 483.834 739.882   1
  -3  -6   2 250.040 515.152  55
  -3  -6   2 626.566 494.166  53
  -3  -6   2-1335.00 1123.55  14
   3   6  -2-756.065 801.274  47
  -3  -6   1 16401.9 3241.85  12
   3   6  -1 17674.0 1672.59  43
   3   6  -1 20290.4 3079.31   1
  -3  -6   1 16337.0 1637.00  33
  -3  -6   1 17534.7 2102.47  55
  -3  -6   1 17760.5 1846.81  53
  -3  -6   1 15604.2 2869.27  14
   3   6  -1 20878.9 1852.24  47
   3   6   0 6114.04 1079.83  43
  -3  -6   0 3505.00 1362.33  12
   3   6   0 4024.00 1332.22   1
  -3  -6   0 5311.17 1077.60  33
  -3  -6   0 7373.86 1411.20  55
  -3  -6   0 5700.99 1083.51  53
  -3  -6   0 3065.52 1168.31  14
   3   6   0 7247.84 1178.59  47
   3   6   1 4479.67 976.120  43
   3   6   1 3504.80 1273.10   1
  -3  -6  -1 5363.00 983.410  33
   3   6   1 3179.67 1016.87  10
  -3  -6  -1 5219.64 961.261  55
  -3  -6  -1 4062.67 836.701  53
  -3  -6  -1 2725.33 1439.44  14
   3   6   1 5507.82 970.044  47
   3   6   2 5506.86 974.491  43
  -3  -6  -2 4824.83 916.746  33
   3   6   2 5361.02 1660.74  10
  -3  -6  -2 3944.35 1023.97  53
  -3  -6  -2 2618.30 1222.41  14
   3   6   2 4220.34 1322.87   1
   3   6   3 22583.3 2018.13  43
  -3  -6  -3 22869.3 1812.05  33
   3   6   3 24491.5 1843.27  18
   3   6   3 24193.9 3762.30  10
   3   6   3 26448.4 3121.00   1
  -3  -6  -3 19826.6 2109.62  53
  -3  -6  -3 20195.4 3502.23  14
   3   6   4 189.299 475.217  43
   3   6   4 755.397 536.984  18
  -3  -6  -4 146.519 515.753  33
   3   6   4 225.958 656.715  10
  -3  -6  -4 1831.26 894.253  53
  -3  -6  -4 558.430 519.646  14
   3   6   4-323.086 491.334   1
   3   6   5 141.484 666.932  43
   3   6   5-94.8772 380.306  18
  -3  -6  -5-65.5750 346.052  33
   3   6   5 896.546 1251.53  10
  -3  -6  -5 489.818 579.921  53
  -3  -6  -5-266.423 1040.80  14
   3   6   6 535.140 387.238  18
  -3  -6  -6 2000.09 719.599  33
   3   6   6 316.723 711.305  10
  -3  -6  -6 279.269 443.539  32
  -3  -6  -6 1228.85 1276.23  14
  -3  -6  -7 27980.1 2164.94  33
   3   6   7 31183.4 2111.56  18
   3   6   7 32197.2 4411.45  10
  -3  -6  -7 30118.7 2408.39  32
  -3  -6  -7 22994.2 3949.38  14
  -3  -6  -8 10996.3 1383.32  33
   3   6   8 11916.8 1255.40  18
  -3  -6  -8 8590.47 1521.65  32
   3   6   8 12689.9 2790.21  10
  -3  -6  -8 8607.66 2432.10  14
  -3  -6  -9 24261.4 2213.87  33
  -3  -6  -9 23105.8 2346.37  32
  -3  -6  -9 21916.1 3984.88  14
  -3  -6 -10 17510.7 1791.28  33
  -3  -6 -10 16391.6 1994.17  32
  -3  -6 -11 4110.52 1065.99  33
  -3  -6 -11 4324.55 973.834  32
  -3  -6 -11 6273.39 1315.04  48
   3   6  12 12160.8 1240.50  43
  -3  -6 -12 11580.5 1696.79  48
  -3  -6 -13-518.038 452.537  33
  -3  -6 -13-511.528 561.115  48
  -3  -6 -14 10133.0 1235.03  33
  -3  -6 -14 11384.6 1507.49  48
   3   6  15 956.487 302.448  39
   3   6  16 6190.22 759.777  39
   3   6  17-169.135 296.225  21
   3   6  18 1628.95 368.761  21
   3   7 -14 1287.33 393.568  44
   3   7 -13 149.580 245.062  44
   3   7 -12 106.149 320.831  44
  -3  -7  12-167.392 321.299  53
   3   7 -11 347.670 384.110  44
  -3  -7  11 829.180 587.161  53
   3   7 -11 296.033 384.258  47
   3   7 -10 2182.67 805.207  44
   3   7 -10 1772.64 587.430  47
   3   7  -9 356.915 406.194  44
   3   7  -9 559.607 565.883  47
  -3  -7   8 10154.5 1629.62  55
   3   7  -8 12042.4 1391.04  47
   3   7  -8 8440.38 1439.11  44
   3   7  -7 2336.20 848.614  44
  -3  -7   7 3829.50 1020.11  55
   3   7  -7 3699.44 734.344  47
   3   7  -6 654.229 557.160  44
   3   7  -6 1987.21 727.957  47
  -3  -7   6 2101.22 904.687  55
  -3  -7   5 33267.2 2730.42  53
  -3  -7   5 35481.6 2829.78  55
   3   7  -5 31607.2 2427.40  47
  -3  -7   4 60.0214 1029.90  12
  -3  -7   4 2556.38 1419.17   4
  -3  -7   4 1934.52 833.751  53
  -3  -7   4 2155.32 997.825  55
   3   7  -4 2201.63 676.501  47
  -3  -7   3 1868.42 1896.12  12
  -3  -7   3 2859.63 992.926  55
   3   7  -3 2922.75 1088.91  47
  -3  -7   3 3665.46 2155.72   4
  -3  -7   3 2947.52 767.258  53
  -3  -7   2 17464.6 1874.42  33
  -3  -7   2 20826.7 2294.25  55
  -3  -7   2 18830.1 2069.94  53
  -3  -7   2 12808.5 3105.96  14
   3   7  -2 18950.4 1888.79  47
   3   7  -2 11489.4 2516.09   1
  -3  -7   1 46035.3 2763.48  33
  -3  -7   1 47588.3 3213.75  55
  -3  -7   1 45009.0 3065.97  53
   3   7  -1 47260.9 4882.56   1
   3   7  -1 43588.5 2826.43  47
   3   7   0 343.798 446.908  43
  -3  -7   0 159.901 1086.27  12
  -3  -7   0-588.422 540.610  55
  -3  -7   0 1032.99 650.272  33
   3   7   0-802.475 1346.95   1
  -3  -7   0 746.517 501.126  53
   3   7   0 586.657 477.366  25
  -3  -7   0-948.240 1250.66  14
   3   7   0 1322.83 522.759  47
   3   7   1 50119.5 2807.61  43
  -3  -7  -1 47309.1 3219.87  53
   3   7   1 51208.2 2827.67  39
  -3  -7  -1 46621.9 2766.72  33
  -3  -7  -1 42490.9 3279.04  55
   3   7   1 46858.7 4749.71   1
  -3  -7  -1 34573.6 4740.03  14
   3   7   1 48795.1 2789.95  25
   3   7   1 45458.7 3006.62  47
   3   7   2 37449.5 2543.40  43
   3   7   2 38432.4 2528.79  39
  -3  -7  -2 36223.7 2381.27  33
  -3  -7  -2 27958.9 2366.30  57
  -3  -7  -2 27337.0 4278.40  14
   3   7   2 36005.8 2394.04  25
   3   7   2 39498.9 4489.62   1
   3   7   2 31422.4 2579.55  47
  -3  -7  -2 36759.9 2791.42  53
   3   7   3 27450.3 2192.83  43
  -3  -7  -3 23706.9 1994.08  33
   3   7   3 22909.2 1864.35  18
   3   7   3 24319.2 3343.35   1
  -3  -7  -3 26155.1 2344.62  53
  -3  -7  -3 17200.8 3467.92  14
   3   7   3 22643.1 2110.48  47
   3   7   4 8873.06 1438.01  43
   3   7   4 5244.34 913.587  18
  -3  -7  -4 6949.54 1135.47  33
   3   7   4 7454.04 2678.51  10
  -3  -7  -4 6536.81 1303.63  53
  -3  -7  -4 2971.03 1402.81  14
   3   7   4 6578.58 1205.66  47
   3   7   5-79.3733 662.578  43
   3   7   5 533.065 453.842  18
  -3  -7  -5 160.647 485.336  33
   3   7   5-544.537 1125.41  10
  -3  -7  -5 270.649 461.455  53
  -3  -7  -5-3.66822 576.842  14
   3   7   5-487.455 848.079  47
   3   7   6 11173.5 1494.46  43
  -3  -7  -6 12065.2 1415.80  33
   3   7   6 10844.5 1465.70  18
   3   7   6 12788.6 2669.56  10
  -3  -7  -6 9888.46 2738.93  14
  -3  -7  -6 7555.60 1305.59  46
   3   7   7 2060.14 430.580  18
  -3  -7  -7 2591.21 688.901  33
  -3  -7  -7 1760.17 855.260  32
   3   7   8 126.230 424.767  18
  -3  -7  -8-159.367 510.484  33
  -3  -7  -8-503.079 682.325  32
   3   7   9-374.829 368.373  18
  -3  -7  -9 317.347 466.648  33
  -3  -7  -9 336.228 661.001  32
  -3  -7 -10 277.439 418.166  33
  -3  -7 -10 288.736 593.258  32
  -3  -7 -11 1589.74 559.105  33
  -3  -7 -11 1571.87 878.010  32
  -3  -7 -11 1872.74 926.333  48
   3   7  12 10977.1 1287.37  43
  -3  -7 -12 7726.46 1137.63  33
  -3  -7 -12 10471.0 1682.14  48
   3   7  13 4876.20 816.677  43
  -3  -7 -13 4379.33 736.654  33
  -3  -7 -13 5210.98 1244.29  48
   3   7  14-121.390 412.680  43
  -3  -7 -14-4.85906 359.449  33
  -3  -7 -14 1035.59 527.004  48
   3   7  15 417.336 359.063  39
   3   7  16 520.241 369.923  39
   3   7  17 7427.50 822.945  21
   3   8 -13 2078.00 461.912  44
  -3  -8  13 3743.48 511.992  33
   3   8 -12 1698.72 515.704  44
  -3  -8  12 2035.43 480.022  53
   3   8 -11 592.538 391.471  44
  -3  -8  11 1354.10 533.697  53
   3   8 -11 668.415 283.258  47
   3   8 -10 1352.30 528.653  44
  -3  -8  10 1859.58 623.743  53
   3   8 -10 1148.03 377.130  47
   3   8  -9 160.187 337.494  44
  -3  -8   9-171.616 482.219  55
  -3  -8   9 639.991 472.671  53
   3   8  -9-448.920 333.601  47
   3   8  -8 2341.07 687.139  44
  -3  -8   8 2976.86 814.464  55
  -3  -8   8 3713.34 893.895  53
   3   8  -8 3659.24 803.384  47
   3   8  -7 2651.00 862.176  44
  -3  -8   7 2314.09 779.734  55
  -3  -8   7 2693.37 894.720  53
   3   8  -7 2760.46 817.879  47
   3   8  -6 24.4105 363.049  44
  -3  -8   6 1553.25 791.517  55
  -3  -8   6 353.858 557.772  53
   3   8  -6 417.038 560.945  47
   3   8  -5 591.123 399.210  44
  -3  -8   5 1735.50 860.741  55
  -3  -8   5 2561.45 917.115  53
   3   8  -5 1403.63 541.668  47
  -3  -8   4 13975.6 2026.27  55
  -3  -8   4 14291.0 1812.70  53
   3   8  -4 15456.0 1681.17  47
  -3  -8   3 2359.48 793.718  33
  -3  -8   3 2574.37 1157.57  55
  -3  -8   3 1882.12 950.993  53
   3   8  -3 2373.18 925.457  47
  -3  -8   2 190.674 442.586  33
  -3  -8   2 1570.46 1320.57  55
  -3  -8   2 956.038 913.526  53
   3   8  -2-31.0732 580.069  47
  -3  -8   1 128827. 4652.22  33
  -3  -8   1 118805. 5412.71  55
  -3  -8   1 130058. 5407.12  53
   3   8  -1 127351. 4919.02  47
   3   8   0 59936.2 3173.55  43
  -3  -8   0 59505.0 3161.09  33
  -3  -8   0 59801.5 3948.55  55
  -3  -8   0 60282.3 3815.36  53
   3   8   0 52742.2 2965.29  25
   3   8   0 62664.1 3544.96  47
   3   8   1 19983.4 1944.27  43
  -3  -8  -1 19818.9 1836.80  33
  -3  -8  -1 22909.7 2683.20  55
  -3  -8  -1 23308.8 2316.25  53
   3   8   1 21683.6 2123.73  47
   3   8   1 17420.3 1744.62  25
   3   8   2 761.900 757.904  43
   3   8   2-165.900 544.645  39
  -3  -8  -2 191.129 414.013  33
  -3  -8  -2 95.7781 519.924  53
   3   8   2 398.650 575.349  25
   3   8   2 15.1467 823.646  47
   3   8   3 32040.1 2408.19  43
   3   8   3 32115.4 2399.23  39
  -3  -8  -3 33164.5 2325.03  33
   3   8   3 31870.2 2222.91  18
   3   8   3 31423.1 2457.48  47
  -3  -8  -3 30489.6 2637.49  53
   3   8   4 7412.80 1244.74  43
  -3  -8  -4 7369.91 1226.80  33
   3   8   4 6771.20 1099.54  18
  -3  -8  -4 8262.19 1419.07  53
   3   8   4 8123.31 1345.59  47
   3   8   5-262.545 628.039  43
   3   8   5 576.741 564.644  18
  -3  -8  -5-593.594 597.295  33
  -3  -8  -5 63.6710 468.392  53
   3   8   5 531.119 578.441  47
   3   8   6 712.331 706.912  43
   3   8   6 93.2239 416.154  18
  -3  -8  -6-529.022 597.035  33
   3   8   6-369.621 590.355  47
  -3  -8  -6 540.669 543.327  46
   3   8   7 5521.52 995.531  43
   3   8   7 7301.61 1074.30  18
  -3  -8  -7 5315.92 1020.53  33
  -3  -8  -7 6040.03 1139.23  32
   3   8   8 525.993 445.797  43
   3   8   8 87.4590 351.276  18
  -3  -8  -8 468.840 353.634  33
  -3  -8  -8 259.811 586.133  32
   3   8   9 4174.08 824.703  43
   3   8   9 4684.88 902.261  18
  -3  -8  -9 2367.43 643.927  33
  -3  -8  -9 3681.18 1221.75  32
   3   8  10 2253.72 538.109  43
  -3  -8 -10 1575.56 450.978  33
  -3  -8 -10 2291.99 840.692  32
   3   8  11 602.688 568.960  43
  -3  -8 -11 346.203 340.494  33
  -3  -8 -11 1300.94 741.015  32
  -3  -8 -11 266.012 475.701  48
   3   8  12 5440.91 825.654  43
  -3  -8 -12 3551.45 586.603  33
  -3  -8 -12 5219.92 1134.21  48
   3   8  13 4926.99 698.480  43
  -3  -8 -13 5610.04 1118.53  48
   3   8  14 489.402 329.055  39
  -3  -8 -14 830.380 464.772  48
   3   8  14 389.286 475.869  43
   3   8  15 445.159 258.023  39
   3   8  16 4191.51 643.282  21
   3   8  16 3617.95 507.107  39
   3   9 -11 235.022 197.326  44
  -3  -9  11 192.342 227.289  33
  -3  -9  11 580.649 318.223  53
  -3  -9  10 6877.79 773.563  33
  -3  -9  10 6569.17 855.888  53
   3   9 -10 5718.81 604.202  47
   3   9  -9 358.290 404.914  44
  -3  -9   9-404.464 260.688  33
  -3  -9   9-105.694 460.345  55
  -3  -9   9 305.148 471.604  53
   3   9  -9-75.4842 262.690  47
  -3  -9   8 6566.93 885.970  33
  -3  -9   8 4964.55 1013.43  55
  -3  -9   8 7049.42 1128.14  53
   3   9  -8 7394.77 954.175  47
   3   9  -7 1014.23 384.345  44
  -3  -9   7 2616.59 638.655  33
  -3  -9   7 1745.41 660.436  55
  -3  -9   7 3218.26 887.169  53
   3   9  -7 3058.26 701.096  47
   3   9  -6 305.524 351.211  44
  -3  -9   6 2444.02 716.156  33
  -3  -9   6 1891.74 939.125  55
  -3  -9   6 1965.57 778.929  53
   3   9  -6 619.487 425.488  47
   3   9  -5 2853.78 667.997  44
  -3  -9   5 3755.31 758.447  33
  -3  -9   5 3787.70 1012.76  55
  -3  -9   5 3272.77 937.774  53
   3   9  -5 4076.47 994.503  47
  -3  -9   4 2533.32 743.117  33
  -3  -9   4 1556.66 884.852  55
  -3  -9   4 2519.33 1078.45  53
   3   9  -4 1889.37 655.487  47
   3   9  -3 3293.22 753.027  47
  -3  -9   3 3574.51 828.444  33
  -3  -9   3 4611.63 1145.43  55
  -3  -9   3 5227.96 1085.86  53
  -3  -9   2-264.730 468.771  33
  -3  -9   2 1144.26 710.376  55
  -3  -9   2-30.2631 468.730  53
   3   9  -2 341.386 661.878  47
  -3  -9   1 861.024 535.309  33
  -3  -9   1 1040.20 770.257  55
  -3  -9   1 1178.88 699.114  53
   3   9  -1 454.229 566.167  47
  -3  -9   0 2075.20 644.419  33
  -3  -9   0 2795.75 882.995  53
   3   9   0 1412.38 668.383  47
   3   9   1 1053.74 409.714  43
  -3  -9  -1 953.820 532.838  33
  -3  -9  -1 384.897 607.915  53
   3   9   1 386.709 676.470  47
   3   9   2 22820.6 1968.06  43
  -3  -9  -2 22470.8 1838.00  33
  -3  -9  -2 22635.4 2222.82  53
   3   9   2 22185.7 2038.00  47
   3   9   3 5727.31 1070.63  43
   3   9   3 6417.83 972.390  39
  -3  -9  -3 5237.52 985.593  33
  -3  -9  -3 6080.19 1205.38  53
   3   9   3 5966.96 1274.62  47
   3   9   4 332.603 550.046  43
   3   9   4 811.425 513.628  39
  -3  -9  -4-383.022 519.676  33
  -3  -9  -4-667.117 612.824  53
   3   9   4-89.8751 583.870  47
   3   9   5 105.577 530.883  43
  -3  -9  -5 149.552 354.205  33
   3   9   5-377.783 698.139  47
  -3  -9  -6 2697.51 608.401  33
   3   9   6 2233.52 544.749  47
   3   9   7 1875.83 781.206  43
  -3  -9  -7 1407.73 522.307  33
  -3  -9  -7 1056.82 660.431  32
   3   9   7 959.521 424.557  47
   3   9   8-11.9120 623.619  43
  -3  -9  -8-249.704 444.624  33
  -3  -9  -8 798.895 552.253  32
   3   9   9 11849.7 1409.62  43
  -3  -9  -9 12015.8 1486.56  32
   3   9  10 1971.14 667.728  43
  -3  -9 -10 431.488 414.355  32
   3   9  11 2050.12 485.231  43
  -3  -9 -11 2013.27 628.554  32
  -3  -9 -11 2323.28 765.981  48
   3   9  12 3320.35 612.406  43
   3   9  12 3521.18 727.992  39
  -3  -9 -12 3287.70 759.580  48
   3   9  13 759.298 351.454  43
   3   9  13 1248.00 367.052  39
  -3  -9 -13 1697.62 633.423  48
   3   9  14-217.577 283.519  43
   3   9  14-84.0436 272.098  39
   3   9  14 562.102 269.681  21
  -3 -10   9 547.792 323.100  53
  -3 -10   8 6272.76 728.201  33
  -3 -10   8 5768.42 815.149  53
   3  10  -8 4937.32 590.390  47
  -3 -10   7 502.583 296.564  33
  -3 -10   7 621.946 411.401  53
   3  10  -7 176.378 352.826  47
  -3 -10   6 661.902 361.271  33
  -3 -10   6-129.456 407.116  53
   3  10  -6-375.910 387.512  47
  -3 -10   5 1018.05 366.678  33
  -3 -10   5 998.958 603.861  55
  -3 -10   5 347.042 322.415  53
   3  10  -5-84.4988 469.483  47
  -3 -10   4 4006.55 766.940  33
  -3 -10   4 3998.54 1019.97  55
  -3 -10   4 4043.57 777.688  53
   3  10  -4 4607.21 807.688  47
  -3 -10   3-352.767 411.313  33
  -3 -10   3 698.191 478.388  53
   3  10  -3 1185.39 492.175  47
  -3 -10   2 183.275 288.427  33
  -3 -10   2 387.686 666.612  53
   3  10  -2-192.226 459.458  47
  -3 -10   1 10287.5 1249.54  33
  -3 -10   1 9694.23 1429.89  53
   3  10  -1 10454.1 1250.17  47
  -3 -10   0 804.866 498.611  33
  -3 -10   0 1720.32 738.099  53
   3  10   0 1385.25 446.428  47
  -3 -10  -1 4175.30 808.619  33
  -3 -10  -1 4164.82 1042.46  53
   3  10   1 3818.43 944.447  47
  -3 -10  -2 1670.46 692.289  53
  -3 -10  -2 1371.19 443.149  33
   3  10   2 3142.54 849.423  47
   3  10   3 5549.09 895.854  43
  -3 -10  -3 3477.88 640.223  33
  -3 -10  -3 4514.79 964.733  53
   3  10   3 5239.93 1062.73  47
   3  10   4-334.690 491.374  43
   3  10   4 129.818 489.850  47
   3  10   5 8743.65 1166.96  43
   3  10   5 8824.47 1048.43  39
   3  10   5 6726.34 1046.63  47
   3  10   6 2760.70 728.693  43
   3  10   6 2787.61 553.838  39
  -3 -10  -6 2406.89 756.518  32
   3  10   6 3285.48 795.584  47
   3  10   7 684.319 481.349  43
   3  10   7-187.015 415.635  39
  -3 -10  -7 212.658 427.336  32
   3  10   7 1058.91 452.326  47
   3  10   8 4472.13 843.366  43
   3  10   8 3808.25 727.357  39
  -3 -10  -8 3375.87 833.262  32
   3  10   9 5665.90 907.076  43
   3  10   9 5587.81 829.798  39
  -3 -10  -9 3963.59 910.741  32
   3  10  10 766.799 302.699  43
   3  10  10 2010.64 525.268  39
   3  10  10 1671.18 444.479  21
  -3 -10 -10 1511.29 555.329  32
  -3 -10 -10 2282.24 738.228  48
   3  10  11-569.892 452.455  43
   3  10  11 64.8581 242.495  39
   3  10  11 219.278 236.215  21
   3  10  12 11448.8 941.447  43
   3  10  12 10918.8 973.904  39
  -3 -10 -12 11975.6 1177.73  48
  -3 -11   5 2687.01 548.791  53
   3  11  -5 3098.92 473.515  47
  -3 -11   4 2265.69 539.567  53
   3  11  -4 1995.81 449.575  47
  -3 -11   3 1995.24 626.855  53
   3  11  -3 1990.98 525.891  47
  -3 -11   2 2589.29 713.159  53
   3  11  -2 1423.23 403.520  47
  -3 -11   1 4616.47 884.160  53
   3  11  -1 4779.45 722.456  47
  -3 -11   0 410.833 421.642  53
   3  11   0-87.6544 303.247  47
   3  11   1 531.709 460.486  47
   3  11   2 9947.03 1062.05  47
   3  11   3 42.9486 711.432  47
  -3 -11  -3 802.581 597.524  32
  -3 -11  -4 1200.48 529.403  32
   3  11   4 824.051 426.670  47
  -3 -11  -5 996.884 450.179  32
   3  11   5 1786.39 581.706  47
  -3 -11  -6 4304.12 786.781  32
   3  11   6 6506.93 845.170  47
  -3 -11  -7 731.609 388.997  32
   3  11   7 1023.35 515.491  47
  -3 -11  -8 2783.77 556.952  32
  -3 -11  -8 3995.93 750.864  48
  -3 -11  -9 20160.3 1242.40  32
  -3 -11  -9 18832.3 1352.90  48
  -4   7   6 27.5824 279.262  30
  -4   7   5 7671.74 661.231  42
  -4   7   5 10376.0 812.920  30
  -4   7   4 2401.64 446.522  42
  -4   7   4 3113.44 460.532  30
  -4   7   3 1505.06 354.026  42
   4  -7  -3 2146.78 476.967  36
  -4   7   3 2008.67 419.710  30
  -4   7   2 5526.26 675.099  42
   4  -7  -2 8146.32 774.978  36
  -4   7   2 7296.20 714.753  30
  -4   7   1 1250.58 475.943  42
   4  -7  -1 1998.48 550.748  36
  -4   7   1 1347.62 391.793  30
  -4   7   0 4817.48 705.646  56
   4  -7   0 6177.14 677.087  36
  -4   7   0 5577.47 616.232  25
  -4   7  -1 587.039 532.797  56
  -4   7  -1 166.134 226.675  25
  -4   7  -2 5494.57 693.736  56
  -4   7  -3-252.286 312.197  56
  -4   7  -4 1846.88 396.945  56
  -4   6   9 1051.90 355.702  42
  -4   6   8 14824.3 998.092  42
  -4   6   7 1816.31 407.353  42
   4  -6  -7 2772.57 655.579  41
   4  -6  -7 2519.56 456.525  22
  -4   6   6 8122.24 809.765  42
   4  -6  -6 9166.02 822.542  22
  -4   6   5 1945.62 502.583  42
   4  -6  -5 2129.75 497.748  36
  -4   6   5 1511.10 322.030  26
   4  -6  -5 2762.90 478.398  22
  -4   6   4 1504.09 440.458  42
  -4   6   4 1999.69 551.495  56
   4  -6  -4 2424.21 538.573  36
  -4   6   4 2343.93 524.371  30
  -4   6   4 1513.44 573.164  26
   4  -6  -4 2322.50 444.075  22
  -4   6   3 13561.7 1192.60  42
   4  -6  -3 19624.7 1383.73  36
  -4   6   3 16937.3 1314.31  30
  -4   6   3 16485.5 1332.70  56
  -4   6   3 15256.8 1306.67  26
   4  -6  -3 17452.5 1178.17  22
  -4   6   2 1258.92 461.202  42
  -4   6   2 1480.83 480.769  30
  -4   6   2 1548.84 681.027  56
  -4   6   2 2095.88 689.448  26
   4  -6  -2 2296.89 817.928  22
  -4   6   1 110.355 310.833  42
  -4   6   1 477.783 380.741  30
  -4   6   1-130.673 426.969  56
   4  -6  -1 428.748 388.279  22
  -4   6   0 887.968 418.260  42
  -4   6   0 1770.21 476.369  30
  -4   6   0 1353.94 690.081  56
  -4   6  -1 15642.7 1181.53  42
  -4   6  -1 14224.8 1118.25  30
  -4   6  -1 12967.3 1304.17  56
   4  -6   1 16165.5 1052.25  22
  -4   6  -2 1706.90 458.163  42
  -4   6  -2 818.949 507.606  56
   4  -6   2 2513.15 559.204  22
  -4   6  -3 113.994 359.653  56
   4  -6   3-570.305 387.505  22
  -4   6  -4 2555.06 626.670  56
  -4   6  -5 15518.7 1282.96  56
  -4   6  -6 148.220 329.579  56
  -4   6  -7 13524.8 1037.83  56
  -4   6  -8 7452.12 705.531  56
  -4   5  11 330.763 340.748  42
   4  -5  -9 17670.0 1100.71  22
   4  -5  -8-148.227 379.934  41
  -4   5   8 13.2906 301.843  26
   4  -5  -8 46.5162 275.186  22
  -4   5   7 566.464 321.052  26
   4  -5  -7 454.422 270.502  22
  -4   5   6 7941.32 954.430  26
   4  -5  -6 7479.82 888.058  22
  -4   5   5 3018.46 775.133  56
  -4   5   5 2615.50 605.153  26
   4  -5  -5 2977.67 599.107  22
  -4   5   4 12379.2 1309.21  56
  -4   5   4 11094.8 1190.91  26
   4  -5  -4 11241.8 1039.29  22
  -4   5   3 992.937 520.527  56
  -4   5   3 1068.79 574.569  26
   4  -5  -3 858.383 304.645  22
  -4   5   2 3451.44 817.373  56
  -4   5   2 4286.89 876.304  26
   4  -5  -2 4745.86 790.979  22
  -4   5   1 614.108 861.948  56
  -4   5   1 41.2330 328.286  26
   4  -5  -1 1365.97 844.043  22
  -4   5   0 8672.05 1087.59  42
  -4   5   0 8276.81 952.660  30
  -4   5   0 7094.75 1176.71  56
  -4   5   0 6849.91 1042.73  26
   4  -5   0 9738.13 1107.00  22
  -4   5  -1 6774.77 1192.77  56
  -4   5  -1 7609.43 1022.37  42
  -4   5  -1 6290.59 978.231  26
   4  -5   1 6859.29 995.640  22
  -4   5  -2 510.466 319.946  42
  -4   5  -2 452.269 376.427  56
  -4   5  -2-287.029 556.011  27
  -4   5  -2 926.023 486.282  26
   4  -5   2 352.049 325.488  22
  -4   5  -3-234.139 330.091  42
  -4   5  -3-113.996 495.014  56
  -4   5  -3 20.3837 418.147  27
   4  -5   3-27.0771 284.427  22
  -4   5  -4 946.237 445.396  42
  -4   5  -4 300.282 418.978  56
  -4   5  -4 309.350 335.545  27
   4  -5   4 46.4812 324.142  22
  -4   5  -5 23361.8 1777.16  27
  -4   5  -5 23289.6 1825.38  56
   4  -5   5 27661.1 1405.76  22
  -4   5  -6-245.953 368.742  56
  -4   5  -6-170.718 417.420  27
   4  -5   6-711.391 558.345  46
   4  -5   6-260.849 380.158  22
  -4   5  -7 30214.6 1869.65  56
  -4   5  -7 30719.8 1829.97  27
   4  -5   7 33801.9 1817.15  46
  -4   5  -8 59.0112 360.740  56
  -4   5  -8 390.234 314.110  27
   4  -5   8-160.124 339.546  46
  -4   5  -9 225.152 267.050  56
  -4   5  -9-134.006 220.020  27
   4  -5   9-300.732 256.888  46
  -4   5 -10 740.823 353.065  56
  -4   5 -10 1003.27 312.797  27
   4  -5  10 748.438 324.150  46
  -4   5 -11-190.282 188.076  27
   4  -4 -12 2029.53 392.228  51
   4  -4 -11 279.356 298.382  51
   4  -4 -10 5679.23 740.922  28
   4  -4 -10 5823.14 661.323  51
   4  -4  -9 64.5963 283.149  28
   4  -4  -9 80.3738 257.372  22
   4  -4  -8 10363.9 1074.27  28
   4  -4  -8 12147.4 980.380  22
   4  -4  -7 1840.73 544.190  28
  -4   4   7 1743.50 584.274  56
   4  -4  -7 2176.67 445.197  22
   4  -4  -6 31961.2 1979.02  28
   4  -4  -6 34848.4 1916.82  22
  -4   4   5 2712.49 651.346  56
   4  -4  -5 2786.66 511.320  28
   4  -4  -5 3479.91 668.447  22
  -4   4   4 6571.69 1135.57  56
   4  -4  -4 8250.64 1023.80  22
  -4   4   3 15028.7 1749.35  56
   4  -4  -3 20945.2 1577.27  22
  -4   4   2 2797.06 821.401  56
  -4   4   2 1125.22 625.373  26
   4  -4  -2 3883.72 796.054  22
  -4   4   1 304.529 702.115  56
  -4   4   1 540.018 431.455  27
  -4   4   1 493.952 408.183  26
   4  -4  -1 1909.29 685.825  22
  -4   4   0 5072.60 1220.51  56
  -4   4   0 4925.18 1087.14  27
  -4   4   0 4480.74 1114.61  26
   4  -4   0 6633.25 982.272  22
  -4   4  -1 148.146 489.068  56
  -4   4  -1-22.5452 380.584  26
  -4   4  -1-19.5951 454.056  27
   4  -4   1 1132.79 732.687  22
  -4   4  -2 4561.94 1031.45  56
  -4   4  -2 3162.73 825.944  27
  -4   4  -2 3826.73 908.324  26
   4  -4   2 4013.84 759.402  22
  -4   4  -3 85.4056 496.865  42
  -4   4  -3 977.665 774.443  56
  -4   4  -3 378.650 365.124  26
  -4   4  -3 1035.78 616.446  27
   4  -4   3 902.499 437.912  22
   4  -4   4-798.664 486.554  22
  -4   4  -4-565.266 495.840  42
  -4   4  -4-187.139 481.250  56
  -4   4  -4-107.701 347.971  27
  -4   4  -4 262.368 450.349  26
   4  -4   5 52.1197 398.472  22
  -4   4  -5 515.509 389.920  56
  -4   4  -5 265.281 481.234  27
  -4   4  -6 13452.3 1517.25  56
   4  -4   6 12649.1 1410.15  23
   4  -4   6 12081.2 1218.63  46
   4  -4   6 14030.4 1070.25  22
   4  -4   7 1385.63 481.235  22
  -4   4  -7 1584.37 545.083  56
  -4   4  -7 242.432 391.379  27
   4  -4   7 1312.94 578.524  23
   4  -4   8 2224.03 428.477  22
  -4   4  -8 2227.28 737.050  27
  -4   4  -8 2683.32 566.834  56
   4  -4   8 2819.93 743.866  23
   4  -4   8 3026.00 683.331  46
  -4   4  -9 153.927 384.839  56
  -4   4  -9 206.341 287.758  27
   4  -4   9 22.5336 323.225  23
  -4   4 -10-166.148 356.896  56
  -4   4 -10 397.412 393.722  27
   4  -4  10 109.386 253.267  23
   4  -4  10-162.988 324.571  46
  -4   4 -11-29.6065 247.793  56
  -4   4 -11 278.131 269.498  27
   4  -4  11 498.046 307.048  23
   4  -4  11 316.831 316.466  46
  -4   4 -12 1301.23 313.967  27
   4  -4  12 1302.88 381.898  46
  -4   4 -13 945.324 285.366  27
   4  -4  13 1537.44 385.761  46
   4  -3 -14 292.304 173.109  51
   4  -3 -13 775.166 219.063  51
   4  -3 -12 519.997 241.441  28
   4  -3 -12 951.940 262.661  51
   4  -3 -11 426.338 354.469  28
   4  -3 -11-326.924 341.179  51
   4  -3 -10 200.526 353.770  28
   4  -3 -10 701.815 345.244  51
   4  -3 -10 16.0504 330.016  22
   4  -3  -9 4987.64 777.995  28
   4  -3  -9 6067.59 883.194  51
   4  -3  -9 6161.99 856.647  22
   4  -3  -8 834.848 592.427  28
   4  -3  -8 216.435 413.367  51
   4  -3  -8 595.840 413.813  22
   4  -3  -7 1353.72 583.510  28
   4  -3  -7 2286.61 520.246  22
   4  -3  -6 43540.3 2615.99  28
   4  -3  -6 64580.4 2555.67  22
   4  -3  -5 376.049 414.242  28
   4  -3  -5 401.784 300.575  22
   4  -3  -4 403.028 499.384  28
  -4   3   4-204.558 618.968  27
   4  -3  -4 48.3501 497.754  22
  -4   3   3-76.9523 661.577  27
   4  -3  -3 591.466 544.887  22
  -4   3   2 2829.27 913.603  56
  -4   3   2 3443.87 968.197  27
   4  -3  -2 5245.03 866.167  22
   4  -3  -1 2398.76 902.577  21
  -4   3   1 2145.14 895.487  56
  -4   3   1 2886.83 952.359  27
   4  -3  -1 3725.14 876.432  22
   4  -3   0 12331.4 1756.11  21
  -4   3   0 11630.8 1518.19  56
  -4   3   0 9067.37 1500.01  27
  -4   3   0 11851.0 1483.15  26
   4  -3   1 31708.1 2688.69  21
  -4   3  -1 29740.0 2506.94  56
  -4   3  -1 32603.7 2371.44  26
   4  -3   1 35501.4 2022.89  22
  -4   3  -2 9158.88 1506.04  56
  -4   3  -2 9622.96 1293.96  26
  -4   3  -2 7557.08 1278.46  27
   4  -3   2 7955.43 1058.52  22
   4  -3   3 3956.62 826.856  22
   4  -3   3 4319.01 1096.16  37
  -4   3  -3 4219.11 986.393  56
  -4   3  -3 2838.91 1020.06  27
  -4   3  -3 4958.38 875.714  26
   4  -3   3 3980.13 922.246  23
   4  -3   4 249.911 450.711  22
   4  -3   4-47.9252 401.251  37
  -4   3  -4-320.013 466.970  56
  -4   3  -4 47.9993 301.598  26
  -4   3  -4 56.2758 402.690  27
   4  -3   4-35.9331 366.809  23
   4  -3   5 2208.00 617.120  22
   4  -3   5 1998.42 810.427  37
  -4   3  -5 3888.02 926.349  56
  -4   3  -5 1756.81 783.874  27
  -4   3  -5 4072.47 788.270  26
   4  -3   5 2057.27 755.248  23
   4  -3   6-3.66112 443.329  22
   4  -3   6 765.463 615.441  37
  -4   3  -6 648.779 562.663  56
  -4   3  -6 388.135 491.061  27
   4  -3   6 513.926 453.353  23
   4  -3   7 3019.86 587.192  22
   4  -3   7 2449.03 728.534  37
  -4   3  -7 2235.01 633.607  56
  -4   3  -7 1411.06 798.157  27
   4  -3   7 2261.54 670.249  23
   4  -3   7 2108.76 659.757  46
   4  -3   8-190.053 476.066  22
   4  -3   8 169.085 401.193  37
  -4   3  -8-515.731 451.092  27
  -4   3  -8 2.93343 424.652  56
   4  -3   8-367.126 490.399  23
   4  -3   9-337.693 470.008  22
   4  -3   9 168.549 304.095  37
  -4   3  -9-109.585 399.379  56
  -4   3  -9 130.982 314.650  27
   4  -3   9 323.030 350.833  23
   4  -3  10 5977.97 716.993  22
   4  -3  10 5362.59 950.891  37
  -4   3 -10 5990.10 825.019  56
  -4   3 -10 5809.82 917.070  27
   4  -3  10 6100.63 922.262  23
   4  -3  11-245.525 347.151  22
   4  -3  11 506.269 457.361  37
  -4   3 -11 429.964 378.350  27
   4  -3  11 292.122 389.566  23
   4  -3  12 1713.35 481.365  37
  -4   3 -12 1759.94 448.948  27
   4  -3  12 2460.99 634.881  23
   4  -3  12 1837.33 537.881  46
   4  -3  13 7776.71 978.247  37
  -4   3 -13 8561.39 857.273  27
   4  -3  13 9121.30 976.085  23
  -4   3 -14 932.837 311.561  27
   4  -3  14 1349.82 357.758  23
   4  -3  14 1313.81 366.767  46
   4  -2 -15 628.823 242.322  51
   4  -2 -14 2653.90 454.595  51
   4  -2 -13 229.525 224.586  51
   4  -2 -13 290.193 331.472  28
   4  -2 -12 200.964 325.749  28
   4  -2 -12 170.481 222.882  51
   4  -2 -11 249.452 387.161  28
   4  -2 -11-130.513 346.067  51
   4  -2 -10 862.508 350.506  28
   4  -2 -10 1875.86 587.375  51
   4  -2  -9 9374.35 1231.87  28
   4  -2  -8 636.259 467.162  28
   4  -2  -8 926.131 480.901  51
   4  -2  -8 790.143 359.262  22
   4  -2  -7 4151.76 875.703  28
   4  -2  -7 5749.44 883.284  51
   4  -2  -7 6434.28 769.049  22
   4  -2  -6 1938.98 653.822  28
   4  -2  -6 2023.24 581.213  51
   4  -2  -6 3399.40 691.011  22
   4  -2  -5 454.745 339.346  22
   4  -2  -4 360.480 404.084  21
  -4   2   4 381.810 657.929  17
  -4   2   4 461.136 384.485  27
   4  -2  -4 542.791 357.066  22
   4  -2  -3 3385.22 965.059  21
  -4   2   3 3793.90 1295.70  17
  -4   2   3 2941.00 930.356  27
   4  -2  -3 3539.44 518.541  22
   4  -2  -2 10369.9 1548.51  21
  -4   2   2 13956.4 2399.98  17
  -4   2   2 8872.39 1511.44  27
   4  -2  -2 12947.5 1212.23  22
   4  -2  -2 11534.9 2829.42   3
   4  -2  -1 38186.9 2960.77  21
  -4   2   1 41052.1 3974.29  17
   4  -2  -1 38184.9 2115.01  22
   4  -2   0 22845.5 2311.59  21
  -4   2   0 22755.3 2946.47  17
   4  -2   0 19267.6 1683.66  22
   4  -2   1 9275.03 1501.49  21
  -4   2  -1 10760.7 1223.87  20
   4  -2   1 8992.27 1368.08  37
  -4   2  -1 8861.07 1748.37  17
  -4   2  -1 5864.85 1428.67  27
   4  -2   1 6872.31 1088.15  22
   4  -2   2 897.742 612.382  22
   4  -2   2 582.568 481.461  21
   4  -2   2 574.474 526.018  37
  -4   2  -2 1563.93 1220.03  17
  -4   2  -2 1265.88 566.534  56
  -4   2  -2 418.739 599.221  27
  -4   2  -2 698.895 432.218  26
   4  -2   2 627.106 520.537  23
   4  -2   3 3595.73 909.501  21
   4  -2   3 3874.07 874.676  37
  -4   2  -3 3040.34 1017.63  17
  -4   2  -3 3961.07 881.550  56
  -4   2  -3 1716.05 880.817  27
   4  -2   3 3791.56 892.061  52
  -4   2  -3 4313.54 821.690  26
   4  -2   3 3230.61 853.824  23
   4  -2   4 25341.2 2211.15  37
   4  -2   4 24975.9 2193.73  52
  -4   2  -4 20375.7 2194.21  27
  -4   2  -4 28795.5 2004.48  26
   4  -2   4 23652.1 2065.13  23
   4  -2   5 27809.9 2389.33  37
  -4   2  -5 30683.2 2345.51  56
  -4   2  -5 21458.9 2275.34  27
   4  -2   5 28416.8 2385.66  52
  -4   2  -5 31222.7 2086.72  26
   4  -2   5 28701.2 2243.87  23
   4  -2   6 1867.73 708.954  52
   4  -2   6 2470.53 756.011  37
  -4   2  -6 681.647 500.801  57
  -4   2  -6 2824.27 855.387  56
  -4   2  -6 1296.51 652.684  27
  -4   2  -6 1753.70 491.667  26
   4  -2   6 2239.29 759.716  23
   4  -2   7 2670.25 917.277  37
  -4   2  -7 2782.85 934.854  27
  -4   2  -7 1456.47 632.240  57
  -4   2  -7 3818.24 836.901  56
   4  -2   7 3074.99 673.215  52
   4  -2   7 2075.69 642.322  23
   4  -2   8 3455.77 843.737  37
  -4   2  -8 1069.10 824.708  57
  -4   2  -8 2136.53 716.099  56
  -4   2  -8 2551.57 772.315  27
   4  -2   8 2697.37 792.749  52
   4  -2   8 2380.32 586.106  23
   4  -2   9 2079.45 685.181  37
  -4   2  -9 854.175 706.155  57
  -4   2  -9 1906.00 478.774  56
  -4   2  -9 2260.94 598.570  27
   4  -2   9 2021.09 738.721  52
   4  -2   9 1605.34 614.424  23
   4  -2  10-83.1760 526.344  37
  -4   2 -10 131.434 585.335  57
  -4   2 -10 50.5700 329.065  27
   4  -2  10-151.486 369.889  52
   4  -2  10 10.7063 393.476  23
   4  -2  11 1214.18 538.282  37
  -4   2 -11 461.799 659.325  57
  -4   2 -11 1855.72 598.464  27
   4  -2  11 1009.97 540.102  52
   4  -2  11 1506.02 527.733  23
   4  -2  12 9194.47 1262.31  37
  -4   2 -12 8940.59 1073.01  27
   4  -2  12 8867.65 1172.52  23
   4  -2  13 5365.71 847.486  37
  -4   2 -13 6283.12 775.083  27
   4  -2  13 6177.17 910.255  23
   4  -2  14 1863.17 541.772  37
  -4   2 -14 2328.69 465.189  27
   4  -2  14 2409.04 534.137  23
   4  -2  15 1728.95 397.002  37
  -4   2 -15 1424.20 319.884  27
   4  -2  15 1843.25 471.461  23
   4  -1 -16 3131.76 408.989  51
   4  -1 -15 976.755 299.823  51
   4  -1 -14 726.533 343.292  28
   4  -1 -14 993.966 375.304  51
   4  -1 -13 8763.47 940.744  28
   4  -1 -13 7533.39 867.460  51
   4  -1 -12 257.007 290.895  28
   4  -1 -12 1137.28 429.295  51
   4  -1 -11 303.422 449.115  28
   4  -1 -11 454.170 372.014  51
   4  -1 -10 5347.54 991.328  28
   4  -1 -10 7022.59 944.475  51
   4  -1 -10 5399.41 1043.24  44
   4  -1  -9 1810.35 590.622  28
   4  -1  -9 1221.96 478.230  51
   4  -1  -9 769.930 344.014  44
   4  -1  -8 448.141 512.614  28
   4  -1  -8 877.853 467.982  51
   4  -1  -8 503.619 552.883  44
   4  -1  -7 1348.91 655.734  51
   4  -1  -6 7754.52 1336.94  21
  -4   1   6 6004.11 957.681  17
   4  -1  -6 8350.63 1126.67  51
   4  -1  -6 9605.27 972.996  22
   4  -1  -5 2254.29 1698.57   3
   4  -1  -5 1492.09 695.444  21
  -4   1   5 999.702 387.350  17
  -4   1   5 586.604 1013.12  15
   4  -1  -5 2362.45 707.826  51
   4  -1  -5 1871.05 626.809  22
   4  -1  -4 929.649 1061.14   3
   4  -1  -4 142.514 471.232  21
  -4   1   4 699.189 639.871  17
  -4   1   4-863.346 1213.31  15
   4  -1  -4-59.1164 473.670  51
   4  -1  -4 124.423 347.972  22
   4  -1  -3 9762.68 1514.88  21
  -4   1   3 4925.63 1093.01  20
  -4   1   3 10992.1 2691.10   9
  -4   1   3 12082.9 2215.14  17
  -4   1   3 11690.8 2567.06  15
   4  -1  -3 10331.1 1083.07  22
   4  -1  -3 10579.8 2683.88   3
   4  -1  -2 7243.46 1299.87  21
  -4   1   2 6218.47 920.763  20
  -4   1   2 7369.47 1616.31  17
  -4   1   2 7408.92 2143.51   9
   4  -1  -2 7110.17 917.373  22
   4  -1  -2 5804.51 2312.10   3
   4  -1  -1 6887.30 1222.72  21
  -4   1   1 5212.46 856.821  20
  -4   1   1 6303.51 1522.11  17
  -4   1   1 6630.22 1993.98   9
  -4   1   1 3354.97 1124.26  27
  -4   1   1 4022.97 1234.51  50
   4  -1   0 23700.2 2329.32  21
  -4   1   0 21120.5 1733.10  20
  -4   1   0 26598.8 3214.19  17
  -4   1   0 26425.2 3838.36   9
  -4   1   0 21676.6 2332.89  50
   4  -1   0 21239.4 1569.15  22
   4  -1   1 8952.33 1362.57  21
   4  -1   1 9471.91 1231.23  37
  -4   1  -1 6990.47 1057.79  20
  -4   1  -1 8396.01 1856.57  17
   4  -1   1 11160.7 1284.28  52
  -4   1  -1 5261.45 1374.84  50
   4  -1   2 68971.4 3779.98  21
  -4   1  -2 64011.7 2946.27  20
   4  -1   2 71204.2 3398.77  37
  -4   1  -2 73170.8 5402.68  17
  -4   1  -2 68200.1 3480.57  27
   4  -1   2 72353.2 3458.20  52
  -4   1  -2 59681.2 4026.18  50
   4  -1   3 26153.8 2311.34  21
  -4   1  -3 19615.4 1761.25  20
   4  -1   3 29062.9 2259.95  37
  -4   1  -3 27110.6 3256.08  17
  -4   1  -3 25898.5 2235.81  27
   4  -1   3 28810.7 2270.56  52
   4  -1   4 390.816 482.326  21
   4  -1   4 224.504 427.798  37
  -4   1  -4 494.523 473.357  56
  -4   1  -4 13.0391 385.880  17
  -4   1  -4 68.1728 347.795  27
   4  -1   4 1273.50 597.474  52
   4  -1   4-38.8294 416.575  24
   4  -1   4 667.201 571.405  23
   4  -1   5 7244.54 1176.66  21
   4  -1   5 7825.26 1367.29  37
  -4   1  -5 6912.06 1501.60  17
  -4   1  -5 4187.98 1114.16  57
  -4   1  -5 8367.67 1323.69  56
  -4   1  -5 7594.81 1324.68  27
   4  -1   5 7150.91 1260.77  52
   4  -1   5 5655.66 1103.81  24
   4  -1   5 6848.74 1103.38  23
   4  -1   6 3002.88 797.021  37
  -4   1  -6 2043.04 478.834  17
  -4   1  -6 2022.46 866.358  57
  -4   1  -6 2218.43 702.869  56
  -4   1  -6 2412.68 698.057  27
   4  -1   6 2524.88 848.125  52
   4  -1   6 3216.88 908.607  24
   4  -1   6 2755.68 724.492  23
  -4   1  -7 2640.38 668.743  56
  -4   1  -7 3255.32 829.110  27
   4  -1   7 3378.41 953.501  52
  -4   1  -7 1090.11 707.729  57
   4  -1   7 2517.98 863.051  24
   4  -1   7 2690.47 777.381  23
  -4   1  -8 2105.04 757.905  57
  -4   1  -8 5154.78 1005.22  27
   4  -1   8 4600.02 1043.76  52
   4  -1   8 4500.04 996.567  24
  -4   1  -9 1757.14 897.553  57
  -4   1  -9 5261.91 1057.93  27
   4  -1   9 4374.20 1096.13  52
   4  -1   9 4197.53 1019.95  24
  -4   1 -10 2789.42 752.713  57
   4  -1  10 3432.08 885.847  52
  -4   1 -10 3183.07 853.970  27
   4  -1  10 2494.63 794.762  24
   4  -1  11 3311.66 820.925  37
  -4   1 -11 1936.81 759.611  57
  -4   1 -11 4229.52 929.957  27
   4  -1  11 3446.49 891.565  52
   4  -1  11 3022.21 755.207  24
   4  -1  12 7129.93 1119.44  37
  -4   1 -12 6276.14 1157.93  57
  -4   1 -12 8062.02 1042.31  27
   4  -1  12 6914.79 1054.77  52
   4  -1  12 6481.87 1104.92  24
   4  -1  13 5782.02 979.210  37
  -4   1 -13 5164.86 916.278  57
  -4   1 -13 4328.07 659.039  27
   4  -1  13 5414.81 911.105  52
   4  -1  13 4224.36 827.869  24
   4  -1  14 2233.10 571.530  37
  -4   1 -14 2448.29 509.465  27
  -4   1 -14 1495.38 467.331  54
   4  -1  14 2909.57 608.640  52
   4  -1  14 2861.22 647.439  23
   4  -1  15-244.857 354.748  37
  -4   1 -15 509.147 243.548  27
  -4   1 -15-213.118 284.031  54
   4  -1  15 288.155 230.324  23
   4  -1  16 273.821 196.196  37
  -4   1 -16 96.9193 258.545  54
   4  -1  16 280.932 257.893  23
   4   0 -16 10494.3 784.076  51
   4   0 -15 7287.27 733.755  51
   4   0 -14 5933.41 746.097  28
   4   0 -14 4059.97 619.508  51
   4   0 -14 4928.67 742.687  44
   4   0 -13 1263.58 421.110  28
   4   0 -13 1308.60 395.819  51
   4   0 -13 2313.00 613.524  44
   4   0 -12 13000.2 1229.65  28
   4   0 -12 10525.1 1105.30  51
   4   0 -12 12630.1 1344.80  44
   4   0 -11 9265.82 1147.09  28
   4   0 -11 9402.04 1069.09  51
   4   0 -11 10257.4 1275.37  44
   4   0 -10 8053.54 1129.17  28
   4   0 -10 8538.00 1229.27  44
   4   0  -9 7446.76 1124.64  28
   4   0  -9 8864.21 1112.05  51
   4   0  -9 8500.49 1210.63  44
   4   0  -8 7628.08 1034.51  51
   4   0  -8 8211.47 1090.44  44
   4   0  -7 43551.8 2978.07  21
   4   0  -6 7045.76 2440.32   3
   4   0  -6 6103.54 1219.38  21
  -4   0   6 6056.09 1653.03  17
   4   0  -6 7491.12 1048.89  51
  -4   0   6 7882.78 2562.99  15
   4   0  -6 8206.54 1186.17  44
   4   0  -5 26915.9 2370.19  21
  -4   0   5 25721.3 3780.61   9
  -4   0   5 30304.9 4356.79  15
   4   0  -5 24816.1 4001.86   3
   4   0  -4 17123.8 1917.06  21
  -4   0   4 18944.1 3480.41  15
  -4   0   4 17063.2 3036.87   9
   4   0  -4 16171.8 3287.20   3
   4   0  -3 470.637 1105.56   3
   4   0  -3 145.404 509.273  21
  -4   0   3-333.778 1072.54  15
  -4   0   3 264.483 535.392   9
   4   0  -3 39.9340 271.162  51
  -4   0   3-98.8591 559.126  50
   4   0  -2 6529.78 742.646  22
   4   0  -2 8243.41 2055.21   3
   4   0  -2 6592.80 1265.95  21
  -4   0   2 6188.58 904.774  20
  -4   0   2 7244.95 2161.41   9
  -4   0   2 9590.46 2113.63  15
  -4   0   2 3763.09 955.011  50
   4   0  -1 30832.7 2461.98  21
  -4   0   1 28077.9 1905.97  20
  -4   0   1 22162.7 1773.25  31
  -4   0   1 32947.6 4191.87   9
  -4   0   1 33111.6 3974.64  15
  -4   0   1 27576.9 2577.61  50
   4   0  -1 24578.9 1585.05  22
   4   0   0 2157.67 609.880  21
  -4   0   0 1895.26 557.260  20
  -4   0   0 2041.72 684.194  31
  -4   0   0 1340.89 731.157   9
  -4   0   0 2090.21 1007.30  50
   4   0   1 23613.3 2183.06  21
  -4   0  -1 22304.3 1685.94  20
  -4   0  -1 18701.2 1662.81  31
  -4   0  -1 26652.4 3858.18   9
  -4   0  -1 23026.2 2052.99  27
   4   0   1 27475.2 2004.60  52
   4   0   2 12113.2 1627.55  21
  -4   0  -2 11147.2 1316.34  31
  -4   0  -2 13345.6 2795.30   9
  -4   0  -2 12751.9 1446.05  27
   4   0   2 13959.3 1410.56  52
  -4   0  -2 11165.1 1675.07  50
   4   0   2 11495.7 1486.14  24
   4   0   3 10125.1 1453.48  21
  -4   0  -3 9434.70 1246.27  20
   4   0   3 13085.5 1432.27  37
  -4   0  -3 9080.85 1291.93  57
  -4   0  -3 13378.7 1569.71  27
   4   0   3 14169.7 1563.23  52
  -4   0  -3 11237.7 1662.62  50
   4   0   3 11110.7 1444.32  24
   4   0   4 32.6019 330.498  21
   4   0   4 129.152 638.116  38
  -4   0  -4 216.949 386.147  20
  -4   0  -4-8.93008 506.989  57
  -4   0  -4-124.671 441.319  27
  -4   0  -4 17.9689 513.537  14
  -4   0  -4-104.823 653.161  50
   4   0   4 160.793 601.461  24
   4   0   5 57565.1 3460.02  21
   4   0   5 58026.8 3436.98  38
  -4   0  -5 69794.7 3027.15  20
  -4   0  -5 54568.3 3214.43  57
  -4   0  -5 62424.1 3562.63  27
   4   0   5 58966.5 3551.39  24
   4   0   6 12854.7 1621.59  21
   4   0   6 13434.2 1662.07  38
  -4   0  -6 6622.12 1616.41  57
  -4   0  -6 13645.9 1688.10  27
  -4   0  -6 13847.4 2807.55  14
   4   0   6 12864.8 1739.13  24
   4   0   7 2523.69 649.932  21
   4   0   7 3574.09 984.399  38
  -4   0  -7 3635.63 1045.44  57
  -4   0  -7 2747.75 864.321  27
  -4   0  -7 4498.19 1778.87  14
   4   0   7 2995.16 847.638  24
   4   0   7 2826.06 1324.46  13
   4   0   8 7778.65 1143.44  21
   4   0   8 7730.65 1323.78  38
  -4   0  -8 9103.38 1329.54  57
  -4   0  -8 7562.37 1437.82  27
   4   0   8 8495.79 1432.75  24
   4   0   9 14265.5 1822.81  38
  -4   0  -9 11103.0 1627.31  57
  -4   0  -9 13275.6 1711.45  27
   4   0   9 12677.2 1730.20  24
   4   0  10 386.053 355.197  38
  -4   0 -10-271.360 664.651  57
  -4   0 -10 571.595 507.923  27
   4   0  10 146.908 302.762  24
   4   0  11 1451.18 614.370  38
  -4   0 -11 1937.85 659.734  57
  -4   0 -11 1938.08 656.379  27
   4   0  11 1668.98 731.703  52
   4   0  11 2220.43 734.462  24
  -4   0 -12 3699.42 956.700  57
  -4   0 -12 7312.86 1088.47  27
   4   0  12 7099.83 1148.15  52
   4   0  12 7697.50 1266.01  24
  -4   0 -13 25.7057 330.134  57
  -4   0 -13 429.008 335.835  27
   4   0  13 208.796 315.214  52
   4   0  13 142.805 396.288  24
  -4   0 -14 1112.35 536.447  57
  -4   0 -14-178.536 382.044  27
   4   0  14 746.113 356.630  52
   4   0  14 488.188 323.138  24
   4   0  15 1279.93 463.933  37
  -4   0 -15 81.0700 297.891  27
  -4   0 -15 464.479 349.667  54
   4   0  15 1269.90 387.326  52
   4   0  15 520.428 252.939  24
   4   0  16 225.101 253.112  37
  -4   0 -16 193.497 298.832  54
   4   0  16 106.969 200.857  24
   4   0  16 266.399 215.432  23
   4   0  17 459.944 203.629  37
  -4   0 -17-120.632 211.877  54
   4   0  17 325.803 194.380  23
   4   1 -16 540.511 225.418  51
   4   1 -16 1027.08 326.644  44
   4   1 -15 7699.39 761.118  51
   4   1 -15 10346.6 1024.38  44
   4   1 -14 9914.20 913.509  28
   4   1 -14 7327.16 813.440  51
   4   1 -14 10842.7 1109.64  44
   4   1 -13 23397.1 1480.94  28
   4   1 -13 23762.9 1789.00  44
   4   1 -12 4757.61 802.366  28
   4   1 -12 3548.53 621.730  51
   4   1 -12 4748.13 854.449  44
   4   1 -11 3203.06 743.958  28
   4   1 -11 3740.44 730.370  51
   4   1 -11 4368.83 918.539  44
   4   1 -10 2839.05 598.065  28
   4   1 -10 3055.28 666.652  51
   4   1 -10 3824.89 867.539  44
   4   1  -9 1405.26 531.502  28
   4   1  -9 1508.94 614.061  51
   4   1  -9 1827.79 614.258  44
   4   1  -8 1046.31 505.938  51
   4   1  -8 759.760 324.127  44
   4   1  -7 113633. 4732.03  21
  -4  -1   7 126569. 9219.05  15
   4   1  -7 121463. 4335.33  44
   4   1  -6 2235.05 624.692  21
   4   1  -6 2556.97 1582.57   3
  -4  -1   6 2051.64 1211.56   9
  -4  -1   6 2564.99 1586.65  15
   4   1  -6 3719.36 722.033  51
   4   1  -6 4264.63 811.403  44
  -4  -1   5 26791.6 4013.80  15
   4   1  -5 26313.5 2299.13  21
  -4  -1   5 24396.5 3750.51   9
   4   1  -5 26451.4 4221.34   3
   4   1  -4 3745.27 2080.14   3
   4   1  -4 3037.67 979.450  21
   4   1  -4 3360.55 888.123   1
  -4  -1   4 3735.33 1499.70   9
  -4  -1   4 4119.59 1646.82  15
   4   1  -3 1926.33 1032.46   3
   4   1  -3 2321.59 1231.54   1
   4   1  -3 1953.17 612.513  21
  -4  -1   3 1792.50 596.623   9
  -4  -1   3 3016.64 1298.50  15
   4   1  -2 25.5851 523.697   3
   4   1  -2 43.7418 554.529  21
  -4  -1   2 334.591 1040.41   9
  -4  -1   2 583.312 982.044  15
  -4  -1   2 143.119 594.198  50
   4   1  -1-246.980 352.098  21
  -4  -1   1-126.710 518.429  31
  -4  -1   1 648.312 835.944   9
  -4  -1   1-23.7889 609.944  15
  -4  -1   1 707.610 551.646  50
   4   1   0 10.1080 478.121  21
  -4  -1   0-79.9661 466.112  31
  -4  -1   0-100.405 523.324  15
  -4  -1   0-506.567 710.574   9
  -4  -1   0-19.0586 484.169  50
  -4  -1  -1 2707.84 1161.18   9
   4   1   1 2472.65 843.496  21
   4   1   1 3185.83 767.327  39
  -4  -1  -1 2346.70 710.493  20
  -4  -1  -1 2581.61 555.830  31
  -4  -1  -1 1548.78 678.744  50
   4   1   1 2282.00 627.235  24
   4   1   2 36084.7 2678.21  21
   4   1   2 40064.7 2669.68  39
   4   1   2 40500.5 2702.97  38
  -4  -1  -2 35745.1 2065.89  31
  -4  -1  -2 44383.2 4860.75   9
  -4  -1  -2 41443.3 2591.69  27
  -4  -1  -2 36550.0 2853.41  50
   4   1   2 39953.5 2724.83  24
   4   1   3 3004.29 801.478  39
   4   1   3 2884.28 799.319  21
   4   1   3 2587.66 695.240  38
  -4  -1  -3 1966.05 550.854  20
  -4  -1  -3 1844.01 647.099  31
  -4  -1  -3 2194.82 809.501   9
  -4  -1  -3 3213.27 831.193  57
  -4  -1  -3 2963.28 693.614  27
  -4  -1  -3 2731.75 1064.98  14
  -4  -1  -3 1550.77 1020.38  50
   4   1   3 2341.29 717.448  24
   4   1   4 4683.39 1017.44  39
   4   1   4 5861.64 1066.89  21
   4   1   4 5332.83 1041.34  38
  -4  -1  -4 6281.68 948.495  20
  -4  -1  -4 5883.31 1004.48  31
  -4  -1  -4 7211.22 2025.14   9
  -4  -1  -4 3548.74 877.380  57
  -4  -1  -4 6883.24 1088.43  27
  -4  -1  -4 7028.53 1919.34  14
  -4  -1  -4 3901.13 925.815  50
   4   1   4 5719.58 1101.86  24
   4   1   5 5343.20 1058.52  39
   4   1   5 4688.41 921.741  21
   4   1   5 6732.22 1086.79  38
  -4  -1  -5 4756.24 1007.12  20
  -4  -1  -5 7457.27 1211.99  57
  -4  -1  -5 5796.13 1076.55  27
  -4  -1  -5 5908.64 1567.69  14
  -4  -1  -5 6549.11 1475.49  50
   4   1   5 5789.51 1083.19  24
   4   1   6 30777.3 2642.66  21
   4   1   6 33667.5 2448.79  39
   4   1   6 34917.0 2668.25  38
  -4  -1  -6 38615.4 2229.21  20
  -4  -1  -6 35425.4 4671.36  14
   4   1   6 35315.1 2740.00  24
   4   1   7 2100.91 656.894  39
   4   1   7 2323.24 782.083  21
   4   1   7 2677.47 782.720  38
  -4  -1  -7 947.285 641.283  57
  -4  -1  -7 1346.35 526.779  27
  -4  -1  -7 2156.21 1050.01  14
   4   1   7 3239.69 919.603  24
   4   1   7 2671.88 1509.47  13
   4   1   8 3738.65 926.201  21
   4   1   8 3481.19 919.925  38
  -4  -1  -8 2043.71 776.990  57
  -4  -1  -8 1732.38 773.765  27
  -4  -1  -8 3766.58 1252.14  14
   4   1   8 3349.96 832.817  24
   4   1   8 1883.07 1015.56  13
   4   1   9 22047.0 2113.78  21
   4   1   9 20567.9 2122.99  38
  -4  -1  -9 21210.2 1859.94  33
  -4  -1  -9 18654.5 2101.63  27
   4   1   9 22435.1 2296.36  24
   4   1  10 557.385 511.556  21
   4   1  10 272.224 410.831  38
  -4  -1 -10 379.838 537.406  57
  -4  -1 -10 158.770 438.940  27
   4   1  10 348.648 332.736  24
   4   1  11 3041.26 718.601  38
  -4  -1 -11 1889.13 928.453  57
  -4  -1 -11 2013.44 616.544  27
   4   1  11 3291.03 856.807  24
   4   1  12 1142.85 583.031  38
  -4  -1 -12 2135.51 799.446  57
  -4  -1 -12 398.123 444.464  27
   4   1  12 1815.77 733.613  24
   4   1  13 4688.52 982.404  38
  -4  -1 -13 4486.27 871.392  57
   4   1  13 4323.94 1013.59  24
   4   1  14 866.031 475.785  38
  -4  -1 -14 741.507 388.776  57
   4   1  14 519.833 345.477  52
   4   1  14 920.103 375.839  24
  -4  -1 -15 37024.5 2147.44  57
   4   1  15 35106.1 2040.48  52
   4   1  15 37299.2 2324.66  24
  -4  -1 -16 3331.59 705.835  54
   4   1  16 5487.24 723.844  52
   4   1  16 5457.04 777.217  24
   4   1  17 7537.51 830.759  37
   4   1  17 9647.89 878.477  24
   4   2 -16 9665.91 694.484  51
   4   2 -16 18320.5 1131.81  44
   4   2 -15 6824.72 721.445  51
   4   2 -15 11351.5 1043.26  44
   4   2 -14 7825.03 843.662  51
   4   2 -14 12370.9 1165.72  44
   4   2 -13-187.405 277.811  51
   4   2 -13 233.636 450.032  44
   4   2 -12 6623.53 920.754  44
   4   2 -12 5390.55 832.673  28
   4   2 -12 5174.50 797.438  51
   4   2 -11 1910.85 583.802  44
   4   2 -11 910.084 451.915  28
   4   2 -11 1491.86 530.135  51
   4   2 -10 657.546 509.746  44
   4   2 -10-180.851 579.929  28
   4   2 -10 595.233 427.587  51
   4   2  -9 4432.38 1015.12  44
   4   2  -9 2459.54 554.182  28
   4   2  -9 2662.63 672.943  51
   4   2  -8 556.487 595.235  44
   4   2  -8-367.925 431.193  21
   4   2  -8-449.340 442.542  51
   4   2  -7 4231.07 891.450  44
   4   2  -7 234.337 372.647  21
  -4  -2   7-942.945 1532.41  15
   4   2  -7 3223.76 823.287  51
   4   2  -6 15901.1 1747.13  21
  -4  -2   6 17486.5 3295.23  15
   4   2  -5 11338.1 1444.72  21
   4   2  -5 12471.4 2073.26   1
  -4  -2   5 12530.0 2789.76  15
   4   2  -4 13965.7 1586.51  21
   4   2  -4 12843.1 2111.24   1
  -4  -2   4 12934.4 2964.17   9
  -4  -2   4 14025.9 2788.99  15
   4   2  -3-187.703 423.012  21
   4   2  -3 341.005 952.868   1
  -4  -2   3-481.991 1245.42   9
  -4  -2   3 45.0939 558.264  15
   4   2  -3-290.900 720.514  47
   4   2  -2 26372.3 2298.93  21
   4   2  -2 28141.9 3355.72   1
  -4  -2   2 27329.9 3573.35  15
  -4  -2   2 25206.7 3771.88   9
   4   2  -1 1150.06 542.028   1
   4   2  -1 2554.60 958.611  58
   4   2  -1 1742.42 532.450  21
   4   2  -1 1876.45 693.431  39
  -4  -2   1 1651.46 1189.82   9
  -4  -2   1 1947.47 1051.79  15
   4   2   0 10535.6 1485.47  21
   4   2   0 11952.2 1414.30  39
  -4  -2   0 7495.44 1114.26  31
  -4  -2   0 12357.9 2539.64   9
  -4  -2   0 9558.52 2045.06  15
   4   2   1 2449.90 521.105  39
   4   2   1 3619.05 836.621  21
  -4  -2  -1 1882.63 559.324  31
  -4  -2  -1 2908.39 1136.45   9
  -4  -2  -1 1493.02 785.039  50
   4   2   2 534.669 435.553  39
   4   2   2 684.911 599.257  21
   4   2   2 942.032 468.169  38
  -4  -2  -2 582.914 388.446  20
  -4  -2  -2 211.728 327.376  31
  -4  -2  -2 1062.77 598.437  57
  -4  -2  -2 648.512 891.744   9
  -4  -2  -2 523.718 817.683  50
   4   2   3 8464.81 1293.67  21
  -4  -2  -3 8679.81 2013.88   9
   4   2   3 9389.10 1354.49  39
   4   2   3 10298.3 1345.40  38
  -4  -2  -3 6599.84 1016.86  20
  -4  -2  -3 7387.12 1042.10  31
  -4  -2  -3 5360.74 1091.57  27
  -4  -2  -3 9864.84 2208.06  14
  -4  -2  -3 9190.78 1300.75  57
  -4  -2  -3 6602.27 1213.18  50
   4   2   3 9242.89 1254.28  24
   4   2   4 3011.71 614.066  39
   4   2   4 2558.08 895.894  21
   4   2   4 3629.79 779.073  38
  -4  -2  -4 3533.42 700.655  20
  -4  -2  -4 3980.02 698.771  31
  -4  -2  -4 4590.92 1438.20   9
  -4  -2  -4 4302.75 935.557  57
  -4  -2  -4 2443.88 769.767  27
  -4  -2  -4 3390.77 1176.95  14
  -4  -2  -4 1184.10 918.075  50
   4   2   4 3795.79 903.332  24
   4   2   5 22799.2 2189.16  21
   4   2   5 22691.2 2007.99  39
   4   2   5 23319.3 2169.17  38
  -4  -2  -5 24044.4 1728.60  20
  -4  -2  -5 26995.4 1871.60  31
  -4  -2  -5 16850.6 1948.02  57
  -4  -2  -5 27975.9 3553.35   9
  -4  -2  -5 22636.5 3426.95  14
  -4  -2  -5 24160.9 2253.93  50
   4   2   5 22823.3 2175.50  24
   4   2   6-111.926 396.255  39
   4   2   6-179.651 310.518  21
   4   2   6-135.951 450.268  38
  -4  -2  -6 275.431 415.159  20
  -4  -2  -6 18.0346 584.643  57
  -4  -2  -6 315.991 343.264  27
  -4  -2  -6-235.145 1072.00  14
  -4  -2  -6-85.3123 627.421  50
   4   2   7 2151.84 821.878  39
   4   2   7 1476.88 529.791  21
   4   2   7 1330.57 601.482  38
  -4  -2  -7 1619.15 579.014  20
  -4  -2  -7 1867.53 671.792  33
  -4  -2  -7 939.045 564.744  57
  -4  -2  -7 515.077 342.123  27
  -4  -2  -7 1594.25 1237.65  14
  -4  -2  -7 2755.57 805.362  50
   4   2   8 1134.49 546.568  39
   4   2   8 1261.94 565.837  21
   4   2   8 1296.82 710.102  38
  -4  -2  -8 1739.34 878.322  33
  -4  -2  -8 533.489 642.145  57
  -4  -2  -8 445.677 421.197  27
  -4  -2  -8 1688.96 965.835  14
   4   2   9 1889.84 627.144  39
   4   2   9 1922.28 712.862  21
   4   2   9 1883.29 775.843  38
  -4  -2  -9 2744.69 825.253  33
  -4  -2  -9 1146.16 679.296  57
   4   2  10 19560.4 1965.29  21
   4   2  10 19807.0 2131.98  38
  -4  -2 -10 20816.7 1878.33  33
  -4  -2 -10 22845.5 2221.91  57
   4   2  11 13206.7 1634.12  21
   4   2  11 12689.0 1759.82  38
  -4  -2 -11 11692.4 1508.84  33
   4   2  12 19819.4 1851.67  21
   4   2  12 16508.0 1860.74  38
  -4  -2 -12 18327.9 1850.30  57
   4   2  13 2625.23 716.237  38
  -4  -2 -13 3260.64 872.278  57
   4   2  14 2349.24 659.674  38
  -4  -2 -14 3126.06 772.342  57
   4   2  15 34500.5 2130.05  38
  -4  -2 -15 34506.3 2063.53  57
   4   2  15 34321.6 2357.09  24
   4   2  16 15195.4 1310.71  52
   4   2  16 18229.3 1538.46  24
   4   2  17 7871.51 735.628  52
   4   2  17 10645.8 993.444  24
   4   3 -16 334.727 189.979  44
   4   3 -15-374.945 259.760  51
   4   3 -15 168.502 290.210  44
   4   3 -14 2789.45 526.544  51
   4   3 -14 5198.68 774.840  44
   4   3 -13 4418.07 662.118  51
   4   3 -13 9149.91 1050.76  44
   4   3 -12 285.605 375.886  44
   4   3 -12-15.5867 225.657  51
   4   3 -11 300.232 422.284  44
   4   3 -11 53.9655 332.276  51
   4   3 -10 4558.85 909.449  44
   4   3 -10 2518.18 672.633  51
   4   3  -9 938.875 652.271  44
   4   3  -9 194.509 346.793  28
   4   3  -9 133.542 372.697  51
   4   3  -8-113.532 401.821  44
   4   3  -8-252.613 542.235  47
   4   3  -7 22529.6 1890.90  44
   4   3  -6 5445.22 1776.86   1
  -4  -3   6 4972.99 1732.35  15
   4   3  -6 6128.01 1040.15  47
   4   3  -5 24525.9 2121.28  21
   4   3  -5 26454.6 3354.58   1
  -4  -3   5 26170.0 3824.14  15
   4   3  -4 2243.92 833.364  21
  -4  -3   4 1671.05 740.043  15
   4   3  -4 3708.19 1428.24   1
   4   3  -4 3396.06 1049.55  47
   4   3  -3 5820.36 1033.76  21
   4   3  -3 7955.98 1353.41  58
   4   3  -3 6238.79 1694.07   1
  -4  -3   3 6255.38 1119.99  57
  -4  -3   3 6190.56 1956.29  15
   4   3  -3 8217.08 1346.83  47
   4   3  -2-9.49716 440.429  21
   4   3  -2-186.831 481.661  39
   4   3  -2-183.776 904.587   1
   4   3  -2 23.5232 503.357  58
  -4  -3   2 159.284 604.350   9
  -4  -3   2-644.016 1076.18  15
  -4  -3   2 481.397 628.693  57
   4   3  -2 105.894 654.482  47
   4   3  -1 4189.67 862.369  21
   4   3  -1 4133.72 834.584  39
   4   3  -1 3890.17 1205.11   1
   4   3  -1 5209.14 1395.77  58
  -4  -3   1 4406.34 1372.04   9
  -4  -3   1 2598.20 842.483  57
   4   3   0 713.699 473.443   1
   4   3   0 812.476 564.664  21
   4   3   0 848.269 474.261  39
   4   3   0 1878.81 511.603  58
  -4  -3   0 2389.88 740.668  57
  -4  -3   0 555.544 1045.50   9
   4   3   1 9187.02 1325.05  21
   4   3   1 7425.47 1770.85   1
   4   3   1 9101.33 1205.83  39
  -4  -3  -1 8600.59 1175.28  31
  -4  -3  -1 5959.91 1284.22  57
  -4  -3  -1 9221.73 2131.53   9
   4   3   2 5397.13 1198.43  21
   4   3   2 6809.06 1150.75  39
   4   3   2 7226.41 1092.66  38
  -4  -3  -2 6266.01 893.649  31
  -4  -3  -2 4292.59 1086.74  57
  -4  -3  -2 7449.78 1973.83   9
  -4  -3  -2 7254.25 1789.08  14
  -4  -3  -3 2406.32 977.068  57
   4   3   3 4728.16 947.998  39
   4   3   3 3713.14 1006.60  21
   4   3   3 4463.68 849.144  38
  -4  -3  -3 4829.45 747.434  20
  -4  -3  -3 4417.41 844.299  31
  -4  -3  -3 5753.20 1752.51   9
  -4  -3  -3 3742.05 1272.64  14
  -4  -3  -3 5165.27 1136.71  50
   4   3   4 41558.3 2907.20  21
   4   3   4 40423.9 2759.60  39
  -4  -3  -4 40137.0 2129.37  20
  -4  -3  -4 41556.3 2496.15  33
  -4  -3  -4 45084.5 2332.02  31
  -4  -3  -4 45092.2 4671.74   9
  -4  -3  -4 38943.7 4459.12  14
   4   3   4 41023.3 2777.45  24
   4   3   5 24096.1 2205.73  21
   4   3   5 24121.2 2173.00  39
  -4  -3  -5 25760.0 1710.23  20
  -4  -3  -5 19768.9 1930.90  33
  -4  -3  -5 28850.6 1898.80  31
  -4  -3  -5 25905.3 3667.82   9
  -4  -3  -5 23521.3 2208.71  57
  -4  -3  -5 23531.8 3639.04  14
  -4  -3  -5 24643.9 2282.81  50
   4   3   6 6979.55 1305.21  21
   4   3   6 8291.46 1355.63  39
  -4  -3  -6 9190.61 1161.05  20
  -4  -3  -6 7765.23 1259.01  33
  -4  -3  -6 7822.07 1548.52  57
  -4  -3  -6 8797.66 2098.40  14
   4   3   7 1213.70 569.223  39
   4   3   7 448.330 284.311  21
  -4  -3  -7 957.485 550.505  33
  -4  -3  -7 1224.32 593.823  57
  -4  -3  -7 743.964 803.527  14
  -4  -3  -7 993.054 559.570  50
   4   3   8 1812.46 584.623  39
   4   3   8 2448.61 799.703  21
  -4  -3  -8 1427.14 694.268  33
  -4  -3  -8 1827.69 765.948  57
  -4  -3  -8 2820.50 1222.24  14
  -4  -3  -8 1920.38 716.717  50
   4   3   9 47610.3 3309.95  21
   4   3   9 47584.2 2928.87  39
  -4  -3  -9 49034.9 3004.55  33
  -4  -3  -9 50485.2 3288.69  57
   4   3  10 1025.91 475.527  39
   4   3  10 1786.87 648.102  21
  -4  -3 -10 1218.83 706.475  33
  -4  -3 -10 1496.09 742.569  57
   4   3  11 11279.8 1535.88  21
   4   3  11 8403.98 1215.94  39
  -4  -3 -11 9762.09 1214.25  33
  -4  -3 -11 8015.66 1231.70  57
   4   3  12 13657.8 1707.35  21
  -4  -3 -12 16049.2 1667.51  33
  -4  -3 -12 15890.7 1622.67  57
   4   3  13 3071.46 737.039  21
   4   3  13 3263.59 900.539  38
  -4  -3 -13 3344.50 813.251  57
   4   3  14 38.3270 302.051  21
   4   3  14-1.61372 367.719  38
  -4  -3 -14 132.847 330.268  57
   4   3  15 18524.5 1653.55  38
  -4  -3 -15 16551.0 1407.58  57
   4   3  16 5243.83 810.380  38
   4   3  16 4604.87 856.773  24
  -4  -3 -17 175.128 252.955  54
   4   3  17 1324.71 371.931  52
   4   4 -15 3617.40 543.916  44
   4   4 -14 1265.36 375.144  44
   4   4 -14 831.809 216.093  51
   4   4 -13 671.653 389.228  44
   4   4 -13-256.934 332.142  51
   4   4 -12 145.834 307.403  44
   4   4 -12 221.316 385.984  51
   4   4 -11 1644.62 560.141  44
   4   4 -11 479.336 287.122  51
   4   4 -10 703.746 511.864  44
   4   4 -10 484.661 481.610  51
   4   4  -9 408.333 566.941  44
   4   4  -9 94.9918 383.471  51
   4   4  -9 811.014 757.148  47
   4   4  -8 12141.2 1440.66  44
   4   4  -7 11891.5 1548.62  47
   4   4  -7 13129.1 1538.48  44
  -4  -4   6 4450.52 1720.69  15
   4   4  -6 6643.02 1240.02  47
   4   4  -5 15199.7 2508.55   1
   4   4  -5 19748.2 2059.00  58
  -4  -4   5 19220.1 3730.08  15
   4   4  -5 16723.6 1754.61  47
   4   4  -4 3652.73 1314.64  58
  -4  -4   4 2427.18 1031.70  15
   4   4  -4 2013.47 723.156  47
   4   4  -4 1743.95 836.287   1
   4   4  -3 1761.38 510.024  21
   4   4  -3 2281.30 674.271  39
   4   4  -3 1906.20 518.196  58
   4   4  -3 3201.60 1573.95   1
   4   4  -3 3110.17 774.065  47
   4   4  -2 345.028 459.513  21
   4   4  -2 206.364 372.307  39
   4   4  -2 312.379 638.711   1
   4   4  -2 164.044 516.144  47
   4   4  -1 3738.06 918.662  21
   4   4  -1 5601.87 1017.76  39
  -4  -4   1 4570.85 879.799  33
   4   4  -1 4325.87 1330.60   1
  -4  -4   1 1642.49 1031.88  57
   4   4  -1 5845.29 1038.34  47
   4   4   0 787.548 551.009  21
   4   4   0 833.564 495.454  39
   4   4   0 1445.56 665.177   1
  -4  -4   0 71.0610 640.018  57
  -4  -4   0 305.420 808.513   9
   4   4   1 7262.62 1257.12  21
   4   4   1 10323.3 1403.86  39
   4   4   1 6378.47 1570.79   1
  -4  -4  -1 8104.25 1171.39  33
  -4  -4  -1 9046.65 2107.53   9
  -4  -4  -1 6575.53 1252.67  57
   4   4   2 15014.3 1840.05  21
   4   4   2 18148.7 1824.54  39
   4   4   2 19560.8 1812.54  38
  -4  -4  -2 13966.9 1543.75  33
  -4  -4  -2 16403.1 1541.52  31
  -4  -4  -2 14914.8 2770.69   9
  -4  -4  -2 16798.4 2882.46  14
  -4  -4  -2 15546.1 1952.69  57
   4   4   3 5219.61 1831.60   1
   4   4   3 5696.12 1066.75  39
   4   4   3 5177.65 1101.54  21
  -4  -4  -3 4530.20 937.976  33
  -4  -4  -3 5726.28 819.395  31
  -4  -4  -3 6555.73 1134.57  57
  -4  -4  -3 6375.89 1818.11   9
  -4  -4  -3 5688.88 1612.11  14
   4   4   4 20386.8 2170.74  21
   4   4   4 21169.0 3306.55   1
   4   4   4 20867.9 2091.64  39
  -4  -4  -4 21791.7 1574.07  20
  -4  -4  -4 21988.9 1925.22  33
  -4  -4  -4 22153.2 1675.90  31
  -4  -4  -4 21792.3 3375.62   9
  -4  -4  -4 21037.5 2162.37  57
  -4  -4  -4 19424.5 3476.22  14
  -4  -4  -4 24844.9 2221.10  50
   4   4   5 13732.2 1785.04  21
   4   4   5 13758.1 2593.79   1
   4   4   5 14057.2 1703.64  39
  -4  -4  -5 13675.4 1641.46  33
  -4  -4  -5 15891.9 1526.53  31
  -4  -4  -5 13469.9 2706.89   9
  -4  -4  -5 11972.5 1791.99  57
  -4  -4  -5 13764.6 2840.47  14
  -4  -4  -5 15128.6 1882.72  50
   4   4   6 17565.1 2018.24  21
   4   4   6 13210.6 2535.81   1
   4   4   6 18308.8 1895.79  39
  -4  -4  -6 18909.2 1872.99  33
  -4  -4  -6 18978.5 1611.83  31
  -4  -4  -6 20933.6 2142.27  57
  -4  -4  -6 16948.9 3347.44  14
  -4  -4  -6 20816.2 2121.45  50
   4   4   7 1821.89 930.276   1
   4   4   7 1765.63 508.045  39
   4   4   7 1705.50 750.444  21
  -4  -4  -7 1857.25 744.577  33
  -4  -4  -7 2384.76 877.362  57
  -4  -4  -7 2635.10 857.104  50
  -4  -4  -7 2100.71 1294.26  14
   4   4   8 25206.3 2475.42  21
   4   4   8 23096.5 2202.32  39
  -4  -4  -8 25685.7 2233.00  33
  -4  -4  -8 22772.5 2203.89  57
   4   4   9 14586.3 1782.15  21
   4   4   9 14119.0 1652.27  39
  -4  -4  -9 13976.9 1628.21  33
  -4  -4  -9 14903.5 1747.75  57
   4   4  10 6932.23 1136.18  39
   4   4  10 5667.72 1135.93  21
  -4  -4 -10 7098.93 1123.57  33
  -4  -4 -10 7329.47 1199.54  57
   4   4  11 21056.4 2150.77  21
   4   4  11 20597.7 1897.74  39
  -4  -4 -11 24612.6 2029.55  33
  -4  -4 -11 19092.8 1894.68  57
   4   4  12 42360.2 2924.11  21
   4   4  12 38654.7 2439.38  39
  -4  -4 -12 43273.9 2670.17  33
  -4  -4 -12 40913.6 2432.52  57
   4   4  13 161.916 435.202  39
   4   4  13 84.2386 276.140  21
  -4  -4 -13-357.502 376.383  33
  -4  -4 -13 180.111 430.157  57
   4   4  14 15545.3 1556.56  21
   4   4  15 12717.2 1234.36  21
   4   4  15 11338.7 1420.20  38
   4   4  16-18.6388 276.929  21
   4   4  16 310.572 214.191  38
   4   4  17 809.565 279.412  38
  -4  -4 -17 199.928 225.267  54
   4   4  17 1067.04 419.256  24
   4   5 -15 1171.63 355.722  44
   4   5 -14 1086.48 365.089  44
   4   5 -13 892.417 384.620  44
   4   5 -13 190.634 245.599  51
   4   5 -12 1818.41 507.145  44
   4   5 -12 477.335 227.852  51
   4   5 -11 179.499 324.409  44
   4   5 -11 86.4982 305.774  51
   4   5 -10 3769.05 753.484  44
   4   5 -10 3727.11 915.055  47
   4   5  -9 5196.11 981.127  44
   4   5  -9 6358.25 1108.59  47
   4   5  -8 13902.7 1740.09  47
   4   5  -7 4386.11 1042.81  47
   4   5  -6 5972.80 1148.22  47
  -4  -5   5 6252.14 1064.98  33
   4   5  -5 9747.72 1410.86  58
   4   5  -5 8304.90 1360.48  47
  -4  -5   4-110.977 453.319  33
   4   5  -4 235.978 710.314  58
   4   5  -4 56.0740 533.464  47
   4   5  -3 81.9141 1012.47   1
   4   5  -3 542.943 396.227  39
  -4  -5   3 549.472 366.364  33
   4   5  -3 119.011 647.321  47
   4   5  -2 31619.1 2253.61  39
  -4  -5   2 29362.3 2355.65  33
  -4  -5   2 30481.7 2658.95  53
   4   5  -2 36969.6 2582.50  47
   4   5  -1 863.568 513.170  21
   4   5  -1 1679.42 677.967  39
  -4  -5   1 1072.53 391.549  33
  -4  -5   1 595.437 530.311  57
  -4  -5   1 1308.55 825.385  53
   4   5  -1 65.4203 691.442   1
   4   5  -1 1627.54 678.890  47
   4   5   0 10971.0 1505.00  21
   4   5   0 12299.4 1524.00  39
  -4  -5   0 9944.92 1464.49  33
  -4  -5   0 6068.36 1562.89  57
  -4  -5   0 9285.29 2286.37   9
  -4  -5   0 12752.3 1645.25  53
   4   5   0 9584.38 2163.75   1
   4   5   0 12323.2 1419.35  47
   4   5   1 26243.4 2432.02  21
   4   5   1 31449.3 2436.08  39
  -4  -5  -1 30164.4 2304.66  33
  -4  -5  -1 26743.9 2423.29  57
  -4  -5  -1 32431.6 2589.41  53
  -4  -5  -1 29497.2 3965.38   9
   4   5   2 215.677 531.672  39
   4   5   2 217.131 493.747  21
  -4  -5  -2 462.791 427.384  33
   4   5   2-131.236 856.326   1
  -4  -5  -2 328.658 540.188  31
  -4  -5  -2 334.513 531.729   9
  -4  -5  -2 332.278 578.060  53
  -4  -5  -2 363.186 561.072  57
  -4  -5  -2 260.986 766.836  14
   4   5   3 1812.67 625.501  39
   4   5   3 709.303 413.936  21
   4   5   3 1238.60 1153.73   1
  -4  -5  -3 1723.88 734.339  33
  -4  -5  -3 1097.35 481.867  31
  -4  -5  -3 1382.77 690.545  57
  -4  -5  -3 13.0666 1068.29   9
  -4  -5  -3-544.202 1074.31  14
   4   5   4 10964.8 1556.85  21
  -4  -5  -4 12616.0 1670.45  57
   4   5   4 13438.4 1682.68  39
  -4  -5  -4 11136.8 1602.53  33
   4   5   4 10517.5 2261.30   1
  -4  -5  -4 10443.4 1300.94  31
  -4  -5  -4 9300.54 2397.76  14
   4   5   5 15924.0 1982.50  21
   4   5   5 17993.1 1984.79  39
   4   5   5 16899.9 3042.00   1
  -4  -5  -5 15302.4 1829.53  33
  -4  -5  -5 13977.7 1877.56  57
  -4  -5  -5 14525.3 3168.39  14
  -4  -5  -5 16441.7 1953.52  50
   4   5   6 1512.72 720.576  39
   4   5   6 1146.39 526.196  21
   4   5   6-321.558 1357.17   1
  -4  -5  -6 1408.96 799.633  33
  -4  -5  -6 162.576 587.888  32
  -4  -5  -6 1549.12 623.443  31
  -4  -5  -6 1173.68 602.527  57
  -4  -5  -6 1060.58 680.028  14
   4   5   7 2154.11 690.196  39
   4   5   7 2524.04 819.609  21
  -4  -5  -7 1691.88 555.220  33
  -4  -5  -7 2362.07 902.236  32
  -4  -5  -7 1557.52 769.605  57
   4   5   8 2514.68 727.743  39
   4   5   8 3218.36 1065.68  21
  -4  -5  -8 2724.92 911.667  33
  -4  -5  -8 2414.01 921.621  57
   4   5   9 23779.1 2575.92  21
   4   5   9 24711.0 2259.70  39
  -4  -5  -9 28018.5 2194.66  33
  -4  -5  -9 23447.9 2138.72  57
   4   5  10 1392.84 655.446  39
   4   5  10 1362.29 753.498  21
  -4  -5 -10 1009.56 474.078  33
  -4  -5 -10 811.061 457.262  57
   4   5  11 28914.7 2671.87  21
   4   5  11 25527.1 2261.18  39
  -4  -5 -11 31444.5 2196.98  33
  -4  -5 -11 22483.9 1786.38  57
   4   5  12 2356.96 743.189  39
   4   5  12 1982.03 610.113  21
  -4  -5 -12 1993.34 526.437  33
  -4  -5 -12 1205.92 379.655  57
   4   5  13 467.228 384.093  39
   4   5  13 823.126 478.433  21
  -4  -5 -13 1247.75 548.710  33
   4   5  14 21325.5 1841.39  21
   4   5  14 17561.8 1385.82  39
  -4  -5 -14 19608.8 1580.97  33
   4   5  15 16940.3 1417.55  21
   4   5  16 5208.10 674.072  21
   4   5  16 5109.35 827.452  38
   4   5  17 124.756 195.651  38
   4   5  17 95.1997 263.643  24
   4   6 -14 176.893 212.735  44
   4   6 -13 2491.47 546.718  44
   4   6 -12 422.546 366.818  44
  -4  -6  12 95.8412 286.436  33
   4   6 -11 176.272 302.565  44
  -4  -6  11 763.689 460.399  33
   4   6 -11 201.418 286.315  51
   4   6 -10 1697.70 572.637  44
  -4  -6  10 2143.26 591.945  33
   4   6 -10 371.230 300.567  51
   4   6 -10 1661.42 549.766  47
   4   6  -9 2644.67 674.420  44
   4   6  -9 1654.78 688.702  47
   4   6  -8 753.119 541.238  44
   4   6  -8 735.139 389.159  47
  -4  -6   7 3952.04 749.803  33
   4   6  -7 5390.91 1198.28  47
  -4  -6   6 19132.6 1911.55  33
   4   6  -6 22105.8 1933.36  58
   4   6  -6 19918.4 1890.20  47
  -4  -6   5 40294.6 2719.71  33
   4   6  -5 46261.1 2902.96  58
   4   6  -5 44484.5 2816.59  47
  -4  -6   4 1211.70 682.436  33
   4   6  -4 1651.35 862.037  58
  -4  -6   4 425.950 635.225  53
   4   6  -4 617.035 758.438  47
  -4  -6   3 59982.7 3326.03  33
  -4  -6   3 59902.4 3675.04  53
   4   6  -3 66562.3 3519.99  47
   4   6  -2 488.262 464.018  39
  -4  -6   2 691.548 614.014  33
  -4  -6   2-605.357 528.746  53
   4   6  -2 943.539 604.592  47
   4   6  -1 2333.14 426.227  39
  -4  -6   1 3562.74 1101.73  33
  -4  -6   1 3220.11 1122.51  53
   4   6  -1 4271.63 1050.51  47
   4   6   0 827.855 504.319  39
  -4  -6   0 940.000 717.905  33
  -4  -6   0 436.253 1039.59   9
  -4  -6   0 823.781 426.980  57
  -4  -6   0 1764.46 583.265  53
   4   6   0 2544.92 943.399  47
   4   6   1 11707.7 1560.28  21
   4   6   1 12966.3 1628.26  39
  -4  -6  -1 9211.62 1520.41  33
  -4  -6  -1 9844.62 1211.24  31
  -4  -6  -1 10162.5 1677.23  57
  -4  -6  -1 7550.20 1776.64   9
  -4  -6  -1 13723.9 1876.83  53
   4   6   1 14270.9 1591.86  47
   4   6   2 24690.5 2279.10  21
   4   6   2 26228.9 2271.13  39
  -4  -6  -2 19736.6 2152.08  33
  -4  -6  -2 23219.3 1780.61  31
  -4  -6  -2 22822.1 2305.18  57
  -4  -6  -2 28611.0 2564.35  53
  -4  -6  -2 21912.8 3731.16  14
   4   6   2 31115.5 2069.30  47
   4   6   3 1064.52 574.751  39
   4   6   3 376.106 631.668  21
  -4  -6  -3 528.100 590.045  33
  -4  -6  -3 169.722 463.974  31
  -4  -6  -3 1135.12 619.459  57
  -4  -6  -3 792.042 554.552  53
   4   6   4 7481.46 1366.89  21
   4   6   4 8717.00 1340.89  39
  -4  -6  -4 6082.66 1173.51  33
  -4  -6  -4 3367.49 1098.04  32
  -4  -6  -4 6070.05 1270.20  57
  -4  -6  -4 8238.07 2751.01  14
   4   6   5 141.082 748.363  43
   4   6   5 314.254 547.196  39
   4   6   5-50.5537 451.793  21
  -4  -6  -5-403.832 502.521  33
  -4  -6  -5-150.592 554.881  32
  -4  -6  -5 412.073 578.999  57
   4   6   6 4628.57 988.365  43
   4   6   6 4254.71 1064.49  39
   4   6   6 3518.84 933.867  21
  -4  -6  -6 3222.04 805.451  33
  -4  -6  -6 3146.08 875.742  32
  -4  -6  -6 4612.47 1066.08  57
   4   6   7 2083.32 846.720  43
   4   6   7 2327.50 830.054  39
   4   6   7 1310.54 685.473  21
  -4  -6  -7 2309.17 761.213  33
  -4  -6  -7 1254.95 951.925  32
  -4  -6  -7 1903.60 681.872  57
   4   6   8 13749.8 1542.60  43
   4   6   8 12708.3 1752.86  39
  -4  -6  -8 14823.9 1570.11  33
  -4  -6  -8 8809.27 1614.54  32
  -4  -6  -8 10621.2 1445.75  57
   4   6   9 1707.72 514.506  43
   4   6   9 1986.39 783.451  39
   4   6   9 695.695 452.404  21
  -4  -6  -9 2694.00 820.344  33
  -4  -6  -9 2014.99 582.749  57
   4   6  10 975.171 620.250  39
   4   6  10 385.011 295.407  21
  -4  -6 -10 1108.08 540.174  33
  -4  -6 -10 21.2164 351.028  57
   4   6  11 1148.48 428.851  39
  -4  -6 -11 2174.91 715.509  33
   4   6  12 6106.49 1128.36  21
   4   6  12 7500.50 1161.63  39
  -4  -6 -12 6949.44 995.002  33
   4   6  13 277.224 335.464  39
   4   6  13-90.6454 252.360  21
  -4  -6 -13 590.309 414.857  33
   4   6  14-419.651 376.089  39
   4   6  14 188.744 328.138  21
  -4  -6 -14 428.171 284.646  33
   4   6  15 3328.05 513.925  39
   4   6  15 3531.80 662.903  21
   4   6  16 1523.85 365.907  21
   4   6  16 954.135 368.266  38
   4   7 -12 224.877 241.567  44
  -4  -7  12 715.362 328.872  33
   4   7 -11 455.078 325.931  44
  -4  -7  11-5.62419 248.334  33
   4   7 -10 93.8871 303.705  44
   4   7 -10 680.089 379.972  47
   4   7  -9 1548.68 578.755  44
  -4  -7   9 2460.50 584.737  33
   4   7  -9 358.068 247.493  51
   4   7  -9 2682.51 690.256  47
   4   7  -8 3397.09 763.233  44
  -4  -7   8 2683.90 640.095  33
  -4  -7   8 2704.24 814.045  53
   4   7  -8 2342.94 530.437  47
  -4  -7   7 785.489 309.038  33
  -4  -7   7-471.034 402.136  53
   4   7  -7-452.358 425.586  47
  -4  -7   6 43062.3 2683.50  33
  -4  -7   6 42038.8 2955.59  53
   4   7  -6 44131.8 2806.27  47
  -4  -7   5 11081.6 1452.13  33
   4   7  -5 10555.5 1420.24  58
  -4  -7   5 9142.41 1510.51  53
   4   7  -5 11049.8 1478.11  47
  -4  -7   4 3359.11 906.625  33
  -4  -7   4 2894.92 844.426  53
   4   7  -4 3264.34 965.593  47
  -4  -7   3 359.926 464.912  33
  -4  -7   3 256.446 632.440  53
   4   7  -3-219.297 759.618  47
  -4  -7   2 40018.7 2726.28  33
  -4  -7   2 39284.9 3093.26  53
   4   7  -2 43261.2 2897.57  47
  -4  -7   1-478.201 479.011  33
  -4  -7   1-770.328 707.183  57
  -4  -7   1 373.357 527.111  53
   4   7  -1-18.3037 524.653  47
   4   7   0 5025.96 927.878  39
  -4  -7   0 4575.53 1052.07  33
  -4  -7   0 4651.83 1099.75  57
  -4  -7   0 4794.08 1133.37  53
   4   7   0 6651.08 1327.37  47
   4   7   1 6554.55 1039.02  39
  -4  -7  -1 8090.64 1195.35  33
  -4  -7  -1 5222.61 1228.46  57
  -4  -7  -1 5973.39 1269.73  53
   4   7   1 7203.74 1241.98  47
   4   7   2 3004.97 909.893  39
   4   7   2 1974.32 536.902  21
  -4  -7  -2 1467.96 523.139  33
  -4  -7  -2 2268.78 812.879  57
  -4  -7  -2 2730.43 971.497  53
   4   7   2 2341.57 646.298  47
   4   7   3 16219.0 1811.20  21
   4   7   3 14316.0 1705.09  39
  -4  -7  -3 16258.1 1663.81  33
  -4  -7  -3 12971.3 1852.73  32
  -4  -7  -3 10022.1 1613.19  57
  -4  -7  -3 9403.97 1635.66  53
   4   7   3 15722.6 1627.11  47
   4   7   4 3481.21 1045.36  43
  -4  -7  -4 2238.23 855.591  57
   4   7   4 3380.78 928.475  39
   4   7   4 2998.36 958.159  21
  -4  -7  -4 5533.68 1106.85  33
  -4  -7  -4 2070.73 1012.41  32
   4   7   5 40753.2 2990.88  43
   4   7   5 51496.5 3423.88  21
   4   7   5 51386.0 3314.05  39
  -4  -7  -5 55375.2 3035.44  33
  -4  -7  -5 50783.8 3300.56  32
  -4  -7  -5 45876.3 2985.94  57
   4   7   6 348.826 562.994  43
   4   7   6 430.988 456.831  39
   4   7   6 11.3678 388.427  21
  -4  -7  -6 635.991 379.527  33
  -4  -7  -6-49.1862 436.084  32
   4   7   7 5576.11 1101.87  43
   4   7   7 6546.23 1329.87  21
   4   7   7 6438.11 1271.36  39
  -4  -7  -7 7043.91 1219.87  33
  -4  -7  -7 3206.69 1114.54  32
  -4  -7  -7 4418.01 933.963  57
   4   7   8 56.8592 483.145  43
   4   7   8 310.834 424.158  39
   4   7   8 857.210 572.906  21
  -4  -7  -8 533.851 468.231  33
  -4  -7  -8 202.431 500.425  32
   4   7   9-261.034 611.767  43
   4   7   9-311.881 532.107  39
   4   7   9 157.310 451.988  21
  -4  -7  -9-117.602 342.271  33
  -4  -7  -9 73.1979 402.080  32
   4   7  10 474.652 621.090  43
   4   7  10 799.328 621.416  39
   4   7  10 1071.11 623.111  21
  -4  -7 -10 509.192 396.077  33
   4   7  11 2914.41 845.059  39
   4   7  11 2897.16 845.094  21
  -4  -7 -11 3723.37 780.824  33
   4   7  12 862.602 413.061  39
   4   7  12 182.090 341.676  21
   4   7  13 383.617 365.255  39
   4   7  13-46.5665 298.904  21
  -4  -7 -13 475.396 329.469  33
   4   7  14 3847.16 742.937  21
   4   7  14 3064.35 625.379  39
   4   7  15 8025.45 891.696  21
   4   7  15 6020.99 688.865  39
  -4  -8  11 815.754 362.534  33
  -4  -8  10 1150.54 411.533  33
  -4  -8   9 4370.25 707.808  33
  -4  -8   9 4381.10 825.504  53
   4   8  -9 4958.62 726.859  47
  -4  -8   8-380.668 440.987  33
  -4  -8   8 167.310 362.461  53
   4   8  -8 573.545 425.390  47
  -4  -8   7 2308.33 636.998  33
  -4  -8   7 1980.80 703.870  53
   4   8  -7 1858.92 510.535  47
  -4  -8   6 690.809 521.442  33
  -4  -8   6 1022.58 631.467  53
   4   8  -6 977.757 349.167  47
  -4  -8   5 13565.2 1456.85  33
   4   8  -5 11318.3 1342.43  58
  -4  -8   5 13917.1 1566.95  53
   4   8  -5 14728.4 1563.96  47
  -4  -8   4-347.102 335.412  33
   4   8  -4 444.564 605.734  58
  -4  -8   4 475.139 435.570  53
   4   8  -4 447.176 419.183  47
  -4  -8   3 23154.2 1947.68  33
  -4  -8   3 24843.4 2326.86  53
   4   8  -3 22986.0 2060.23  47
  -4  -8   2 2071.02 700.824  33
  -4  -8   2 968.351 583.138  57
  -4  -8   2 2487.71 936.751  53
   4   8  -2 1087.42 655.426  47
  -4  -8   1 2165.96 812.172  33
  -4  -8   1 848.700 447.595  57
  -4  -8   1 1134.74 685.247  53
   4   8  -1 2174.90 836.615  47
  -4  -8   0 689.830 767.250  33
  -4  -8   0 189.283 514.483  57
  -4  -8   0 393.879 635.434  53
   4   8   0 127.676 502.683  47
   4   8   1 6809.26 1030.20  39
  -4  -8  -1 5699.07 1113.95  33
  -4  -8  -1 5835.94 1143.70  57
  -4  -8  -1 4694.08 1220.67  53
   4   8   1 6381.89 1173.05  47
   4   8   2 28703.1 2128.59  39
  -4  -8  -2 28830.8 2308.62  33
  -4  -8  -2 23763.4 2250.38  57
  -4  -8  -2 25408.5 2508.71  53
   4   8   2 24613.3 2165.01  47
   4   8   3 37504.4 2516.52  39
  -4  -8  -3 37322.1 2484.28  33
  -4  -8  -3 31005.1 2655.43  32
  -4  -8  -3 33972.7 2483.15  57
  -4  -8  -3 31751.4 2862.08  53
   4   8   3 31391.6 2498.20  47
   4   8   4 336.936 546.511  39
   4   8   4 75.9058 255.010  21
  -4  -8  -4 238.363 458.948  33
  -4  -8  -4 1688.26 1149.13  32
  -4  -8  -4 22.3829 379.359  57
   4   8   4-161.314 699.191  47
   4   8   5 808.082 547.842  43
   4   8   5 1522.63 663.265  39
   4   8   5 1441.56 597.552  21
  -4  -8  -5 1547.56 546.377  33
  -4  -8  -5 1274.27 638.862  32
   4   8   6 3165.12 776.422  43
   4   8   6 4326.66 931.003  39
   4   8   6 3831.13 872.827  21
  -4  -8  -6 2398.51 706.216  33
  -4  -8  -6 1045.50 682.215  32
   4   8   7 882.469 472.527  43
   4   8   7 981.515 386.072  39
   4   8   7 668.311 442.457  21
  -4  -8  -7 1627.70 589.661  33
  -4  -8  -7 486.647 678.288  32
   4   8   8 435.294 545.699  43
   4   8   8 582.892 470.870  39
   4   8   8-663.402 495.205  21
  -4  -8  -8 379.262 419.223  33
  -4  -8  -8 290.735 534.485  32
   4   8   9 2425.88 733.726  43
   4   8   9 2833.32 831.536  39
   4   8   9 2572.05 695.699  21
  -4  -8  -9 2489.20 611.975  33
  -4  -8  -9 2102.45 712.629  32
   4   8  10 762.660 461.526  39
   4   8  10 388.367 330.918  21
   4   8  11 3840.64 787.414  39
   4   8  11 3595.56 827.488  21
  -4  -8 -11 3147.09 595.192  33
   4   8  12 385.033 364.649  39
   4   8  12 68.2461 296.632  21
  -4  -8 -12 604.762 338.338  33
   4   8  13 1085.44 345.863  39
   4   8  13 2167.31 600.572  21
  -4  -8 -13 1175.07 362.844  33
   4   8  14 157.492 181.072  39
   4   8  14 1.71596 250.979  21
  -4  -9   9 5034.66 643.647  33
  -4  -9   9 3127.35 648.253  57
   4   9  -9 4414.47 534.007  47
  -4  -9   8 841.645 335.328  33
  -4  -9   8-386.348 248.876  57
  -4  -9   8 821.474 508.504  53
   4   9  -8 359.749 248.604  47
  -4  -9   7 681.512 342.136  33
  -4  -9   7-253.579 295.264  57
  -4  -9   7-72.4183 440.938  53
   4   9  -7 611.734 367.110  47
  -4  -9   6 14200.1 1279.11  33
  -4  -9   6 11221.2 1318.23  57
  -4  -9   6 12615.9 1389.91  53
   4   9  -6 13709.7 1244.89  47
  -4  -9   5 510.164 320.782  33
  -4  -9   5 70.2645 351.309  57
  -4  -9   5 202.511 479.179  53
   4   9  -5-232.409 410.151  47
  -4  -9   4 4772.86 923.796  33
   4   9  -4 3725.10 815.967  58
  -4  -9   4 3420.26 1023.17  57
  -4  -9   4 4757.43 1043.36  53
   4   9  -4 5375.30 893.462  47
  -4  -9   3 944.810 591.111  33
  -4  -9   3-111.494 394.486  57
  -4  -9   3 443.472 703.885  53
   4   9  -3 213.463 357.250  47
  -4  -9   2 1311.57 595.828  33
  -4  -9   2 784.771 604.018  57
  -4  -9   2 293.287 441.321  53
   4   9  -2 281.931 357.956  47
  -4  -9   1 669.316 496.758  33
  -4  -9   1-512.010 359.887  57
  -4  -9   1-472.490 487.399  53
   4   9  -1-192.726 525.905  47
  -4  -9   0-198.640 405.382  33
  -4  -9   0-51.7859 510.383  57
  -4  -9   0-151.418 368.749  53
   4   9   0 18.1797 442.937  47
  -4  -9  -1 4592.62 860.128  33
  -4  -9  -1 2776.13 695.428  57
  -4  -9  -1 4420.72 1059.29  53
   4   9   1 3531.53 733.615  47
  -4  -9  -2 382.635 524.259  33
  -4  -9  -2 379.123 968.197  32
  -4  -9  -2 538.977 449.855  57
  -4  -9  -2 1699.37 834.155  53
   4   9   2 885.473 626.789  47
   4   9   3 7058.40 1015.91  39
  -4  -9  -3 5301.50 899.597  33
  -4  -9  -3 7433.10 1370.49  32
   4   9   3 6354.58 1129.85  47
   4   9   4 17145.5 1531.47  39
  -4  -9  -4 15276.2 1521.99  33
  -4  -9  -4 16257.2 1776.51  32
   4   9   4 15760.8 1483.21  47
   4   9   5 586.224 397.483  39
  -4  -9  -5 971.351 534.044  33
  -4  -9  -5 55.3197 377.123  32
   4   9   6 4191.17 808.555  39
   4   9   6 3189.69 692.568  21
  -4  -9  -6 3402.70 730.990  33
  -4  -9  -6 1465.42 716.009  32
   4   9   7 4072.10 808.423  39
   4   9   7 4027.67 777.486  21
  -4  -9  -7 3458.28 755.620  33
  -4  -9  -7 1783.61 748.591  32
   4   9   8 74.7346 252.882  39
   4   9   8-79.7907 196.555  21
  -4  -9  -8 341.011 323.114  33
  -4  -9  -8-79.4265 384.140  32
  -4  -9  -8-783.653 648.440  48
   4   9   9 194.507 286.386  39
   4   9   9-75.5680 203.732  21
  -4  -9  -9-52.5821 382.690  33
  -4  -9  -9 64.1029 300.491  32
   4   9  10 715.746 365.623  39
   4   9  10 954.939 302.346  21
  -4  -9 -10 1055.68 396.351  33
   4   9  11 423.778 280.647  39
   4   9  11 608.942 201.406  21
  -4  -9 -11 17.5426 237.601  33
   4   9  12 347.921 246.488  39
   4   9  12 494.859 226.208  21
  -4 -10   6 2326.55 455.062  33
  -4 -10   6 1868.71 420.792  53
   4  10  -6 1664.91 387.982  47
  -4 -10   6 1145.49 355.332  57
  -4 -10   5 575.455 354.967  33
  -4 -10   5 325.670 255.656  57
  -4 -10   5 834.994 461.385  53
   4  10  -5 576.408 345.941  47
  -4 -10   4-388.256 309.598  33
  -4 -10   4-176.922 296.807  53
  -4 -10   4-293.438 300.444  57
   4  10  -4 113.448 295.080  47
  -4 -10   3 1670.89 492.124  33
   4  10  -3 996.336 474.161  58
  -4 -10   3 1002.09 430.109  57
  -4 -10   3 332.323 444.450  53
   4  10  -3 378.677 333.443  47
  -4 -10   2 2783.20 649.041  57
  -4 -10   2 5407.37 778.275  33
   4  10  -2 3167.96 714.456  58
  -4 -10   2 4918.16 880.361  53
   4  10  -2 4026.80 649.417  47
  -4 -10   1-865.312 482.374  33
  -4 -10   1-145.632 477.187  53
   4  10  -1 272.488 406.731  47
  -4 -10   0 3713.88 647.440  33
  -4 -10   0 4256.69 920.129  53
   4  10   0 3412.94 610.650  47
  -4 -10  -1 851.437 428.713  33
   4  10   1 231.146 363.787  47
  -4 -10  -2 603.848 414.117  33
  -4 -10  -2 88.0258 418.689  32
   4  10   2-147.530 378.761  47
  -4 -10  -3 2715.36 640.582  33
  -4 -10  -3 1693.69 825.056  32
   4  10   3 3243.44 645.630  47
  -4 -10  -4 7339.55 949.424  33
  -4 -10  -4 7902.09 1117.89  32
   4  10   4 8370.40 944.075  47
   4  10   5 1046.27 395.655  39
  -4 -10  -5 715.576 397.927  33
  -4 -10  -5 991.731 688.518  32
   4  10   6 1359.66 394.362  39
  -4 -10  -6 761.392 339.688  33
  -4 -10  -6 1671.95 623.365  32
   4  10   7 4500.01 641.496  39
  -4 -10  -7 2750.30 559.576  33
  -4 -10  -7 3266.73 645.338  32
   4  10   8 2407.95 408.872  39
  -4 -10  -8 1945.68 461.363  33
  -4 -10  -8 2477.17 574.183  32
   4  10   9-82.9632 186.898  39
   4  10  10 296.713 253.778  39
   4  11  -1-321.129 303.898  47
  -4 -11   0 1141.00 407.366  33
   4  11   0 606.408 310.363  58
   4  11   0 512.701 309.049  47
  -4 -11  -1 414.652 306.343  33
   4  11   1 1143.01 400.387  47
   4  11   2 1371.31 515.918  47
   4  11   3 6859.00 694.157  47
  -4 -11  -5 4692.55 640.745  32
  -5   5   5 2142.53 347.352  42
  -5   5   5 3065.56 452.310  26
  -5   5   4 1724.82 325.230  42
  -5   5   4 2857.87 582.560  26
   5  -5  -4 2798.00 403.829  22
  -5   5   3 7217.08 628.701  42
  -5   5   3 7782.16 773.475  56
  -5   5   2 1172.95 450.943  42
  -5   5   2 1737.55 633.008  56
   5  -5  -2 1784.65 555.643  22
  -5   5   1 6591.66 734.978  56
   5  -5  -1 8327.44 670.811  22
  -5   5   0-16.1512 351.519  42
  -5   5   0 343.711 532.392  56
  -5   5  -1 982.059 316.942  56
   5  -5   1 1764.85 421.853  22
  -5   5  -2 511.679 322.382  56
   5  -5   2 1401.46 377.667  22
  -5   5  -3 922.823 353.842  56
   5  -5   3 1944.19 402.566  22
  -5   5  -4 1097.14 325.687  56
  -5   4   8 4634.21 573.917  26
  -5   4   7 11490.6 885.026  26
   5  -4  -7 15900.4 893.073  22
  -5   4   6 744.401 419.803  56
  -5   4   6 1059.23 405.262  26
   5  -4  -6 1524.88 395.374  22
  -5   4   5 5436.73 748.969  56
  -5   4   5 5108.20 673.166  26
  -5   4   4 24475.1 1573.12  56
  -5   4   4 26373.6 1520.69  26
  -5   4   3 11633.7 1286.97  56
  -5   4   3 11965.3 1136.45  26
   5  -4  -3 12867.1 996.756  22
  -5   4   2 11659.5 1364.96  56
  -5   4   2 11046.6 1117.39  26
   5  -4  -2 13291.7 1079.99  22
  -5   4   1 5692.84 774.201  42
  -5   4   1 5912.13 1066.54  56
  -5   4   1 4208.28 685.001  26
  -5   4   0 2590.72 545.262  42
  -5   4   0 2572.07 740.164  56
  -5   4   0 1815.58 631.459  27
  -5   4   0 1713.52 434.233  26
   5  -4   0 3077.35 686.360  22
  -5   4  -1-186.169 291.927  42
  -5   4  -1 695.858 488.484  56
  -5   4  -1-406.283 251.399  27
  -5   4  -1 292.100 232.359  26
   5  -4   1 275.711 464.939  22
  -5   4  -2 1201.01 614.253  56
  -5   4  -2 766.564 402.384  27
   5  -4   2 734.039 370.823  22
  -5   4  -3 72.0095 410.906  56
  -5   4  -3-27.9204 259.233  27
   5  -4   3 483.483 350.637  22
  -5   4  -4 2909.63 638.550  27
   5  -4   4 2934.60 475.672  22
  -5   4  -5-35.0173 305.279  56
  -5   4  -5 254.039 287.445  27
  -5   4  -6 3398.94 562.762  56
  -5   4  -6 4204.59 561.719  27
  -5   4  -7 737.135 336.064  56
  -5   4  -7-353.924 318.020  27
  -5   4  -8-394.008 218.641  27
  -5   3  10 5045.17 592.300  26
   5  -3  -9 135.747 244.939  28
  -5   3   9 838.615 350.031  26
   5  -3  -8 3937.08 541.944  28
  -5   3   8 2929.30 606.555  56
  -5   3   8 2919.75 512.945  26
   5  -3  -7 17398.3 1134.18  28
  -5   3   7 13361.1 1166.50  56
  -5   3   7 15413.1 1249.11  26
   5  -3  -6 12524.7 1034.37  28
  -5   3   6 10106.8 1101.26  56
  -5   3   6 9235.10 1075.14  26
   5  -3  -5 12262.1 1089.23  28
  -5   3   5 10911.2 1132.98  26
   5  -3  -4 1852.46 365.479  28
  -5   3   4 1263.43 416.846  56
  -5   3   4 1582.04 505.768  27
  -5   3   4 2292.56 611.654  26
   5  -3  -4 3117.89 556.735  22
  -5   3   3 3476.78 848.186  56
  -5   3   3 3131.89 840.649  27
  -5   3   3 3799.02 802.810  26
  -5   3   2 2184.83 661.620  56
  -5   3   2 1965.12 634.766  27
  -5   3   2 3153.91 752.492  26
  -5   3   1 594.100 446.159  56
  -5   3   1-76.9870 461.307  27
  -5   3   1 467.069 384.492  26
   5  -3  -1 292.882 381.521  22
  -5   3   0 811.356 620.159  56
  -5   3   0 676.601 434.046  27
  -5   3   0 641.231 444.345  26
   5  -3   0 740.178 406.120  22
  -5   3  -1 2744.96 832.061  56
  -5   3  -1 2337.03 733.446  27
  -5   3  -1 2117.31 472.367  26
   5  -3   1 2659.76 570.848  22
  -5   3  -2 694.603 459.872  56
  -5   3  -2 247.154 352.302  27
  -5   3  -2-103.531 373.318  26
   5  -3   2-85.5038 325.583  22
  -5   3  -3-369.400 394.150  56
  -5   3  -3-111.274 430.845  27
  -5   3  -3 38.6047 279.072  26
   5  -3   3-37.1957 310.040  22
  -5   3  -4 1.35134 334.456  27
   5  -3   4 307.767 353.139  22
  -5   3  -5 243.195 439.783  56
  -5   3  -5 420.283 439.865  27
   5  -3   5 1132.57 501.590  22
  -5   3  -6 377.560 345.468  56
  -5   3  -6-33.2346 371.457  27
   5  -3   6 544.087 327.836  22
  -5   3  -7 7151.19 827.378  56
  -5   3  -7 8677.29 1010.32  27
  -5   3  -8-256.003 251.403  56
  -5   3  -8 24.1598 219.948  27
  -5   3  -9 622.050 281.870  27
   5  -3   9 583.624 242.286  22
  -5   3 -10 598.338 217.954  27
   5  -2 -11 4692.22 539.673  28
   5  -2 -11 3062.76 380.317  51
   5  -2 -10 203.731 244.875  28
   5  -2 -10 169.788 219.047  51
   5  -2  -9 92.1206 242.138  28
  -5   2   9 383.972 401.016  56
   5  -2  -8 2254.82 509.992  28
  -5   2   8 2895.40 709.638  56
   5  -2  -7 7529.72 964.147  28
  -5   2   7 7076.76 950.117  27
   5  -2  -6 171.723 489.658  28
  -5   2   6 424.316 397.968  27
   5  -2  -6-6.30323 358.380  22
   5  -2  -5-36.3685 320.302  28
  -5   2   5 251.578 401.237  27
   5  -2  -5 639.216 326.395  22
   5  -2  -4 6026.50 874.714  28
  -5   2   4 4101.54 1007.59  56
  -5   2   4 6292.80 1107.33  27
   5  -2  -3 2460.02 686.575  28
  -5   2   3 2012.11 730.673  56
  -5   2   3 1862.24 592.222  27
   5  -2  -3 3922.50 674.842  22
   5  -2  -2 22297.4 1509.02  22
   5  -2  -1 1041.67 347.727  21
  -5   2   1 1137.50 716.664  56
  -5   2   1 1045.92 677.255  27
  -5   2   1 1355.36 580.095  26
   5  -2  -1 2386.27 739.578  22
   5  -2   0 1679.85 783.826  21
  -5   2   0 1902.75 768.300  56
  -5   2   0 1719.76 676.770  27
  -5   2   0 2191.50 695.574  26
   5  -2   0 2270.92 641.022  22
   5  -2   1 1854.14 724.050  21
  -5   2  -1 1005.48 659.828  56
  -5   2  -1 658.161 528.609  27
  -5   2  -1 1394.33 515.867  26
   5  -2   1 1545.80 601.813  22
   5  -2   2 191.587 406.266  22
   5  -2   2 217.979 470.364  21
  -5   2  -2-727.909 538.467  56
  -5   2  -2-60.6017 422.649  27
  -5   2  -2 348.102 338.568  26
   5  -2   3 245.627 460.343  22
   5  -2   3-399.024 423.738  21
  -5   2  -3 220.582 429.197  56
  -5   2  -3 311.741 538.778  27
  -5   2  -3 80.7031 302.168  26
  -5   2  -4 5557.63 955.984  56
  -5   2  -4 5763.94 1106.94  27
  -5   2  -4 5354.49 917.579  26
   5  -2   4 7250.55 995.718  22
   5  -2   5 95.2718 303.949  22
  -5   2  -5 458.333 384.480  56
  -5   2  -5-11.5232 304.294  27
   5  -2   6 4930.25 687.000  22
  -5   2  -6 5521.19 917.052  56
  -5   2  -6 4304.05 875.860  27
   5  -2   7-22.5788 315.146  22
  -5   2  -7-299.353 344.547  56
  -5   2  -7 289.870 322.149  27
   5  -2   8 3205.34 573.261  22
  -5   2  -8 1610.90 495.599  56
  -5   2  -8 2712.64 546.893  27
   5  -2   9 919.630 365.018  22
  -5   2  -9 415.969 249.441  27
   5  -2  10-173.978 227.103  22
  -5   2 -10 700.537 333.756  27
  -5   2 -11 7751.68 764.640  27
   5  -2  11 10906.9 681.407  22
   5  -1 -12 5326.95 591.568  28
   5  -1 -12 3727.90 428.094  51
   5  -1 -11 3252.26 565.056  28
   5  -1 -11 2950.61 445.584  51
   5  -1 -10 5376.34 704.294  28
   5  -1 -10 5017.44 578.724  51
   5  -1  -9 397.447 373.873  28
  -5   1   9 499.971 369.128  27
   5  -1  -9-14.9042 196.822  51
   5  -1  -8 2826.83 651.116  28
  -5   1   8 2678.46 705.249  27
   5  -1  -8 3113.30 493.210  51
   5  -1  -7 5536.19 888.345  28
  -5   1   7 4225.33 945.204  27
   5  -1  -7 4882.27 651.945  51
   5  -1  -6-121.752 362.752  28
  -5   1   6-3.51399 450.521  27
   5  -1  -6-70.2405 303.688  51
  -5   1   5 1474.79 786.604  27
   5  -1  -4 1669.27 631.222  21
  -5   1   4 1041.68 295.904  20
  -5   1   4 733.800 694.902  27
   5  -1  -4 2812.66 555.388  22
   5  -1  -3 767.064 606.692  21
  -5   1   3 213.228 420.838  20
  -5   1   3 1168.55 614.604  27
   5  -1  -3 1287.96 522.433  22
   5  -1  -2 902.223 657.243  21
  -5   1   2 922.999 521.899  20
  -5   1   2 907.205 532.728  27
   5  -1  -2 880.329 389.016  22
   5  -1  -1 349.820 559.834  21
  -5   1   1 658.026 615.028  20
  -5   1   1 6.21596 411.015  27
   5  -1  -1 286.509 446.608  22
   5  -1   0 480.535 408.375  21
  -5   1   0 636.096 404.576  20
  -5   1   0 780.943 673.385  27
   5  -1   0 327.315 420.613  22
   5  -1   1 3276.03 694.674  22
   5  -1   1 1994.16 698.122  21
  -5   1  -1 2220.57 842.549  56
  -5   1  -1 1904.29 870.368  27
  -5   1  -1 2596.87 764.427  26
   5  -1   2-266.431 451.866  22
   5  -1   2-71.9906 444.557  21
  -5   1  -2 131.850 551.598  56
  -5   1  -2 303.076 466.876  27
  -5   1  -2 350.392 293.387  26
   5  -1   3 6904.58 1167.19  21
  -5   1  -3 4170.38 977.685  56
  -5   1  -3 4172.05 1023.76  27
  -5   1  -3 5315.57 885.932  26
   5  -1   3 5341.83 899.310  22
   5  -1   4 658.761 533.278  22
   5  -1   4 345.475 325.396  21
   5  -1   4 1274.52 621.354  37
  -5   1  -4 115.944 477.468  56
  -5   1  -4 877.990 625.142  27
   5  -1   5 832.407 530.759  22
   5  -1   5 604.279 437.518  21
   5  -1   5 1117.48 540.081  37
  -5   1  -5 527.620 521.925  56
  -5   1  -5 910.637 620.934  27
   5  -1   6 1285.32 574.099  37
  -5   1  -6 73.2159 502.966  57
  -5   1  -6 613.260 467.392  56
  -5   1  -6 1157.30 495.578  27
   5  -1   7 2910.72 704.032  37
  -5   1  -7 1207.66 449.041  57
  -5   1  -7 2336.99 657.244  56
  -5   1  -7 3551.85 751.881  27
   5  -1   7 3053.04 724.232  52
   5  -1   7 3234.90 650.293  23
   5  -1   8 12617.7 1407.80  37
  -5   1  -8 14490.2 1453.77  27
   5  -1   8 16271.7 1412.68  23
   5  -1   9 1718.06 543.433  37
  -5   1  -9 2429.46 688.184  27
   5  -1   9 2579.97 634.248  23
   5  -1  10 259.855 287.684  37
  -5   1 -10 385.931 342.102  57
  -5   1 -10 46.8147 352.777  27
   5  -1  10 363.394 348.874  23
   5  -1  11 847.850 286.092  22
   5  -1  11 1026.81 467.062  37
  -5   1 -11 1196.31 378.000  27
   5  -1  11 775.221 332.181  23
   5  -1  12 3186.74 429.403  22
   5  -1  12 3302.19 595.160  37
  -5   1 -12 2799.12 478.816  27
   5  -1  12 3934.31 572.389  23
   5  -1  13 410.151 253.493  22
  -5   1 -13 343.540 188.223  27
   5  -1  13 91.2506 229.092  23
   5   0 -13 5718.31 550.853  51
   5   0 -12 5232.26 622.469  28
   5   0 -12 4161.67 508.717  51
   5   0 -11 6344.29 793.002  28
   5   0 -11 4631.55 564.778  51
   5   0 -10-477.516 323.863  28
   5   0 -10 386.578 234.251  51
   5   0  -9 916.479 519.001  28
   5   0  -9 508.007 310.692  51
   5   0  -8-150.480 417.671  28
   5   0  -8-233.064 354.540  51
   5   0  -7 159.699 384.555  28
   5   0  -7 438.450 328.785  51
  -5   0   6 1446.67 529.305  20
   5   0  -6 1449.16 452.387  51
   5   0  -5 42.7777 333.644  21
  -5   0   5-80.1516 408.722  20
   5   0  -5-380.192 262.792  51
   5   0  -4 636.175 515.785  21
  -5   0   4 733.259 538.046  20
   5   0  -4 911.155 397.956  51
   5   0  -3 15872.4 1881.97  21
  -5   0   3 13692.1 1515.19  20
  -5   0   3 15963.0 1812.40  50
   5   0  -3 19107.9 1302.15  22
   5   0  -2 3034.79 810.795  21
  -5   0   2 1687.34 799.448  20
  -5   0   2 1436.82 795.142  27
  -5   0   2 1498.82 879.254  50
   5   0  -2 4103.85 708.865  22
   5   0  -1 3943.30 1020.23  21
  -5   0   1 2789.03 875.625  20
  -5   0   1 2563.78 950.761  27
  -5   0   1 2888.67 1258.72  50
   5   0  -1 4870.76 754.799  22
   5   0   0 6947.05 1412.73  21
  -5   0   0 6391.85 1081.34  20
  -5   0   0 6114.55 1225.23  27
  -5   0   0 5940.72 1566.27  50
   5   0   0 7821.15 968.724  22
   5   0   1 2111.45 569.239  22
   5   0   1 1839.37 635.390  21
  -5   0  -1 1235.88 600.509  20
  -5   0  -1 2389.41 905.502  27
  -5   0  -1 1599.79 918.489  50
   5   0   2-169.114 330.031  22
   5   0   2 559.734 360.208  21
  -5   0  -2 131.992 387.376  20
  -5   0  -2 93.3751 355.462  27
   5   0   3 2010.14 744.838  21
  -5   0  -3 1796.89 638.572  20
  -5   0  -3 1511.71 490.336  56
   5   0   3 1541.57 390.593  52
  -5   0  -3 1382.67 569.551  27
   5   0   4 22421.1 2237.94  21
   5   0   4 24169.2 1990.84  37
  -5   0  -4 16343.7 1667.51  57
  -5   0  -4 20750.4 2013.52  27
   5   0   4 24083.6 2085.50  52
   5   0   5 3026.18 905.670  21
   5   0   5 2235.95 694.736  37
  -5   0  -5 647.065 562.856  57
  -5   0  -5 512.558 438.396  56
  -5   0  -5 1761.40 340.743  27
   5   0   5 2644.49 759.239  52
   5   0   6 1408.28 636.593  21
   5   0   6 962.361 506.885  37
  -5   0  -6 727.007 704.708  57
  -5   0  -6 1405.08 617.846  27
   5   0   6 687.653 528.543  52
   5   0   7 4775.03 892.244  21
   5   0   7 6536.80 1114.11  37
  -5   0  -7 5890.41 973.268  27
   5   0   7 6078.46 1049.18  52
   5   0   8 4125.80 803.710  21
   5   0   8 5122.53 955.118  37
  -5   0  -8 2867.70 821.427  57
  -5   0  -8 5091.44 910.248  27
   5   0   8 4907.68 1009.58  52
   5   0   9 11717.1 1348.75  37
  -5   0  -9 11394.8 1217.83  27
   5   0   9 10107.7 1315.82  52
   5   0   9 12709.6 1269.96  23
   5   0  10 848.151 467.426  37
  -5   0 -10 995.360 522.418  57
  -5   0 -10 1091.25 464.741  27
   5   0  10 1019.14 510.632  52
   5   0  10 472.806 277.726  23
   5   0  11 21729.6 1726.68  37
  -5   0 -11 20020.3 1407.47  27
   5   0  11 21207.3 1722.83  52
   5   0  11 22851.5 1563.40  23
   5   0  12 136.491 221.307  37
  -5   0 -12 366.788 401.229  57
  -5   0 -12-96.6799 181.633  27
   5   0  12 236.078 308.738  52
   5   0  12 66.1045 227.953  23
   5   0  13 1063.75 363.362  37
  -5   0 -13 964.357 268.907  27
  -5   0 -13 354.519 251.210  54
   5   0  13 1525.36 351.176  23
   5   0  14 1547.52 331.276  22
   5   0  14 1058.69 307.979  37
   5   1 -13 2792.22 417.274  51
   5   1 -12 17.8988 222.203  28
   5   1 -12 284.811 206.716  51
   5   1 -11 269.127 322.533  28
   5   1 -11 258.705 231.553  51
   5   1 -10 288.740 331.370  28
   5   1 -10-80.0295 330.450  51
   5   1  -9 0.21820 370.678  28
   5   1  -9 88.6229 218.649  51
  -5  -1   8 61.1724 476.158  20
   5   1  -8 898.525 509.109  28
   5   1  -8 424.474 365.561  51
  -5  -1   7 1265.85 432.424  20
   5   1  -7 575.173 339.865  51
   5   1  -6 2020.71 772.626  21
  -5  -1   6 636.983 509.260  20
   5   1  -6 1172.30 448.737  51
   5   1  -5 754.741 568.215  21
  -5  -1   5 590.389 306.625  20
  -5  -1   5 1290.09 491.520  31
   5   1  -5 254.722 393.883  51
  -5  -1   5 415.256 569.276  50
   5   1  -4 19091.4 2036.67  21
  -5  -1   4 14008.2 1890.37  50
   5   1  -3 32216.3 2707.80  21
  -5  -1   3 33988.6 2101.33  31
   5   1  -2 11431.4 1660.71  21
  -5  -1   2 10296.0 1378.22  20
  -5  -1   2 13242.5 1343.08  31
   5   1  -2 7813.32 1003.36  51
  -5  -1   2 10593.1 1862.99  50
   5   1  -1 840.669 489.729  21
  -5  -1   1 504.488 339.327  20
  -5  -1   1 1047.92 615.543  31
  -5  -1   1 879.854 626.801  27
  -5  -1   1 827.989 907.464  50
   5   1   0 20418.7 2157.95  21
  -5  -1   0 17116.1 1724.56  20
  -5  -1   0 18314.6 1761.58  31
   5   1   0 17213.0 1487.03  22
   5   1   1 14001.4 1757.94  21
  -5  -1  -1 11700.8 1465.42  20
  -5  -1  -1 10765.4 1399.16  31
   5   1   1 11317.9 1215.50  22
   5   1   2 207.186 477.228  21
  -5  -1  -2-23.3685 406.195  20
  -5  -1  -2-323.327 491.565  57
   5   1   2-394.717 451.395  52
  -5  -1  -2-411.950 574.938  27
  -5  -1  -2-534.757 816.353  50
   5   1   3 12194.9 1708.06  21
  -5  -1  -3 13711.9 1428.06  20
  -5  -1  -3 6507.09 1147.50  57
  -5  -1  -3 9567.54 1409.78  27
   5   1   3 12624.2 1458.09  52
  -5  -1  -3 9210.69 1633.02  50
   5   1   4 1028.81 534.598  21
  -5  -1  -4 1185.84 509.680  20
  -5  -1  -4 302.234 576.486  57
  -5  -1  -4 812.876 447.761  56
  -5  -1  -4 1598.61 736.138  27
   5   1   4 2351.35 640.681  52
  -5  -1  -4 227.651 587.237  50
   5   1   5 15946.8 1942.78  21
   5   1   5 22287.5 1873.56  37
  -5  -1  -5 11476.4 1623.96  57
  -5  -1  -5 14152.8 1712.61  27
   5   1   5 22249.3 1986.04  52
   5   1   5 17547.2 1972.55  24
   5   1   6 19341.2 2058.79  21
   5   1   6 23075.8 1979.46  37
  -5  -1  -6 12785.2 1589.71  57
  -5  -1  -6 16631.5 1810.25  27
   5   1   6 23033.7 2086.27  52
   5   1   6 19978.8 2106.13  24
   5   1   7 17312.2 1852.16  21
   5   1   7 20604.0 1868.99  37
  -5  -1  -7 12464.5 1672.70  27
   5   1   7 19470.3 1966.90  52
   5   1   7 17943.5 1960.10  24
   5   1   8 647.581 430.611  21
   5   1   8 1646.54 558.279  37
  -5  -1  -8 1574.00 692.187  57
  -5  -1  -8 958.535 538.174  27
   5   1   8 1759.65 682.152  52
   5   1   8 1724.21 667.177  24
   5   1   9 2490.55 608.640  21
   5   1   9 2847.99 728.533  37
  -5  -1  -9 1751.16 773.694  57
  -5  -1  -9 847.714 431.652  27
   5   1   9 3010.74 860.111  52
   5   1   9 2368.42 776.474  24
   5   1  10 2951.73 615.998  21
   5   1  10 3280.73 766.284  37
  -5  -1 -10 2134.24 771.096  57
  -5  -1 -10 2770.61 575.462  27
   5   1  10 3086.06 761.762  52
   5   1  10 2591.40 720.589  24
   5   1  11-27.4485 349.642  37
  -5  -1 -11-20.0482 380.424  57
  -5  -1 -11-334.525 353.670  27
   5   1  11-117.520 272.626  52
   5   1  11 193.050 216.299  24
   5   1  11-177.660 239.602  23
   5   1  12 941.310 307.782  37
  -5  -1 -12 988.918 456.778  57
  -5  -1 -12 454.665 310.056  27
   5   1  12 1205.79 522.523  52
   5   1  12 948.985 480.093  24
   5   1  12 976.973 346.653  23
   5   1  13 615.527 367.706  37
  -5  -1 -13-12.1405 315.860  57
   5   1  13 481.739 329.058  52
   5   1  13 217.409 295.493  24
   5   1  13 354.191 257.456  23
   5   1  14 2509.06 526.642  37
   5   1  14 1964.65 437.626  52
   5   1  14 3064.07 461.823  23
   5   2 -13 5412.77 543.535  51
   5   2 -12 3694.00 548.355  28
   5   2 -12 2466.42 431.180  51
   5   2 -11 7707.01 811.289  28
   5   2 -11 6125.85 715.976  51
   5   2 -10 3815.91 667.753  28
   5   2 -10 4407.37 682.137  51
  -5  -2   9-135.552 369.080  31
   5   2  -9 658.056 328.877  28
   5   2  -9 95.1116 286.097  51
  -5  -2   8 167.486 347.299  31
   5   2  -8 283.517 312.183  28
   5   2  -8 764.540 454.057  51
  -5  -2   7 70.4691 278.261  31
   5   2  -7-290.904 412.789  51
   5   2  -6 470.934 392.869  21
  -5  -2   6 34.1815 419.550  31
   5   2  -6 81.2801 386.881  51
  -5  -2   6-214.364 755.040  50
   5   2  -5 7280.77 1203.57  21
  -5  -2   5 4757.74 889.069  31
   5   2  -5 3447.86 785.395  51
  -5  -2   5 4927.14 1334.37  50
   5   2  -4 1346.95 529.830  21
  -5  -2   4 1746.47 486.714  31
   5   2  -4 1510.70 682.784  51
  -5  -2   4 1627.13 887.830  50
   5   2  -3 23284.8 2207.03  21
  -5  -2   3 25056.3 1941.94  31
  -5  -2   3 20656.7 2364.56  50
   5   2  -2 22448.7 2351.31  21
  -5  -2   2 19614.0 1745.02  20
  -5  -2   2 25340.5 2002.41  31
  -5  -2   2 19210.7 2443.99  50
   5   2  -1 1395.23 625.016  21
  -5  -2   1 399.412 432.722  20
  -5  -2   1 452.710 459.538  31
  -5  -2   1 539.887 880.003  57
  -5  -2   1 370.247 942.037  50
   5   2   0 33958.5 2861.38  21
  -5  -2   0 33981.1 2429.05  20
  -5  -2   0 36099.2 2566.28  31
  -5  -2   0 30127.6 2671.75  57
   5   2   1 143.448 342.700  21
  -5  -2  -1 697.507 475.976  20
  -5  -2  -1-105.559 348.680  31
  -5  -2  -1 5.99405 442.171  57
  -5  -2  -1 621.783 404.293  27
  -5  -2  -1 99.0895 570.707  50
   5   2   2 1459.21 611.879  21
  -5  -2  -2 1568.61 355.247  20
  -5  -2  -2 718.612 604.778  31
  -5  -2  -2 89.4266 683.764  57
  -5  -2  -2 1244.84 694.580  27
  -5  -2  -2 1254.42 801.121  50
   5   2   3 12424.5 1652.38  21
  -5  -2  -3 11952.6 1450.77  20
  -5  -2  -3 14826.6 1461.62  31
  -5  -2  -3 8368.29 1541.35  57
   5   2   3 14602.9 1601.34  52
  -5  -2  -3 12693.7 1903.33  50
   5   2   4 40036.3 2997.96  21
  -5  -2  -4 44572.1 2602.93  20
   5   2   4 40527.6 2848.41  52
  -5  -2  -4 46402.3 3345.12  50
   5   2   4 41763.2 2917.23  24
   5   2   5 8458.32 1422.34  21
   5   2   5 8171.53 1363.00  38
  -5  -2  -5 2539.56 1119.99  57
  -5  -2  -5 5467.40 1099.56  27
  -5  -2  -5 4602.82 1464.33  50
   5   2   5 9455.66 1451.41  24
   5   2   6 2742.04 805.182  21
   5   2   6 3002.63 823.218  38
  -5  -2  -6 2024.89 679.897  57
  -5  -2  -6 2249.14 756.691  27
   5   2   6 3790.83 911.718  24
   5   2   7 7918.33 1296.29  21
   5   2   7 8479.29 1345.33  38
  -5  -2  -7 4570.61 1230.87  57
  -5  -2  -7 4038.53 801.519  27
   5   2   7 8929.57 1402.94  24
   5   2   8 4155.11 913.593  21
   5   2   8 5302.22 1062.20  38
  -5  -2  -8 2975.21 863.500  57
  -5  -2  -8 2323.85 682.691  27
   5   2   8 5172.94 1082.45  24
   5   2   9 8326.94 1282.24  21
   5   2   9 7879.73 1229.74  38
  -5  -2  -9 5567.72 1069.33  57
  -5  -2  -9 5575.56 913.859  27
   5   2   9 8320.43 1369.61  24
   5   2  10 1573.00 559.164  21
   5   2  10 1665.30 612.045  38
  -5  -2 -10 1295.64 586.883  57
   5   2  10 546.460 307.255  24
   5   2  11 126.397 313.506  21
   5   2  11 764.855 425.001  38
  -5  -2 -11 316.372 574.044  57
   5   2  11 706.078 532.065  52
   5   2  11 437.935 421.615  24
  -5  -2 -12 1024.16 477.761  57
   5   2  12 2326.35 575.248  52
   5   2  12 2683.99 676.925  24
   5   2  13 642.498 247.583  37
  -5  -2 -13 1408.03 481.421  57
   5   2  13 634.372 257.878  52
   5   2  13 919.495 428.188  24
   5   2  14 2363.36 546.947  37
  -5  -2 -14 2760.26 586.727  57
   5   2  14 2405.83 463.560  52
   5   2  14 3045.19 658.846  24
   5   3 -13 483.802 190.394  51
   5   3 -12 602.542 298.370  51
  -5  -3  11 427.318 217.277  31
   5   3 -11 425.545 309.305  51
   5   3 -11 547.576 392.942  44
   5   3 -10 3198.46 526.991  28
   5   3 -10 2903.85 517.855  51
   5   3  -9 757.214 436.961  28
   5   3  -9 492.360 263.656  51
   5   3  -8-199.435 330.548  28
   5   3  -8-233.661 362.407  51
  -5  -3   8 140.598 482.143  50
   5   3  -7-58.5869 258.120  51
  -5  -3   7-208.906 458.409  50
   5   3  -6 6291.92 1115.74  21
   5   3  -6 3447.39 721.800  51
  -5  -3   6 6101.47 1166.12  50
   5   3  -5 1294.92 571.997  21
  -5  -3   5 430.419 563.774  50
   5   3  -4 428.649 281.059  21
  -5  -3   4 360.976 337.980  31
  -5  -3   4-166.510 561.633  57
  -5  -3   4-100.225 516.996  50
   5   3  -3 18150.6 2072.85  21
  -5  -3   3 15793.1 1710.92  31
  -5  -3   3 20821.1 2347.23  50
   5   3  -2 5176.16 1034.06  21
  -5  -3   2 5204.85 858.300  31
  -5  -3   2 3552.65 1086.19  57
  -5  -3   2 3325.62 1237.48  50
   5   3  -1 1392.71 616.382  21
  -5  -3   1 707.444 525.756  31
  -5  -3   1 281.540 448.769  57
  -5  -3   1 972.681 813.966  50
   5   3   0 124.397 513.740  21
  -5  -3   0 396.160 373.351  20
  -5  -3   0-105.533 372.575  31
  -5  -3   0 113.558 581.595  57
  -5  -3   0-163.159 514.292  50
   5   3   1 8782.69 1407.33  21
  -5  -3  -1 8935.77 1312.97  20
  -5  -3  -1 8061.95 1292.58  31
  -5  -3  -1 5485.64 1514.55  57
  -5  -3  -1 5340.21 1173.72  27
  -5  -3  -1 6859.69 1654.00  50
   5   3   2 1878.02 672.276  21
   5   3   2 2278.23 704.183  39
  -5  -3  -2 1738.22 657.043  20
  -5  -3  -2 2101.64 749.213  31
  -5  -3  -2 691.528 747.684  57
  -5  -3  -2 1870.16 646.442  27
  -5  -3  -2 2741.66 985.346  50
   5   3   3 10480.7 1636.39  21
   5   3   3 9740.76 1460.69  39
  -5  -3  -3 10283.5 1244.72  20
  -5  -3  -3 11554.0 1384.60  31
  -5  -3  -3 5451.93 1078.95  27
  -5  -3  -3 10408.8 1695.63  50
   5   3   4 5034.61 1034.94  39
   5   3   4 4005.10 830.483  21
   5   3   4 5477.39 1037.80  38
  -5  -3  -4 4646.38 873.055  20
  -5  -3  -4 6270.92 1041.86  31
  -5  -3  -4 6716.37 1265.52  57
  -5  -3  -4 2678.28 775.136  27
  -5  -3  -4 5003.00 1332.72  50
   5   3   4 5101.98 1024.63  24
   5   3   5 6533.34 1084.40  39
   5   3   5 6090.26 1149.41  21
   5   3   5 6392.74 1074.24  38
  -5  -3  -5 4919.72 936.091  20
  -5  -3  -5 3256.60 1135.00  57
  -5  -3  -5 2489.74 574.287  27
  -5  -3  -5 6257.95 1305.19  50
   5   3   5 6846.10 1207.05  24
   5   3   6 20177.2 2131.86  21
   5   3   6 18954.7 2011.09  39
   5   3   6 20801.1 2086.98  38
  -5  -3  -6 19819.3 2074.87  57
  -5  -3  -6 19795.2 2265.74  50
   5   3   6 23019.5 2184.69  24
   5   3   7 16583.9 2025.02  21
   5   3   7 16442.1 1878.02  39
   5   3   7 20300.8 2042.26  38
  -5  -3  -7 15629.5 1447.24  33
  -5  -3  -7 14861.4 1779.87  57
   5   3   7 20195.2 2037.21  24
   5   3   8 2861.29 690.819  39
   5   3   8 4528.16 986.825  21
   5   3   8 3558.08 924.555  38
  -5  -3  -8 3113.03 673.818  33
  -5  -3  -8 2969.07 796.012  57
   5   3   8 4240.50 972.139  24
   5   3   9 948.673 345.159  39
   5   3   9 733.362 362.400  21
   5   3   9 1082.95 470.894  38
  -5  -3  -9 618.893 466.003  33
  -5  -3  -9 2357.59 927.775  57
   5   3   9 1230.87 538.857  24
   5   3  10 1623.67 446.772  39
   5   3  10 1321.03 499.046  21
   5   3  10 2449.93 818.390  38
  -5  -3 -10 1048.61 346.928  33
  -5  -3 -10 1279.06 503.783  57
   5   3  10 2013.64 653.962  24
   5   3  11 786.197 404.154  21
   5   3  11 949.969 445.980  38
  -5  -3 -11 944.018 547.741  57
   5   3  11 915.433 453.588  24
   5   3  12 118.865 203.072  21
   5   3  12 278.010 296.295  38
  -5  -3 -12-20.4115 372.742  57
   5   3  12 140.339 351.603  24
   5   3  13 2578.09 435.062  21
   5   3  13 3292.60 644.246  38
  -5  -3 -13 3142.68 579.890  57
   5   3  13 1961.91 554.551  52
   5   3  13 3210.80 712.175  24
  -5  -3 -14 2001.59 501.893  57
   5   3  14 1758.96 465.439  52
   5   3  14 2467.80 613.397  24
   5   3  15 122.296 197.307  37
   5   3  15 545.602 242.342  52
   5   3  15 877.041 319.248  24
  -5  -4  12 3512.15 483.543  31
   5   4 -12 1536.74 361.937  51
   5   4 -11 5370.20 698.539  51
   5   4 -10 306.736 231.848  51
   5   4  -9 198.111 371.138  51
   5   4  -8 694.624 344.145  51
  -5  -4   7 4731.27 964.165  57
   5   4  -7 2555.59 649.352  51
  -5  -4   6 279.624 463.879  57
   5   4  -5 519.240 299.889  21
  -5  -4   5 180.233 398.599  57
   5   4  -4 8238.89 1211.94  21
  -5  -4   4 4685.54 1308.48  57
   5   4  -3 6946.07 1104.45  21
  -5  -4   3 8465.63 1171.46  31
  -5  -4   3 6409.99 1343.50  57
   5   4  -2 378.347 388.064  21
  -5  -4   2-128.201 445.769  31
  -5  -4   2 306.102 450.876  57
   5   4  -1 1799.23 671.172  21
  -5  -4   1 1694.73 552.092  31
  -5  -4   1 837.351 615.795  57
   5   4   0 5803.48 1196.01  21
  -5  -4   0 6053.22 1116.42  31
  -5  -4   0 7758.08 1412.52  57
  -5  -4   0 4580.97 1320.27  50
   5   4   1 782.072 590.215  21
   5   4   1 1774.24 562.634  39
  -5  -4  -1 1260.43 623.324  20
  -5  -4  -1 864.217 410.288  31
   5   4   1 1300.12 909.075  58
  -5  -4  -1 1655.55 974.445  57
  -5  -4  -1 1296.76 740.460  27
  -5  -4  -1 836.090 475.522  50
   5   4   2 1373.85 683.310  21
   5   4   2 837.515 613.985  39
  -5  -4  -2 504.694 527.985  20
  -5  -4  -2 1498.15 505.526  31
   5   4   2 635.515 501.125  58
  -5  -4  -2-133.435 619.296  57
  -5  -4  -2 109.395 375.811  27
  -5  -4  -2 648.736 716.406  50
   5   4   3 12725.0 1734.12  21
   5   4   3 14459.4 1783.82  39
   5   4   3 15313.0 1740.83  38
  -5  -4  -3 12171.3 1442.03  20
  -5  -4  -3 10767.5 1286.65  33
  -5  -4  -3 13938.1 1390.99  31
   5   4   3 13567.2 1748.37  58
  -5  -4  -3 8557.57 1646.09  57
  -5  -4  -3 5794.55 1152.87  27
  -5  -4  -3 13063.0 1766.25  50
   5   4   4 2386.13 862.901  39
   5   4   4 2710.56 912.627  21
   5   4   4 2510.20 687.917  38
  -5  -4  -4 1698.52 563.068  20
  -5  -4  -4 1186.33 500.564  33
  -5  -4  -4 2291.39 679.961  31
   5   4   4 3254.14 907.232  58
  -5  -4  -4 1409.95 517.454  57
  -5  -4  -4 615.073 750.238  50
   5   4   5 1016.38 730.176  39
   5   4   5 578.716 501.066  21
   5   4   5 856.504 513.789  38
  -5  -4  -5 603.040 459.280  20
  -5  -4  -5 429.273 434.781  33
  -5  -4  -5 204.440 498.459  57
  -5  -4  -5 407.559 506.373  50
   5   4   5 452.582 403.537  24
   5   4   6 664.001 442.068  39
   5   4   6 149.860 485.481  21
   5   4   6 800.934 524.342  38
  -5  -4  -6-168.663 387.454  20
  -5  -4  -6-330.747 385.909  33
  -5  -4  -6 653.321 626.475  57
  -5  -4  -6 328.459 430.285  50
   5   4   6 948.178 544.081  24
   5   4   7 7625.52 1307.44  21
   5   4   7 9178.96 1442.34  39
   5   4   7 10008.6 1358.19  38
  -5  -4  -7 7325.76 1182.64  33
  -5  -4  -7 6877.64 1400.93  57
  -5  -4  -7 6552.95 1453.19  50
   5   4   7 10121.8 1408.35  24
   5   4   8 5560.02 1043.18  39
   5   4   8 5180.05 1040.89  21
   5   4   8 6663.63 1166.98  38
  -5  -4  -8 5084.86 838.335  33
  -5  -4  -8 4559.04 963.904  57
   5   4   8 6888.82 1160.63  24
   5   4   9 348.555 465.115  39
   5   4   9 564.407 413.370  21
   5   4   9 239.582 478.066  38
  -5  -4  -9 575.552 532.459  33
  -5  -4  -9 1398.96 620.278  57
   5   4   9 713.215 452.350  24
   5   4  10 581.568 280.920  39
   5   4  10 338.889 356.173  21
   5   4  10 56.6370 366.568  38
  -5  -4 -10 475.564 356.263  33
  -5  -4 -10-389.845 413.621  57
   5   4  10 599.460 390.488  24
   5   4  11-9.84144 395.641  39
   5   4  11-23.9127 302.474  21
   5   4  11 573.492 451.938  38
  -5  -4 -11 692.476 441.621  33
  -5  -4 -11 620.389 381.408  57
   5   4  11 210.737 365.259  24
   5   4  12 532.763 384.808  21
   5   4  12-90.7428 293.746  38
  -5  -4 -12 274.622 405.560  57
   5   4  12 500.047 268.726  24
   5   4  13 2369.38 558.329  21
   5   4  13 2459.37 612.856  38
  -5  -4 -13 1340.54 447.537  57
   5   4  13 2844.80 679.011  24
   5   4  14 184.682 249.212  21
   5   4  14-24.6880 228.098  38
  -5  -4 -14 672.469 356.257  57
   5   4  14 431.326 313.980  24
   5   4  15-87.6429 228.296  52
  -5  -5  12 142.242 252.340  31
   5   5 -12 109.509 164.207  51
   5   5 -11 276.428 236.368  51
   5   5 -10 953.134 464.516  51
  -5  -5   9 743.584 496.570  57
   5   5  -9 1013.50 401.454  51
  -5  -5   8 3613.43 842.397  57
   5   5  -8 1390.55 590.036  51
  -5  -5   7 193.838 558.600  57
   5   5  -7 139.968 300.275  51
  -5  -5   6 1430.82 935.736  57
  -5  -5   5 452.553 499.598  57
   5   5  -5 1116.87 434.288  47
  -5  -5   4 935.695 671.112  57
   5   5  -4 21.0988 524.934  47
   5   5  -3 3268.57 710.323  21
  -5  -5   3 2930.77 1174.84  57
   5   5  -2 207.474 356.048  21
  -5  -5   2 1238.05 589.281  31
  -5  -5   2 1389.70 712.704  57
   5   5  -2-8.89446 614.673  47
   5   5  -1 14603.4 1630.24  21
  -5  -5   1 12739.6 1413.22  33
  -5  -5   1 11708.8 1370.17  31
  -5  -5   1 11816.3 1785.80  57
   5   5  -1 16428.8 1633.90  47
   5   5   0 188.310 386.658  21
   5   5   0 871.775 532.448  39
  -5  -5   0-303.232 548.149  33
  -5  -5   0-291.680 394.714  31
   5   5   0-175.278 583.291  58
  -5  -5   0 31.3769 485.232  57
   5   5   1-194.902 445.199  21
   5   5   1 73.8656 508.850  39
  -5  -5  -1 92.7899 355.124  33
  -5  -5  -1-179.637 339.615  31
   5   5   1-146.591 594.142  58
  -5  -5  -1 259.010 482.074  57
  -5  -5  -1 75.3396 431.992  50
   5   5   2 94.4655 356.080  21
   5   5   2 318.414 480.920  39
  -5  -5  -2-574.594 376.074  20
  -5  -5  -2 437.762 378.731  33
  -5  -5  -2 315.041 433.757  31
   5   5   2 64.6175 514.316  58
  -5  -5  -2 790.858 656.918  57
  -5  -5  -2 173.222 555.279  50
   5   5   3 1604.02 669.883  21
   5   5   3 1010.72 607.491  39
   5   5   3 1279.92 639.123  38
  -5  -5  -3 1030.44 423.812  20
  -5  -5  -3 1515.79 591.341  33
  -5  -5  -3 853.442 424.404  31
   5   5   3 675.270 563.529  58
  -5  -5  -3 1675.09 985.990  57
  -5  -5  -3 356.063 640.815  50
   5   5   4 3567.86 988.034  39
   5   5   4 3476.45 1000.90  21
   5   5   4 4693.04 905.980  38
  -5  -5  -4 2724.13 581.514  20
  -5  -5  -4 2180.34 655.273  33
  -5  -5  -4 3241.19 824.605  31
   5   5   4 3344.60 772.102  58
  -5  -5  -4 2878.26 1005.23  57
  -5  -5  -4 3006.99 1024.43  50
   5   5   5 970.357 377.392  39
   5   5   5-48.2123 350.940  21
   5   5   5 305.176 472.263  38
  -5  -5  -5 618.728 536.698  33
   5   5   5 434.890 490.933  58
  -5  -5  -5 1184.73 615.402  57
  -5  -5  -5 180.910 455.552  50
   5   5   6 161.026 449.456  39
   5   5   6-343.444 502.328  21
   5   5   6 140.795 335.999  38
  -5  -5  -6 615.975 618.942  33
   5   5   6 149.115 530.926  58
  -5  -5  -6-395.738 461.951  57
  -5  -5  -6 661.402 624.051  50
   5   5   7 39.7204 387.415  39
   5   5   7-97.6227 282.310  21
   5   5   7-218.232 349.789  38
  -5  -5  -7 608.139 595.675  33
  -5  -5  -7 320.762 547.684  57
  -5  -5  -7 106.219 396.968  50
   5   5   7 457.793 554.603  24
   5   5   8 1535.53 614.546  39
   5   5   8 1348.47 490.867  21
   5   5   8 1612.35 673.535  38
  -5  -5  -8 1212.86 515.059  33
  -5  -5  -8 1168.68 593.766  57
   5   5   8 1877.93 610.382  24
   5   5   9 358.875 391.750  39
   5   5   9 383.241 439.725  21
   5   5   9 77.1700 513.023  38
  -5  -5  -9 743.090 476.731  33
  -5  -5  -9-925.398 657.979  57
   5   5   9 270.235 295.154  24
   5   5  10 14958.5 1668.77  21
   5   5  10 12413.8 1413.69  39
   5   5  10 16137.9 1767.05  38
  -5  -5 -10 13431.6 1410.74  33
  -5  -5 -10 8852.13 1166.17  57
   5   5  10 12955.6 1567.30  24
   5   5  11-445.581 450.382  39
   5   5  11-376.468 269.531  21
   5   5  11 111.784 300.046  38
  -5  -5 -11 339.400 351.553  33
  -5  -5 -11-118.028 358.455  57
   5   5  11-234.900 370.091  24
   5   5  12 156.608 226.684  39
   5   5  12 632.066 453.332  21
   5   5  12 679.065 444.838  38
  -5  -5 -12 122.809 324.695  33
  -5  -5 -12 389.473 295.700  57
   5   5  12 240.578 307.139  24
   5   5  13 4127.55 658.765  21
   5   5  13 4060.69 738.350  38
  -5  -5 -13 1856.42 470.805  57
   5   5  13 3657.53 691.394  24
   5   5  14 6956.40 776.705  21
   5   5  14 6777.48 877.038  38
   5   5  14 7185.13 893.712  24
   5   6 -11 1173.82 302.959  51
  -5  -6  10-58.1725 344.291  57
   5   6 -10 156.532 163.801  51
  -5  -6   9 877.559 327.982  57
   5   6  -9 406.727 284.364  51
  -5  -6   8 90.1349 365.523  57
   5   6  -8 198.293 242.038  51
  -5  -6   7 5699.11 1262.13  57
   5   6  -7 2630.44 588.137  51
  -5  -6   6 78.6441 397.965  33
  -5  -6   6-16.9554 568.142  57
   5   6  -6 564.697 364.434  47
  -5  -6   5 2328.95 619.863  33
  -5  -6   5 2066.69 956.537  57
   5   6  -5 3753.77 845.352  47
  -5  -6   4 8926.02 1171.92  33
  -5  -6   4 7854.01 1435.00  57
  -5  -6   3 13262.3 1532.03  33
  -5  -6   3 15766.4 1550.91  31
  -5  -6   3 9006.58 1677.17  57
   5   6  -3 19867.7 1848.43  47
  -5  -6   2 629.965 534.048  33
  -5  -6   2 1543.17 588.028  31
   5   6  -2 0.38412 441.301  58
  -5  -6   2 318.108 588.345  57
   5   6  -2 257.234 631.081  47
   5   6  -1 3315.06 773.526  21
  -5  -6   1 2660.99 670.752  33
  -5  -6   1 3805.07 744.179  31
   5   6  -1 2990.39 1082.67  58
  -5  -6   1 3405.21 1028.36  57
   5   6  -1 3898.28 703.405  47
   5   6   0 10121.3 1279.49  21
   5   6   0 7686.89 1199.52  39
  -5  -6   0 9029.71 1335.65  33
  -5  -6   0 7398.91 1068.53  31
   5   6   0 7785.95 1325.36  58
  -5  -6   0 6139.48 1383.73  57
   5   6   0 11878.1 1203.42  47
   5   6   1 543.133 411.468  21
   5   6   1 111.265 354.980  39
  -5  -6  -1 310.383 463.911  33
  -5  -6  -1 6.80468 463.772  31
   5   6   1 0.40261 833.208  58
  -5  -6  -1 115.318 635.058  57
   5   6   2 741.155 473.130  21
   5   6   2 884.654 415.911  39
  -5  -6  -2 489.772 316.195  20
  -5  -6  -2 759.760 532.174  33
  -5  -6  -2 450.681 438.058  31
   5   6   2 18.4010 457.985  58
  -5  -6  -2 354.870 516.943  57
  -5  -6  -2 863.743 488.703  50
   5   6   3 3300.10 814.941  21
   5   6   3 3517.02 848.094  39
  -5  -6  -3 3516.76 883.114  33
  -5  -6  -3 1989.60 409.872  31
   5   6   3 2562.33 897.357  58
  -5  -6  -3 2533.02 874.198  57
  -5  -6  -3 3753.55 1020.07  50
   5   6   4 1367.54 638.634  21
   5   6   4 1101.67 392.032  39
  -5  -6  -4 1634.45 585.572  33
  -5  -6  -4 689.083 472.726  31
  -5  -6  -4 1110.09 645.735  57
  -5  -6  -4 723.328 589.538  50
   5   6   5 1660.65 544.116  39
   5   6   5 1802.01 639.651  21
   5   6   5 2577.46 642.466  38
  -5  -6  -5 1861.64 781.465  33
  -5  -6  -5 584.385 465.708  57
  -5  -6  -5 1503.63 600.668  50
   5   6   6 1178.21 593.197  39
   5   6   6 725.338 545.426  21
   5   6   6 1079.63 533.364  38
  -5  -6  -6 283.084 449.202  33
   5   6   6 1447.86 809.142  58
  -5  -6  -6 782.520 480.714  57
  -5  -6  -6 297.844 495.110  50
   5   6   7 6166.18 1261.56  21
   5   6   7 7710.26 1243.77  39
   5   6   7 7555.73 1254.27  38
  -5  -6  -7 7199.26 1122.76  33
   5   6   7 6746.75 779.939  58
  -5  -6  -7 5632.02 1114.20  57
   5   6   8 226.771 313.226  39
   5   6   8 136.822 383.161  21
   5   6   8 764.915 581.608  38
  -5  -6  -8-301.731 349.610  33
  -5  -6  -8-579.436 523.615  57
   5   6   9-106.511 479.642  39
   5   6   9 540.232 422.320  21
   5   6   9-911.654 504.402  38
  -5  -6  -9 368.423 362.902  33
  -5  -6  -9 26.2403 374.784  57
   5   6  10 183.854 263.206  39
   5   6  10 259.952 267.513  21
   5   6  10-513.663 395.415  38
  -5  -6 -10 130.934 305.606  33
  -5  -6 -10 71.2999 295.321  57
   5   6  10 11.6388 225.892  24
   5   6  11 2258.24 593.171  39
   5   6  11 1421.24 471.358  21
   5   6  11 1668.46 536.306  38
  -5  -6 -11 1612.00 534.032  33
  -5  -6 -11 1402.56 456.562  57
   5   6  11 2198.42 531.846  24
   5   6  12 1543.17 467.376  39
   5   6  12 783.717 321.485  21
   5   6  12 1673.47 580.938  38
  -5  -6 -12 1798.17 501.658  33
  -5  -6 -12 670.266 355.476  57
   5   6  12 1929.15 475.658  24
   5   6  13 1245.87 285.708  39
   5   6  13 2127.43 452.878  21
   5   6  13 1856.95 505.993  38
   5   6  13 2647.34 517.963  24
  -5  -7   9 227.034 353.363  57
   5   7  -9 209.144 219.400  51
  -5  -7   8 1058.88 424.414  57
   5   7  -8 490.878 197.925  51
  -5  -7   7 3962.29 670.391  33
  -5  -7   7 3662.33 766.544  57
   5   7  -7 4082.67 718.089  47
  -5  -7   6 306.434 378.598  33
  -5  -7   6 839.506 532.946  57
   5   7  -6 379.398 398.867  47
  -5  -7   5 1469.92 552.228  33
  -5  -7   5 748.615 484.463  57
   5   7  -5 1297.86 638.002  47
  -5  -7   4 173.787 351.566  33
  -5  -7   4 565.825 460.847  31
  -5  -7   4 538.979 461.719  57
   5   7  -4 804.567 595.073  47
  -5  -7   3 24283.0 1945.40  33
  -5  -7   3 21386.0 1652.39  31
  -5  -7   3 19767.4 2067.77  57
  -5  -7   2 1509.27 577.247  33
  -5  -7   2 230.287 444.130  31
   5   7  -2-609.493 521.779  58
  -5  -7   2-204.573 356.485  57
   5   7  -2 903.173 492.954  47
  -5  -7   1 10955.3 1353.77  33
  -5  -7   1 11106.5 1206.30  31
   5   7  -1 10319.0 1663.66  58
   5   7  -1 14134.9 1439.61  47
   5   7   0-269.922 270.041  39
  -5  -7   0-177.566 444.006  33
  -5  -7   0 156.418 311.649  31
   5   7   0 293.808 574.054  58
  -5  -7   0 758.183 679.340  57
   5   7   0-19.0045 424.110  47
   5   7   1-418.150 314.166  21
   5   7   1 40.9850 381.982  39
  -5  -7  -1 714.192 448.235  33
  -5  -7  -1-669.328 505.470  31
   5   7   1 22.7675 436.183  58
  -5  -7  -1 208.135 533.334  57
   5   7   2-344.252 314.684  21
   5   7   2-212.895 369.568  39
  -5  -7  -2-225.223 466.095  33
  -5  -7  -2-37.1254 264.871  31
  -5  -7  -2-182.597 468.072  57
  -5  -7  -2 297.613 609.422  50
   5   7   3 350.525 296.863  21
   5   7   3 907.225 505.696  39
  -5  -7  -3 819.123 498.380  33
  -5  -7  -3-220.716 347.382  31
  -5  -7  -3 878.313 628.638  57
  -5  -7  -3-180.386 439.325  50
   5   7   4 5848.45 1012.85  21
   5   7   4 5188.22 969.556  39
  -5  -7  -4 4108.73 883.822  33
  -5  -7  -4 3880.08 896.340  57
  -5  -7  -4 2855.22 782.734  50
   5   7   5 1437.64 539.076  21
   5   7   5 38.7119 449.077  39
  -5  -7  -5 635.207 384.692  33
  -5  -7  -5 368.782 393.452  57
   5   7   6 7058.07 1096.82  21
   5   7   6 5320.96 1016.02  39
   5   7   6 7435.43 1035.80  38
  -5  -7  -6 4623.20 890.850  33
  -5  -7  -6 4445.68 972.674  57
   5   7   7 5083.69 954.202  21
   5   7   7 3322.81 808.059  39
   5   7   7 4363.24 836.115  38
  -5  -7  -7 3903.02 862.803  33
  -5  -7  -7 1588.49 595.018  57
   5   7   8 5409.49 966.460  21
   5   7   8 4770.18 974.144  39
   5   7   8 5468.92 925.427  38
  -5  -7  -8 4092.29 782.848  33
   5   7   8 2873.99 473.569  58
  -5  -7  -8 2360.95 641.763  57
   5   7   9 4677.03 892.020  39
   5   7   9 4088.81 798.271  21
   5   7   9 5160.94 949.861  38
  -5  -7  -9 4263.46 732.846  33
  -5  -7  -9 3394.31 738.141  57
   5   7  10 1730.15 534.293  39
   5   7  10 2765.97 672.028  21
   5   7  10 2088.18 559.053  38
  -5  -7 -10 2150.71 569.865  33
   5   7  11 502.599 300.579  39
   5   7  11 732.225 385.525  21
   5   7  11 243.630 291.581  38
  -5  -7 -11 772.337 401.542  33
   5   7  12 576.139 213.602  39
   5   7  12 447.642 249.960  21
   5   7  12 98.8448 230.344  38
  -5  -7 -12 361.451 292.377  33
  -5  -8   8 913.544 386.407  57
  -5  -8   7 888.111 327.084  31
  -5  -8   7 462.184 362.399  57
   5   8  -7 237.200 154.104  51
  -5  -8   6 2434.69 561.870  33
  -5  -8   6 1356.25 391.297  31
  -5  -8   6 2598.52 641.658  57
   5   8  -6 2542.48 529.854  47
  -5  -8   5 135.035 262.739  33
  -5  -8   5-394.843 297.294  31
  -5  -8   5-334.021 334.399  57
   5   8  -5-160.764 306.953  47
  -5  -8   4 10068.9 1117.07  33
  -5  -8   4 8199.62 869.778  31
  -5  -8   4 6563.40 1051.36  57
   5   8  -4 9670.57 1046.07  47
  -5  -8   3 1387.14 515.766  33
  -5  -8   3 147.027 357.664  31
  -5  -8   3 552.450 407.223  57
   5   8  -3 1299.28 617.031  47
  -5  -8   2 841.467 490.898  33
  -5  -8   2 234.411 327.548  31
   5   8  -2 260.847 509.289  58
  -5  -8   2 463.422 314.646  57
   5   8  -2 45.3067 399.731  47
  -5  -8   1 281.336 418.456  33
  -5  -8   1-444.109 318.908  31
   5   8  -1-474.961 647.487  58
  -5  -8   1 147.455 353.431  57
   5   8  -1-184.386 610.218  47
  -5  -8   0 1565.34 565.799  33
   5   8   0 922.277 727.977  58
  -5  -8   0 536.718 325.318  57
   5   8   0 126.970 586.702  47
   5   8   1 6.92453 284.854  39
  -5  -8  -1 632.475 549.117  33
   5   8   1 447.967 558.923  58
  -5  -8  -1-64.2912 485.717  57
  -5  -8  -1-261.034 347.347  50
   5   8   1-244.972 536.499  47
   5   8   2 214.232 243.027  39
  -5  -8  -2 1183.58 567.016  33
  -5  -8  -2 377.917 524.400  57
  -5  -8  -2-267.326 471.365  50
   5   8   3 1102.03 474.242  39
  -5  -8  -3 215.832 285.258  33
  -5  -8  -3 829.814 546.592  57
  -5  -8  -3 41.7293 337.095  50
   5   8   4-494.935 447.535  21
   5   8   4 175.615 276.425  39
  -5  -8  -4 231.686 399.927  33
  -5  -8  -4 439.254 426.272  57
   5   8   5-319.964 312.354  21
   5   8   5-126.149 355.145  39
  -5  -8  -5 550.191 421.694  33
   5   8   6 12975.9 1288.30  21
   5   8   6 11829.3 1295.51  39
  -5  -8  -6 10735.4 1161.21  33
  -5  -8  -6 8192.45 1039.17  57
   5   8   7 2510.82 620.698  21
   5   8   7 2455.68 595.162  39
  -5  -8  -7 2009.75 610.832  33
  -5  -8  -7 1453.72 534.643  57
   5   8   8 6998.89 965.223  21
   5   8   8 6250.68 872.194  39
  -5  -8  -8 5446.65 834.045  33
   5   8   8 4061.22 701.585  58
   5   8   9 1637.92 448.663  39
   5   8   9 1907.33 478.833  21
   5   8   9 1122.08 321.137  38
  -5  -8  -9 1109.67 408.089  33
   5   8  10 661.630 260.732  39
   5   8  10 838.924 302.037  21
   5   8  10 755.630 297.729  38
  -5  -8 -10 895.943 307.591  33
   5   8  11 1510.57 386.527  39
   5   8  11 1070.70 369.219  21
   5   8  11 1094.01 352.083  38
  -5  -8 -11 858.666 345.898  33
  -5  -9   5 3396.81 552.172  33
  -5  -9   5 2204.67 571.477  57
   5   9  -5 3665.65 598.282  47
  -5  -9   4 667.805 365.537  33
  -5  -9   4 627.264 362.813  57
   5   9  -4 56.2372 300.992  47
  -5  -9   3 4407.48 719.365  33
  -5  -9   3 2863.68 628.232  57
   5   9  -3 2985.52 526.143  47
  -5  -9   2 526.643 422.127  57
   5   9  -2 257.662 418.021  47
  -5  -9   1 5751.85 792.045  33
   5   9  -1 4643.61 774.401  58
  -5  -9   1 6228.51 952.088  57
  -5  -9   1 5724.96 931.339  50
   5   9  -1 6320.51 803.629  47
  -5  -9   0 1026.93 400.660  33
   5   9   0 135.964 326.866  58
  -5  -9   0-138.407 268.133  57
  -5  -9   0-314.273 398.075  50
   5   9   0-49.7534 319.378  47
  -5  -9  -1-79.1202 338.545  33
   5   9   1 165.718 455.205  58
  -5  -9  -1 199.578 303.119  57
   5   9   1-7.65666 377.606  47
  -5  -9  -2 1634.20 513.916  33
   5   9   2 585.577 384.231  58
  -5  -9  -2 1203.24 312.830  57
   5   9   3 1116.51 271.544  39
  -5  -9  -3 2824.09 568.005  33
   5   9   3 1919.59 652.315  58
  -5  -9  -3 1835.01 520.415  57
   5   9   4 300.184 208.364  39
  -5  -9  -4-728.641 338.555  33
   5   9   4-342.487 329.327  58
  -5  -9  -4 186.358 401.488  57
   5   9   5 162.030 273.450  39
  -5  -9  -5 698.212 397.896  33
   5   9   6 2191.95 456.339  39
  -5  -9  -6 2879.64 585.486  33
  -5  -9  -7 12735.4 1058.68  33
   5   9   7 9860.44 1018.62  58
   5   9   8 4968.71 530.979  21
   5   9   8 4152.02 603.975  39
  -5  -9  -8 3202.81 485.235  33
  -5  -9  -9 4671.44 543.746  33
  -5 -10   0 1309.16 395.716  33
  -5 -10  -1 1058.07 369.329  33
   5  10   1 643.283 390.363  58
  -5 -10  -2 1008.74 357.378  33
   5  10   2 432.395 240.078  58
  -5 -10  -3 1724.25 410.204  33
   5  10   3 644.774 287.811  58
  -5 -10  -4 1229.14 379.606  33
   5  10   4 881.355 243.839  58
  -6   2   4 884.704 321.399  26
  -6   2   3 3710.96 562.550  56
  -6   2   3 886.647 298.986  26
  -6   2   2 763.776 322.519  56
  -6   2   2 841.300 439.765  27
  -6   2   1 1048.09 463.468  56
  -6   2   1 733.958 403.766  27
  -6   2   1 115.230 211.662  26
   6  -2  -1 793.434 372.900  22
  -6   2   0 999.489 434.811  56
  -6   2   0 1640.69 480.322  27
  -6   2  -1 2328.63 509.408  56
  -6   2  -1 2474.81 541.005  27
   6  -2   1 3529.11 569.099  22
  -6   2  -2 8601.87 836.167  56
  -6   2  -2 8321.82 849.441  27
  -6   2  -3 2882.33 510.075  56
  -6   2  -3 2780.87 458.013  27
   6  -2   4 5993.99 518.696  22
  -6   1   6 1651.88 456.305  56
  -6   1   6 1342.54 225.601  26
   6  -1  -5 3773.53 461.920  28
  -6   1   5 2846.13 553.597  56
  -6   1   5 2756.37 490.966  27
  -6   1   5 2182.97 400.731  26
   6  -1  -4 81.4385 326.461  28
  -6   1   4 260.762 384.446  56
  -6   1   4 385.498 285.929  27
  -6   1   4 111.927 260.220  26
   6  -1  -3 489.486 347.520  28
  -6   1   3 968.041 467.303  56
  -6   1   3 1184.69 496.081  27
  -6   1   3 553.094 265.520  26
   6  -1  -2 1202.90 595.795  28
  -6   1   2 1195.94 585.627  56
  -6   1   2 1763.95 566.806  27
  -6   1   2 296.491 582.361  26
   6  -1  -2 2395.37 481.687  22
  -6   1   1 7946.80 961.735  56
  -6   1   1 5455.60 715.306  26
  -6   1   0 380.724 352.312  27
   6  -1   0 1321.79 575.708  22
  -6   1  -1-144.364 299.883  56
  -6   1  -1 41.5477 385.513  27
   6  -1   1 361.113 278.098  22
  -6   1  -2 3724.01 635.684  56
  -6   1  -2 4472.22 750.251  27
   6  -1   2 5409.15 571.863  22
  -6   1  -3-341.822 268.635  56
  -6   1  -3 564.740 276.030  27
   6  -1   3 305.386 299.502  22
  -6   1  -4-409.161 320.325  56
  -6   1  -4 49.9372 243.052  27
   6  -1   4 127.166 251.420  22
  -6   1  -5-524.425 287.279  27
   6  -1   5 192.893 241.408  22
  -6   1  -6 4393.89 580.692  27
   6  -1   6 7767.59 660.057  22
   6  -1   7 330.144 220.432  22
   6   0  -7 795.051 303.252  28
  -6   0   7 260.043 358.333  56
  -6   0   7 195.675 277.915  27
   6   0  -6 987.754 322.105  28
  -6   0   6 921.621 401.354  56
  -6   0   6 1501.83 425.304  27
   6   0  -5 768.257 377.293  28
  -6   0   5 958.024 493.590  56
  -6   0   5 716.154 349.070  27
   6   0  -4 1054.47 402.953  28
  -6   0   4 1394.55 563.283  56
  -6   0   4 124.174 274.699  27
  -6   0   4-140.028 250.784  26
   6   0  -3 537.551 308.698  28
  -6   0   3 1119.65 508.615  56
  -6   0   3 431.403 314.354  27
  -6   0   3 594.900 444.139  26
  -6   0   2 1685.50 551.094  56
  -6   0   2 1366.16 496.905  27
  -6   0   2 2016.29 539.409  26
   6   0  -1 1402.04 406.534  21
  -6   0   1 368.322 398.983  56
  -6   0   1 993.184 498.970  27
   6   0  -1 1281.18 324.541  22
   6   0   0 7197.86 1063.62  21
  -6   0   0 4746.49 785.291  56
  -6   0   0 4644.63 858.578  27
  -6   0  -1 3414.81 617.333  56
  -6   0  -1 5053.46 913.244  27
   6   0   2 2834.33 657.279  21
  -6   0  -2 1181.95 419.445  56
  -6   0  -2 2931.48 698.572  27
   6   0   3 2257.47 689.051  21
  -6   0  -3 67.3768 392.225  56
  -6   0  -3 974.972 366.526  27
   6   0   3 2821.36 539.165  22
   6   0   4-74.3808 300.505  21
  -6   0  -4-508.133 289.464  56
  -6   0  -4-76.2645 265.852  27
   6   0   4-444.281 226.564  22
  -6   0  -5 6404.26 828.649  27
   6   0   5 6567.37 699.277  22
   6   0   6 2240.30 421.754  22
   6   0   6 1542.38 406.629  21
  -6   0  -6 1843.47 475.476  27
   6   0   7 54.1342 227.550  22
  -6   0  -7 582.703 362.668  27
   6   0   8 1780.13 408.043  22
  -6   0  -8 710.127 271.579  27
   6   1  -8-105.347 230.315  28
  -6  -1   8 275.615 267.901  27
   6   1  -7 73.9600 218.027  28
  -6  -1   7 64.9667 241.912  27
  -6  -1   6-256.567 233.100  20
   6   1  -6 204.673 294.205  28
  -6  -1   6 214.967 310.662  27
  -6  -1   5 2676.85 506.689  20
   6   1  -5 2157.43 430.880  28
  -6  -1   5 1245.57 277.707  27
  -6  -1   4-593.057 365.196  20
  -6  -1   4 5.02695 338.945  27
   6   1  -3 492.875 378.515  21
  -6  -1   3-307.998 388.609  20
  -6  -1   3 177.471 335.998  27
   6   1  -2 464.193 308.254  21
  -6  -1   2 379.052 475.760  20
  -6  -1   2 273.869 358.475  27
   6   1  -1 11316.9 1360.29  21
  -6  -1   1 12931.0 1272.20  20
   6   1   0 3297.23 763.431  21
  -6  -1   0 1439.58 569.912  56
  -6  -1   0 2080.93 669.807  27
  -6  -1  -1 4015.18 766.973  56
  -6  -1  -1 4616.98 884.577  27
  -6  -1  -2-995.949 360.223  56
  -6  -1  -2-191.319 338.923  27
   6   1   3 5635.98 933.054  21
  -6  -1  -3 4184.33 840.983  56
  -6  -1  -3 3042.75 671.536  27
   6   1   4 4561.64 657.404  22
   6   1   4 3541.69 802.521  21
  -6  -1  -4 2579.38 605.266  27
   6   1   5 892.535 430.183  22
   6   1   5 492.997 411.420  21
  -6  -1  -5-340.706 324.813  57
  -6  -1  -5 133.169 361.592  27
   6   1   6 998.687 367.391  22
   6   1   6 779.308 432.306  21
  -6  -1  -6 343.575 402.512  57
  -6  -1  -6 817.456 262.793  27
   6   1   7-7.77074 252.401  22
   6   1   7-99.1282 256.316  21
  -6  -1  -7 280.023 366.193  57
  -6  -1  -7 489.953 261.549  27
   6   1   8 43.7482 274.106  22
  -6  -1  -8-672.131 384.468  57
  -6  -1  -8-32.6711 191.542  27
  -6  -1  -9 4062.63 594.214  57
   6   1   9 5434.94 546.522  22
  -6  -2   8 740.153 272.041  27
   6   2  -8 1205.05 208.339  51
  -6  -2   7 2209.65 437.788  20
   6   2  -7 1773.97 477.342  28
  -6  -2   7 1134.10 324.217  27
   6   2  -7 809.327 267.846  51
  -6  -2   6 1217.45 399.308  20
   6   2  -6 1579.35 523.774  28
  -6  -2   6 1294.97 443.568  27
   6   2  -6 624.092 256.609  51
  -6  -2   5 548.898 345.631  20
   6   2  -5-292.831 305.606  28
  -6  -2   5 61.8340 260.275  27
   6   2  -5 39.0329 217.682  51
   6   2  -4 1093.45 480.434  21
  -6  -2   4 1670.91 456.252  20
  -6  -2   4 763.266 437.820  27
   6   2  -4 306.594 192.019  51
  -6  -2   4 2136.52 589.967  50
   6   2  -3 845.829 399.204  21
  -6  -2   3 1059.13 430.626  20
  -6  -2   3 551.736 248.128  27
  -6  -2   3 569.118 516.862  50
   6   2  -2 2078.37 634.772  21
  -6  -2   2 2548.99 694.240  20
  -6  -2   2 418.299 268.694  27
  -6  -2   2 518.426 442.071  50
   6   2  -1 3630.53 747.846  21
  -6  -2   1 3949.51 795.983  20
  -6  -2   1 2062.44 614.472  27
  -6  -2   1 1904.93 860.596  50
   6   2   0 663.271 537.408  21
  -6  -2   0 622.074 248.984  20
  -6  -2   0-532.748 508.557  27
  -6  -2   0 82.3193 411.700  50
   6   2   1 38991.4 2618.40  21
  -6  -2  -1 33576.4 2297.80  27
   6   2   2 5322.77 918.791  21
  -6  -2  -2 4157.74 628.438  20
  -6  -2  -2 1746.85 797.308  56
  -6  -2  -2 3125.16 687.258  27
   6   2   3 26875.3 2181.89  21
  -6  -2  -3 21893.5 1725.90  57
  -6  -2  -3 22985.2 1814.58  27
   6   2   4-842.393 337.614  22
   6   2   4 128.668 337.263  21
  -6  -2  -4 346.343 353.127  57
  -6  -2  -4-422.434 413.736  27
   6   2   5 2112.23 551.276  22
   6   2   5 2148.65 651.180  21
  -6  -2  -5 452.210 366.153  57
  -6  -2  -5 1055.81 541.991  27
   6   2   6 1996.28 531.876  22
   6   2   6 1499.68 529.433  21
  -6  -2  -6 845.575 352.643  57
  -6  -2  -6 1921.51 483.055  27
   6   2   7 3266.49 524.172  22
   6   2   7 3449.14 615.198  21
  -6  -2  -7 2598.67 664.813  57
  -6  -2  -7 2366.97 519.402  27
   6   2   8 1961.18 422.226  22
   6   2   8 1727.06 498.524  21
  -6  -2  -8 968.253 394.739  57
  -6  -2  -8 1483.68 399.398  27
   6   2   9 2630.69 463.579  22
   6   2   9 1745.01 409.151  21
  -6  -2  -9 2397.92 540.056  57
   6   2  10 238.685 231.438  22
  -6  -2 -10 303.113 247.140  57
  -6  -3   8 2038.77 339.543  20
   6   3  -8 1811.86 417.219  28
  -6  -3   8 1018.11 376.331  27
   6   3  -8 617.656 210.162  51
  -6  -3   7 852.985 295.828  20
  -6  -3   7 318.710 308.217  31
   6   3  -7 298.553 287.013  28
  -6  -3   7-381.042 319.234  27
   6   3  -7 49.5392 174.019  51
  -6  -3   6 437.966 370.209  20
  -6  -3   6 276.184 239.705  31
   6   3  -6 155.562 261.928  28
  -6  -3   6-181.817 319.227  27
   6   3  -6 220.411 211.520  51
  -6  -3   5 1162.26 373.400  20
  -6  -3   5 801.262 454.032  31
  -6  -3   5 226.068 235.282  27
   6   3  -5 969.892 375.226  51
  -6  -3   5 346.777 424.949  50
   6   3  -4 1323.25 526.088  21
  -6  -3   4 1137.82 472.175  20
  -6  -3   4 1301.49 442.887  31
  -6  -3   4 1074.23 544.681  27
   6   3  -4 232.334 197.925  51
  -6  -3   4 1208.77 586.012  50
   6   3  -3 1833.85 534.844  21
  -6  -3   3 1342.03 418.251  20
  -6  -3   3 1466.98 490.901  31
  -6  -3   3 822.506 350.788  27
   6   3  -3 245.617 295.747  51
  -6  -3   3 1490.88 649.635  50
   6   3  -2 4366.52 995.496  21
  -6  -3   2 3737.55 667.890  20
  -6  -3   2 3223.91 635.109  31
  -6  -3   2 1428.90 290.201  27
   6   3  -2 3722.25 719.953  51
  -6  -3   2 2175.80 828.758  50
   6   3  -1 618.188 271.837  21
  -6  -3   1 2214.05 569.993  20
  -6  -3   1 697.734 345.382  31
  -6  -3   1 2124.16 824.633  57
  -6  -3   1 896.229 419.900  27
  -6  -3   1 222.971 526.601  50
   6   3   0 7721.55 1093.58  21
  -6  -3   0 7650.95 937.201  20
  -6  -3   0 7075.59 1209.14  57
  -6  -3   0 4894.29 869.211  27
  -6  -3   0 7615.54 1263.76  50
   6   3   1 4724.82 1024.69  21
  -6  -3  -1 2780.55 1086.90  57
  -6  -3  -1 4282.52 1379.99  50
   6   3   2 1292.06 843.787  21
  -6  -3  -2 433.201 781.895  57
  -6  -3  -2 130.940 470.185  27
  -6  -3  -2 116.337 599.149  50
   6   3   3 7160.88 1200.56  21
  -6  -3  -3 9975.68 1139.67  20
  -6  -3  -3 8978.37 1458.83  50
   6   3   4 248.137 541.820  21
  -6  -3  -4-287.660 483.142  57
  -6  -3  -4 216.165 287.853  27
   6   3   5 3839.56 757.736  21
  -6  -3  -5 2048.84 574.636  57
  -6  -3  -5 2240.81 651.861  27
   6   3   6 3031.66 499.317  22
   6   3   6 3173.96 706.448  21
  -6  -3  -6 1129.70 551.009  57
  -6  -3  -6 2098.61 569.557  27
   6   3   6 4185.46 689.755  52
   6   3   7-52.9747 289.818  22
   6   3   7-110.361 259.765  21
  -6  -3  -7 344.772 359.831  57
   6   3   7 51.8307 273.871  52
   6   3   8 1420.80 498.136  21
  -6  -3  -8 1576.09 464.268  57
   6   3   8 1040.39 430.403  52
   6   3   9 2215.17 527.087  21
  -6  -3  -9 2076.63 435.237  57
   6   3   9 2037.56 564.943  52
   6   3  10-24.3735 144.864  21
   6   3  10-11.2162 208.234  52
   6   4  -8 4361.76 469.809  51
  -6  -4   8 3243.98 525.150  27
  -6  -4   7 10.8463 257.070  31
  -6  -4   7 42.2956 255.120  27
   6   4  -7-75.6822 208.780  51
  -6  -4   6 1703.12 418.549  20
  -6  -4   6 2483.47 589.864  31
   6   4  -6 1443.96 444.173  28
  -6  -4   6 87.2484 279.551  27
   6   4  -6 961.342 313.857  51
  -6  -4   6 1555.00 521.512  50
  -6  -4   5-353.689 376.595  20
  -6  -4   5-6.70920 292.829  31
  -6  -4   5-751.271 407.366  27
   6   4  -5 49.5230 287.710  51
  -6  -4   5-451.176 483.123  50
   6   4  -4 2959.32 577.542  21
  -6  -4   4 3733.02 655.248  20
  -6  -4   4 3235.29 805.312  31
  -6  -4   4 687.234 266.917  27
   6   4  -4 1202.40 351.329  51
  -6  -4   4 3031.91 837.689  50
   6   4  -3 243.301 250.743  21
  -6  -4   3 24.5946 271.972  20
  -6  -4   3 526.353 459.766  31
  -6  -4   3 295.448 278.953  27
   6   4  -3 81.0562 204.941  51
  -6  -4   3 290.662 368.661  50
   6   4  -2-216.355 359.365  21
  -6  -4   2-638.142 419.163  20
  -6  -4   2-153.823 345.452  31
  -6  -4   2-217.399 391.978  57
  -6  -4   2-332.519 516.724  27
   6   4  -2 257.976 264.284  51
  -6  -4   2-86.9057 365.107  50
   6   4  -1 13556.3 1455.61  21
  -6  -4   1 16207.8 1323.78  20
  -6  -4   1 13426.0 1369.31  31
  -6  -4   1 5580.85 819.611  27
  -6  -4   1 10104.9 1566.74  50
   6   4   0-54.2786 312.653  21
  -6  -4   0 0.19691 303.915  20
  -6  -4   0-577.779 461.772  31
  -6  -4   0 201.303 393.671  57
  -6  -4   0-255.677 348.836  27
  -6  -4   0 610.726 395.093  50
   6   4   1 3572.60 810.588  21
  -6  -4  -1 3589.50 719.022  20
  -6  -4  -1 1178.73 631.116  57
  -6  -4  -1 1182.12 365.494  27
  -6  -4  -1 1550.88 602.876  50
   6   4   2 2741.52 710.071  21
  -6  -4  -2 1776.34 424.604  20
  -6  -4  -2 1197.05 623.284  57
  -6  -4  -2 730.723 429.419  27
  -6  -4  -2 2015.45 565.487  50
   6   4   3 4538.94 860.607  21
  -6  -4  -3 4801.28 740.194  20
  -6  -4  -3 2727.60 812.556  57
  -6  -4  -3 2050.14 572.892  27
  -6  -4  -3 3944.36 767.042  50
   6   4   4 47.2062 265.135  21
  -6  -4  -4-517.204 565.899  57
  -6  -4  -4-70.2409 480.823  50
   6   4   5 5978.83 970.220  21
  -6  -4  -5 3034.35 719.017  57
   6   4   6 778.932 370.502  21
  -6  -4  -6 503.688 389.629  57
   6   4   7 3.42780 314.095  21
  -6  -4  -7 458.918 425.315  57
   6   4   7-34.0674 259.294  52
   6   4   8 2470.99 584.615  21
  -6  -4  -8 950.290 421.559  57
   6   4   8 1406.32 487.669  52
   6   4   9 3354.97 583.997  21
  -6  -4  -9 2371.36 546.598  57
   6   4   9 1924.92 504.117  52
   6   4  10-178.242 226.717  21
   6   4  10 270.768 201.210  52
  -6  -5   7 168.916 262.621  20
  -6  -5   7-229.533 231.092  27
   6   5  -7 195.591 401.027  51
  -6  -5   6 503.724 346.659  20
  -6  -5   6 172.030 319.503  31
  -6  -5   6 27.8338 222.859  27
   6   5  -6-150.777 175.189  51
  -6  -5   6-248.088 307.632  50
  -6  -5   5 3495.30 603.910  20
  -6  -5   5 3403.02 680.697  31
  -6  -5   5 2665.39 606.789  57
  -6  -5   5 1011.37 362.007  27
   6   5  -5 1012.87 347.990  51
  -6  -5   5 2873.36 669.137  50
  -6  -5   4 1094.12 451.694  20
  -6  -5   4 963.220 368.316  31
  -6  -5   4 879.152 478.837  57
  -6  -5   4 454.661 265.881  27
   6   5  -4 842.214 263.851  51
  -6  -5   4 2196.66 736.723  50
   6   5  -3-28.3785 249.530  21
  -6  -5   3-46.1679 245.851  20
  -6  -5   3-145.966 427.741  57
  -6  -5   3-446.309 471.594  27
   6   5  -3-99.6221 283.593  51
  -6  -5   3 235.711 355.644  50
   6   5  -2 4762.36 738.636  21
  -6  -5   2 4388.97 722.358  20
  -6  -5   2 4053.80 740.873  31
  -6  -5   2 2807.14 783.321  57
  -6  -5   2 3231.66 1012.23  50
   6   5  -1 1347.88 489.825  21
  -6  -5   1 547.170 325.736  20
  -6  -5   1 290.841 316.660  31
  -6  -5   1 368.783 404.075  57
  -6  -5   1 481.888 252.556  27
  -6  -5   1 402.261 388.555  50
   6   5   0 4239.02 706.808  21
  -6  -5   0 4597.11 679.433  20
  -6  -5   0 3346.38 666.489  31
  -6  -5   0 2581.28 738.161  57
  -6  -5   0 5416.11 1068.44  50
   6   5   1-455.027 393.051  21
  -6  -5  -1 528.475 366.047  20
  -6  -5  -1 662.832 372.693  31
  -6  -5  -1-561.202 398.097  57
  -6  -5  -1-32.8238 402.535  50
   6   5   2 9780.82 1246.01  21
  -6  -5  -2 7359.98 1191.88  57
  -6  -5  -2 7414.82 1324.07  50
   6   5   3 157.506 303.916  21
  -6  -5  -3-1046.02 427.906  20
  -6  -5  -3-43.9666 339.322  57
  -6  -5  -3 75.2555 470.091  50
   6   5   4 2312.31 616.347  21
  -6  -5  -4 1404.85 580.781  57
  -6  -5  -4 1227.47 551.608  50
   6   5   5 3207.46 758.190  21
  -6  -5  -5 3433.89 772.511  57
   6   5   6 2225.58 590.064  21
  -6  -5  -6 1595.70 516.233  57
   6   5   7 2003.30 575.489  21
  -6  -5  -7 1723.95 485.534  57
  -6  -5  -8 465.248 278.498  57
   6   5   8 271.054 298.959  52
   6   5   9 357.687 212.234  21
  -6  -5  -9 810.712 270.316  57
   6   5   9 6.98917 234.319  52
  -6  -6   6 4341.91 541.476  20
  -6  -6   6 3940.78 589.711  31
  -6  -6   5 466.020 248.477  20
  -6  -6   5 667.870 325.682  31
  -6  -6   5 155.944 269.399  57
   6   6  -5 231.482 213.030  51
  -6  -6   5 1015.87 535.708  50
  -6  -6   4 1029.14 360.717  20
  -6  -6   4 1231.29 404.082  31
  -6  -6   4 432.356 428.570  57
   6   6  -4 37.5075 262.118  51
  -6  -6   4-139.830 328.677  50
  -6  -6   3 289.854 241.806  20
  -6  -6   3 88.6460 314.022  31
  -6  -6   3-386.832 397.625  57
   6   6  -3 77.9111 187.550  51
  -6  -6   3-34.0582 433.709  50
  -6  -6   2-115.269 259.127  20
  -6  -6   2-103.866 270.354  31
  -6  -6   2 358.734 511.739  57
  -6  -6   2 243.477 487.640  50
   6   6  -1 6001.26 728.259  21
  -6  -6   1 7995.94 806.796  20
  -6  -6   1 7372.56 882.726  31
  -6  -6   1 3412.18 839.321  57
  -6  -6   1 3982.92 889.204  50
   6   6   0 4124.84 620.005  21
  -6  -6   0 5317.88 685.209  20
  -6  -6   0 4019.77 617.002  31
  -6  -6   0 2594.14 735.811  57
  -6  -6   0 4173.00 849.652  50
   6   6   1 16699.3 1303.56  21
   6   6   2 3981.84 683.664  21
  -6  -6  -2 2675.43 476.047  20
  -6  -6  -2 3128.40 684.842  57
  -6  -6  -2 1548.93 612.397  50
   6   6   3 3054.05 629.033  21
  -6  -6  -3 1421.36 548.216  57
  -6  -6  -3 2307.93 745.315  50
   6   6   4 860.007 350.810  21
  -6  -6  -4 602.042 506.618  57
  -6  -6  -4 1023.03 552.956  50
   6   6   5 2971.71 631.812  21
  -6  -6  -5 1975.50 508.695  33
  -6  -6  -5 1577.44 489.472  57
   6   6   6 1784.56 509.637  21
  -6  -6  -6 1359.84 584.630  57
   6   6   7-208.932 207.419  21
  -6  -6  -7 247.568 334.483  57
   6   6   8 2775.64 502.424  21
  -6  -6  -8 1286.90 377.671  57
  -6  -6  -9 1177.13 326.387  57
  -6  -7   4 1445.25 294.757  20
  -6  -7   4 1614.93 354.372  31
  -6  -7   4 1536.14 399.882  57
  -6  -7   4 1107.25 415.908  50
  -6  -7   3-537.850 238.252  20
  -6  -7   3 382.307 279.683  31
  -6  -7   3 866.544 533.751  57
   6   7  -3-179.468 275.113  51
  -6  -7   3 367.669 310.260  50
  -6  -7   2 5398.24 704.136  31
  -6  -7   2 3811.73 776.812  57
  -6  -7   2 4421.17 850.630  50
  -6  -7   1 177.083 234.067  20
  -6  -7   1 359.744 274.999  31
  -6  -7   1 781.855 497.336  57
  -6  -7   1-202.134 354.054  50
  -6  -7   0 1192.67 405.826  57
  -6  -7   0 1196.05 437.539  50
  -6  -7  -1 1336.19 463.926  57
  -6  -7  -1 1404.23 444.926  50
   6   7   2 408.702 235.637  21
  -6  -7  -2-59.9707 377.501  33
  -6  -7  -2 574.939 374.117  57
  -6  -7  -2 659.362 477.749  50
   6   7   3-350.585 315.644  21
  -6  -7  -3 593.000 385.732  33
  -6  -7  -3 438.421 351.989  57
  -6  -7  -3 723.821 458.035  50
   6   7   4 881.699 308.908  21
  -6  -7  -4 397.229 393.321  33
  -6  -7  -4 523.120 278.020  57
   6   7   5 904.395 238.367  21
  -6  -7  -5-51.0855 256.860  33
  -6  -7  -5 991.123 449.975  57
   6   7   6 151.164 195.811  21
  -6  -7  -6 630.409 318.911  33
  -6  -7  -6 955.613 406.462  57
   6   7   7-350.221 263.309  21
  -6  -7  -7-557.974 233.840  33
  -6  -7  -7-638.376 318.433  57
  -6  -8  -1 3914.80 618.091  57
  -6  -8  -2-84.6737 289.183  57
   0   0   0    0.00    0.00   0

TITL jala74 in P-1
REM P-1 (#2 in standard setting)
CELL 1.54184   5.445676   9.702201  17.362220  84.7581  87.3561  74.8775
ZERR    2.00   0.000544   0.001013   0.000797   0.0063   0.0065   0.0089
LATT  1
SFAC C H O F S
UNIT 32.00 16.00 12.00 12.00 4.00
TREF
HKLF 4
END
;
_shelx_res_checksum              1351
_shelx_res_file
;
TITL jala74 in P-1 #2
CELL 1.54184 5.445676 9.702201 17.36222 84.7581 87.3561 74.8775
ZERR 2 0.000544 0.001013 0.000797 0.0063 0.0065 0.0089
LATT 1

SFAC C H F O S
UNIT 32 16 12 12 4
EADP O6B O5B O5A O6A
EADP C16A C16B

L.S. 11
PLAN  11
REM reset to P-1 #2
BOND $H
LIST 6
MORE -1
CONF
fmap 2
acta
SHEL 99 0.809
REM <HKL>D:\Data\jala74\struct\olex2_jala74\jala74.hkl</HKL>

WGHT    0.111000    0.246600
FVAR       7.47112   0.58668
S1    5    0.497053    0.251954    0.128908    11.00000    0.03171    0.02973 =
         0.02638   -0.00632    0.00012   -0.00353
PART 1
S2A   5   -0.097842    0.262633    0.413586    21.00000    0.04335    0.02421 =
         0.02563    0.00165   -0.00364   -0.00240

PART 0
PART 2
S2B   5    0.030726    0.323962    0.435123   -21.00000    0.03096    0.02424 =
         0.01926    0.00210   -0.00055   -0.00257

PART 0
F1    3    0.819145    0.269230    0.014451    11.00000    0.04209    0.05213 =
         0.03040   -0.00872    0.00744   -0.01289
F2    3    0.695570    0.074443    0.027154    11.00000    0.04879    0.03972 =
         0.03695   -0.01812   -0.00053   -0.00504
F3    3    0.967134    0.107366    0.105757    11.00000    0.03648    0.05198 =
         0.04621   -0.01461   -0.01135    0.01377
PART 1
F4A   3    0.336369    0.321303    0.421174    21.00000    0.03862    0.05696 =
         0.02920    0.00545   -0.00581   -0.00148
F5A   3    0.331260    0.163966    0.341376    21.00000    0.07738    0.06067 =
         0.02332   -0.00193    0.00599    0.03384
F6A   3    0.332411    0.106898    0.465109    21.00000    0.06365    0.04987 =
         0.03180    0.00819   -0.00314    0.01923

PART 0
PART 2
F4B   3    0.226087    0.122876    0.343061   -21.00000    0.08686    0.03845 =
         0.03660   -0.00373    0.00702    0.00835

F5B   3   -0.100362    0.102876    0.400190   -21.00000    0.02484    0.05129 =
         0.11766   -0.03763   -0.00902    0.00281
F6B   3    0.240758    0.055746    0.464391   -21.00000    0.07472    0.03198 =
         0.04435    0.00871   -0.01953    0.00731
PART 0
O1    4    0.627858    0.342417    0.175755    11.00000    0.03178    0.02847 =
         0.02249   -0.00748   -0.00274    0.00004
O2    4    0.304439    0.339722    0.080770    11.00000    0.03048    0.03986 =
         0.03897   -0.01104   -0.00729    0.00056
O3    4    0.456533    0.136980    0.179752    11.00000    0.06463    0.03807 =
         0.03563   -0.00378    0.00513   -0.01805
O4    4   -0.141489    0.380886    0.348045    11.00000    0.04397    0.03035 =
         0.05182    0.01657    0.01143    0.00637
PART 1
O5A   4   -0.170295    0.323813    0.486119    21.00000    0.03961    0.03675 =
         0.03750   -0.00231    0.00420   -0.00658
O6A   4   -0.186205    0.140171    0.398312    21.00000    0.03961    0.03675 =
         0.03750   -0.00231    0.00420   -0.00658

PART 0
PART 2
O5B   4   -0.129596    0.340047    0.497793   -21.00000    0.03961    0.03675 =
         0.03750   -0.00231    0.00420   -0.00658

O6B   4    0.262537    0.364369    0.435669   -21.00000    0.03961    0.03675 =
         0.03750   -0.00231    0.00420   -0.00658
PART 0
C1    1    0.563842    0.495888    0.163236    11.00000    0.03174    0.02569 =
         0.02186   -0.00388   -0.00624   -0.00130
C2    1    0.353582    0.572749    0.207151    11.00000    0.02788    0.03206 =
         0.01568   -0.00353   -0.00597   -0.00218
C3    1    0.194940    0.507534    0.255288    11.00000    0.03042    0.02403 =
         0.02197   -0.00131   -0.00444   -0.00010
AFIX  43
H3    2    0.223833    0.408377    0.259304    11.00000   -1.20000
AFIX   0
C4    1   -0.006565    0.590660    0.297323    11.00000    0.02986    0.03245 =
         0.01493   -0.00347   -0.00588   -0.00053
C5    1   -0.177515    0.532695    0.346144    11.00000    0.03130    0.03498 =
         0.01592    0.00188   -0.00511    0.00283
C6    1   -0.376894    0.612070    0.385171    11.00000    0.03215    0.04644 =
         0.01798   -0.00147   -0.00506    0.00105
AFIX  43
H6    2   -0.484830    0.568430    0.415643    11.00000   -1.20000
AFIX   0
C7    1   -0.418800    0.762768    0.378917    11.00000    0.03118    0.04608 =
         0.03194   -0.01889    0.00146   -0.00006
AFIX  43
H7    2   -0.554144    0.818682    0.406015    11.00000   -1.20000
AFIX   0
C8    1   -0.262313    0.826584    0.333482    11.00000    0.03885    0.03465 =
         0.04011   -0.01434   -0.00262   -0.00065
AFIX  43
H8    2   -0.291780    0.925747    0.330202    11.00000   -1.20000
AFIX   0
C9    1   -0.053827    0.743776    0.290816    11.00000    0.02828    0.03299 =
         0.02582   -0.00838   -0.00418   -0.00219
C10   1    0.105876    0.806795    0.242411    11.00000    0.03516    0.02764 =
         0.02846   -0.00831   -0.00642   -0.00124
AFIX  43
H10   2    0.076395    0.905986    0.238244    11.00000   -1.20000
AFIX   0
C11   1    0.308507    0.725777    0.200027    11.00000    0.03193    0.03050 =
         0.02087   -0.00465   -0.00500   -0.00537
C12   1    0.473214    0.790266    0.151214    11.00000    0.04249    0.02968 =
         0.02755   -0.00316   -0.00758   -0.00785
AFIX  43
H12   2    0.445512    0.889357    0.147026    11.00000   -1.20000
AFIX   0
C13   1    0.669290    0.709538    0.110866    11.00000    0.03481    0.03991 =
         0.02682   -0.00207   -0.00404   -0.01019
AFIX  43
H13   2    0.772180    0.753871    0.078638    11.00000   -1.20000
AFIX   0
C14   1    0.718912    0.557401    0.117450    11.00000    0.03018    0.04022 =
         0.02166   -0.00576   -0.00311   -0.00305
AFIX  43
H14   2    0.855464    0.501695    0.090711    11.00000   -1.20000
AFIX   0
C15   1    0.763615    0.170040    0.064956    11.00000    0.03460    0.03253 =
         0.02941   -0.01160   -0.00122   -0.00189
PART 1
C16A  1    0.249852    0.211627    0.409791    21.00000    0.04771    0.03327 =
         0.02620    0.00218   -0.00133    0.00393

PART 0
PART 2
C16B  1    0.097873    0.140415    0.407794   -21.00000    0.04771    0.03327 =
         0.02620    0.00218   -0.00133    0.00393
HKLF 4

REM  jala74 in P-1 #2
REM R1 =  0.0614 for    2672 Fo > 4sig(Fo)  and  0.0769 for all    3434 data
REM    311 parameters refined using      0 restraints

END

WGHT      0.1110      0.2466

REM Highest difference peak  0.478,  deepest hole -0.729,  1-sigma level  0.091
Q1    1   0.6137  0.1794  0.1073  11.00000  0.05    0.48
Q2    1   0.5133  0.3473  0.1403  11.00000  0.05    0.39
Q3    1   0.7579  0.2819  0.1357  11.00000  0.05    0.36
Q4    1  -0.3015  0.1721  0.4180  11.00000  0.05    0.35
Q5    1  -0.0550  0.6513  0.2957  11.00000  0.05    0.34
Q6    1   0.4484  0.3909  0.4394  11.00000  0.05    0.32
Q7    1   0.1625  0.3750  0.2524  11.00000  0.05    0.32
Q8    1   0.6794  0.2425  0.0840  11.00000  0.05    0.32
Q9    1   0.3299  0.2655  0.4116  11.00000  0.05    0.32
Q10   1   0.4155  0.5373  0.1896  11.00000  0.05    0.31
Q11   1  -0.2125  0.1056  0.4301  11.00000  0.05    0.31
;
_shelx_space_group_comment
;
The symmetry employed for this shelxl refinement is uniquely defined
by the following loop, which should always be used as a source of
symmetry information in preference to the above space-group names.
They are only intended as comments.
;
_shelxl_version_number           2014-3
loop_
_space_group_symop_operation_xyz
'x, y, z'
'-x, -y, -z'
loop_
_atom_site_label
_atom_site_type_symbol
_atom_site_fract_x
_atom_site_fract_y
_atom_site_fract_z
_atom_site_U_iso_or_equiv
_atom_site_adp_type
_atom_site_occupancy
_atom_site_site_symmetry_order
_atom_site_calc_flag
_atom_site_refinement_flags_posn
_atom_site_refinement_flags_adp
_atom_site_refinement_flags_occupancy
_atom_site_disorder_assembly
_atom_site_disorder_group
S1 S 0.49705(15) 0.25195(8) 0.12891(5) 0.0299(2) Uani 1 1 d . . . . .
S2A S -0.0978(3) 0.26263(14) 0.41359(8) 0.0324(5) Uani 0.587(3) 1 d . . P A 1
S2B S 0.0307(3) 0.32396(19) 0.43512(10) 0.0259(6) Uani 0.413(3) 1 d . . P A 2
F1 F 0.8191(4) 0.2692(2) 0.01445(12) 0.0413(5) Uani 1 1 d . . . . .
F2 F 0.6956(4) 0.0744(2) 0.02715(13) 0.0421(5) Uani 1 1 d . . . . .
F3 F 0.9671(4) 0.1074(3) 0.10576(14) 0.0486(6) Uani 1 1 d . . . . .
F4A F 0.3364(9) 0.3213(5) 0.4212(3) 0.0440(11) Uani 0.587(3) 1 d . . P A 1
F5A F 0.3313(14) 0.1640(8) 0.3414(4) 0.064(2) Uani 0.587(3) 1 d . . P A 1
F6A F 0.3324(12) 0.1069(6) 0.4651(3) 0.0555(14) Uani 0.587(3) 1 d . . P A 1
F4B F 0.226(2) 0.1229(10) 0.3431(6) 0.059(2) Uani 0.413(3) 1 d . . P A 2
F5B F -0.1004(12) 0.1029(9) 0.4002(6) 0.065(3) Uani 0.413(3) 1 d . . P A 2
F6B F 0.2408(18) 0.0557(8) 0.4644(5) 0.054(2) Uani 0.413(3) 1 d . . P A 2
O1 O 0.6279(4) 0.3424(2) 0.17575(13) 0.0286(5) Uani 1 1 d . . . . .
O2 O 0.3044(4) 0.3397(3) 0.08077(15) 0.0375(6) Uani 1 1 d . . . . .
O3 O 0.4565(6) 0.1370(3) 0.17975(16) 0.0454(7) Uani 1 1 d . . . . .
O4 O -0.1415(5) 0.3809(3) 0.34805(17) 0.0467(7) Uani 1 1 d . . . . .
O5A O -0.1703(17) 0.3238(9) 0.4861(5) 0.0388(9) Uani 0.587(3) 1 d . . P A 1
O6A O -0.1862(12) 0.1402(6) 0.3983(3) 0.0388(9) Uani 0.587(3) 1 d . . P A 1
O5B O -0.130(3) 0.3400(14) 0.4978(7) 0.0388(9) Uani 0.413(3) 1 d . . P A 2
O6B O 0.2625(17) 0.3644(9) 0.4357(5) 0.0388(9) Uani 0.413(3) 1 d . . P A 2
C1 C 0.5638(6) 0.4959(3) 0.16324(18) 0.0273(6) Uani 1 1 d . . . . .
C2 C 0.3536(6) 0.5727(3) 0.20715(17) 0.0260(6) Uani 1 1 d . . . . .
C3 C 0.1949(6) 0.5075(3) 0.25529(18) 0.0267(6) Uani 1 1 d . . . . .
H3 H 0.2238 0.4084 0.2593 0.032 Uiso 1 1 calc R U . . .
C4 C -0.0066(6) 0.5907(3) 0.29732(17) 0.0269(6) Uani 1 1 d . . . . .
C5 C -0.1775(6) 0.5327(4) 0.34614(18) 0.0296(7) Uani 1 1 d . . . . .
C6 C -0.3769(6) 0.6121(4) 0.38517(19) 0.0342(8) Uani 1 1 d . . . . .
H6 H -0.4848 0.5684 0.4156 0.041 Uiso 1 1 calc R U . . .
C7 C -0.4188(6) 0.7628(4) 0.3789(2) 0.0373(8) Uani 1 1 d . . . . .
H7 H -0.5541 0.8187 0.4060 0.045 Uiso 1 1 calc R U . . .
C8 C -0.2623(7) 0.8266(4) 0.3335(2) 0.0388(8) Uani 1 1 d . . . . .
H8 H -0.2918 0.9257 0.3302 0.047 Uiso 1 1 calc R U . . .
C9 C -0.0538(6) 0.7438(4) 0.2908(2) 0.0296(7) Uani 1 1 d . . . . .
C10 C 0.1059(6) 0.8068(3) 0.2424(2) 0.0311(7) Uani 1 1 d . . . . .
H10 H 0.0764 0.9060 0.2382 0.037 Uiso 1 1 calc R U . . .
C11 C 0.3085(6) 0.7258(3) 0.20003(19) 0.0280(6) Uani 1 1 d . . . . .
C12 C 0.4732(7) 0.7903(4) 0.1512(2) 0.0332(7) Uani 1 1 d . . . . .
H12 H 0.4455 0.8894 0.1470 0.040 Uiso 1 1 calc R U . . .
C13 C 0.6693(6) 0.7095(4) 0.1109(2) 0.0337(7) Uani 1 1 d . . . . .
H13 H 0.7722 0.7539 0.0786 0.040 Uiso 1 1 calc R U . . .
C14 C 0.7189(6) 0.5574(4) 0.11745(19) 0.0315(7) Uani 1 1 d . . . . .
H14 H 0.8555 0.5017 0.0907 0.038 Uiso 1 1 calc R U . . .
C15 C 0.7636(6) 0.1700(4) 0.0650(2) 0.0329(7) Uani 1 1 d . . . . .
C16A C 0.2499(13) 0.2116(7) 0.4098(4) 0.0387(11) Uani 0.587(3) 1 d . . P A 1
C16B C 0.0979(18) 0.1404(9) 0.4078(5) 0.0387(11) Uani 0.413(3) 1 d . . P A 2
loop_
_atom_site_aniso_label
_atom_site_aniso_U_11
_atom_site_aniso_U_22
_atom_site_aniso_U_33
_atom_site_aniso_U_23
_atom_site_aniso_U_13
_atom_site_aniso_U_12
S1 0.0317(4) 0.0297(4) 0.0264(4) -0.0063(3) 0.0001(3) -0.0035(3)
S2A 0.0434(8) 0.0242(7) 0.0256(7) 0.0016(5) -0.0036(6) -0.0024(6)
S2B 0.0310(10) 0.0242(9) 0.0193(9) 0.0021(7) -0.0006(7) -0.0026(7)
F1 0.0421(11) 0.0521(12) 0.0304(11) -0.0087(9) 0.0074(9) -0.0129(10)
F2 0.0488(12) 0.0397(11) 0.0369(12) -0.0181(9) -0.0005(9) -0.0050(9)
F3 0.0365(11) 0.0520(13) 0.0462(13) -0.0146(11) -0.0113(9) 0.0138(10)
F4A 0.039(2) 0.057(3) 0.029(2) 0.005(2) -0.0058(16) -0.0015(18)
F5A 0.077(4) 0.061(4) 0.023(2) -0.002(3) 0.006(3) 0.034(3)
F6A 0.064(3) 0.050(3) 0.032(2) 0.008(2) -0.003(2) 0.019(2)
F4B 0.087(7) 0.038(4) 0.037(4) -0.004(3) 0.007(5) 0.008(4)
F5B 0.025(3) 0.051(4) 0.118(7) -0.038(4) -0.009(4) 0.003(3)
F6B 0.075(6) 0.032(4) 0.044(4) 0.009(3) -0.020(4) 0.007(3)
O1 0.0318(11) 0.0285(11) 0.0225(11) -0.0075(9) -0.0027(9) 0.0000(9)
O2 0.0305(11) 0.0399(13) 0.0390(14) -0.0110(11) -0.0073(10) 0.0006(10)
O3 0.0646(17) 0.0381(13) 0.0356(15) -0.0038(11) 0.0051(13) -0.0180(13)
O4 0.0440(14) 0.0304(13) 0.0518(17) 0.0166(12) 0.0114(12) 0.0064(11)
O5A 0.040(3) 0.0368(19) 0.0375(19) -0.0023(14) 0.0042(15) -0.0066(12)
O6A 0.040(3) 0.0368(19) 0.0375(19) -0.0023(14) 0.0042(15) -0.0066(12)
O5B 0.040(3) 0.0368(19) 0.0375(19) -0.0023(14) 0.0042(15) -0.0066(12)
O6B 0.040(3) 0.0368(19) 0.0375(19) -0.0023(14) 0.0042(15) -0.0066(12)
C1 0.0317(15) 0.0257(15) 0.0219(15) -0.0039(12) -0.0062(12) -0.0013(12)
C2 0.0279(14) 0.0321(16) 0.0157(14) -0.0035(12) -0.0060(11) -0.0022(12)
C3 0.0304(15) 0.0240(14) 0.0220(15) -0.0013(12) -0.0044(12) -0.0001(12)
C4 0.0299(15) 0.0325(16) 0.0149(14) -0.0035(12) -0.0059(11) -0.0005(12)
C5 0.0313(15) 0.0350(16) 0.0159(14) 0.0019(12) -0.0051(12) 0.0028(13)
C6 0.0322(16) 0.0464(19) 0.0180(15) -0.0015(14) -0.0051(12) 0.0011(14)
C7 0.0312(16) 0.0461(19) 0.0319(18) -0.0189(16) 0.0015(14) -0.0001(15)
C8 0.0388(18) 0.0346(17) 0.040(2) -0.0143(16) -0.0026(15) -0.0006(15)
C9 0.0283(14) 0.0330(16) 0.0258(16) -0.0084(13) -0.0042(12) -0.0022(12)
C10 0.0352(16) 0.0276(15) 0.0285(17) -0.0083(13) -0.0064(13) -0.0012(13)
C11 0.0319(15) 0.0305(16) 0.0209(15) -0.0047(12) -0.0050(12) -0.0054(12)
C12 0.0425(18) 0.0297(15) 0.0276(17) -0.0032(13) -0.0076(14) -0.0078(14)
C13 0.0348(16) 0.0399(18) 0.0268(17) -0.0021(14) -0.0040(13) -0.0102(14)
C14 0.0302(15) 0.0402(18) 0.0217(15) -0.0058(13) -0.0031(12) -0.0030(13)
C15 0.0346(16) 0.0325(16) 0.0294(17) -0.0116(14) -0.0012(13) -0.0019(13)
C16A 0.048(3) 0.033(3) 0.026(2) 0.002(2) -0.001(2) 0.004(2)
C16B 0.048(3) 0.033(3) 0.026(2) 0.002(2) -0.001(2) 0.004(2)
loop_
_atom_type_symbol
_atom_type_description
_atom_type_scat_dispersion_real
_atom_type_scat_dispersion_imag
_atom_type_scat_source
C C 0.0181 0.0091 'International Tables Vol C Tables 4.2.6.8 and 6.1.1.4'
H H 0.0000 0.0000 'International Tables Vol C Tables 4.2.6.8 and 6.1.1.4'
F F 0.0727 0.0534 'International Tables Vol C Tables 4.2.6.8 and 6.1.1.4'
O O 0.0492 0.0322 'International Tables Vol C Tables 4.2.6.8 and 6.1.1.4'
S S 0.3331 0.5567 'International Tables Vol C Tables 4.2.6.8 and 6.1.1.4'
loop_
_exptl_crystal_face_index_h
_exptl_crystal_face_index_k
_exptl_crystal_face_index_l
_exptl_crystal_face_perp_dist
0 1 0 0.0115
0 -1 0 0.0115
0 0 1 0.0295
0 0 -1 0.0295
-2 -2 -5 0.0954
2 2 5 0.1012
loop_
_geom_angle_atom_site_label_1
_geom_angle_atom_site_label_2
_geom_angle_atom_site_label_3
_geom_angle
_geom_angle_site_symmetry_1
_geom_angle_site_symmetry_3
_geom_angle_publ_flag
O1 S1 C15 100.25(14) . . ?
O2 S1 O1 112.03(14) . . ?
O2 S1 C15 106.94(16) . . ?
O3 S1 O1 107.54(15) . . ?
O3 S1 O2 122.59(18) . . ?
O3 S1 C15 104.94(17) . . ?
O4 S2A C16A 98.3(2) . . ?
O5A S2A O4 109.7(4) . . ?
O5A S2A O6A 118.1(4) . . ?
O5A S2A C16A 106.1(4) . . ?
O6A S2A O4 114.0(3) . . ?
O6A S2A C16A 108.4(3) . . ?
O4 S2B C16B 88.3(3) . . ?
O5B S2B O4 110.7(5) . . ?
O5B S2B O6B 120.2(5) . . ?
O5B S2B C16B 109.8(6) . . ?
O6B S2B O4 114.3(4) . . ?
O6B S2B C16B 108.9(5) . . ?
C1 O1 S1 120.82(19) . . ?
C5 O4 S2A 132.8(3) . . ?
C5 O4 S2B 100.6(2) . . ?
C2 C1 O1 116.7(3) . . ?
C14 C1 O1 118.6(3) . . ?
C14 C1 C2 124.4(3) . . ?
C1 C2 C11 116.0(3) . . ?
C3 C2 C1 123.9(3) . . ?
C3 C2 C11 120.1(3) . . ?
C2 C3 H3 119.8 . . ?
C4 C3 C2 120.5(3) . . ?
C4 C3 H3 119.8 . . ?
C3 C4 C5 123.7(3) . . ?
C3 C4 C9 120.1(3) . . ?
C5 C4 C9 116.2(3) . . ?
C4 C5 O4 116.1(3) . . ?
C6 C5 O4 119.5(3) . . ?
C6 C5 C4 124.2(3) . . ?
C5 C6 H6 120.6 . . ?
C5 C6 C7 118.9(3) . . ?
C7 C6 H6 120.6 . . ?
C6 C7 H7 119.8 . . ?
C8 C7 C6 120.5(3) . . ?
C8 C7 H7 119.8 . . ?
C7 C8 H8 119.4 . . ?
C7 C8 C9 121.1(3) . . ?
C9 C8 H8 119.4 . . ?
C8 C9 C4 119.1(3) . . ?
C10 C9 C4 118.6(3) . . ?
C10 C9 C8 122.2(3) . . ?
C9 C10 H10 118.9 . . ?
C9 C10 C11 122.2(3) . . ?
C11 C10 H10 118.9 . . ?
C10 C11 C2 118.5(3) . . ?
C10 C11 C12 122.2(3) . . ?
C12 C11 C2 119.3(3) . . ?
C11 C12 H12 119.4 . . ?
C13 C12 C11 121.2(3) . . ?
C13 C12 H12 119.4 . . ?
C12 C13 H13 119.7 . . ?
C12 C13 C14 120.5(3) . . ?
C14 C13 H13 119.7 . . ?
C1 C14 C13 118.6(3) . . ?
C1 C14 H14 120.7 . . ?
C13 C14 H14 120.7 . . ?
F1 C15 S1 110.2(2) . . ?
F2 C15 S1 108.5(2) . . ?
F2 C15 F1 109.1(3) . . ?
F2 C15 F3 109.8(3) . . ?
F3 C15 S1 110.4(2) . . ?
F3 C15 F1 108.8(3) . . ?
F4A C16A S2A 110.1(4) . . ?
F4A C16A F5A 110.2(7) . . ?
F4A C16A F6A 109.5(6) . . ?
F5A C16A S2A 109.5(5) . . ?
F5A C16A F6A 109.0(6) . . ?
F6A C16A S2A 108.6(5) . . ?
F4B C16B S2B 112.6(7) . . ?
F4B C16B F6B 108.1(9) . . ?
F5B C16B S2B 111.8(7) . . ?
F5B C16B F4B 107.0(10) . . ?
F5B C16B F6B 110.5(9) . . ?
F6B C16B S2B 106.9(7) . . ?
loop_
_geom_bond_atom_site_label_1
_geom_bond_atom_site_label_2
_geom_bond_distance
_geom_bond_site_symmetry_2
_geom_bond_publ_flag
S1 O1 1.565(2) . ?
S1 O2 1.417(3) . ?
S1 O3 1.415(3) . ?
S1 C15 1.839(3) . ?
S2A O4 1.520(3) . ?
S2A O5A 1.436(9) . ?
S2A O6A 1.443(7) . ?
S2A C16A 1.828(7) . ?
S2B O4 1.783(3) . ?
S2B O5B 1.358(14) . ?
S2B O6B 1.417(10) . ?
S2B C16B 1.824(9) . ?
F1 C15 1.327(4) . ?
F2 C15 1.320(4) . ?
F3 C15 1.320(4) . ?
F4A C16A 1.305(9) . ?
F5A C16A 1.329(9) . ?
F6A C16A 1.334(8) . ?
F4B C16B 1.296(14) . ?
F5B C16B 1.242(13) . ?
F6B C16B 1.355(11) . ?
O1 C1 1.436(4) . ?
O4 C5 1.432(4) . ?
C1 C2 1.423(4) . ?
C1 C14 1.347(5) . ?
C2 C3 1.403(5) . ?
C2 C11 1.435(4) . ?
C3 H3 0.9300 . ?
C3 C4 1.400(4) . ?
C4 C5 1.419(5) . ?
C4 C9 1.435(5) . ?
C5 C6 1.350(5) . ?
C6 H6 0.9300 . ?
C6 C7 1.414(5) . ?
C7 H7 0.9300 . ?
C7 C8 1.362(6) . ?
C8 H8 0.9300 . ?
C8 C9 1.428(5) . ?
C9 C10 1.397(5) . ?
C10 H10 0.9300 . ?
C10 C11 1.398(5) . ?
C11 C12 1.428(5) . ?
C12 H12 0.9300 . ?
C12 C13 1.356(5) . ?
C13 H13 0.9300 . ?
C13 C14 1.424(5) . ?
C14 H14 0.9300 . ?
loop_
_geom_torsion_atom_site_label_1
_geom_torsion_atom_site_label_2
_geom_torsion_atom_site_label_3
_geom_torsion_atom_site_label_4
_geom_torsion
_geom_torsion_site_symmetry_1
_geom_torsion_site_symmetry_2
_geom_torsion_site_symmetry_3
_geom_torsion_site_symmetry_4
_geom_torsion_publ_flag
S1 O1 C1 C2 87.3(3) . . . . ?
S1 O1 C1 C14 -99.1(3) . . . . ?
S2A O4 C5 C4 124.3(3) . . . . ?
S2A O4 C5 C6 -60.4(4) . . . . ?
S2B O4 C5 C4 99.3(3) . . . . ?
S2B O4 C5 C6 -85.3(3) . . . . ?
O1 S1 C15 F1 -68.4(2) . . . . ?
O1 S1 C15 F2 172.2(2) . . . . ?
O1 S1 C15 F3 51.8(3) . . . . ?
O1 C1 C2 C3 -6.2(4) . . . . ?
O1 C1 C2 C11 173.7(2) . . . . ?
O1 C1 C14 C13 -174.1(3) . . . . ?
O2 S1 O1 C1 -4.8(3) . . . . ?
O2 S1 C15 F1 48.6(3) . . . . ?
O2 S1 C15 F2 -70.8(3) . . . . ?
O2 S1 C15 F3 168.8(2) . . . . ?
O3 S1 O1 C1 -142.3(2) . . . . ?
O3 S1 C15 F1 -179.8(2) . . . . ?
O3 S1 C15 F2 60.8(3) . . . . ?
O3 S1 C15 F3 -59.6(3) . . . . ?
O4 S2A C16A F4A 59.3(5) . . . . ?
O4 S2A C16A F5A -61.9(5) . . . . ?
O4 S2A C16A F6A 179.1(5) . . . . ?
O4 S2B C16B F4B 61.0(8) . . . . ?
O4 S2B C16B F5B -59.4(8) . . . . ?
O4 S2B C16B F6B 179.5(7) . . . . ?
O4 C5 C6 C7 -176.2(3) . . . . ?
O5A S2A O4 S2B 58.9(3) . . . . ?
O5A S2A O4 C5 17.5(5) . . . . ?
O5A S2A C16A F4A -54.0(6) . . . . ?
O5A S2A C16A F5A -175.3(6) . . . . ?
O5A S2A C16A F6A 65.8(6) . . . . ?
O6A S2A O4 S2B -166.1(3) . . . . ?
O6A S2A O4 C5 152.5(4) . . . . ?
O6A S2A C16A F4A 178.2(4) . . . . ?
O6A S2A C16A F5A 56.9(6) . . . . ?
O6A S2A C16A F6A -62.0(6) . . . . ?
O5B S2B O4 S2A -69.6(5) . . . . ?
O5B S2B O4 C5 80.8(5) . . . . ?
O5B S2B C16B F4B 172.5(9) . . . . ?
O5B S2B C16B F5B 52.0(9) . . . . ?
O5B S2B C16B F6B -69.0(9) . . . . ?
O6B S2B O4 S2A 150.9(4) . . . . ?
O6B S2B O4 C5 -58.7(4) . . . . ?
O6B S2B C16B F4B -54.1(9) . . . . ?
O6B S2B C16B F5B -174.5(8) . . . . ?
O6B S2B C16B F6B 64.4(8) . . . . ?
C1 C2 C3 C4 179.3(3) . . . . ?
C1 C2 C11 C10 -179.4(3) . . . . ?
C1 C2 C11 C12 -0.4(4) . . . . ?
C2 C1 C14 C13 -1.1(5) . . . . ?
C2 C3 C4 C5 178.9(3) . . . . ?
C2 C3 C4 C9 0.6(4) . . . . ?
C2 C11 C12 C13 0.8(5) . . . . ?
C3 C2 C11 C10 0.5(4) . . . . ?
C3 C2 C11 C12 179.5(3) . . . . ?
C3 C4 C5 O4 -2.8(4) . . . . ?
C3 C4 C5 C6 -178.0(3) . . . . ?
C3 C4 C9 C8 179.2(3) . . . . ?
C3 C4 C9 C10 -0.4(4) . . . . ?
C4 C5 C6 C7 -1.2(5) . . . . ?
C4 C9 C10 C11 0.3(5) . . . . ?
C5 C4 C9 C8 0.8(4) . . . . ?
C5 C4 C9 C10 -178.9(3) . . . . ?
C5 C6 C7 C8 0.8(5) . . . . ?
C6 C7 C8 C9 0.4(5) . . . . ?
C7 C8 C9 C4 -1.2(5) . . . . ?
C7 C8 C9 C10 178.5(3) . . . . ?
C8 C9 C10 C11 -179.3(3) . . . . ?
C9 C4 C5 O4 175.5(3) . . . . ?
C9 C4 C5 C6 0.4(4) . . . . ?
C9 C10 C11 C2 -0.4(5) . . . . ?
C9 C10 C11 C12 -179.3(3) . . . . ?
C10 C11 C12 C13 179.7(3) . . . . ?
C11 C2 C3 C4 -0.7(4) . . . . ?
C11 C12 C13 C14 -1.3(5) . . . . ?
C12 C13 C14 C1 1.4(5) . . . . ?
C14 C1 C2 C3 -179.3(3) . . . . ?
C14 C1 C2 C11 0.7(4) . . . . ?
C15 S1 O1 C1 108.4(2) . . . . ?
C16A S2A O4 S2B -51.6(2) . . . . ?
C16A S2A O4 C5 -93.0(4) . . . . ?
C16B S2B O4 S2A 40.9(3) . . . . ?
C16B S2B O4 C5 -168.6(4) . . . . ?
loop_
_exptl_oxdiff_crystal_face_indexfrac_h
_exptl_oxdiff_crystal_face_indexfrac_k
_exptl_oxdiff_crystal_face_indexfrac_l
_exptl_oxdiff_crystal_face_x
_exptl_oxdiff_crystal_face_y
_exptl_oxdiff_crystal_face_z
0.0157 1.0031 -0.0048 -0.1633 -0.0151 -0.0127
-0.0157 -1.0031 0.0048 0.1633 0.0151 0.0127
0.0000 0.0043 1.0026 0.0156 -0.0200 -0.0856
-0.0000 -0.0043 -1.0026 -0.0156 0.0200 0.0856
-2.0275 -1.9186 -4.9431 0.0593 0.6601 0.2759
2.0275 1.9186 4.9431 -0.0593 -0.6601 -0.2759
