#------------------------------------------------------------------------------
#$Date: 2021-05-10 10:20:27 +0300 (Mon, 10 May 2021) $
#$Revision: 265064 $
#$URL: file:///home/coder/svn-repositories/cod/cif/1/56/24/1562446.cif $
#------------------------------------------------------------------------------
#
# This file is available in the Crystallography Open Database (COD),
# http://www.crystallography.net/
#
# All data on this site have been placed in the public domain by the
# contributors.
#
data_1562446
loop_
_publ_author_name
'Sun, Li-Zhi'
'Sun, Wei'
'Ren, Wei-Jian'
'Zhang, Jia-Ying'
'Huang, Ya-Xi'
'Sun, Zhi-Mei'
'Pan, Yuanming'
'Mi, Jin-Xiao'
_publ_section_title
;
 Synthesis and characterization of novel barium iron phosphates: Insight
 into new structure types tailored by hydrogen atoms
;
_journal_name_full               'Journal of Solid State Chemistry'
_journal_page_first              48
_journal_page_last               57
_journal_paper_doi               10.1016/j.jssc.2014.01.010
_journal_volume                  212
_journal_year                    2014
_chemical_formula_sum            'Ba Fe2 O14 P4'
_chemical_formula_weight         596.91
_space_group_IT_number           2
_space_group_name_Hall           '-P 1'
_space_group_name_H-M_alt        'P -1'
_symmetry_cell_setting           triclinic
_symmetry_Int_Tables_number      2
_symmetry_space_group_name_Hall  '-P 1'
_symmetry_space_group_name_H-M   'P -1'
_cell_angle_alpha                101.164(4)
_cell_angle_beta                 105.693(5)
_cell_angle_gamma                96.507(4)
_cell_formula_units_Z            1
_cell_length_a                   6.2350(17)
_cell_length_b                   7.8552(19)
_cell_length_c                   6.1600(16)
_cell_measurement_reflns_used    .
_cell_measurement_temperature    295
_cell_measurement_theta_max      120.0
_cell_measurement_theta_min      3.0
_cell_volume                     280.54(13)
_diffrn_ambient_temperature      295
_diffrn_measurement_device_type  'PANalytical X'pert '
_exptl_crystal_density_diffrn    3.5332
_exptl_crystal_F_000             280.0
_pd_char_colour                  'intense black'
_pd_proc_2theta_range_inc        0.017
_pd_proc_2theta_range_max        69.992
_pd_proc_2theta_range_min        9.999
_pd_proc_ls_profile_function
;
 Background modelled by a Chebyshev polynomial of degree 20
         b1        648.0(5)
         b2        -75.4(8)
         b3        11.0(8)
         b4        7.6(8)
         b5        -1.3(8)
         b6        -9.7(8)
         b7        9.9(7)
         b8        -4.1(7)
         b9        -2.8(7)
         b10       2.2(7)
         b11       1.1(7)
         b12       -1.5(7)
         b13       -1.1(7)
         b14       -2.5(7)
         b15       3.0(6)
         b16       -.4(6)
         b17       -.6(6)
         b18       .7(6)
         b19       .7(5)
         b20       -.7(5)
 
         zero       0.00007580367
         scale      0.0002704467

 Profile shape function: Pearson VII
         U          0.5422097
         V         -0.1325161
         W          0.02530361
         beta0      5.965516
         beta1     -177.5008
         beta2      1301.352
         asym      -0.2696195
;
_pd_proc_ls_prof_R_factor        0.04443
_pd_proc_ls_prof_wR_expected     0.05264
_pd_proc_ls_prof_wR_factor       0.05684
_refine_ls_goodness_of_fit_all   1.169
_refine_ls_number_parameters     62
_refine_ls_R_Fsqd_factor         0.07586
_cod_data_source_file            JSSC-2014-212-48.cif
_cod_data_source_block           BaFePO
_cod_depositor_comments
;
The following automatic conversions were performed:

data item '_geom_angle_publ_flag' value 'Y' was changed to 'y' in
accordance with the built-in table derived from the CIF Core
dictionary named 'cif_core.dic' version 2.4.5 last updated on
2014-11-21 (27 times).

data item '_geom_bond_publ_flag' value 'Y' was changed to 'y' in
accordance with the built-in table derived from the CIF Core
dictionary named 'cif_core.dic' version 2.4.5 last updated on
2014-11-21 (24 times).

Automatic conversion script
Id: cif_fix_values 8369 2020-08-20 11:38:08Z andrius 
;
_cod_original_sg_symbol_H-M      P-1
_cod_database_code               1562446
_diffrn_measurement_type         powder
loop_
_symmetry_equiv_pos_as_xyz
x,y,z
-x,-y,-z
loop_
_atom_site_label
_atom_site_type_symbol
_atom_site_fract_x
_atom_site_fract_y
_atom_site_fract_z
_atom_site_U_iso_or_equiv
_atom_site_adp_type
_atom_site_occupancy
_atom_site_site_symmetry_order
_atom_site_calc_flag
_atom_site_refinement_flags_posn
_atom_site_refinement_flags_adp
_atom_site_refinement_flags_occupancy
Ba1 Ba 0.000000 0.000000 0.000000 0.006(2) Uiso 1 2 d S . P
Fe1 Fe 0.3080(11) 0.7668(8) 0.6234(12) 0.008(3) Uiso 1 1 d . . .
P1 P 0.2441(13) 0.3351(9) 0.4794(13) 0.008(5) Uiso 1 1 d . . .
P2 P 0.4656(19) 0.8033(11) 0.1838(19) 0.008(5) Uiso 1 1 d . . .
O1 O 0.2282(16) 0.5220(9) 0.4694(18) 0.012(7) Uiso 1 1 d . . .
O2 O 0.0206(13) 0.2176(13) 0.4323(18) 0.012(7) Uiso 1 1 d . . .
O3 O 0.3593(18) 0.2424(16) 0.3135(15) 0.012(7) Uiso 1 1 d . . .
O4 O 0.3966(18) 0.3445(9) 0.7397(12) 0.012(7) Uiso 1 1 d . . .
O5 O 0.3264(19) 0.7298(19) 0.9363(19) 0.012(7) Uiso 1 1 d . . .
O6 O 0.3605(19) 0.0349(15) 0.7814(16) 0.012(7) Uiso 1 1 d . . .
O7 O 0.3070(19) 0.8366(11) 0.3314(17) 0.012(7) Uiso 1 1 d . . .
loop_
_diffrn_radiation_wavelength
_diffrn_radiation_wavelength_wt
_diffrn_radiation_type
_diffrn_radiation_wavelength_id
1.540560 1.000 'Cu K\a~1~' 1
1.544330 0.500 'Cu K\a~2~' 2
loop_
_geom_angle_atom_site_label_1
_geom_angle_atom_site_label_2
_geom_angle_atom_site_label_3
_geom_angle
_geom_angle_site_symmetry_1
_geom_angle_site_symmetry_2
_geom_angle_site_symmetry_3
_geom_angle_publ_flag
O1 Fe1 O7 91.9(5) . . . y
O1 Fe1 O5 95.5(6) . . . y
O1 Fe1 O2 90.1(5) . . 2_566 y
O1 Fe1 O3 91.5(5) . . 2_666 y
O1 Fe1 O6 174.3(5) . . 1_565 y
O7 Fe1 O5 172.4(6) . . . y
O7 Fe1 O2 91.4(5) . . 2_566 y
O7 Fe1 O3 89.1(5) . . 2_666 y
O7 Fe1 O6 87.6(5) . . 1_565 y
O5 Fe1 O2 89.8(5) . . 2_566 y
O5 Fe1 O3 89.5(5) . . 2_666 y
O5 Fe1 O6 85.1(5) . . 1_565 y
O2 Fe1 O3 178.4(6) 2_566 . 2_666 y
O2 Fe1 O6 84.2(5) 2_566 . 1_565 y
O3 Fe1 O6 94.3(5) 2_666 . 1_565 y
O1 P1 O2 114.6(7) . . . y
O1 P1 O3 114.4(7) . . . y
O1 P1 O4 105.4(6) . . . y
O2 P1 O3 105.8(7) . . . y
O2 P1 O4 108.7(7) . . . y
O3 P1 O4 107.7(6) . . . y
O5 P2 O6 113.6(9) 1_554 . 2_666 y
O5 P2 O7 108.7(9) 1_554 . . y
O5 P2 O4 106.5(8) 1_554 . 2_666 y
O6 P2 O7 112.4(9) 2_666 . . y
O6 P2 O4 106.4(7) 2_666 . 2_666 y
O7 P2 O4 108.9(8) . . 2_666 y
loop_
_geom_bond_atom_site_label_1
_geom_bond_atom_site_label_2
_geom_bond_distance
_geom_bond_site_symmetry_1
_geom_bond_site_symmetry_2
_geom_bond_publ_flag
Ba1 O3 2.764(9) . . y
Ba1 O3 2.764(9) . . y
Ba1 O2 2.834(10) . . y
Ba1 O2 2.834(10) . . y
Ba1 O6 2.929(12) . 2_556 y
Ba1 O6 2.929(12) . 1_554 y
Ba1 O7 2.989(10) . 2_565 y
Ba1 O7 2.989(10) . 1_545 y
Ba1 O5 3.145(14) . 2_566 y
Ba1 O5 3.145(14) . 1_544 y
Fe1 O1 1.915(9) . . y
Fe1 O5 1.979(15) . . y
Fe1 O6 2.090(12) . 1_565 y
Fe1 O7 1.978(14) . . y
Fe1 O2 2.006(11) . 2_566 y
Fe1 O3 2.017(13) . 2_666 y
P1 O1 1.494(11) . . y
P1 O2 1.505(11) . . y
P1 O3 1.523(14) . . y
P1 O4 1.611(10) . . y
P2 O5 1.497(14) . 1_554 y
P2 O7 1.525(18) . . y
P2 O6 1.514(15) . 2_666 y
P2 O4 1.590(14) . 2_666 y
loop_
_pd_meas_2theta_scan
_pd_meas_counts_total
_pd_calc_intensity_total
_pd_proc_intensity_bkg_calc
_pd_proc_ls_weight
9.999 392.000 429.571533 427.901794 -37.571533
10.016 429.000 428.582031 426.878937 0.417969
10.033 442.000 427.623260 425.885773 14.376740
10.050 467.000 426.694305 424.921387 40.305695
10.067 423.000 425.794586 423.985107 -2.794586
10.084 421.000 424.923248 423.076019 -3.923248
10.101 400.000 424.079651 422.193481 -24.079651
10.118 431.000 423.263031 421.336670 7.736969
10.135 423.000 422.472992 420.505096 0.527008
10.152 435.000 421.708740 419.697937 13.291260
10.169 450.000 420.969696 418.914551 29.030304
10.186 435.000 420.255280 418.154266 14.744720
10.203 424.000 419.564819 417.416382 4.435181
10.220 405.000 418.897980 416.700439 -13.897980
10.237 441.000 418.254059 416.005707 22.745941
10.254 428.000 417.632599 415.331604 10.367401
10.271 423.000 417.033051 414.677521 5.966949
10.288 420.000 416.455109 414.043030 3.544891
10.305 410.000 415.898071 413.427368 -5.898071
10.322 405.000 415.361633 412.830109 -10.361633
10.339 400.000 414.845398 412.250732 -14.845398
10.356 422.000 414.348877 411.688629 7.651123
10.373 422.000 413.871887 411.143494 8.128113
10.390 423.000 413.413788 410.614563 9.586212
10.407 419.000 412.974457 410.101562 6.025543
10.424 419.000 412.553467 409.603882 6.446533
10.441 403.000 412.150604 409.121185 -9.150604
10.458 385.000 411.765594 408.652985 -26.765594
10.475 394.000 411.398071 408.198761 -17.398071
10.492 385.000 411.047943 407.758179 -26.047943
10.509 386.000 410.714996 407.330811 -24.714996
10.526 386.000 410.399017 406.916229 -24.399017
10.543 399.000 410.099884 406.514069 -11.099884
10.560 399.000 409.817444 406.123871 -10.817444
10.577 405.000 409.551697 405.745331 -4.551697
10.594 436.000 409.302551 405.378082 26.697449
10.611 415.000 409.069946 405.021698 5.930054
10.628 381.000 408.854004 404.675934 -27.854004
10.645 407.000 408.654724 404.340363 -1.654724
10.662 401.000 408.472229 404.014679 -7.472229
10.679 400.000 408.306671 403.698578 -8.306671
10.696 418.000 408.158234 403.391724 9.841766
10.713 431.000 408.027191 403.093811 22.972809
10.730 395.000 407.913849 402.804535 -12.913849
10.747 394.000 407.818573 402.523590 -13.818573
10.764 411.000 407.741913 402.250793 3.258087
10.781 415.000 407.684296 401.985748 7.315704
10.798 410.000 407.646423 401.728271 2.353577
10.815 407.000 407.628906 401.478027 -0.628906
10.832 426.000 407.632721 401.234863 18.367279
10.849 442.000 407.658569 400.998352 34.341431
10.866 380.000 407.707825 400.768494 -27.707825
10.883 427.000 407.781494 400.544861 19.218506
10.900 401.000 407.881012 400.327271 -6.881012
10.917 416.000 408.008057 400.115570 7.991943
10.934 408.000 408.164398 399.909485 -0.164398
10.951 406.000 408.352051 399.708832 -2.352051
10.968 423.000 408.573364 399.513367 14.426636
10.985 427.000 408.831055 399.322937 18.168945
11.002 405.000 409.128143 399.137329 -4.128143
11.019 388.000 409.468109 398.956360 -21.468109
11.036 394.000 409.854919 398.779846 -15.854919
11.053 416.000 410.293152 398.607605 5.706848
11.070 446.000 410.788086 398.439514 35.211914
11.087 430.000 411.345795 398.275330 18.654205
11.104 425.000 411.973236 398.114929 13.026764
11.121 411.000 412.678558 397.958130 -1.678558
11.138 404.000 413.471466 397.804871 -9.471466
11.155 418.000 414.362885 397.654846 3.637115
11.172 408.000 415.366028 397.508057 -7.366028
11.189 404.000 416.496277 397.364319 -12.496277
11.206 398.000 417.772125 397.223480 -19.772125
11.223 410.000 419.215485 397.085419 -9.215485
11.240 423.000 420.852692 396.950012 2.147308
11.257 458.000 422.715668 396.817139 35.284332
11.274 444.000 424.843079 396.686646 19.156921
11.291 428.000 427.282440 396.558472 0.717560
11.308 446.000 430.092773 396.432495 15.907227
11.325 470.000 433.347046 396.308563 36.652954
11.342 442.000 437.137390 396.186646 4.862610
11.359 461.000 441.580200 396.066559 19.419800
11.376 460.000 446.825775 395.948303 13.174225
11.393 480.000 453.067627 395.831665 26.932373
11.410 480.000 460.559937 395.716644 19.440063
11.427 462.000 469.639221 395.603119 -7.639221
11.444 471.000 480.755737 395.491028 -9.755737
11.461 526.000 494.521210 395.380249 31.478790
11.478 553.000 511.768372 395.270752 41.231628
11.495 564.000 533.639099 395.162384 30.360901
11.512 614.000 561.690125 395.055176 52.309875
11.529 636.000 597.992615 394.948975 38.007385
11.546 644.000 645.145264 394.843750 -1.145264
11.563 684.000 705.908203 394.739380 -21.908203
11.580 776.000 781.920532 394.635895 -5.920532
11.597 818.000 870.593018 394.533173 -52.593018
11.614 889.000 959.455994 394.431152 -70.455994
11.631 985.000 1018.754333 394.329773 -33.754333
11.648 1061.000 1007.743286 394.229034 53.256714
11.665 984.000 920.354858 394.128845 63.645142
11.682 859.000 803.589355 394.029114 55.410645
11.699 701.000 700.134155 393.929871 0.865845
11.716 624.000 622.529419 393.831024 1.470581
11.733 526.000 567.473938 393.732544 -41.473938
11.750 486.000 528.643677 393.634369 -42.643677
11.767 459.000 500.853210 393.536469 -41.853210
11.784 415.000 480.528442 393.438812 -65.528442
11.801 428.000 465.316467 393.341370 -37.316467
11.818 436.000 453.679016 393.244049 -17.679016
11.835 455.000 444.595428 393.146881 10.404572
11.852 420.000 437.376099 393.049805 -17.376099
11.869 414.000 431.544128 392.952820 -17.544128
11.886 461.000 426.764435 392.855835 34.235565
11.903 394.000 422.796051 392.758881 -28.796051
11.920 390.000 419.462555 392.661896 -29.462555
11.937 416.000 416.632874 392.564880 -0.632874
11.954 436.000 414.207428 392.467773 21.792572
11.971 430.000 412.110413 392.370605 17.889587
11.988 386.000 410.282745 392.273315 -24.282745
12.005 409.000 408.678101 392.175842 0.321899
12.022 411.000 407.259521 392.078247 3.740479
12.039 405.000 405.997589 391.980499 -0.997589
12.056 398.000 404.868317 391.882568 -6.868317
12.073 427.000 403.852142 391.784393 23.147858
12.090 408.000 402.933075 391.686005 5.066925
12.107 398.000 402.097778 391.587402 -4.097778
12.124 401.000 401.335083 391.488525 -0.335083
12.141 378.000 400.635681 391.389404 -22.635681
12.158 380.000 399.991638 391.289978 -19.991638
12.175 404.000 399.396362 391.190308 4.603638
12.192 407.000 398.844025 391.090332 8.155975
12.209 397.000 398.362579 390.990051 -1.362579
12.226 411.000 397.882568 390.889465 13.117432
12.243 405.000 397.432709 390.788574 7.567291
12.260 395.000 397.009827 390.687317 -2.009827
12.277 387.000 396.611176 390.585754 -9.611176
12.294 379.000 396.234344 390.483887 -17.234344
12.311 391.000 395.877106 390.381653 -4.877106
12.328 383.000 395.537598 390.279053 -12.537598
12.345 381.000 395.214264 390.176147 -14.214264
12.362 369.000 394.905457 390.072845 -25.905457
12.379 367.000 394.609985 389.969238 -27.609985
12.396 384.000 394.326599 389.865234 -10.326599
12.413 388.000 394.054291 389.760864 -6.054291
12.430 397.000 393.792145 389.656189 3.207855
12.447 410.000 393.603638 389.551117 16.396362
12.464 400.000 393.360016 389.445709 6.639984
12.481 384.000 393.124237 389.339935 -9.124237
12.498 384.000 392.895752 389.233826 -8.895752
12.515 405.000 392.673859 389.127319 12.326141
12.532 378.000 392.458191 389.020508 -14.458191
12.549 390.000 392.248230 388.913330 -2.248230
12.566 388.000 392.043518 388.805786 -4.043518
12.583 400.000 391.843719 388.697906 8.156281
12.600 395.000 391.648468 388.589691 3.351532
12.617 414.000 391.457458 388.481140 22.542542
12.634 421.000 391.270416 388.372253 29.729584
12.651 417.000 391.087036 388.263062 25.912964
12.668 436.000 390.907043 388.153503 45.092957
12.685 426.000 390.730286 388.043640 35.269714
12.702 398.000 390.556519 387.933472 7.443481
12.719 382.000 390.385590 387.822998 -8.385590
12.736 404.000 390.217255 387.712219 13.782745
12.753 386.000 390.051361 387.601105 -4.051361
12.770 419.000 389.887817 387.489746 29.112183
12.787 403.000 389.726440 387.378052 13.273560
12.804 403.000 389.567108 387.266113 13.432892
12.821 400.000 389.409729 387.153900 10.590271
12.838 352.000 389.254211 387.041443 -37.254211
12.855 420.000 389.100372 386.928680 30.899628
12.872 412.000 388.948151 386.815674 23.051849
12.889 379.000 388.797485 386.702423 -9.797485
12.906 381.000 388.648315 386.588959 -7.648315
12.923 399.000 388.500488 386.475220 10.499512
12.940 390.000 388.354034 386.361298 1.645966
12.957 369.000 388.208801 386.247131 -19.208801
12.974 387.000 388.064789 386.132751 -1.064789
12.991 350.000 387.921906 386.018188 -37.921906
13.008 400.000 387.780121 385.903412 12.219879
13.025 370.000 387.639374 385.788452 -17.639374
13.042 365.000 387.499664 385.673340 -22.499664
13.059 384.000 387.360870 385.558014 -3.360870
13.076 393.000 387.223053 385.442566 5.776947
13.093 380.000 387.086090 385.326935 -7.086090
13.110 373.000 386.950012 385.211182 -13.950012
13.127 406.000 386.814728 385.095245 19.185272
13.144 416.000 386.680328 384.979248 29.319672
13.161 388.000 386.546631 384.863068 1.453369
13.178 385.000 386.413727 384.746796 -1.413727
13.195 394.000 386.281555 384.630432 7.718445
13.212 403.000 386.150116 384.513947 16.849884
13.229 415.000 386.019379 384.397400 28.980621
13.246 418.000 385.889313 384.280762 32.110687
13.263 400.000 385.759918 384.164032 14.240082
13.280 365.000 385.631195 384.047241 -20.631195
13.297 348.000 385.503143 383.930420 -37.503143
13.314 345.000 385.375732 383.813538 -40.375732
13.331 381.000 385.248932 383.696625 -4.248932
13.348 409.000 385.122742 383.579651 23.877258
13.365 377.000 384.997192 383.462677 -7.997192
13.382 387.000 384.872284 383.345703 2.127716
13.399 403.000 384.747955 383.228699 18.252045
13.416 404.000 384.624268 383.111725 19.375732
13.433 399.000 384.501160 382.994751 14.498840
13.450 382.000 384.378662 382.877777 -2.378662
13.467 377.000 384.256775 382.760834 -7.256775
13.484 390.000 384.135468 382.643921 5.864532
13.501 376.000 384.014801 382.527069 -8.014801
13.518 389.000 383.894775 382.410278 5.105225
13.535 379.000 383.775299 382.293518 -4.775299
13.552 377.000 383.656464 382.176819 -6.656464
13.569 383.000 383.538300 382.060242 -0.538300
13.586 392.000 383.420715 381.943695 8.579285
13.603 401.000 383.303802 381.827271 17.696198
13.620 383.000 383.187531 381.710938 -0.187531
13.637 381.000 383.071899 381.594696 -2.071899
13.654 392.000 382.956970 381.478607 9.043030
13.671 391.000 382.842682 381.362610 8.157318
13.688 391.000 382.729065 381.246735 8.270935
13.705 396.000 382.616180 381.131012 13.383820
13.722 381.000 382.504028 381.015442 -1.504028
13.739 360.000 382.392548 380.899994 -22.392548
13.756 371.000 382.281860 380.784729 -11.281860
13.773 401.000 382.171906 380.669617 18.828094
13.790 369.000 382.062744 380.554688 -13.062744
13.807 367.000 381.954407 380.439941 -14.954407
13.824 404.000 381.846863 380.325378 22.153137
13.841 361.000 381.740143 380.210999 -20.740143
13.858 360.000 381.634277 380.096832 -21.634277
13.875 401.000 381.529327 379.982880 19.470673
13.892 374.000 381.425323 379.869171 -7.425323
13.909 387.000 381.322235 379.755646 5.677765
13.926 382.000 381.220123 379.642365 0.779877
13.943 364.000 381.119019 379.529327 -17.119019
13.960 382.000 381.018951 379.416504 0.981049
13.977 373.000 380.919983 379.303986 -7.919983
13.994 414.000 380.822113 379.191681 33.177887
14.011 380.000 380.725403 379.079651 -0.725403
14.028 373.000 380.629913 378.967896 -7.629913
14.045 361.000 380.535706 378.856415 -19.535706
14.062 364.000 380.442780 378.745209 -16.442780
14.079 389.000 380.351227 378.634308 8.648773
14.096 407.000 380.261139 378.523712 26.738861
14.113 376.000 380.172516 378.413391 -4.172516
14.130 388.000 380.085510 378.303406 7.914490
14.147 375.000 380.000153 378.193756 -5.000153
14.164 347.000 379.916504 378.084381 -32.916504
14.181 353.000 379.834717 377.975342 -26.834717
14.198 375.000 379.754883 377.866638 -4.754883
14.215 370.000 379.677124 377.758301 -9.677124
14.232 394.000 379.601532 377.650299 14.398468
14.249 391.000 379.528259 377.542633 11.471741
14.266 380.000 379.457458 377.435333 0.542542
14.283 376.000 379.389313 377.328400 -3.389313
14.300 361.000 379.324036 377.221863 -18.324036
14.317 346.000 379.261780 377.115662 -33.261780
14.334 357.000 379.202789 377.009827 -22.202789
14.351 385.000 379.147369 376.904419 5.852631
14.368 403.000 379.095795 376.799377 23.904205
14.385 403.000 379.048401 376.694763 23.951599
14.402 384.000 379.005585 376.590546 4.994415
14.419 381.000 378.967743 376.486725 2.032257
14.436 382.000 378.935425 376.383331 3.064575
14.453 370.000 378.909119 376.280334 -8.909119
14.470 362.000 378.889587 376.177795 -16.889587
14.487 357.000 378.877472 376.075653 -21.877472
14.504 355.000 378.873749 375.973969 -23.873749
14.521 379.000 378.879425 375.872711 0.120575
14.538 379.000 378.895752 375.771912 0.104248
14.555 400.000 378.924133 375.671570 21.075867
14.572 388.000 378.966339 375.571686 9.033661
14.589 398.000 379.024414 375.472229 18.975586
14.606 379.000 379.100952 375.373291 -0.100952
14.623 351.000 379.203125 375.274780 -28.203125
14.640 389.000 379.326538 375.176788 9.673462
14.657 386.000 379.479950 375.079224 6.520050
14.674 361.000 379.669342 374.982178 -18.669342
14.691 361.000 379.902252 374.885620 -18.902252
14.708 383.000 380.188354 374.789581 2.811646
14.725 387.000 380.540161 374.694000 6.459839
14.742 420.000 380.974121 374.598969 39.025879
14.759 368.000 381.512177 374.504425 -13.512177
14.776 347.000 382.183716 374.410400 -35.183716
14.793 392.000 383.028625 374.316895 8.971375
14.810 379.000 384.101624 374.223907 -5.101624
14.827 388.000 385.477295 374.131470 2.522705
14.844 405.000 387.256256 374.039551 17.743744
14.861 400.000 389.568848 373.948181 10.431152
14.878 439.000 392.566162 373.857330 46.433838
14.895 392.000 396.376251 373.767029 -4.376251
14.912 428.000 400.980499 373.677307 27.019501
14.929 434.000 405.965729 373.588135 28.034271
14.946 456.000 410.133453 373.499512 45.866547
14.963 430.000 411.341553 373.411469 18.658447
14.980 430.000 408.222809 373.323975 21.777191
14.997 458.000 402.482635 373.237061 55.517365
15.014 417.000 396.855103 373.150726 20.144897
15.031 388.000 392.576050 373.064972 -4.576050
15.048 385.000 389.677460 372.979797 -4.677460
15.065 405.000 387.847778 372.895233 17.152222
15.082 407.000 386.797791 372.811249 20.202209
15.099 405.000 386.332153 372.727875 18.667847
15.116 390.000 386.338135 372.645111 3.661865
15.133 374.000 386.764862 372.562927 -12.764862
15.150 377.000 387.609589 372.481384 -10.609589
15.167 387.000 388.911804 372.400452 -1.911804
15.184 393.000 390.754517 372.320129 2.245483
15.201 382.000 393.289673 372.240417 -11.289673
15.218 403.000 396.672913 372.161346 6.327087
15.235 393.000 401.182129 372.082916 -8.182129
15.252 392.000 407.128448 372.005096 -15.128448
15.269 379.000 414.788208 371.927917 -35.788208
15.286 392.000 424.160522 371.851410 -32.160522
15.303 427.000 434.465759 371.775543 -7.465759
15.320 445.000 443.334167 371.700317 1.665833
15.337 448.000 446.303253 371.625732 1.696747
15.354 442.000 439.962463 371.551819 2.037537
15.371 458.000 427.321564 371.478546 30.678436
15.388 424.000 414.345184 371.405975 9.654816
15.405 399.000 404.030884 371.334045 -5.030884
15.422 393.000 396.587860 371.262817 -3.587860
15.439 398.000 391.341095 371.192230 6.658905
15.456 356.000 387.612640 371.122345 -31.612640
15.473 373.000 384.909637 371.053162 -11.909637
15.490 402.000 382.904510 370.984619 19.095490
15.507 403.000 381.383423 370.916809 21.616577
15.524 404.000 380.205475 370.849670 23.794525
15.541 391.000 379.276550 370.783203 11.723450
15.558 403.000 378.532410 370.717499 24.467590
15.575 379.000 377.928162 370.652466 1.071838
15.592 391.000 377.431824 370.588135 13.568176
15.609 379.000 377.020386 370.524536 1.979614
15.626 396.000 376.676666 370.461609 19.323334
15.643 381.000 376.388000 370.399445 4.612000
15.660 395.000 376.144623 370.337982 18.855377
15.677 377.000 375.939087 370.277222 1.060913
15.694 388.000 375.765656 370.217224 12.234344
15.711 369.000 375.619690 370.157928 -6.619690
15.728 369.000 375.497711 370.099396 -6.497711
15.745 352.000 375.396790 370.041595 -23.396790
15.762 347.000 375.314667 369.984497 -28.314667
15.779 362.000 375.249573 369.928192 -13.249573
15.796 378.000 375.199982 369.872620 2.800018
15.813 371.000 375.164734 369.817780 -4.164734
15.830 370.000 375.142975 369.763702 -5.142975
15.847 372.000 375.133942 369.710358 -3.133942
15.864 383.000 375.137146 369.657806 7.862854
15.881 405.000 375.152161 369.605988 29.847839
15.898 377.000 375.178680 369.554932 1.821320
15.915 368.000 375.216644 369.504669 -7.216644
15.932 382.000 375.265869 369.455139 6.734131
15.949 373.000 375.326538 369.406403 -2.326538
15.966 385.000 375.398712 369.358459 9.601288
15.983 361.000 375.482544 369.311249 -14.482544
16.000 393.000 375.578430 369.264862 17.421570
16.017 413.000 375.686676 369.219208 37.313324
16.034 402.000 375.807770 369.174377 26.192230
16.051 362.000 375.942230 369.130310 -13.942230
16.068 352.000 376.090729 369.087067 -24.090729
16.085 375.000 376.253906 369.044586 -1.253906
16.102 382.000 376.432648 369.002930 5.567352
16.119 380.000 376.627869 368.962036 3.372131
16.136 374.000 376.840607 368.921967 -2.840607
16.153 364.000 377.071991 368.882660 -13.071991
16.170 389.000 377.323395 368.844177 11.676605
16.187 380.000 377.596313 368.806519 2.403687
16.204 371.000 377.892334 368.769653 -6.892334
16.221 380.000 378.213348 368.733612 1.786652
16.238 380.000 378.561371 368.698395 1.438629
16.255 363.000 378.938782 368.663940 -15.938782
16.272 364.000 379.348145 368.630341 -15.348145
16.289 371.000 379.792542 368.597565 -8.792542
16.306 382.000 380.275177 368.565613 1.724823
16.323 386.000 380.799866 368.534454 5.200134
16.340 383.000 381.370850 368.504120 1.629150
16.357 384.000 381.993073 368.474640 2.006927
16.374 378.000 382.672058 368.445984 -4.672058
16.391 404.000 383.414093 368.418152 20.585907
16.408 405.000 384.226715 368.391144 20.773285
16.425 394.000 385.118011 368.364960 8.881989
16.442 397.000 386.098083 368.339630 10.901917
16.459 402.000 387.178192 368.315125 14.821808
16.476 407.000 388.371613 368.291473 18.628387
16.493 381.000 389.693878 368.268646 -8.693878
16.510 378.000 391.163452 368.246674 -13.163452
16.527 389.000 392.802063 368.225525 -3.802063
16.544 396.000 394.635803 368.205231 1.364197
16.561 389.000 396.576904 368.185791 -7.576904
16.578 381.000 398.901459 368.167175 -17.901459
16.595 407.000 401.536194 368.149414 5.463806
16.612 368.000 404.537048 368.132507 -36.537048
16.629 396.000 407.973541 368.116455 -11.973541
16.646 396.000 411.932129 368.101227 -15.932129
16.663 414.000 416.521637 368.086884 -2.521637
16.680 441.000 422.038605 368.073364 18.961395
16.697 399.000 428.344269 368.060699 -29.344269
16.714 399.000 435.825104 368.048920 -36.825104
16.731 417.000 444.780334 368.037964 -27.780334
16.748 451.000 455.611237 368.027863 -4.611237
16.765 446.000 468.845917 368.018646 -22.845917
16.782 517.000 485.209595 368.010254 31.790405
16.799 477.000 505.684845 368.002747 -28.684845
16.816 529.000 531.617554 367.996094 -2.617554
16.833 555.000 564.837585 367.990295 -9.837585
16.850 615.000 607.769897 367.985352 7.230103
16.867 636.000 663.418518 367.981262 -27.418518
16.884 736.000 734.896851 367.978027 1.103149
16.901 787.000 823.884155 367.975677 -36.884155
16.918 922.000 926.807617 367.974152 -4.807617
16.935 1018.000 1028.370728 367.973511 -10.370728
16.952 1048.000 1093.140869 367.973724 -45.140869
16.969 1072.000 1074.880981 367.974792 -2.880981
16.986 933.000 971.004089 367.976746 -38.004089
17.003 821.000 836.544312 367.979523 -15.544312
17.020 667.000 718.711914 367.983185 -51.711914
17.037 570.000 630.742554 367.987671 -60.742554
17.054 531.000 568.229126 367.993042 -37.229126
17.071 501.000 524.118103 367.999268 -23.118103
17.088 462.000 492.540100 368.006348 -30.540100
17.105 457.000 469.464783 368.014313 -12.464783
17.122 437.000 452.236267 368.023102 -15.236267
17.139 426.000 439.115051 368.032776 -13.115051
17.156 421.000 428.949280 368.043274 -7.949280
17.173 400.000 420.964630 368.054657 -20.964630
17.190 404.000 414.632355 368.066864 -10.632355
17.207 427.000 409.586212 368.079956 17.413788
17.224 431.000 405.565735 368.093872 25.434265
17.241 386.000 402.367828 368.108673 -16.367828
17.258 382.000 399.802612 368.124298 -17.802612
17.275 388.000 397.631531 368.140778 -9.631531
17.292 387.000 395.532684 368.158112 -8.532684
17.309 383.000 393.247284 368.176270 -10.247284
17.326 365.000 390.865112 368.195312 -25.865112
17.343 379.000 388.664062 368.215179 -9.664062
17.360 391.000 386.783661 368.235901 4.216339
17.377 380.000 385.215668 368.257446 -5.215668
17.394 389.000 383.902863 368.279846 5.097137
17.411 405.000 382.790680 368.303070 22.209320
17.428 415.000 381.836243 368.327148 33.163757
17.445 375.000 381.008820 368.352051 -6.008820
17.462 378.000 380.285858 368.377777 -2.285858
17.479 383.000 379.650757 368.404358 3.349243
17.496 389.000 379.090851 368.431732 9.909149
17.513 363.000 378.596527 368.459961 -15.596527
17.530 411.000 378.160156 368.489014 32.839844
17.547 408.000 377.775909 368.518921 30.224091
17.564 395.000 377.439087 368.549591 17.560913
17.581 396.000 377.146240 368.581116 18.853760
17.598 394.000 376.894836 368.613464 17.105164
17.615 387.000 376.683197 368.646606 10.316803
17.632 390.000 376.510620 368.680542 13.489380
17.649 382.000 376.377350 368.715332 5.622650
17.666 375.000 376.284607 368.750916 -1.284607
17.683 358.000 376.234833 368.787292 -18.234833
17.700 364.000 376.232056 368.824463 -12.232056
17.717 349.000 376.263458 368.862457 -27.263458
17.734 365.000 376.375336 368.901245 -11.375336
17.751 392.000 376.694763 368.940796 15.305237
17.768 386.000 376.971344 368.981140 9.028656
17.785 362.000 377.361328 369.022308 -15.361328
17.802 411.000 377.896729 369.064240 33.103271
17.819 396.000 378.621521 369.106934 17.378479
17.836 363.000 379.594238 369.150452 -16.594238
17.853 418.000 380.887817 369.194702 37.112183
17.870 386.000 382.579193 369.239746 3.420807
17.887 378.000 384.713989 369.285553 -6.713989
17.904 398.000 387.218353 369.332123 10.781647
17.921 425.000 389.747284 369.379456 35.252716
17.938 439.000 391.476135 369.427551 47.523865
17.955 393.000 391.240875 369.476379 1.759125
17.972 398.000 388.792450 369.525970 9.207550
17.989 410.000 385.398407 369.576294 24.601593
18.006 385.000 382.323303 369.627380 2.676697
18.023 362.000 379.985199 369.679199 -17.985199
18.040 369.000 378.313629 369.731750 -9.313629
18.057 334.000 377.131195 369.785034 -43.131195
18.074 377.000 376.285034 369.839020 0.714966
18.091 368.000 375.668701 369.893738 -7.668701
18.108 359.000 375.211090 369.949188 -16.211090
18.125 365.000 374.865540 370.005371 -9.865540
18.142 382.000 374.600922 370.062225 7.399078
18.159 399.000 374.396210 370.119781 24.603790
18.176 396.000 374.236877 370.178070 21.763123
18.193 382.000 374.112427 370.237030 7.887573
18.210 368.000 374.015625 370.296692 -6.015625
18.227 394.000 373.940826 370.357025 20.059174
18.244 390.000 373.847626 370.418060 16.152374
18.261 377.000 373.806183 370.479767 3.193817
18.278 349.000 373.777252 370.542114 -24.777252
18.295 344.000 373.758972 370.605164 -29.758972
18.312 350.000 373.749847 370.668884 -23.749847
18.329 367.000 373.748657 370.733215 -6.748657
18.346 388.000 373.754547 370.798248 14.245453
18.363 395.000 373.766571 370.863892 21.233429
18.380 364.000 373.784241 370.930206 -9.784241
18.397 364.000 373.806885 370.997131 -9.806885
18.414 397.000 373.834106 371.064697 23.165894
18.431 382.000 373.865570 371.132904 8.134430
18.448 364.000 373.900879 371.201721 -9.900879
18.465 385.000 373.939728 371.271118 11.060272
18.482 410.000 373.981964 371.341156 36.018036
18.499 394.000 374.027313 371.411804 19.972687
18.516 371.000 374.075653 371.483032 -3.075653
18.533 360.000 374.126770 371.554871 -14.126770
18.550 386.000 374.180542 371.627289 11.819458
18.567 385.000 374.236847 371.700287 10.763153
18.584 379.000 374.295563 371.773865 4.704437
18.601 357.000 374.356628 371.847992 -17.356628
18.618 394.000 374.419922 371.922699 19.580078
18.635 382.000 374.485382 371.997955 7.514618
18.652 398.000 374.552948 372.073792 23.447052
18.669 384.000 374.622528 372.150116 9.377472
18.686 356.000 374.694122 372.227020 -18.694122
18.703 364.000 374.767639 372.304443 -10.767639
18.720 350.000 374.843048 372.382416 -24.843048
18.737 425.000 374.920319 372.460876 50.079681
18.754 391.000 374.999390 372.539856 16.000610
18.771 405.000 375.080292 372.619354 29.919708
18.788 376.000 375.162933 372.699341 0.837067
18.805 363.000 375.247345 372.779846 -12.247345
18.822 375.000 375.333466 372.860809 -0.333466
18.839 327.000 375.421295 372.942261 -48.421295
18.856 392.000 375.510864 373.024200 16.489136
18.873 369.000 375.602112 373.106628 -6.602112
18.890 383.000 375.695007 373.189453 7.304993
18.907 379.000 375.789642 373.272797 3.210358
18.924 380.000 375.885895 373.356537 4.114105
18.941 390.000 375.983887 373.440765 14.016113
18.958 403.000 376.083527 373.525391 26.916473
18.975 359.000 376.184875 373.610474 -17.184875
18.992 346.000 376.287903 373.695953 -30.287903
19.009 389.000 376.392639 373.781830 12.607361
19.026 406.000 376.499115 373.868134 29.500885
19.043 381.000 376.632690 373.954834 4.367310
19.060 371.000 376.742950 374.041931 -5.742950
19.077 360.000 376.855011 374.129425 -16.855011
19.094 359.000 376.968842 374.217285 -17.968842
19.111 371.000 377.084564 374.305511 -6.084564
19.128 382.000 377.202118 374.394104 4.797882
19.145 399.000 377.321594 374.483032 21.678406
19.162 406.000 377.442993 374.572327 28.557007
19.179 396.000 377.566437 374.661987 18.433563
19.196 385.000 377.691833 374.751953 7.308167
19.213 396.000 377.819366 374.842255 18.180634
19.230 401.000 377.948944 374.932831 23.051056
19.247 415.000 378.080780 375.023773 36.919220
19.264 408.000 378.214874 375.115021 29.785126
19.281 384.000 378.351257 375.206543 5.648743
19.298 359.000 378.490021 375.298340 -19.490021
19.315 377.000 378.631256 375.390442 -1.631256
19.332 386.000 378.775024 375.482819 7.224976
19.349 372.000 378.921478 375.575470 -6.921478
19.366 385.000 379.070648 375.668365 5.929352
19.383 381.000 379.222626 375.761505 1.777374
19.400 349.000 379.377594 375.854919 -30.377594
19.417 364.000 379.535614 375.948517 -15.535614
19.434 393.000 379.696838 376.042389 13.303162
19.451 420.000 379.861450 376.136475 40.138550
19.468 415.000 380.029510 376.230743 34.970490
19.485 381.000 380.201233 376.325226 0.798767
19.502 401.000 380.376831 376.419922 20.623169
19.519 393.000 380.556458 376.514801 12.443542
19.536 393.000 380.740295 376.609863 12.259705
19.553 386.000 380.928619 376.705109 5.071381
19.570 350.000 381.121613 376.800476 -31.121613
19.587 379.000 381.319641 376.896057 -2.319641
19.604 399.000 381.522858 376.991760 17.477142
19.621 424.000 381.731689 377.087616 42.268311
19.638 383.000 381.946381 377.183594 1.053619
19.655 379.000 382.167328 377.279663 -3.167328
19.672 395.000 382.394989 377.375916 12.605011
19.689 391.000 382.629761 377.472260 8.370239
19.706 372.000 382.872101 377.568695 -10.872101
19.723 390.000 383.122528 377.665222 6.877472
19.740 400.000 383.381653 377.761841 16.618347
19.757 444.000 383.650055 377.858521 60.349945
19.774 425.000 383.928558 377.955322 41.071442
19.791 400.000 384.217743 378.052124 15.782257
19.808 389.000 384.518585 378.149017 4.481415
19.825 378.000 384.831970 378.245941 -6.831970
19.842 394.000 385.158936 378.342896 8.841064
19.859 428.000 385.500702 378.439911 42.499298
19.876 436.000 385.858459 378.536926 50.141541
19.893 384.000 386.233765 378.633972 -2.233765
19.910 404.000 386.628082 378.731018 17.371918
19.927 404.000 387.043335 378.828033 16.956665
19.944 389.000 387.481598 378.925079 1.518402
19.961 411.000 388.039795 379.022095 22.960205
19.978 413.000 388.529694 379.119080 24.470306
19.995 448.000 389.052826 379.216034 58.947174
20.012 456.000 389.610352 379.312927 66.389648
20.029 416.000 390.205963 379.409790 25.794037
20.046 367.000 390.844421 379.506622 -23.844421
20.063 384.000 391.530609 379.603333 -7.530609
20.080 386.000 392.270844 379.700012 -6.270844
20.097 409.000 393.072021 379.796600 15.927979
20.114 388.000 393.942474 379.893097 -5.942474
20.131 385.000 394.891937 379.989502 -9.891937
20.148 399.000 395.931824 380.085754 3.068176
20.165 397.000 397.076355 380.181946 -0.076355
20.182 378.000 398.341614 380.278015 -20.341614
20.199 362.000 399.748169 380.373962 -37.748169
20.216 381.000 401.319824 380.469727 -20.319824
20.233 396.000 403.087189 380.565369 -7.087189
20.250 397.000 405.087250 380.660889 -8.087250
20.267 392.000 407.366486 380.756226 -15.366486
20.284 394.000 409.983521 380.851379 -15.983521
20.301 390.000 413.013092 380.946381 -23.013092
20.318 388.000 416.551361 381.041199 -28.551361
20.335 414.000 420.722900 381.135803 -6.722900
20.352 418.000 425.693726 381.230225 -7.693726
20.369 403.000 431.679993 381.324432 -28.679993
20.386 427.000 438.977081 381.418457 -11.977081
20.403 448.000 447.975861 381.512207 0.024139
20.420 474.000 459.210266 381.605743 14.789734
20.437 469.000 473.387054 381.699066 -4.387054
20.454 493.000 491.417419 381.792114 1.582581
20.471 482.000 514.380615 381.884949 -32.380615
20.488 514.000 543.298279 381.977478 -29.298279
20.505 547.000 578.509521 382.069763 -31.509521
20.522 656.000 618.393982 382.161774 37.606018
20.539 659.000 656.666870 382.253510 2.333130
20.556 646.000 680.516663 382.344940 -34.516663
20.573 609.000 674.268677 382.436096 -65.268677
20.590 614.000 637.725403 382.526917 -23.725403
20.607 580.000 589.927429 382.617432 -9.927429
20.624 535.000 547.708191 382.707672 -12.708191
20.641 490.000 516.423767 382.797546 -26.423767
20.658 488.000 495.114288 382.887085 -7.114288
20.675 490.000 481.442566 382.976288 8.557434
20.692 402.000 473.428497 383.065155 -71.428497
20.709 452.000 469.760040 383.153656 -17.760040
20.726 454.000 469.724487 383.241791 -15.724487
20.743 470.000 473.024200 383.329559 -3.024200
20.760 443.000 479.732880 383.416962 -36.732880
20.777 472.000 490.243103 383.503967 -18.243103
20.794 488.000 505.233826 383.590607 -17.233826
20.811 503.000 525.579712 383.676819 -22.579712
20.828 486.000 552.056580 383.762634 -66.056580
20.845 575.000 584.622742 383.848053 -9.622742
20.862 574.000 620.932556 383.933044 -46.932556
20.879 599.000 654.097656 384.017639 -55.097656
20.896 664.000 670.603516 384.101746 -6.603516
20.913 568.000 656.783142 384.185455 -88.783142
20.930 558.000 616.580261 384.268707 -58.580261
20.947 529.000 568.906067 384.351532 -39.906067
20.964 531.000 527.912231 384.433868 3.087769
20.981 464.000 497.144928 384.515747 -33.144928
20.998 432.000 475.260071 384.597168 -43.260071
21.015 427.000 459.738464 384.678101 -32.738464
21.032 423.000 448.742676 384.758545 -25.742676
21.049 423.000 440.929352 384.838501 -17.929352
21.066 411.000 435.398834 384.917969 -24.398834
21.083 394.000 431.566650 384.996948 -37.566650
21.100 420.000 429.054993 385.075409 -9.054993
21.117 420.000 427.626862 385.153381 -7.626862
21.134 414.000 427.144745 385.230774 -13.144745
21.151 408.000 427.547424 385.307678 -19.547424
21.168 438.000 428.837799 385.384033 9.162201
21.185 422.000 431.081329 385.459900 -9.081329
21.202 402.000 434.408417 385.535156 -32.408417
21.219 414.000 439.030243 385.609894 -25.030243
21.236 414.000 445.254578 385.684082 -31.254578
21.253 434.000 453.511444 385.757690 -19.511444
21.270 482.000 464.373749 385.830750 17.626251
21.287 483.000 478.548767 385.903259 4.451233
21.304 497.000 496.774963 385.975159 0.225037
21.321 543.000 519.486389 386.046448 23.513611
21.338 595.000 546.068115 386.117188 48.931885
21.355 608.000 573.483704 386.187317 34.516296
21.372 612.000 594.455444 386.256866 17.544556
21.389 615.000 597.592896 386.325806 17.407104
21.406 591.000 577.098999 386.394104 13.901001
21.423 591.000 542.454346 386.461823 48.545654
21.440 585.000 507.749390 386.528900 77.250610
21.457 561.000 479.816223 386.595367 81.183777
21.474 492.000 459.226257 386.661194 32.773743
21.491 475.000 444.413971 386.726410 30.586029
21.508 436.000 433.721344 386.790955 2.278656
21.525 440.000 425.879547 386.854858 14.120453
21.542 421.000 420.021912 386.918121 0.978088
21.559 431.000 415.562347 386.980713 15.437653
21.576 409.000 412.109802 387.042664 -3.109802
21.593 405.000 409.398010 387.103973 -4.398010
21.610 386.000 407.243225 387.164581 -21.243225
21.627 388.000 405.516846 387.224518 -17.516846
21.644 407.000 404.126770 387.283783 2.873230
21.661 381.000 403.007965 387.342377 -22.007965
21.678 383.000 402.112671 387.400269 -19.112671
21.695 379.000 401.407776 387.457489 -22.407776
21.712 394.000 400.869934 387.514008 -6.869934
21.729 392.000 400.484802 387.569824 -8.484802
21.746 379.000 400.245422 387.624939 -21.245422
21.763 391.000 400.152252 387.679352 -9.152252
21.780 410.000 400.213379 387.733063 9.786621
21.797 371.000 400.445709 387.786041 -29.445709
21.814 392.000 400.876862 387.838318 -8.876862
21.831 415.000 401.548004 387.889862 13.451996
21.848 413.000 402.515961 387.940674 10.484039
21.865 405.000 403.855621 387.990784 1.144379
21.882 402.000 405.653992 388.040161 -3.653992
21.899 401.000 407.988495 388.088776 -6.988495
21.916 406.000 410.868011 388.136658 -4.868011
21.933 451.000 414.114563 388.183838 36.885437
21.950 443.000 417.173889 388.230225 25.826111
21.967 467.000 418.919037 388.275879 48.080963
21.984 434.000 418.045410 388.320801 15.954590
22.001 430.000 414.578918 388.364960 15.421082
22.018 470.000 410.120026 388.408325 59.879974
22.035 463.000 406.095306 388.450989 56.904694
22.052 423.000 402.976776 388.492859 20.023224
22.069 435.000 400.693481 388.533966 34.306519
22.086 444.000 399.038849 388.574280 44.961151
22.103 404.000 397.876801 388.613892 6.123199
22.120 389.000 396.975616 388.652649 -7.975616
22.137 385.000 396.291504 388.690674 -11.291504
22.154 405.000 395.762909 388.727905 9.237091
22.171 399.000 395.347595 388.764404 3.652405
22.188 392.000 395.016815 388.800049 -3.016815
22.205 378.000 394.750305 388.834961 -16.750305
22.222 388.000 394.533630 388.869049 -6.533630
22.239 405.000 394.356262 388.902374 10.643738
22.256 381.000 394.210449 388.934875 -13.210449
22.273 379.000 393.970306 388.966614 -14.970306
22.290 376.000 393.872253 388.997559 -17.872253
22.307 386.000 393.792053 389.027679 -7.792053
22.324 403.000 393.727020 389.057037 9.272980
22.341 393.000 393.675049 389.085571 -0.675049
22.358 376.000 393.634399 389.113281 -17.634399
22.375 403.000 393.603821 389.140228 9.396179
22.392 405.000 393.582153 389.166351 11.417847
22.409 394.000 393.568512 389.191650 0.431488
22.426 400.000 393.562286 389.216187 6.437714
22.443 385.000 393.562775 389.239868 -8.562775
22.460 406.000 393.569641 389.262756 12.430359
22.477 394.000 393.582458 389.284851 0.417542
22.494 393.000 393.600952 389.306091 -0.600952
22.511 385.000 393.625000 389.326569 -8.625000
22.528 429.000 393.654358 389.346191 35.345642
22.545 435.000 393.688995 389.365021 41.311005
22.562 412.000 393.728882 389.383026 18.271118
22.579 418.000 393.774048 389.400208 24.225952
22.596 418.000 393.824554 389.416565 24.175446
22.613 406.000 393.880554 389.432129 12.119446
22.630 375.000 393.942169 389.446838 -18.942169
22.647 427.000 394.009644 389.460754 32.990356
22.664 432.000 394.083313 389.473877 37.916687
22.681 410.000 394.163422 389.486145 15.836578
22.698 433.000 394.250366 389.497559 38.749634
22.715 440.000 394.344727 389.508209 45.655273
22.732 389.000 394.446899 389.518005 -5.446899
22.749 384.000 394.557617 389.527008 -10.557617
22.766 433.000 394.677521 389.535156 38.322479
22.783 418.000 394.807495 389.542511 23.192505
22.800 405.000 394.948456 389.549042 10.051544
22.817 364.000 395.101532 389.554749 -31.101532
22.834 405.000 395.267944 389.559631 9.732056
22.851 383.000 395.449188 389.563690 -12.449188
22.868 399.000 395.646942 389.566925 3.353058
22.885 390.000 395.863129 389.569336 -5.863129
22.902 398.000 396.100128 389.570953 1.899872
22.919 399.000 396.360535 389.571747 2.639465
22.936 402.000 396.647522 389.571716 5.352478
22.953 403.000 396.964691 389.570862 6.035309
22.970 401.000 397.316620 389.569183 3.683380
22.987 396.000 397.708344 389.566711 -1.708344
23.004 397.000 398.146301 389.563416 -1.146301
23.021 391.000 398.637909 389.559326 -7.637909
23.038 371.000 399.192383 389.554382 -28.192383
23.055 395.000 399.821014 389.548645 -4.821014
23.072 386.000 400.537628 389.542114 -14.537628
23.089 389.000 401.359375 389.534760 -12.359375
23.106 392.000 402.307678 389.526611 -10.307678
23.123 398.000 403.410004 389.517639 -5.410004
23.140 385.000 404.700623 389.507874 -19.700623
23.157 394.000 406.224640 389.497284 -12.224640
23.174 399.000 408.039398 389.485901 -9.039398
23.191 391.000 410.221436 389.473724 -19.221436
23.208 383.000 412.871002 389.460754 -29.871002
23.225 398.000 416.121521 389.446960 -18.121521
23.242 416.000 420.150757 389.432404 -4.150757
23.259 418.000 425.193726 389.417023 -7.193726
23.276 427.000 431.554749 389.400879 -4.554749
23.293 470.000 439.606812 389.383911 30.393188
23.310 495.000 449.759338 389.366180 45.240662
23.327 492.000 462.316315 389.347656 29.683685
23.344 529.000 477.182434 389.328369 51.817566
23.361 595.000 493.276917 389.308258 101.723083
23.378 614.000 507.675781 389.287384 106.324219
23.395 591.000 514.932983 389.265747 76.067017
23.412 594.000 509.634491 389.243317 84.365509
23.429 590.000 493.024506 389.220123 96.975494
23.446 541.000 472.591827 389.196136 68.408173
23.463 505.000 454.371460 389.171387 50.628540
23.480 432.000 440.282318 389.145905 -8.282318
23.497 447.000 429.961853 389.119629 17.038147
23.514 469.000 422.497620 389.092590 46.502380
23.531 420.000 417.061676 389.064819 2.938324
23.548 411.000 413.048462 389.036285 -2.048462
23.565 403.000 410.039642 389.006989 -7.039642
23.582 418.000 407.751221 388.976929 10.248779
23.599 419.000 405.989807 388.946167 13.010193
23.616 415.000 404.621185 388.914612 10.378815
23.633 386.000 403.552429 388.882324 -17.552429
23.650 370.000 402.716461 388.849304 -32.716461
23.667 412.000 402.065582 388.815552 9.934418
23.684 393.000 401.564453 388.781097 -8.564453
23.701 402.000 401.187195 388.745880 0.812805
23.718 362.000 400.914581 388.709961 -38.914581
23.735 392.000 400.732300 388.673279 -8.732300
23.752 392.000 400.629883 388.635925 -8.629883
23.769 388.000 400.599579 388.597809 -12.599579
23.786 386.000 400.636108 388.559021 -14.636108
23.803 407.000 400.735962 388.519470 6.264038
23.820 365.000 400.897339 388.479248 -35.897339
23.837 395.000 401.119873 388.438354 -6.119873
23.854 373.000 401.404358 388.396729 -28.404358
23.871 376.000 401.753052 388.354401 -25.753052
23.888 411.000 402.169464 388.311401 8.830536
23.905 364.000 402.658447 388.267700 -38.658447
23.922 388.000 403.226471 388.223328 -15.226471
23.939 368.000 403.881500 388.178253 -35.881500
23.956 379.000 404.634094 388.132507 -25.634094
23.973 385.000 405.496460 388.086121 -20.496460
23.990 376.000 406.484467 388.039001 -30.484467
24.007 375.000 407.617004 387.991272 -32.617004
24.024 408.000 408.924835 387.942871 -0.924835
24.041 383.000 410.423950 387.893799 -27.423950
24.058 383.000 412.157867 387.844086 -29.157867
24.075 413.000 414.173004 387.793732 -1.173004
24.092 420.000 416.527893 387.742737 3.472107
24.109 402.000 419.298706 387.691071 -17.298706
24.126 385.000 422.581268 387.638794 -37.581268
24.143 402.000 426.503418 387.585876 -24.503418
24.160 407.000 431.229004 387.532349 -24.229004
24.177 432.000 436.977478 387.478149 -4.977478
24.194 428.000 444.036224 387.423370 -16.036224
24.211 427.000 452.781769 387.367950 -25.781769
24.228 444.000 463.696320 387.311951 -19.696320
24.245 457.000 477.364960 387.255310 -20.364960
24.262 489.000 494.414062 387.198090 -5.414062
24.279 534.000 515.307434 387.140289 18.692566
24.296 531.000 539.896118 387.081848 -8.896118
24.313 551.000 566.555969 387.022858 -15.555969
24.330 533.000 590.985901 386.963257 -57.985901
24.347 563.000 605.223389 386.903107 -42.223389
24.364 579.000 601.281494 386.842346 -22.281494
24.381 577.000 580.727905 386.781036 -3.727905
24.398 547.000 554.693604 386.719177 -7.693604
24.415 544.000 532.833069 386.656708 11.166931
24.432 488.000 518.796448 386.593719 -30.796448
24.449 488.000 512.567688 386.530182 -24.567688
24.466 520.000 513.334045 386.466095 6.665955
24.483 524.000 519.751709 386.401428 4.248291
24.500 543.000 530.072266 386.336273 12.927734
24.517 534.000 541.287292 386.270569 -7.287292
24.534 521.000 548.260315 386.204346 -27.260315
24.551 536.000 544.970520 386.137573 -8.970520
24.568 497.000 530.306152 386.070282 -33.306152
24.585 481.000 510.376526 386.002502 -29.376526
24.602 484.000 491.988678 385.934204 -7.988678
24.619 465.000 478.197357 385.865417 -13.197357
24.636 467.000 469.254822 385.796112 -2.254822
24.653 468.000 464.514648 385.726318 3.485352
24.670 464.000 463.336487 385.656036 0.663513
24.687 461.000 465.357635 385.585266 -4.357635
24.704 450.000 470.512238 385.514008 -20.512238
24.721 433.000 478.990723 385.442291 -45.990723
24.738 527.000 491.160187 385.370117 35.839813
24.755 483.000 507.397522 385.297485 -24.397522
24.772 517.000 527.635620 385.224365 -10.635620
24.789 560.000 551.050964 385.150787 8.949036
24.806 561.000 574.427551 385.076782 -13.427551
24.823 593.000 591.234741 385.002350 1.765259
24.840 568.000 592.228516 384.927460 -24.228516
24.857 578.000 573.244751 384.852142 4.755249
24.874 545.000 541.842529 384.776367 3.157471
24.891 529.000 509.497192 384.700195 19.502808
24.908 479.000 482.486694 384.623627 -3.486694
24.925 466.000 461.883423 384.546631 4.116577
24.942 432.000 446.658478 384.469208 -14.658478
24.959 416.000 435.420959 384.391388 -19.420959
24.976 395.000 427.027039 384.313171 -32.027039
24.993 424.000 420.657715 384.234589 3.342285
25.010 415.000 415.740295 384.155579 -0.740295
25.027 411.000 411.807098 384.076233 -0.807098
25.044 385.000 408.741364 383.996490 -23.741364
25.061 379.000 406.276184 383.916351 -27.276184
25.078 392.000 404.277557 383.835876 -12.277557
25.095 406.000 402.648590 383.755035 3.351410
25.112 402.000 401.326721 383.673859 0.673279
25.129 407.000 400.247986 383.592285 6.752014
25.146 387.000 399.382751 383.510406 -12.382751
25.163 378.000 398.704865 383.428192 -20.704865
25.180 370.000 398.197083 383.345612 -28.197083
25.197 371.000 397.849213 383.262726 -26.849213
25.214 405.000 397.657440 383.179504 7.342560
25.231 400.000 397.623993 383.095978 2.376007
25.248 420.000 397.757477 383.012115 22.242523
25.265 419.000 398.073425 382.927948 20.926575
25.282 416.000 398.596008 382.843475 17.403992
25.299 453.000 399.363342 382.758728 53.636658
25.316 452.000 400.415039 382.673676 51.584961
25.333 417.000 401.819580 382.588318 15.180420
25.350 414.000 403.663971 382.502686 10.336029
25.367 406.000 406.064148 382.416809 -0.064148
25.384 414.000 409.176666 382.330627 4.823334
25.401 451.000 413.186096 382.244171 37.813904
25.418 430.000 418.327484 382.157501 11.672516
25.435 399.000 424.842896 382.070526 -25.842896
25.452 433.000 432.893860 381.983307 0.106140
25.469 460.000 442.388245 381.895844 17.611755
25.486 444.000 452.642029 381.808167 -8.642029
25.503 449.000 461.933655 381.720215 -12.933655
25.520 443.000 467.169373 381.632050 -24.169373
25.537 453.000 465.073303 381.543640 -12.073303
25.554 424.000 455.525482 381.455048 -31.525482
25.571 447.000 442.327515 381.366211 4.672485
25.588 384.000 429.526276 381.277161 -45.526276
25.605 422.000 419.018555 381.187927 2.981445
25.622 415.000 411.002563 381.098450 3.997437
25.639 419.000 405.029724 381.008850 13.970276
25.656 420.000 400.575745 380.919006 19.424255
25.673 374.000 397.212677 380.828979 -23.212677
25.690 420.000 394.628479 380.738770 25.371521
25.707 411.000 392.604584 380.648407 18.395416
25.724 422.000 390.989380 380.557861 31.010620
25.741 421.000 389.676422 380.467133 31.323578
25.758 425.000 388.591522 380.376251 36.408478
25.775 459.000 387.680603 380.285217 71.319397
25.792 413.000 386.904999 380.194031 26.095001
25.809 443.000 386.235657 380.102692 56.764343
25.826 429.000 385.651123 380.011230 43.348877
25.843 438.000 385.134949 379.919617 52.865051
25.860 462.000 384.674500 379.827850 77.325500
25.877 481.000 384.260040 379.735992 96.739960
25.894 469.000 383.883759 379.644012 85.116241
25.911 462.000 383.539459 379.551880 78.460541
25.928 466.000 383.222229 379.459656 82.777771
25.945 455.000 382.928070 379.367340 72.071930
25.962 436.000 382.653625 379.274872 53.346375
25.979 435.000 382.396271 379.182343 52.603729
25.996 460.000 382.153717 379.089722 77.846283
26.013 455.000 381.924072 378.996979 73.075928
26.030 435.000 381.705780 378.904175 53.294220
26.047 431.000 381.497467 378.811279 49.502533
26.064 418.000 381.298035 378.718323 36.701965
26.081 404.000 381.106445 378.625244 22.893555
26.098 394.000 380.921967 378.532166 13.078033
26.115 406.000 380.743744 378.438965 25.256256
26.132 403.000 380.571259 378.345734 22.428741
26.149 380.000 380.407074 378.252441 -0.407074
26.166 380.000 380.244446 378.159119 -0.244446
26.183 400.000 380.086029 378.065735 19.913971
26.200 410.000 379.931458 377.972290 30.068542
26.217 396.000 379.780457 377.878845 16.219543
26.234 367.000 379.632660 377.785309 -12.632660
26.251 356.000 379.487915 377.691803 -23.487915
26.268 390.000 379.345886 377.598236 10.654114
26.285 391.000 379.206421 377.504669 11.793579
26.302 371.000 379.069275 377.411041 -8.069275
26.319 378.000 378.934357 377.317444 -0.934357
26.336 404.000 378.802856 377.223816 25.197144
26.353 398.000 378.671936 377.130219 19.328064
26.370 373.000 378.542786 377.036591 -5.542786
26.387 375.000 378.415283 376.942963 -3.415283
26.404 386.000 378.292145 376.849365 7.707855
26.421 352.000 378.167694 376.755737 -26.167694
26.438 361.000 378.044708 376.662170 -17.044708
26.455 404.000 377.922974 376.568573 26.077026
26.472 369.000 377.802551 376.475037 -8.802551
26.489 370.000 377.683258 376.381500 -7.683258
26.506 396.000 377.565155 376.288025 18.434845
26.523 374.000 377.448090 376.194580 -3.448090
26.540 366.000 377.332001 376.101135 -11.332001
26.557 361.000 377.219238 376.007751 -16.219238
26.574 367.000 377.105103 375.914398 -10.105103
26.591 362.000 376.991882 375.821136 -14.991882
26.608 360.000 376.879486 375.727875 -16.879486
26.625 402.000 376.767944 375.634705 25.232056
26.642 366.000 376.657135 375.541565 -10.657135
26.659 367.000 376.548950 375.448486 -9.548950
26.676 372.000 376.439697 375.355499 -4.439697
26.693 360.000 376.331146 375.262543 -16.331146
26.710 359.000 376.223297 375.169678 -17.223297
26.727 386.000 376.116119 375.076904 9.883881
26.744 384.000 376.009613 374.984192 7.990387
26.761 329.000 375.903687 374.891541 -46.903687
26.778 374.000 375.798462 374.799011 -1.798462
26.795 334.000 375.693726 374.706512 -41.693726
26.812 337.000 375.589661 374.614166 -38.589661
26.829 363.000 375.486084 374.521851 -12.486084
26.846 357.000 375.329041 374.429688 -18.329041
26.863 384.000 375.227142 374.337616 8.772858
26.880 369.000 375.125732 374.245605 -6.125732
26.897 361.000 375.024902 374.153748 -14.024902
26.914 363.000 374.924561 374.061951 -11.924561
26.931 354.000 374.824707 373.970276 -20.824707
26.948 354.000 374.725403 373.878723 -20.725403
26.965 336.000 374.626587 373.787292 -38.626587
26.982 332.000 374.528229 373.695953 -42.528229
26.999 356.000 374.430389 373.604767 -18.430389
27.016 356.000 374.333038 373.513702 -18.333038
27.033 356.000 374.236115 373.422729 -18.236115
27.050 380.000 374.139709 373.331909 5.860291
27.067 370.000 374.043762 373.241211 -4.043762
27.084 372.000 373.948334 373.150665 -1.948334
27.101 347.000 373.853302 373.060211 -26.853302
27.118 340.000 373.758789 372.969940 -33.758789
27.135 358.000 373.664703 372.879761 -15.664703
27.152 366.000 373.571106 372.789764 -7.571106
27.169 386.000 373.478027 372.699921 12.521973
27.186 383.000 373.385345 372.610168 9.614655
27.203 370.000 373.293182 372.520630 -3.293182
27.220 373.000 373.202545 372.431183 -0.202545
27.237 357.000 373.111328 372.341919 -16.111328
27.254 360.000 373.022003 372.252808 -13.022003
27.271 355.000 372.931793 372.163849 -17.931793
27.288 348.000 372.842041 372.075043 -24.842041
27.305 355.000 372.752777 371.986389 -17.752777
27.322 371.000 372.664001 371.897888 -1.664001
27.339 350.000 372.575745 371.809601 -22.575745
27.356 340.000 372.488007 371.721436 -32.488007
27.373 375.000 372.400757 371.633453 2.599243
27.390 360.000 372.314026 371.545624 -12.314026
27.407 363.000 372.227844 371.457977 -9.227844
27.424 365.000 372.142181 371.370483 -7.142181
27.441 350.000 372.057068 371.283173 -22.057068
27.458 326.000 371.972504 371.196045 -45.972504
27.475 342.000 371.888489 371.109070 -29.888489
27.492 338.000 371.805115 371.022308 -33.805115
27.509 363.000 371.722260 370.935699 -8.722260
27.526 366.000 371.640045 370.849274 -5.640045
27.543 371.000 371.558441 370.763031 -0.558441
27.560 370.000 371.477448 370.676971 -1.477448
27.577 348.000 371.397125 370.591095 -23.397125
27.594 358.000 371.317413 370.505371 -13.317413
27.611 381.000 371.238403 370.419861 9.761597
27.628 372.000 371.160095 370.334534 0.839905
27.645 379.000 371.082520 370.249390 7.917480
27.662 412.000 371.005646 370.164429 40.994354
27.679 407.000 370.929596 370.079681 36.070404
27.696 444.000 370.854279 369.995087 73.145721
27.713 421.000 370.779816 369.910706 50.220184
27.730 393.000 370.706177 369.826508 22.293823
27.747 381.000 370.633423 369.742493 10.366577
27.764 419.000 370.561584 369.658691 48.438416
27.781 401.000 370.490723 369.575073 30.509277
27.798 412.000 370.420807 369.491638 41.579193
27.815 417.000 370.351898 369.408386 46.648102
27.832 410.000 370.284119 369.325348 39.715881
27.849 389.000 370.217468 369.242523 18.782532
27.866 380.000 370.151947 369.159851 9.848053
27.883 393.000 370.087677 369.077393 22.912323
27.900 402.000 370.024750 368.995148 31.975250
27.917 380.000 369.963165 368.913086 10.036835
27.934 373.000 369.902985 368.831177 3.097015
27.951 390.000 369.844391 368.749512 20.155609
27.968 379.000 369.787384 368.668030 9.212616
27.985 377.000 369.732117 368.586761 7.267883
28.002 364.000 369.678680 368.505676 -5.678680
28.019 358.000 369.627136 368.424774 -11.627136
28.036 357.000 369.577698 368.344086 -12.577698
28.053 374.000 369.530457 368.263580 4.469543
28.070 377.000 369.485626 368.183289 7.514374
28.087 382.000 369.443329 368.103180 12.556671
28.104 377.000 369.349243 368.023254 7.650757
28.121 368.000 369.313171 367.943542 -1.313171
28.138 351.000 369.280304 367.864044 -18.280304
28.155 341.000 369.250854 367.784698 -28.250854
28.172 348.000 369.225250 367.705566 -21.225250
28.189 349.000 369.132141 367.626648 -20.132141
28.206 338.000 369.115784 367.547882 -31.115784
28.223 330.000 369.104401 367.469330 -39.104401
28.240 348.000 369.098511 367.390961 -21.098511
28.257 347.000 369.098694 367.312805 -22.098694
28.274 347.000 369.105591 367.234802 -22.105591
28.291 357.000 369.120056 367.157043 -12.120056
28.308 346.000 369.142883 367.079407 -23.142883
28.325 381.000 369.175201 367.002014 11.824799
28.342 383.000 369.218201 366.924805 13.781799
28.359 365.000 369.273315 366.847748 -4.273315
28.376 360.000 369.342255 366.770905 -9.342255
28.393 376.000 369.427094 366.694244 6.572906
28.410 364.000 369.530151 366.617767 -5.530151
28.427 384.000 369.654388 366.541443 14.345612
28.444 351.000 369.803345 366.465363 -18.803345
28.461 341.000 369.981293 366.389404 -28.981293
28.478 326.000 370.193481 366.313660 -44.193481
28.495 343.000 370.446442 366.238098 -27.446442
28.512 388.000 370.748352 366.162689 17.251648
28.529 373.000 371.109253 366.087494 1.890747
28.546 363.000 371.542114 366.012421 -8.542114
28.563 378.000 372.063141 365.937561 5.936859
28.580 348.000 372.693481 365.862854 -24.693481
28.597 389.000 373.459839 365.788330 15.540161
28.614 326.000 374.397552 365.713989 -48.397552
28.631 350.000 375.551575 365.639801 -25.551575
28.648 382.000 376.981049 365.565796 5.018951
28.665 397.000 378.762421 365.491913 18.237579
28.682 392.000 380.991669 365.418243 11.008331
28.699 349.000 383.789246 365.344696 -34.789246
28.716 368.000 387.293182 365.271332 -19.293182
28.733 384.000 391.649658 365.198120 -7.649658
28.750 354.000 396.969086 365.125061 -42.969086
28.767 379.000 403.184723 365.052185 -24.184723
28.784 370.000 410.205200 364.979431 -40.205200
28.801 409.000 417.314667 364.906860 -8.314667
28.818 411.000 423.317139 364.834412 -12.317139
28.835 402.000 426.618134 364.762146 -24.618134
28.852 436.000 425.943573 364.689972 10.056427
28.869 421.000 421.338654 364.617981 -0.338654
28.886 408.000 414.297882 364.546112 -6.297882
28.903 385.000 406.753754 364.474426 -21.753754
28.920 389.000 400.058899 364.402832 -11.058899
28.937 366.000 394.773987 364.331421 -28.773987
28.954 379.000 390.898315 364.260101 -11.898315
28.971 366.000 388.298798 364.188934 -22.298798
28.988 345.000 386.715332 364.117889 -41.715332
29.005 353.000 385.951660 364.046997 -32.951660
29.022 363.000 385.865326 363.976196 -22.865326
29.039 389.000 386.365143 363.905548 2.634857
29.056 375.000 387.403442 363.834991 -12.403442
29.073 347.000 388.970612 363.764587 -41.970612
29.090 357.000 391.088837 363.694275 -34.088837
29.107 382.000 393.813934 363.624084 -11.813934
29.124 395.000 397.233215 363.554016 -2.233215
29.141 418.000 401.474060 363.484070 16.525940
29.158 409.000 406.710815 363.414215 2.289185
29.175 401.000 413.171783 363.344452 -12.171783
29.192 412.000 421.163300 363.274811 -9.163300
29.209 399.000 431.076874 363.205261 -32.076874
29.226 412.000 443.425690 363.135803 -31.425690
29.243 426.000 458.846558 363.066467 -32.846558
29.260 421.000 478.131958 362.997192 -57.131958
29.277 458.000 502.179504 362.928040 -44.179504
29.294 504.000 531.937744 362.858948 -27.937744
29.311 529.000 568.152222 362.789978 -39.152222
29.328 565.000 611.025513 362.721069 -46.025513
29.345 621.000 659.642029 362.652222 -38.642029
29.362 664.000 711.369507 362.583466 -47.369507
29.379 753.000 761.973999 362.514771 -8.973999
29.396 807.000 807.059631 362.446167 -0.059631
29.413 880.000 844.682617 362.377625 35.317383
29.430 941.000 875.617126 362.309143 65.382874
29.447 978.000 899.716187 362.240723 78.283813
29.464 954.000 911.788574 362.172394 42.211426
29.481 872.000 902.620605 362.104095 -30.620605
29.498 809.000 865.972778 362.035858 -56.972778
29.515 773.000 805.487183 361.967682 -32.487183
29.532 741.000 733.335327 361.899536 7.664673
29.549 722.000 662.555298 361.831451 59.444702
29.566 655.000 601.194702 361.763367 53.805298
29.583 610.000 551.939270 361.695374 58.060730
29.600 585.000 514.122803 361.627411 70.877197
29.617 515.000 485.842743 361.559479 29.157257
29.634 519.000 465.033783 361.491577 53.966217
29.651 552.000 449.950287 361.423706 102.049713
29.668 505.000 439.267090 361.355835 65.732910
29.685 511.000 432.020477 361.287994 78.979523
29.702 490.000 427.556183 361.220215 62.443817
29.719 483.000 425.447937 361.152405 57.552063
29.736 507.000 425.451385 361.084625 81.548615
29.753 531.000 427.456268 361.016846 103.543732
29.770 513.000 431.446106 360.949097 81.553894
29.787 525.000 437.454834 360.881317 87.545166
29.804 508.000 445.497833 360.813568 62.502167
29.821 508.000 455.503174 360.745819 52.496826
29.838 511.000 467.244843 360.678040 43.755157
29.855 522.000 480.366272 360.610260 41.633728
29.872 521.000 494.668945 360.542450 26.331055
29.889 549.000 510.587646 360.474640 38.412354
29.906 542.000 529.553955 360.406830 12.446045
29.923 551.000 553.745667 360.338989 -2.745667
29.940 598.000 585.559387 360.271088 12.440613
29.957 629.000 627.116821 360.203217 1.883179
29.974 674.000 680.000305 360.135284 -6.000305
29.991 770.000 744.738892 360.067291 25.261108
30.008 890.000 819.756348 359.999298 70.243652
30.025 1005.000 899.949463 359.931244 105.050537
30.042 1066.000 975.005798 359.863159 90.994202
30.059 1094.000 1029.550049 359.795013 64.449951
30.076 1105.000 1047.281616 359.726837 57.718384
30.093 1029.000 1019.990601 359.658569 9.009399
30.110 955.000 954.387085 359.590271 0.612915
30.127 905.000 868.643921 359.521912 36.356079
30.144 879.000 781.782837 359.453491 97.217163
30.161 782.000 706.203369 359.384979 75.796631
30.178 689.000 646.780273 359.316406 42.219727
30.195 647.000 603.732971 359.247772 43.267029
30.212 583.000 575.303833 359.179047 7.696167
30.229 579.000 559.507019 359.110229 19.492981
30.246 581.000 554.799561 359.041351 26.200439
30.263 557.000 560.316223 358.972382 -3.316223
30.280 612.000 575.825806 358.903290 36.174194
30.297 632.000 601.556152 358.834137 30.443848
30.314 659.000 637.900391 358.764893 21.099609
30.331 731.000 684.876770 358.695496 46.123230
30.348 775.000 741.218628 358.626038 33.781372
30.365 856.000 803.254395 358.556458 52.745605
30.382 914.000 863.609253 358.486786 50.390747
30.399 974.000 911.154053 358.416962 62.845947
30.416 947.000 933.576538 358.347046 13.423462
30.433 886.000 923.459595 358.277008 -37.459595
30.450 898.000 883.694458 358.206848 14.305542
30.467 838.000 826.571533 358.136566 11.428467
30.484 740.000 766.863281 358.066132 -26.863281
30.501 733.000 715.334473 357.995575 17.665527
30.518 655.000 676.463501 357.924866 -21.463501
30.535 661.000 649.566040 357.854034 11.433960
30.552 613.000 630.578979 357.783020 -17.578979
30.569 568.000 613.897461 357.711914 -45.897461
30.586 563.000 594.404358 357.640625 -31.404358
30.603 537.000 569.719971 357.569183 -32.719971
30.620 495.000 541.035095 357.497589 -46.035095
30.637 442.000 511.690735 357.425812 -69.690735
30.654 466.000 484.899628 357.353882 -18.899628
30.671 468.000 462.435944 357.281799 5.564056
30.688 432.000 444.724365 357.209534 -12.724365
30.705 425.000 431.379974 357.137085 -6.379974
30.722 405.000 421.756165 357.064484 -16.756165
30.739 425.000 415.211609 356.991669 9.788391
30.756 424.000 411.247803 356.918701 12.752197
30.773 411.000 409.526337 356.845520 1.473663
30.790 412.000 409.870148 356.772156 2.129852
30.807 379.000 412.242828 356.698608 -33.242828
30.824 410.000 416.733429 356.624847 -6.733429
30.841 414.000 423.528381 356.550903 -9.528381
30.858 428.000 432.884155 356.476746 -4.884155
30.875 408.000 445.053314 356.402374 -37.053314
30.892 436.000 460.202637 356.327789 -24.202637
30.909 487.000 478.256287 356.253021 8.743713
30.926 518.000 498.793213 356.178009 19.206787
30.943 544.000 520.996826 356.102783 23.003174
30.960 554.000 543.878906 356.027344 10.121094
30.977 549.000 566.512268 355.951660 -17.512268
30.994 613.000 587.826782 355.875793 25.173218
31.011 610.000 605.911987 355.799622 4.088013
31.028 606.000 617.606567 355.723267 -11.606567
31.045 622.000 619.652527 355.646667 2.347473
31.062 622.000 610.997620 355.569824 11.002380
31.079 594.000 594.099487 355.492737 -0.099487
31.096 578.000 573.542603 355.415405 4.457397
31.113 575.000 553.206909 355.337830 21.793091
31.130 559.000 534.532593 355.259979 24.467407
31.147 531.000 516.748169 355.181885 14.251831
31.164 502.000 498.353485 355.103516 3.646515
31.181 488.000 478.740936 355.024902 9.259064
31.198 434.000 458.686401 354.946014 -24.686401
31.215 388.000 439.692932 354.866882 -51.692932
31.232 393.000 422.988281 354.787445 -29.988281
31.249 388.000 409.118622 354.707764 -21.118622
31.266 372.000 398.020508 354.627808 -26.020508
31.283 383.000 389.325714 354.547546 -6.325714
31.300 385.000 382.568970 354.467041 2.431030
31.317 363.000 377.317352 354.386230 -14.317352
31.334 340.000 373.215790 354.305145 -33.215790
31.351 365.000 369.983612 354.223724 -4.983612
31.368 360.000 367.411469 354.142059 -7.411469
31.385 354.000 365.340759 354.060089 -11.340759
31.402 353.000 363.655212 353.977814 -10.655212
31.419 361.000 362.266846 353.895233 -1.266846
31.436 343.000 361.110992 353.812378 -18.110992
31.453 337.000 360.137909 353.729187 -23.137909
31.470 359.000 359.309998 353.645691 -0.309998
31.487 332.000 358.598816 353.561890 -26.598816
31.504 327.000 357.981812 353.477783 -30.981812
31.521 327.000 357.441772 353.393341 -30.441772
31.538 310.000 356.964783 353.308594 -46.964783
31.555 341.000 356.540192 353.223541 -15.540192
31.572 324.000 356.159027 353.138123 -32.159027
31.589 353.000 355.814514 353.052429 -2.814514
31.606 340.000 355.500763 352.966400 -15.500763
31.623 358.000 355.213043 352.880005 2.786957
31.640 328.000 354.947662 352.793304 -26.947662
31.657 377.000 354.701324 352.706268 22.298676
31.674 353.000 354.471436 352.618896 -1.471436
31.691 336.000 354.255676 352.531158 -18.255676
31.708 345.000 354.052277 352.443115 -9.052277
31.725 362.000 353.859558 352.354706 8.140442
31.742 317.000 353.676239 352.265930 -36.676239
31.759 356.000 353.501129 352.176849 2.498871
31.776 365.000 353.333252 352.087402 11.666748
31.793 342.000 353.171783 351.997620 -11.171783
31.810 346.000 353.015869 351.907440 -7.015869
31.827 349.000 352.865021 351.816956 -3.865021
31.844 350.000 352.718506 351.726044 -2.718506
31.861 339.000 352.576019 351.634827 -13.576019
31.878 358.000 352.437012 351.543243 5.562988
31.895 347.000 352.301178 351.451294 -5.301178
31.912 340.000 352.168091 351.358948 -12.168091
31.929 357.000 352.037567 351.266266 4.962433
31.946 344.000 351.909302 351.173218 -7.909302
31.963 346.000 351.783020 351.079773 -5.783020
31.980 363.000 351.658600 350.985992 11.341400
31.997 356.000 351.535767 350.891785 4.464233
32.014 339.000 351.414490 350.797272 -12.414490
32.031 353.000 351.294464 350.702301 1.705536
32.048 361.000 351.175659 350.606995 9.824341
32.065 370.000 351.057953 350.511292 18.942047
32.082 358.000 350.941284 350.415222 7.058716
32.099 369.000 350.825470 350.318756 18.174530
32.116 392.000 350.710541 350.221924 41.289459
32.133 372.000 350.596344 350.124664 21.403656
32.150 364.000 350.482941 350.027039 13.517059
32.167 370.000 350.370239 349.929016 19.629761
32.184 363.000 350.258240 349.830597 12.741760
32.201 350.000 350.146973 349.731812 -0.146973
32.218 331.000 350.036469 349.632599 -19.036469
32.235 331.000 349.926849 349.533020 -18.926849
32.252 336.000 349.818115 349.433014 -13.818115
32.269 324.000 349.710449 349.332611 -25.710449
32.286 334.000 349.604034 349.231842 -15.604034
32.303 352.000 349.498932 349.130615 2.501068
32.320 336.000 349.395355 349.029053 -13.395355
32.337 317.000 349.293121 348.927032 -32.293121
32.354 361.000 349.191956 348.824646 11.808044
32.371 348.000 349.091034 348.721832 -1.091034
32.388 297.000 348.989044 348.618622 -51.989044
32.405 334.000 348.881866 348.514984 -14.881866
32.422 320.000 348.772430 348.410980 -28.772430
32.439 337.000 348.657532 348.306549 -11.657532
32.456 328.000 348.537811 348.201691 -20.537811
32.473 345.000 348.415039 348.096436 -3.415039
32.490 358.000 348.291290 347.990753 9.708710
32.507 391.000 348.168213 347.884674 42.831787
32.524 350.000 348.046509 347.778168 1.953491
32.541 329.000 347.926514 347.671265 -18.926514
32.558 363.000 347.807983 347.563934 15.192017
32.575 336.000 347.690674 347.456207 -11.690674
32.592 351.000 347.574310 347.348083 3.425690
32.609 354.000 347.458557 347.239502 6.541443
32.626 378.000 347.343262 347.130524 30.656738
32.643 350.000 347.228241 347.021088 2.771759
32.660 353.000 347.113373 346.911285 5.886627
32.677 395.000 346.998505 346.801025 48.001495
32.694 403.000 346.883636 346.690369 56.116364
32.711 383.000 346.768677 346.579285 36.231323
32.728 400.000 346.653687 346.467834 53.346313
32.745 421.000 346.538513 346.355927 74.461487
32.762 413.000 346.423096 346.243561 66.576904
32.779 395.000 346.307556 346.130829 48.692444
32.796 401.000 346.191803 346.017639 54.808197
32.813 408.000 346.075836 345.904053 61.924164
32.830 426.000 345.959656 345.790039 80.040344
32.847 434.000 345.843292 345.675629 88.156708
32.864 438.000 345.726654 345.560760 92.273346
32.881 433.000 345.609802 345.445496 87.390198
32.898 437.000 345.492737 345.329803 91.507263
32.915 417.000 345.375427 345.213684 71.624573
32.932 394.000 345.257935 345.097168 48.742065
32.949 383.000 345.140198 344.980225 37.859802
32.966 382.000 345.022278 344.862854 36.977722
32.983 372.000 344.904114 344.745056 27.095886
33.000 345.000 344.785797 344.626862 0.214203
33.017 340.000 344.667267 344.508240 -4.667267
33.034 380.000 344.548584 344.389191 35.451416
33.051 383.000 344.429718 344.269714 38.570282
33.068 355.000 344.310760 344.149872 10.689240
33.085 344.000 344.191711 344.029602 -0.191711
33.102 348.000 344.072418 343.908844 3.927582
33.119 343.000 343.953156 343.787750 -0.953156
33.136 353.000 343.833771 343.666199 9.166229
33.153 359.000 343.714386 343.544250 15.285614
33.170 348.000 343.595062 343.421875 4.404938
33.187 338.000 343.475708 343.299103 -5.475708
33.204 343.000 343.356476 343.175903 -0.356476
33.221 368.000 343.237366 343.052307 24.762634
33.238 344.000 343.118500 342.928314 0.881500
33.255 331.000 342.999817 342.803864 -11.999817
33.272 320.000 342.881500 342.679047 -22.881500
33.289 315.000 342.763611 342.553802 -27.763611
33.306 338.000 342.646240 342.428162 -4.646240
33.323 300.000 342.529449 342.302094 -42.529449
33.340 321.000 342.413483 342.175659 -21.413483
33.357 318.000 342.298401 342.048767 -24.298401
33.374 323.000 342.184357 341.921509 -19.184357
33.391 334.000 342.071594 341.793823 -8.071594
33.408 342.000 341.959564 341.665771 0.040436
33.425 365.000 341.850128 341.537323 23.149872
33.442 319.000 341.742798 341.408447 -22.742798
33.459 309.000 341.637909 341.279175 -32.637909
33.476 326.000 341.535980 341.149506 -15.535980
33.493 344.000 341.437561 341.019470 2.562439
33.510 316.000 341.343201 340.889008 -25.343201
33.527 329.000 341.253815 340.758209 -12.253815
33.544 311.000 341.170166 340.626953 -30.170166
33.561 318.000 341.093536 340.495361 -23.093536
33.578 291.000 341.025177 340.363373 -50.025177
33.595 326.000 340.966827 340.230957 -14.966827
33.612 323.000 340.920532 340.098206 -17.920532
33.629 308.000 340.888824 339.965027 -32.888824
33.646 329.000 340.874908 339.831482 -11.874908
33.663 323.000 340.882751 339.697571 -17.882751
33.680 322.000 340.913635 339.563293 -18.913635
33.697 333.000 340.981201 339.428589 -7.981201
33.714 307.000 341.089600 339.293579 -34.089600
33.731 322.000 341.248962 339.158203 -19.248962
33.748 345.000 341.472168 339.022400 3.527832
33.765 323.000 341.775604 338.886261 -18.775604
33.782 304.000 342.180420 338.749725 -38.180420
33.799 309.000 342.713226 338.612854 -33.713226
33.816 322.000 343.408356 338.475586 -21.408356
33.833 308.000 344.308136 338.338013 -36.308136
33.850 328.000 345.465454 338.200043 -17.465454
33.867 308.000 346.942322 338.061737 -38.942322
33.884 331.000 348.809753 337.923035 -17.809753
33.901 343.000 351.138824 337.784027 -8.138824
33.918 335.000 353.989197 337.644684 -18.989197
33.935 350.000 357.383026 337.504944 -7.383026
33.952 364.000 361.262848 337.364868 2.737152
33.969 346.000 365.446808 337.224457 -19.446808
33.986 353.000 369.575256 337.083710 -16.575256
34.003 373.000 373.111816 336.942627 -0.111816
34.020 382.000 375.423218 336.801208 6.576782
34.037 381.000 375.990479 336.659424 5.009521
34.054 369.000 374.655060 336.517365 -5.655060
34.071 388.000 371.740265 336.374969 16.259735
34.088 396.000 367.925720 336.232208 28.074280
34.105 395.000 363.973053 336.089172 31.026947
34.122 402.000 360.484955 335.945770 41.515045
34.139 408.000 357.827026 335.802063 50.172974
34.156 403.000 356.158142 335.658020 46.841858
34.173 393.000 355.510956 335.513733 37.489044
34.190 412.000 355.855988 335.369080 56.144012
34.207 407.000 357.126038 335.224121 49.873962
34.224 380.000 359.218475 335.078888 20.781525
34.241 393.000 361.970459 334.933319 31.029541
34.258 412.000 365.126221 334.787476 46.873779
34.275 386.000 368.328949 334.641296 17.671051
34.292 386.000 371.149353 334.494873 14.850647
34.309 387.000 373.180389 334.348145 13.819611
34.326 375.000 374.134735 334.201111 0.865265
34.343 371.000 373.888580 334.053802 -2.888580
34.360 395.000 372.439240 333.906219 22.560760
34.377 366.000 369.861633 333.758331 -3.861633
34.394 360.000 366.330139 333.610229 -6.330139
34.411 353.000 362.151733 333.461823 -9.151733
34.428 369.000 357.732422 333.313110 11.267578
34.445 345.000 353.471924 333.164185 -8.471924
34.462 354.000 349.655304 333.014954 4.344696
34.479 337.000 346.425415 332.865509 -9.425415
34.496 314.000 343.801697 332.715729 -29.801697
34.513 347.000 341.734314 332.565765 5.265686
34.530 308.000 340.141632 332.415527 -32.141632
34.547 326.000 338.940918 332.265045 -12.940918
34.564 301.000 338.059235 332.114349 -37.059235
34.581 310.000 337.439056 331.963348 -27.439056
34.598 336.000 337.039032 331.812164 -1.039032
34.615 345.000 336.831390 331.660706 8.168610
34.632 339.000 336.801361 331.509064 2.198639
34.649 316.000 336.945251 331.357147 -20.945251
34.666 307.000 337.269989 331.205048 -30.269989
34.683 353.000 337.793304 331.052673 15.206696
34.700 329.000 338.543518 330.900146 -9.543518
34.717 344.000 339.562317 330.747375 4.437683
34.734 321.000 340.910675 330.594391 -19.910675
34.751 335.000 342.662323 330.441223 -7.662323
34.768 342.000 344.914948 330.287811 -2.914948
34.785 315.000 347.792847 330.134247 -32.792847
34.802 316.000 351.454926 329.980469 -35.454926
34.819 326.000 356.080933 329.826508 -30.080933
34.836 343.000 361.881165 329.672302 -18.881165
34.853 369.000 369.067932 329.518005 -0.067932
34.870 377.000 377.828156 329.363464 -0.828156
34.887 368.000 388.242249 329.208740 -20.242249
34.904 398.000 400.190918 329.053894 -2.190918
34.921 411.000 413.210297 328.898834 -2.210297
34.938 433.000 426.341888 328.743652 6.658112
34.955 431.000 438.092499 328.588257 -7.092499
34.972 431.000 446.587097 328.432739 -15.587097
34.989 434.000 450.041870 328.277039 -16.041870
35.006 434.000 447.460114 328.121216 -13.460114
35.023 421.000 439.154602 327.965210 -18.154602
35.040 392.000 426.688568 327.809113 -34.688568
35.057 398.000 412.222412 327.652863 -14.222412
35.074 381.000 397.743683 327.496460 -16.743683
35.091 328.000 384.615479 327.339935 -56.615479
35.108 344.000 373.484192 327.183258 -29.484192
35.125 356.000 364.479523 327.026489 -8.479523
35.142 340.000 357.419891 326.869598 -17.419891
35.159 332.000 352.007965 326.712585 -20.007965
35.176 337.000 347.930084 326.555450 -10.930084
35.193 332.000 344.924469 326.398254 -12.924469
35.210 322.000 342.795227 326.240936 -20.795227
35.227 312.000 341.411072 326.083466 -29.411072
35.244 329.000 340.697906 325.925964 -11.697906
35.261 339.000 340.605591 325.768341 -1.605591
35.278 335.000 341.099976 325.610626 -6.099976
35.295 314.000 342.143616 325.452850 -28.143616
35.312 321.000 343.674774 325.294983 -22.674774
35.329 335.000 345.587036 325.137024 -10.587036
35.346 363.000 347.702637 324.979034 15.297363
35.363 334.000 349.777985 324.820953 -15.777985
35.380 333.000 351.504150 324.662842 -18.504150
35.397 389.000 352.579437 324.504639 36.420563
35.414 339.000 352.795197 324.346405 -13.795197
35.431 373.000 352.124115 324.188110 20.875885
35.448 360.000 350.755310 324.029755 9.244690
35.465 365.000 349.044647 323.871399 15.955353
35.482 418.000 347.403351 323.712952 70.596649
35.499 382.000 346.197205 323.554535 35.802795
35.516 388.000 345.694946 323.396027 42.305054
35.533 368.000 346.075287 323.237549 21.924713
35.550 362.000 347.465515 323.079041 14.534485
35.567 379.000 349.970154 322.920502 29.029846
35.584 391.000 353.694702 322.761963 37.305298
35.601 367.000 358.750061 322.603394 8.249939
35.618 399.000 365.223602 322.444855 33.776398
35.635 387.000 373.139618 322.286285 13.860382
35.652 415.000 382.370667 322.127777 32.629333
35.669 441.000 392.552612 321.969208 48.447388
35.686 423.000 402.974335 321.810699 20.025665
35.703 432.000 412.562744 321.652222 19.437256
35.720 444.000 419.995361 321.493713 24.004639
35.737 454.000 424.029053 321.335297 29.970947
35.754 438.000 423.983643 321.176880 14.016357
35.771 421.000 420.102020 321.018524 0.897980
35.788 442.000 413.538940 320.860138 28.461060
35.805 441.000 405.960876 320.701874 35.039124
35.822 427.000 399.006256 320.543640 27.993744
35.839 417.000 393.939270 320.385437 23.060730
35.856 406.000 391.544647 320.227295 14.455353
35.873 396.000 392.212463 320.069275 3.787537
35.890 386.000 396.046326 319.911285 -10.046326
35.907 397.000 402.928406 319.753326 -5.928406
35.924 429.000 412.489075 319.595490 16.510925
35.941 427.000 424.025208 319.437714 2.974792
35.958 425.000 436.366119 319.280029 -11.366119
35.975 467.000 447.842407 319.122437 19.157593
35.992 490.000 456.407959 318.964966 33.592041
36.009 488.000 460.090424 318.807526 27.909576
36.026 457.000 457.627136 318.650238 -0.627136
36.043 438.000 449.017639 318.493073 -11.017639
36.060 411.000 435.568359 318.335968 -24.568359
36.077 395.000 419.388672 318.179016 -24.388672
36.094 413.000 402.614014 318.022156 10.385986
36.111 434.000 386.872986 317.865448 47.127014
36.128 396.000 373.075714 317.708832 22.924286
36.145 347.000 361.543579 317.552399 -14.543579
36.162 339.000 352.196899 317.396057 -13.196899
36.179 334.000 344.770874 317.239899 -10.770874
36.196 319.000 338.932770 317.083862 -19.932770
36.213 308.000 334.363068 316.927979 -26.363068
36.230 339.000 330.787994 316.772247 8.212006
36.247 326.000 327.981018 316.616669 -1.981018
36.264 343.000 325.765869 316.461304 17.234131
36.281 298.000 324.003571 316.306030 -26.003571
36.298 308.000 322.588348 316.150970 -14.588348
36.315 337.000 321.436859 315.996094 15.563141
36.332 313.000 320.485352 315.841400 -7.485352
36.349 335.000 319.684082 315.686829 15.315918
36.366 312.000 318.996796 315.532532 -6.996796
36.383 322.000 318.397644 315.378418 3.602356
36.400 345.000 317.869812 315.224457 27.130188
36.417 303.000 317.402954 315.070740 -14.402954
36.434 285.000 316.989716 314.917175 -31.989716
36.451 321.000 316.624756 314.763885 4.375244
36.468 355.000 316.302979 314.610748 38.697021
36.485 320.000 316.020172 314.457886 3.979828
36.502 305.000 315.772491 314.305206 -10.772491
36.519 350.000 315.557251 314.152802 34.442749
36.536 363.000 315.372681 314.000610 47.627319
36.553 329.000 315.218079 313.848633 13.781921
36.570 350.000 315.094177 313.696930 34.905823
36.587 316.000 315.002808 313.545410 0.997192
36.604 305.000 314.947510 313.394226 -9.947510
36.621 363.000 314.933258 313.243225 48.066742
36.638 327.000 314.966980 313.092529 12.033020
36.655 321.000 315.057770 312.942047 5.942230
36.672 336.000 315.216949 312.791870 20.783051
36.689 334.000 315.458252 312.641968 18.541748
36.706 326.000 315.797607 312.492310 10.202393
36.723 304.000 316.251678 312.342957 -12.251678
36.740 323.000 316.836456 312.193848 6.163544
36.757 315.000 317.562653 312.045074 -2.562653
36.774 315.000 318.430542 311.896545 -3.430542
36.791 323.000 319.420837 311.748322 3.579163
36.808 300.000 320.487396 311.600403 -20.487396
36.825 333.000 321.549713 311.452820 11.450287
36.842 327.000 322.498413 311.305481 4.501587
36.859 323.000 323.213287 311.158508 -0.213287
36.876 320.000 323.601166 311.011841 -3.601166
36.893 326.000 323.636078 310.865479 2.363922
36.910 326.000 323.381500 310.719421 2.618500
36.927 299.000 322.977448 310.573700 -23.977448
36.944 311.000 322.599701 310.428345 -11.599701
36.961 330.000 322.414978 310.283264 7.585022
36.978 325.000 322.555115 310.138550 2.444885
36.995 297.000 323.111633 309.994171 -26.111633
37.012 297.000 324.144043 309.850159 -27.144043
37.029 306.000 325.694092 309.706512 -19.694092
37.046 318.000 327.798676 309.563171 -9.798676
37.063 341.000 330.500275 309.420227 10.499725
37.080 322.000 333.860748 309.277588 -11.860748
37.097 321.000 337.960236 309.135376 -16.960236
37.114 339.000 342.890747 308.993500 -3.890747
37.131 354.000 348.710938 308.851990 5.289062
37.148 340.000 355.391571 308.710876 -15.391571
37.165 367.000 362.725403 308.570129 4.274597
37.182 350.000 370.264893 308.429779 -20.264893
37.199 362.000 377.288208 308.289795 -15.288208
37.216 372.000 382.854370 308.150238 -10.854370
37.233 377.000 386.002014 308.011017 -9.002014
37.250 353.000 386.033997 307.872253 -33.033997
37.267 363.000 382.800110 307.733856 -19.800110
37.284 358.000 376.792328 307.595886 -18.792328
37.301 347.000 368.974731 307.458282 -21.974731
37.318 332.000 360.465942 307.321136 -28.465942
37.335 340.000 352.221252 307.184387 -12.221252
37.352 333.000 344.890106 307.048035 -11.890106
37.369 363.000 338.799072 306.912170 24.200928
37.386 330.000 334.039215 306.776672 -4.039215
37.403 349.000 330.568542 306.641632 18.431458
37.420 349.000 328.285889 306.506989 20.714111
37.437 330.000 327.089874 306.372803 2.910126
37.454 301.000 326.903229 306.239044 -25.903229
37.471 313.000 327.686768 306.105743 -14.686768
37.488 298.000 329.440216 305.972870 -31.440216
37.505 334.000 332.194702 305.840485 1.805298
37.522 292.000 336.001404 305.708527 -44.001404
37.539 329.000 340.909882 305.577026 -11.909882
37.556 344.000 346.932281 305.445984 -2.932281
37.573 323.000 354.010834 305.315369 -31.010834
37.590 341.000 361.964020 305.185272 -20.964020
37.607 387.000 370.468292 305.055603 16.531708
37.624 349.000 379.052460 304.926453 -30.052460
37.641 360.000 387.182922 304.797699 -27.182922
37.658 350.000 394.378998 304.669495 -44.378998
37.675 373.000 400.355743 304.541748 -27.355743
37.692 403.000 405.053955 304.414459 -2.053955
37.709 413.000 408.525085 304.287689 4.474915
37.726 428.000 410.733765 304.161377 17.266235
37.743 392.000 411.406403 304.035583 -19.406403
37.760 402.000 410.079315 303.910248 -8.079315
37.777 397.000 406.340363 303.785461 -9.340363
37.794 388.000 400.127747 303.661133 -12.127747
37.811 397.000 391.899719 303.537323 5.100281
37.828 433.000 382.539581 303.414001 50.460419
37.845 418.000 373.104675 303.291229 44.895325
37.862 382.000 364.534607 303.168945 17.465393
37.879 381.000 357.498688 303.047150 23.501312
37.896 376.000 352.378265 302.925903 23.621735
37.913 362.000 349.319672 302.805145 12.680328
37.930 320.000 348.325317 302.684967 -28.325317
37.947 315.000 349.307129 302.565247 -34.307129
37.964 351.000 352.108673 302.446075 -1.108673
37.981 337.000 356.488556 302.327454 -19.488556
37.998 348.000 362.069397 302.209351 -14.069397
38.015 374.000 368.290588 302.091766 5.709412
38.032 372.000 374.377991 301.974731 -2.377991
38.049 374.000 379.381409 301.858246 -5.381409
38.066 372.000 382.331940 301.742249 -10.331940
38.083 363.000 382.479401 301.626862 -19.479401
38.100 357.000 379.547791 301.511963 -22.547791
38.117 365.000 373.852539 301.397675 -8.852539
38.134 348.000 366.193359 301.283875 -18.193359
38.151 347.000 357.593689 301.170654 -10.593689
38.168 343.000 349.000122 301.058014 -6.000122
38.185 332.000 341.104126 300.945892 -9.104126
38.202 337.000 334.303314 300.834320 2.696686
38.219 353.000 328.741211 300.723328 24.258789
38.236 350.000 324.405853 300.612915 25.594147
38.253 334.000 321.200134 300.503021 12.799866
38.270 341.000 319.007080 300.393738 21.992920
38.287 343.000 317.718079 300.285004 25.281921
38.304 290.000 317.254730 300.176819 -27.254730
38.321 298.000 317.573364 300.069244 -19.573364
38.338 346.000 318.666962 299.962219 27.333038
38.355 346.000 320.563049 299.855804 25.436951
38.372 324.000 323.319092 299.749939 0.680908
38.389 316.000 327.011383 299.644653 -11.011383
38.406 322.000 331.724823 299.539948 -9.724823
38.423 371.000 337.521545 299.435822 33.478455
38.440 355.000 344.411316 299.332275 10.588684
38.457 365.000 352.287476 299.229340 12.712524
38.474 394.000 360.874481 299.126953 33.125519
38.491 355.000 369.655914 299.025208 -14.655914
38.508 426.000 377.866913 298.924042 48.133087
38.525 417.000 384.549316 298.823425 32.450684
38.542 401.000 388.723541 298.723450 12.276459
38.559 391.000 389.666718 298.624023 1.333282
38.576 418.000 387.168732 298.525238 30.831268
38.593 407.000 381.646088 298.427002 25.353912
38.610 403.000 374.030853 298.329407 28.969147
38.627 344.000 365.476593 298.232391 -21.476593
38.644 385.000 357.069397 298.135986 27.930603
38.661 401.000 349.625061 298.040192 51.374939
38.678 351.000 343.648499 297.944977 7.351501
38.695 347.000 339.391479 297.850403 7.608521
38.712 357.000 336.935608 297.756409 20.064392
38.729 370.000 336.285278 297.663025 33.714722
38.746 360.000 337.421692 297.570251 22.578308
38.763 370.000 340.332275 297.478088 29.667725
38.780 360.000 345.013489 297.386536 14.986511
38.797 365.000 351.441864 297.295593 13.558136
38.814 358.000 359.536621 297.205261 -1.536621
38.831 357.000 369.084412 297.115540 -12.084412
38.848 370.000 379.680817 297.026459 -9.680817
38.865 393.000 390.671997 296.937927 2.328003
38.882 439.000 401.148804 296.850067 37.851196
38.899 463.000 410.063843 296.762817 52.936157
38.916 457.000 416.428833 296.676208 40.571167
38.933 437.000 419.605042 296.590149 17.394958
38.950 415.000 419.499146 296.504761 -4.499146
38.967 405.000 416.571625 296.419983 -11.571625
38.984 426.000 411.609741 296.335815 14.390259
39.001 427.000 405.388397 296.252289 21.611603
39.018 388.000 398.410889 296.169342 -10.410889
39.035 393.000 390.852539 296.087067 2.147461
39.052 393.000 382.677948 296.005371 10.322052
39.069 375.000 373.866333 295.924316 1.133667
39.086 392.000 364.555664 295.843872 27.444336
39.103 387.000 355.084351 295.764069 31.915649
39.120 334.000 345.882904 295.684875 -11.882904
39.137 317.000 337.359650 295.606323 -20.359650
39.154 309.000 329.792542 295.528381 -20.792542
39.171 304.000 323.307922 295.451080 -19.307922
39.188 313.000 317.906342 295.374390 -4.906342
39.205 330.000 313.497467 295.298309 16.502533
39.222 337.000 309.953064 295.222870 27.046936
39.239 318.000 307.130707 295.148041 10.869293
39.256 322.000 304.899353 295.073853 17.100647
39.273 309.000 303.143127 295.000275 5.856873
39.290 284.000 301.768066 294.927338 -17.768066
39.307 303.000 300.698090 294.855011 2.301910
39.324 310.000 299.875427 294.783325 10.124573
39.341 291.000 299.255920 294.712280 -8.255920
39.358 280.000 298.807617 294.641815 -18.807617
39.375 291.000 298.509003 294.571991 -7.509003
39.392 305.000 298.346588 294.502777 6.653412
39.409 327.000 298.314789 294.434235 28.685211
39.426 327.000 298.414673 294.366272 28.585327
39.443 284.000 298.654144 294.298950 -14.654144
39.460 273.000 299.048218 294.232239 -26.048218
39.477 277.000 299.618896 294.166168 -22.618896
39.494 285.000 300.396240 294.100708 -15.396240
39.511 323.000 301.418793 294.035858 21.581207
39.528 304.000 302.732697 293.971649 1.267303
39.545 286.000 304.392303 293.908020 -18.392303
39.562 294.000 306.455048 293.845062 -12.455048
39.579 282.000 308.978241 293.782715 -26.978241
39.596 305.000 312.005249 293.720978 -7.005249
39.613 313.000 315.552734 293.659851 -2.552734
39.630 298.000 319.582794 293.599335 -21.582794
39.647 301.000 323.980438 293.539459 -22.980438
39.664 318.000 328.525391 293.480194 -10.525391
39.681 338.000 332.876526 293.421539 5.123474
39.698 350.000 336.598145 293.363495 13.401855
39.715 348.000 339.217438 293.306091 8.782562
39.732 324.000 340.339813 293.249268 -16.339813
39.749 300.000 339.765503 293.193054 -39.765503
39.766 322.000 337.567322 293.137451 -15.567322
39.783 336.000 334.077820 293.082489 1.922180
39.800 331.000 329.783234 293.028137 1.216766
39.817 330.000 325.189941 292.974365 4.810059
39.834 317.000 320.703857 292.921204 -3.703857
39.851 324.000 316.580292 292.868652 7.419708
39.868 342.000 312.931519 292.816742 29.068481
39.885 335.000 309.761719 292.765381 25.238281
39.902 312.000 307.023895 292.714661 4.976105
39.919 291.000 304.654968 292.664520 -13.654968
39.936 298.000 302.603821 292.614990 -4.603821
39.953 303.000 300.832825 292.566040 2.167175
39.970 302.000 299.316986 292.517731 2.683014
39.987 305.000 298.033875 292.469971 6.966125
40.004 316.000 296.960449 292.422821 19.039551
40.021 317.000 296.072052 292.376282 20.927948
40.038 300.000 295.341888 292.330322 4.658112
40.055 293.000 294.744568 292.284973 -1.744568
40.072 314.000 294.256104 292.240173 19.743896
40.089 305.000 293.856079 292.195984 11.143921
40.106 306.000 293.526825 292.152374 12.473175
40.123 301.000 293.254211 292.109375 7.745789
40.140 298.000 293.026642 292.066956 4.973358
40.157 315.000 292.834900 292.025085 22.165100
40.174 317.000 292.671906 291.983826 24.328094
40.191 317.000 292.531860 291.943115 24.468140
40.208 298.000 292.410400 291.903015 5.589600
40.225 285.000 292.303986 291.863464 -7.303986
40.242 308.000 292.209900 291.824524 15.790100
40.259 321.000 292.125824 291.786102 28.874176
40.276 312.000 292.050293 291.748291 19.949707
40.293 302.000 291.981842 291.711029 10.018158
40.310 294.000 291.919434 291.674347 2.080566
40.327 279.000 291.862183 291.638245 -12.862183
40.344 323.000 291.809418 291.602661 31.190582
40.361 324.000 291.760651 291.567657 32.239349
40.378 311.000 291.715515 291.533234 19.284485
40.395 268.000 291.673615 291.499329 -23.673615
40.412 286.000 291.634857 291.466003 -5.634857
40.429 327.000 291.599030 291.433228 35.400970
40.446 267.000 291.566132 291.401001 -24.566132
40.463 276.000 291.536163 291.369324 -15.536163
40.480 267.000 291.509216 291.338196 -24.509216
40.497 292.000 291.485443 291.307587 0.514557
40.514 284.000 291.465210 291.277557 -7.465210
40.531 274.000 291.448853 291.248047 -17.448853
40.548 275.000 291.436859 291.219086 -16.436859
40.565 335.000 291.429932 291.190674 43.570068
40.582 307.000 291.428864 291.162781 15.571136
40.599 264.000 291.434753 291.135406 -27.434753
40.616 292.000 291.448944 291.108582 0.551056
40.633 289.000 291.472961 291.082245 -2.472961
40.650 288.000 291.508850 291.056458 -3.508850
40.667 283.000 291.558868 291.031219 -8.558868
40.684 266.000 291.625580 291.006470 -25.625580
40.701 301.000 291.711761 290.982239 9.288239
40.718 284.000 291.820282 290.958527 -7.820282
40.735 268.000 291.953400 290.935333 -23.953400
40.752 274.000 292.112457 290.912628 -18.112457
40.769 300.000 292.296753 290.890442 7.703247
40.786 305.000 292.502716 290.868774 12.497284
40.803 307.000 292.722443 290.847595 14.277557
40.820 311.000 292.943420 290.826935 18.056580
40.837 290.000 293.148651 290.806763 -3.148651
40.854 282.000 293.318817 290.787079 -11.318817
40.871 291.000 293.436066 290.767883 -2.436066
40.888 304.000 293.488892 290.749176 10.511108
40.905 304.000 293.476471 290.730957 10.523529
40.922 310.000 293.409943 290.713257 16.590057
40.939 307.000 293.309875 290.695984 13.690125
40.956 295.000 293.201691 290.679230 1.798309
40.973 302.000 293.109863 290.662933 8.890137
40.990 293.000 293.054230 290.647095 -0.054230
41.007 299.000 293.048584 290.631775 5.951416
41.024 306.000 293.100555 290.616882 12.899445
41.041 287.000 293.213226 290.602478 -6.213226
41.058 299.000 293.386383 290.588501 5.613617
41.075 315.000 293.618500 290.575012 21.381500
41.092 306.000 293.908478 290.561981 12.091522
41.109 311.000 294.257721 290.549377 16.742279
41.126 305.000 294.672974 290.537262 10.327026
41.143 293.000 295.168030 290.525574 -2.168030
41.160 307.000 295.764801 290.514313 11.235199
41.177 283.000 296.494141 290.503510 -13.494141
41.194 266.000 297.393738 290.493164 -31.393738
41.211 299.000 298.508881 290.483215 0.491119
41.228 288.000 299.890564 290.473755 -11.890564
41.245 289.000 301.598145 290.464661 -12.598145
41.262 316.000 303.698883 290.456024 12.301117
41.279 330.000 306.273102 290.447815 23.726898
41.296 285.000 309.412933 290.440033 -24.412933
41.313 331.000 313.227966 290.432648 17.772034
41.330 295.000 317.844025 290.425690 -22.844025
41.347 285.000 323.394043 290.419128 -38.394043
41.364 323.000 330.012695 290.412994 -7.012695
41.381 330.000 337.801758 290.407288 -7.801758
41.398 349.000 346.803528 290.401947 2.196472
41.415 376.000 356.935913 290.397003 19.064087
41.432 321.000 367.949310 290.392456 -46.949310
41.449 359.000 379.354675 290.388336 -20.354675
41.466 361.000 390.413849 290.384583 -29.413849
41.483 411.000 400.164276 290.381195 10.835724
41.500 420.000 407.531067 290.378204 12.468933
41.517 409.000 411.547119 290.375610 -2.547119
41.534 408.000 411.588867 290.373383 -3.588867
41.551 353.000 407.579590 290.371521 -54.579590
41.568 354.000 400.039398 290.370026 -46.039398
41.585 346.000 389.949036 290.368896 -43.949036
41.602 354.000 378.509460 290.368164 -24.509460
41.619 360.000 366.861359 290.367767 -6.861359
41.636 339.000 355.905579 290.367737 -16.905579
41.653 379.000 346.237610 290.368042 32.762390
41.670 340.000 338.150116 290.368713 1.849884
41.687 344.000 331.715973 290.369720 12.284027
41.704 342.000 326.848907 290.371063 15.151093
41.721 326.000 323.375732 290.372772 2.624268
41.738 336.000 321.067505 290.374817 14.932495
41.755 318.000 319.669525 290.377167 -1.669525
41.772 306.000 318.911804 290.379883 -12.911804
41.789 330.000 318.527649 290.382874 11.472351
41.806 321.000 318.275238 290.386230 2.724762
41.823 308.000 317.968842 290.389893 -9.968842
41.840 307.000 317.509125 290.393890 -10.509125
41.857 292.000 316.899506 290.398193 -24.899506
41.874 294.000 316.241608 290.402802 -22.241608
41.891 314.000 315.706360 290.407715 -1.706360
41.908 319.000 315.496948 290.412933 3.503052
41.925 318.000 315.814117 290.418457 2.185883
41.942 304.000 316.834961 290.424255 -12.834961
41.959 296.000 318.705139 290.430359 -22.705139
41.976 306.000 321.538696 290.436768 -15.538696
41.993 323.000 325.413849 290.443420 -2.413849
42.010 329.000 330.369934 290.450409 -1.369934
42.027 319.000 336.381653 290.457642 -17.381653
42.044 332.000 343.338837 290.465149 -11.338837
42.061 351.000 350.999939 290.472961 0.000061
42.078 353.000 358.972229 290.481018 -5.972229
42.095 358.000 366.687225 290.489319 -8.687225
42.112 381.000 373.443909 290.497925 7.556091
42.129 405.000 378.483673 290.506775 26.516327
42.146 422.000 381.145355 290.515869 40.854645
42.163 368.000 381.021423 290.525208 -13.021423
42.180 384.000 378.087036 290.534790 5.912964
42.197 365.000 372.724609 290.544647 -7.724609
42.214 368.000 365.629333 290.554718 2.370667
42.231 380.000 357.639679 290.565033 22.360321
42.248 405.000 349.567902 290.575592 55.432098
42.265 373.000 342.063538 290.586365 30.936462
42.282 356.000 335.577698 290.597382 20.422302
42.299 347.000 330.362640 290.608612 16.637360
42.316 364.000 326.528870 290.620056 37.471130
42.333 323.000 324.089355 290.631714 -1.089355
42.350 301.000 323.011292 290.643585 -22.011292
42.367 327.000 323.240509 290.655701 3.759491
42.384 320.000 324.717804 290.667969 -4.717804
42.401 293.000 327.375854 290.680481 -34.375854
42.418 335.000 331.129944 290.693176 3.870056
42.435 325.000 335.853790 290.706055 -10.853790
42.452 335.000 341.364624 290.719147 -6.364624
42.469 345.000 347.398682 290.732391 -2.398682
42.486 336.000 353.620483 290.745850 -17.620483
42.503 370.000 359.637146 290.759491 10.362854
42.520 340.000 365.059235 290.773315 -25.059235
42.537 350.000 369.563507 290.787292 -19.563507
42.554 368.000 372.946320 290.801453 -4.946320
42.571 354.000 375.144348 290.815765 -21.144348
42.588 349.000 376.188873 290.830261 -27.188873
42.605 376.000 376.133789 290.844910 -0.133789
42.622 385.000 374.985443 290.859711 10.014557
42.639 363.000 372.683899 290.874664 -9.683899
42.656 342.000 369.149048 290.889771 -27.149048
42.673 338.000 364.359406 290.905029 -26.359406
42.690 369.000 358.431885 290.920410 10.568115
42.707 336.000 351.636841 290.935944 -15.636841
42.724 314.000 344.359833 290.951630 -30.359833
42.741 328.000 337.027039 290.967407 -9.027039
42.758 333.000 330.012146 290.983337 2.987854
42.775 328.000 323.595032 290.999390 4.404968
42.792 316.000 317.932770 291.015594 -1.932770
42.809 297.000 313.083344 291.031891 -16.083344
42.826 282.000 309.023041 291.048309 -27.023041
42.843 290.000 305.684662 291.064819 -15.684662
42.860 286.000 302.975616 291.081451 -16.975616
42.877 299.000 300.798737 291.098206 -1.798737
42.894 293.000 299.063599 291.115051 -6.063599
42.911 293.000 297.688660 291.131958 -4.688660
42.928 308.000 296.606445 291.148987 11.393555
42.945 309.000 295.760590 291.166138 13.239410
42.962 312.000 295.106812 291.183350 16.893188
42.979 302.000 294.609863 291.200653 7.390137
42.996 298.000 294.243103 291.218018 3.756897
43.013 305.000 293.986328 291.235474 11.013672
43.030 293.000 293.824768 291.253021 -0.824768
43.047 282.000 293.748108 291.270630 -11.748108
43.064 313.000 293.749481 291.288300 19.250519
43.081 293.000 293.824493 291.306030 -0.824493
43.098 283.000 293.970734 291.323822 -10.970734
43.115 279.000 294.186615 291.341675 -15.186615
43.132 286.000 294.470947 291.359589 -8.470947
43.149 278.000 294.822144 291.377563 -16.822144
43.166 283.000 295.238403 291.395569 -12.238403
43.183 275.000 295.717590 291.413635 -20.717590
43.200 295.000 296.258850 291.431732 -1.258850
43.217 311.000 296.863831 291.449860 14.136169
43.234 292.000 297.537811 291.468048 -5.537811
43.251 298.000 298.290588 291.486267 -0.290588
43.268 293.000 299.134064 291.504486 -6.134064
43.285 277.000 300.080475 291.522766 -23.080475
43.302 324.000 301.136902 291.541046 22.863098
43.319 325.000 302.304657 291.559357 22.695343
43.336 311.000 303.577545 291.577667 7.422455
43.353 330.000 304.947906 291.596008 25.052094
43.370 285.000 306.412628 291.614349 -21.412628
43.387 338.000 307.978912 291.632690 30.021088
43.404 309.000 309.669586 291.651062 -0.669586
43.421 307.000 311.514557 291.669434 -4.514557
43.438 301.000 313.540253 291.687775 -12.540253
43.455 322.000 315.745453 291.706116 6.254547
43.472 338.000 318.084076 291.724487 19.915924
43.489 335.000 320.446106 291.742798 14.553894
43.506 324.000 322.659698 291.761108 1.340302
43.523 335.000 324.505676 291.779419 10.494324
43.540 342.000 325.752136 291.797699 16.247864
43.557 356.000 326.206665 291.815979 29.793335
43.574 322.000 325.764282 291.834198 -3.764282
43.591 354.000 324.440643 291.852417 29.559357
43.608 355.000 322.373138 291.870575 32.626862
43.625 317.000 319.786224 291.888733 -2.786224
43.642 329.000 316.942596 291.906830 12.057404
43.659 345.000 314.086182 291.924866 30.913818
43.676 340.000 311.409515 291.942871 28.590485
43.693 326.000 309.032745 291.960846 16.967255
43.710 338.000 307.007568 291.978790 30.992432
43.727 333.000 305.330902 291.996643 27.669098
43.744 325.000 303.959778 292.014465 21.040222
43.761 325.000 302.832001 292.032227 22.167999
43.778 330.000 301.880493 292.049927 28.119507
43.795 301.000 301.048645 292.067566 -0.048645
43.812 299.000 300.297302 292.085114 -1.297302
43.829 317.000 299.609833 292.102600 17.390167
43.846 315.000 298.988342 292.120056 16.011658
43.863 295.000 298.448273 292.137390 -3.448273
43.880 283.000 298.011902 292.154663 -15.011902
43.897 294.000 297.701599 292.171875 -3.701599
43.914 308.000 297.537628 292.188995 10.462372
43.931 311.000 297.537201 292.206024 13.462799
43.948 316.000 297.715912 292.222961 18.284088
43.965 304.000 298.089844 292.239807 5.910156
43.982 307.000 298.677185 292.256592 8.322815
43.999 307.000 299.499939 292.273254 7.500061
44.016 304.000 300.584625 292.289825 3.415375
44.033 300.000 301.960571 292.306305 -1.960571
44.050 312.000 303.659607 292.322662 8.340393
44.067 323.000 305.709503 292.338928 17.290497
44.084 329.000 308.130371 292.355072 20.869629
44.101 329.000 310.922028 292.371124 18.077972
44.118 306.000 314.056122 292.387054 -8.056122
44.135 301.000 317.458069 292.402893 -16.458069
44.152 323.000 321.000305 292.418579 1.999695
44.169 310.000 324.490021 292.434174 -14.490021
44.186 304.000 327.679871 292.449615 -23.679871
44.203 343.000 330.287994 292.464966 12.712006
44.220 329.000 332.037720 292.480164 -3.037720
44.237 308.000 332.715271 292.495239 -24.715271
44.254 346.000 332.218536 292.510193 13.781464
44.271 313.000 330.587860 292.525024 -17.587860
44.288 320.000 328.001892 292.539703 -8.001892
44.305 308.000 324.735321 292.554260 -16.735321
44.322 297.000 321.103912 292.568634 -24.103912
44.339 326.000 317.402588 292.582916 8.597412
44.356 328.000 313.867584 292.597015 14.132416
44.373 279.000 310.662659 292.610992 -31.662659
44.390 321.000 307.876740 292.624817 13.123260
44.407 297.000 305.544220 292.638489 -8.544220
44.424 307.000 303.658386 292.652008 3.341614
44.441 306.000 302.192444 292.665375 3.807556
44.458 304.000 301.109131 292.678589 2.890869
44.475 285.000 300.372589 292.691620 -15.372589
44.492 283.000 299.951782 292.704498 -16.951782
44.509 303.000 299.824646 292.717224 3.175354
44.526 303.000 299.979218 292.729797 3.020782
44.543 302.000 300.413849 292.742188 1.586151
44.560 309.000 301.136749 292.754395 7.863251
44.577 301.000 302.165771 292.766449 -1.165771
44.594 294.000 303.525330 292.778320 -9.525330
44.611 295.000 305.245758 292.790039 -10.245758
44.628 288.000 307.356506 292.801575 -19.356506
44.645 290.000 309.882965 292.812897 -19.882965
44.662 286.000 312.834045 292.824066 -26.834045
44.679 326.000 316.194153 292.835052 9.805847
44.696 320.000 319.908875 292.845856 0.091125
44.713 307.000 323.868500 292.856476 -16.868500
44.730 322.000 327.904633 292.866913 -5.904633
44.747 321.000 331.782837 292.877167 -10.782837
44.764 325.000 335.224213 292.887207 -10.224213
44.781 338.000 337.931732 292.897064 0.068268
44.798 340.000 339.644318 292.906738 0.355682
44.815 319.000 340.185394 292.916199 -21.185394
44.832 323.000 339.506531 292.925476 -16.506531
44.849 339.000 337.696564 292.934540 1.303436
44.866 337.000 334.961975 292.943420 2.038025
44.883 339.000 331.575989 292.952087 7.424011
44.900 314.000 327.829132 292.960571 -13.829132
44.917 333.000 323.980042 292.968842 9.019958
44.934 341.000 320.238708 292.976898 20.761292
44.951 313.000 316.754181 292.984741 -3.754181
44.968 314.000 313.627472 292.992371 0.372528
44.985 321.000 310.916351 292.999817 10.083649
45.002 314.000 308.648468 293.007019 5.351532
45.019 315.000 306.831818 293.014038 8.168182
45.036 292.000 305.458893 293.020813 -13.458893
45.053 324.000 304.516876 293.027405 19.483124
45.070 309.000 303.990784 293.033752 5.009216
45.087 289.000 303.869629 293.039886 -14.869629
45.104 297.000 304.148712 293.045807 -7.148712
45.121 307.000 304.831482 293.051514 2.168518
45.138 307.000 305.930389 293.056976 1.069611
45.155 301.000 307.464630 293.062225 -6.464630
45.172 347.000 309.458557 293.067261 37.541443
45.189 334.000 311.936920 293.072052 22.063080
45.206 319.000 314.915863 293.076630 4.084137
45.223 314.000 318.398163 293.080963 -4.398163
45.240 310.000 322.357391 293.085083 -12.357391
45.257 318.000 326.732758 293.088959 -8.732758
45.274 334.000 331.412598 293.092621 2.587402
45.291 345.000 336.236389 293.096039 8.763611
45.308 332.000 340.988495 293.099213 -8.988495
45.325 335.000 345.417542 293.102173 -10.417542
45.342 340.000 349.254883 293.104889 -9.254883
45.359 361.000 352.244110 293.107361 8.755890
45.376 332.000 354.183502 293.109589 -22.183502
45.393 353.000 354.956604 293.111603 -1.956604
45.410 324.000 354.561249 293.113373 -30.561249
45.427 326.000 353.115570 293.114868 -27.115570
45.444 329.000 350.840729 293.116150 -21.840729
45.461 351.000 348.027100 293.117188 2.972900
45.478 352.000 344.987335 293.117981 7.012665
45.495 335.000 342.019653 293.118561 -7.019653
45.512 347.000 339.388428 293.118866 7.611572
45.529 312.000 337.314911 293.118927 -25.314911
45.546 328.000 335.988281 293.118744 -7.988281
45.563 326.000 335.571899 293.118317 -9.571899
45.580 355.000 336.213226 293.117615 18.786774
45.597 340.000 338.046173 293.116699 1.953827
45.614 352.000 341.187988 293.115540 10.812012
45.631 352.000 345.737000 293.114105 6.263000
45.648 334.000 351.756042 293.112427 -17.756042
45.665 311.000 359.262543 293.110504 -48.262543
45.682 332.000 368.205139 293.108337 -36.205139
45.699 359.000 378.430115 293.105896 -19.430115
45.716 390.000 389.671143 293.103210 0.328857
45.733 406.000 401.516724 293.100281 4.483276
45.750 413.000 413.436462 293.097107 -0.436462
45.767 419.000 424.799194 293.093658 -5.799194
45.784 451.000 434.968872 293.089966 16.031128
45.801 464.000 443.385193 293.086029 20.614807
45.818 468.000 449.679199 293.081818 18.320801
45.835 453.000 453.726227 293.077362 -0.726227
45.852 482.000 455.640320 293.072632 26.359680
45.869 485.000 455.704224 293.067688 29.295776
45.886 449.000 454.246155 293.062439 -5.246155
45.903 445.000 451.523315 293.056946 -6.523315
45.920 447.000 447.652161 293.051208 -0.652161
45.937 424.000 442.599823 293.045227 -18.599823
45.954 416.000 436.250366 293.038971 -20.250366
45.971 426.000 428.493713 293.032440 -2.493713
45.988 444.000 419.323029 293.025665 24.676971
46.005 423.000 408.902405 293.018646 14.097595
46.022 395.000 397.557037 293.011353 -2.557037
46.039 367.000 385.743866 293.003784 -18.743866
46.056 394.000 373.952454 292.995972 20.047546
46.073 386.000 362.644104 292.987915 23.355896
46.090 388.000 352.171783 292.979584 35.828217
46.107 368.000 342.772766 292.970978 25.227234
46.124 352.000 334.552765 292.962128 17.447235
46.141 341.000 327.524261 292.953033 13.475739
46.158 356.000 321.622986 292.943665 34.377014
46.175 336.000 316.743378 292.934021 19.256622
46.192 340.000 312.764526 292.924133 27.235474
46.209 335.000 309.559601 292.914001 25.440399
46.226 304.000 307.013611 292.903595 -3.013611
46.243 341.000 305.023285 292.892914 35.976715
46.260 330.000 303.503967 292.881989 26.496033
46.277 311.000 302.386139 292.870789 8.613861
46.294 325.000 301.617645 292.859344 23.382355
46.311 321.000 301.160187 292.847656 19.839813
46.328 315.000 300.989166 292.835693 14.010834
46.345 315.000 301.092468 292.823456 13.907532
46.362 339.000 301.469208 292.810974 37.530792
46.379 296.000 302.128845 292.798218 -6.128845
46.396 307.000 303.091187 292.785217 3.908813
46.413 316.000 304.384369 292.771973 11.615631
46.430 293.000 306.045349 292.758423 -13.045349
46.447 298.000 308.115967 292.744659 -10.115967
46.464 303.000 310.641846 292.730621 -7.641846
46.481 319.000 313.667267 292.716339 5.332733
46.498 323.000 317.225494 292.701782 5.774506
46.515 314.000 321.334412 292.686951 -7.334412
46.532 320.000 325.978394 292.671906 -5.978394
46.549 320.000 331.102112 292.656586 -11.102112
46.566 320.000 336.590454 292.640991 -16.590454
46.583 343.000 342.270020 292.625153 0.729980
46.600 360.000 347.902100 292.609070 12.097900
46.617 370.000 353.209961 292.592712 16.790039
46.634 396.000 357.904114 292.576111 38.095886
46.651 370.000 361.739990 292.559265 8.260010
46.668 368.000 364.566467 292.542145 3.433533
46.685 389.000 366.365845 292.524780 22.634155
46.702 357.000 367.269836 292.507172 -10.269836
46.719 353.000 367.531403 292.489319 -14.531403
46.736 379.000 367.469269 292.471191 11.530731
46.753 391.000 367.392609 292.452820 23.607391
46.770 395.000 367.529449 292.434174 27.470551
46.787 390.000 367.974365 292.415314 22.025635
46.804 392.000 368.665863 292.396179 23.334137
46.821 402.000 369.396759 292.376801 32.603241
46.838 388.000 369.854034 292.357178 18.145966
46.855 386.000 369.684692 292.337311 16.315308
46.872 360.000 368.572479 292.317200 -8.572479
46.889 350.000 366.310059 292.296814 -16.310059
46.906 351.000 362.850494 292.276215 -11.850494
46.923 347.000 358.314667 292.255341 -11.314667
46.940 354.000 352.969360 292.234253 1.030640
46.957 360.000 347.163574 292.212891 12.836426
46.974 353.000 341.264984 292.191284 11.735016
46.991 344.000 335.607239 292.169464 8.392761
47.008 312.000 330.444489 292.147369 -18.444489
47.025 312.000 325.947998 292.125061 -13.947998
47.042 327.000 322.200562 292.102478 4.799438
47.059 328.000 319.218597 292.079681 8.781403
47.076 283.000 316.962036 292.056641 -33.962036
47.093 297.000 315.355377 292.033325 -18.355377
47.110 309.000 314.296661 292.009796 -5.296661
47.127 292.000 313.670715 291.986053 -21.670715
47.144 304.000 313.356964 291.962036 -9.356964
47.161 298.000 313.240356 291.937805 -15.240356
47.178 301.000 313.221039 291.913330 -12.221039
47.195 317.000 313.223297 291.888641 3.776703
47.212 333.000 313.201294 291.863678 19.798706
47.229 284.000 313.139282 291.838531 -29.139282
47.246 319.000 313.045319 291.813110 5.954681
47.263 326.000 312.941223 291.787476 13.058777
47.280 302.000 312.851746 291.761597 -10.851746
47.297 310.000 312.796875 291.735504 -2.796875
47.314 317.000 312.790344 291.709167 4.209656
47.331 289.000 312.843994 291.682648 -23.843994
47.348 356.000 312.975555 291.655853 43.024445
47.365 306.000 313.216492 291.628845 -7.216492
47.382 310.000 313.616150 291.601624 -3.616150
47.399 335.000 314.239349 291.574158 20.760651
47.416 287.000 315.160248 291.546448 -28.160248
47.433 339.000 316.449707 291.518555 22.550293
47.450 301.000 318.164185 291.490448 -17.164185
47.467 306.000 320.333771 291.462097 -14.333771
47.484 320.000 322.950500 291.433533 -2.950500
47.501 315.000 325.964661 291.404724 -10.964661
47.518 288.000 329.277344 291.375732 -41.277344
47.535 325.000 332.748169 291.346527 -7.748169
47.552 350.000 336.200897 291.317078 13.799103
47.569 348.000 339.450134 291.287445 8.549866
47.586 349.000 342.324890 291.257568 6.675110
47.603 358.000 344.708435 291.227509 13.291565
47.620 351.000 346.562683 291.197235 4.437317
47.637 337.000 347.948425 291.166718 -10.948425
47.654 349.000 349.018860 291.135986 -0.018860
47.671 352.000 349.993469 291.105103 2.006531
47.688 324.000 351.118591 291.073975 -27.118591
47.705 350.000 352.618622 291.042633 -2.618622
47.722 351.000 354.655731 291.011108 -3.655731
47.739 354.000 357.295288 290.979370 -3.295288
47.756 360.000 360.493408 290.947418 -0.493408
47.773 358.000 364.091919 290.915283 -6.091919
47.790 363.000 367.840942 290.882935 -4.840942
47.807 383.000 371.431641 290.850372 11.568359
47.824 377.000 374.543701 290.817627 2.456299
47.841 378.000 376.908447 290.784698 1.091553
47.858 397.000 378.356628 290.751556 18.643372
47.875 372.000 378.856964 290.718201 -6.856964
47.892 338.000 378.517120 290.684692 -40.517120
47.909 349.000 377.555359 290.650970 -28.555359
47.926 355.000 376.246704 290.617035 -21.246704
47.943 351.000 374.858246 290.582947 -23.858246
47.960 356.000 373.593475 290.548645 -17.593475
47.977 375.000 372.555939 290.514160 2.444061
47.994 386.000 371.733551 290.479462 14.266449
48.011 367.000 371.008514 290.444611 -4.008514
48.028 359.000 370.181580 290.409546 -11.181580
48.045 358.000 369.012177 290.374329 -11.012177
48.062 392.000 367.262390 290.338928 24.737610
48.079 333.000 364.745941 290.303314 -31.745941
48.096 301.000 361.363770 290.267517 -60.363770
48.113 364.000 357.131714 290.231567 6.868286
48.130 348.000 352.175507 290.195435 -4.175507
48.147 362.000 346.710236 290.159119 15.289764
48.164 349.000 341.006409 290.122650 7.993591
48.181 331.000 335.337952 290.085968 -4.337952
48.198 333.000 329.955261 290.049133 3.044739
48.215 354.000 325.051910 290.012115 28.948090
48.232 317.000 320.765656 289.974945 -3.765656
48.249 299.000 317.173340 289.937561 -18.173340
48.266 320.000 314.310059 289.900055 5.689941
48.283 313.000 312.176575 289.862366 0.823425
48.300 310.000 310.755859 289.824524 -0.755859
48.317 304.000 310.023071 289.786499 -6.023071
48.334 308.000 309.950409 289.748291 -1.950409
48.351 306.000 310.511047 289.709961 -4.511047
48.368 319.000 311.678223 289.671448 7.321777
48.385 330.000 313.420410 289.632751 16.579590
48.402 352.000 315.697388 289.593933 36.302612
48.419 330.000 318.448944 289.554932 11.551056
48.436 352.000 321.590363 289.515778 30.409637
48.453 336.000 325.004578 289.476501 10.995422
48.470 366.000 328.536987 289.437042 37.463013
48.487 345.000 332.005646 289.397400 12.994354
48.504 337.000 335.208740 289.357635 1.791260
48.521 343.000 337.953735 289.317749 5.046265
48.538 339.000 340.081299 289.277679 -1.081299
48.555 366.000 341.499146 289.237457 24.500854
48.572 381.000 342.198944 289.197083 38.801056
48.589 370.000 342.262360 289.156586 27.737640
48.606 357.000 341.843872 289.115936 15.156128
48.623 354.000 341.138977 289.075134 12.861023
48.640 353.000 340.342712 289.034180 12.657288
48.657 338.000 339.612274 288.993103 -1.612274
48.674 347.000 339.037170 288.951904 7.962830
48.691 348.000 338.627258 288.910553 9.372742
48.708 335.000 338.315094 288.869019 -3.315094
48.725 331.000 337.973389 288.827393 -6.973389
48.742 337.000 337.441772 288.785645 -0.441772
48.759 327.000 336.559998 288.743744 -9.559998
48.776 330.000 335.199127 288.701691 -5.199127
48.793 338.000 333.286957 288.659546 4.713043
48.810 336.000 330.823395 288.617249 5.176605
48.827 342.000 327.877136 288.574799 14.122864
48.844 337.000 324.576233 288.532257 12.423767
48.861 335.000 321.079742 288.489563 13.920258
48.878 337.000 317.557648 288.446747 19.442352
48.895 310.000 314.161865 288.403839 -4.161865
48.912 297.000 311.016266 288.360779 -14.016266
48.929 303.000 308.204346 288.317627 -5.204346
48.946 318.000 305.771149 288.274292 12.228851
48.963 292.000 303.729645 288.230896 -11.729645
48.980 298.000 302.063263 288.187378 -4.063263
48.997 284.000 300.736786 288.143707 -16.736786
49.014 269.000 299.699585 288.099915 -30.699585
49.031 294.000 298.893188 288.056061 -4.893188
49.048 311.000 298.253967 288.012054 12.746033
49.065 302.000 297.719574 287.967957 4.280426
49.082 308.000 297.232086 287.923706 10.767914
49.099 303.000 296.744049 287.879395 6.255951
49.116 308.000 296.221313 287.834961 11.778687
49.133 311.000 295.645721 287.790405 15.354279
49.150 282.000 295.015472 287.745758 -13.015472
49.167 290.000 294.341614 287.700989 -4.341614
49.184 278.000 293.644714 287.656128 -15.644714
49.201 302.000 292.948792 287.611176 9.051208
49.218 305.000 292.277771 287.566101 12.722229
49.235 296.000 291.651215 287.520935 4.348785
49.252 278.000 291.083801 287.475647 -13.083801
49.269 256.000 290.584167 287.430298 -34.584167
49.286 292.000 290.156128 287.384857 1.843872
49.303 292.000 289.800079 287.339294 2.199921
49.320 276.000 289.513977 287.293610 -13.513977
49.337 255.000 289.294983 287.247894 -34.294983
49.354 290.000 289.139832 287.202057 0.860168
49.371 308.000 289.046173 287.156128 18.953827
49.388 248.000 289.012543 287.110077 -41.012543
49.405 268.000 289.038940 287.063965 -21.038940
49.422 288.000 289.126740 287.017792 -1.126740
49.439 279.000 289.278748 286.971497 -10.278748
49.456 292.000 289.498993 286.925140 2.501007
49.473 303.000 289.792603 286.878662 13.207397
49.490 284.000 290.164948 286.832123 -6.164948
49.507 263.000 290.621490 286.785522 -27.621490
49.524 307.000 291.165894 286.738831 15.834106
49.541 315.000 291.799683 286.692017 23.200317
49.558 283.000 292.519592 286.645142 -9.519592
49.575 282.000 293.316772 286.598206 -11.316772
49.592 293.000 294.173676 286.551208 -1.173676
49.609 282.000 295.063904 286.504120 -13.063904
49.626 292.000 295.951324 286.456940 -3.951324
49.643 296.000 296.790741 286.409698 -0.790741
49.660 311.000 297.532471 286.362396 13.467529
49.677 303.000 298.126343 286.315002 4.873657
49.694 297.000 298.530243 286.267517 -1.530243
49.711 286.000 298.716431 286.220032 -12.716431
49.728 284.000 298.677979 286.172424 -14.677979
49.745 300.000 298.431183 286.124756 1.568817
49.762 300.000 298.013947 286.077057 1.986053
49.779 297.000 297.479919 286.029236 -0.479919
49.796 304.000 296.891296 285.981384 7.108704
49.813 300.000 296.309448 285.933472 3.690552
49.830 308.000 295.789001 285.885498 12.210999
49.847 320.000 295.372162 285.837433 24.627838
49.864 286.000 295.087616 285.789337 -9.087616
49.881 300.000 294.949524 285.741180 5.050476
49.898 290.000 294.959198 285.692963 -4.959198
49.915 288.000 295.106445 285.644714 -7.106445
49.932 299.000 295.371582 285.596344 3.628418
49.949 317.000 295.727295 285.547974 21.272705
49.966 310.000 296.141174 285.499542 13.858826
49.983 328.000 296.577850 285.451050 31.422150
50.000 298.000 297.002930 285.402466 0.997070
50.017 288.000 297.385223 285.353882 -9.385223
50.034 317.000 297.700073 285.305237 19.299927
50.051 306.000 297.929993 285.256561 8.070007
50.068 314.000 298.065094 285.207794 15.934906
50.085 320.000 298.101837 285.158997 21.898163
50.102 335.000 298.041718 285.110168 36.958282
50.119 336.000 297.890137 285.061310 38.109863
50.136 317.000 297.656555 285.012390 19.343445
50.153 304.000 297.354889 284.963409 6.645111
50.170 308.000 297.004150 284.914398 10.995850
50.187 306.000 296.627350 284.865356 9.372650
50.204 316.000 296.250214 284.816254 19.749786
50.221 296.000 295.897827 284.767120 0.102173
50.238 323.000 295.592346 284.717957 27.407654
50.255 317.000 295.350220 284.668762 21.649780
50.272 274.000 295.181824 284.619507 -21.181824
50.289 309.000 295.092377 284.570221 13.907623
50.306 299.000 295.083130 284.520905 3.916870
50.323 293.000 295.153381 284.471558 -2.153381
50.340 267.000 295.301483 284.422180 -28.301483
50.357 306.000 295.524292 284.372772 10.475708
50.374 294.000 295.816010 284.323303 -1.816010
50.391 340.000 296.165680 284.273834 43.834320
50.408 300.000 296.555359 284.224365 3.444641
50.425 322.000 296.959381 284.174805 25.040619
50.442 300.000 297.345642 284.125275 2.654358
50.459 296.000 297.679535 284.075684 -1.679535
50.476 307.000 297.929382 284.026062 9.070618
50.493 316.000 298.073486 283.976440 17.926514
50.510 298.000 298.105347 283.926788 -0.105347
50.527 289.000 298.037781 283.877075 -9.037781
50.544 271.000 297.903137 283.827393 -26.903137
50.561 287.000 297.749756 283.777649 -10.749756
50.578 279.000 297.636871 283.727905 -18.636871
50.595 279.000 297.627380 283.678162 -18.627380
50.612 281.000 297.781555 283.628357 -16.781555
50.629 281.000 298.152130 283.578552 -17.152130
50.646 287.000 298.781189 283.528748 -11.781189
50.663 303.000 299.697662 283.478912 3.302338
50.680 285.000 300.917877 283.429016 -15.917877
50.697 260.000 302.443909 283.379181 -42.443909
50.714 288.000 304.265686 283.329285 -16.265686
50.731 312.000 306.358948 283.279388 5.641052
50.748 310.000 308.688660 283.229492 1.311340
50.765 306.000 311.209015 283.179565 -5.209015
50.782 308.000 313.862518 283.129639 -5.862518
50.799 301.000 316.584839 283.079712 -15.584839
50.816 314.000 319.300018 283.029755 -5.300018
50.833 314.000 321.924866 282.979797 -7.924866
50.850 328.000 324.363678 282.929840 3.636322
50.867 335.000 326.513977 282.879883 8.486023
50.884 304.000 328.266907 282.829895 -24.266907
50.901 339.000 329.519623 282.779938 9.480377
50.918 319.000 330.185638 282.729919 -11.185638
50.935 313.000 330.208954 282.679932 -17.208954
50.952 320.000 329.576172 282.629944 -9.576172
50.969 316.000 328.322296 282.579956 -12.322296
50.986 311.000 326.528168 282.529968 -15.528168
51.003 311.000 324.313477 282.479980 -13.313477
51.020 289.000 321.819946 282.429993 -32.819946
51.037 284.000 319.199707 282.380005 -35.199707
51.054 305.000 316.596832 282.329987 -11.596832
51.071 263.000 314.140961 282.279999 -51.140961
51.088 292.000 311.935852 282.230011 -19.935852
51.105 287.000 310.057373 282.180054 -23.057373
51.122 305.000 308.553101 282.130066 -3.553101
51.139 304.000 307.440369 282.080078 -3.440369
51.156 295.000 306.711029 282.030121 -11.711029
51.173 334.000 306.333160 281.980164 27.666840
51.190 288.000 306.257019 281.930237 -18.257019
51.207 293.000 306.420258 281.880280 -13.420258
51.224 323.000 306.754517 281.830353 16.245483
51.241 300.000 307.191650 281.780426 -7.191650
51.258 309.000 307.668823 281.730530 1.331177
51.275 299.000 308.130615 281.680634 -9.130615
51.292 321.000 308.530243 281.630737 12.469757
51.309 329.000 308.826172 281.580872 20.173828
51.326 333.000 308.979492 281.531006 24.020508
51.343 311.000 308.950897 281.481171 2.049103
51.360 312.000 308.701111 281.431305 3.298889
51.377 301.000 308.194702 281.381500 -7.194702
51.394 335.000 307.406067 281.331726 27.593933
51.411 279.000 306.326660 281.281921 -27.326660
51.428 292.000 304.971497 281.232178 -12.971497
51.445 282.000 303.378510 281.182404 -21.378510
51.462 257.000 301.607941 281.132690 -44.607941
51.479 274.000 299.732025 281.083008 -25.732025
51.496 290.000 297.828888 281.033325 -7.828888
51.513 295.000 295.970428 280.983643 -0.970428
51.530 293.000 294.218903 280.933990 -1.218903
51.547 308.000 292.619965 280.884369 15.380035
51.564 303.000 291.205170 280.834778 11.794830
51.581 285.000 289.991089 280.785217 -4.991089
51.598 258.000 288.983490 280.735657 -30.983490
51.615 262.000 288.181274 280.686157 -26.181274
51.632 291.000 287.578094 280.636658 3.421906
51.649 300.000 287.166382 280.587189 12.833618
51.666 288.000 286.937897 280.537750 1.062103
51.683 282.000 286.885345 280.488342 -4.885345
51.700 293.000 287.002075 280.438965 5.997925
51.717 284.000 287.281494 280.389618 -3.281494
51.734 286.000 287.716248 280.340302 -1.716248
51.751 283.000 288.296448 280.290985 -5.296448
51.768 292.000 289.007477 280.241730 2.992523
51.785 304.000 289.828857 280.192505 14.171143
51.802 312.000 290.731293 280.143311 21.268707
51.819 313.000 291.676941 280.094147 21.323059
51.836 300.000 292.617798 280.045044 7.382202
51.853 289.000 293.499176 279.995941 -4.499176
51.870 306.000 294.261566 279.946899 11.738434
51.887 311.000 294.847778 279.897888 16.152222
51.904 305.000 295.209045 279.848877 9.790955
51.921 297.000 295.312103 279.799957 1.687897
51.938 301.000 295.144958 279.751038 5.855042
51.955 293.000 294.719635 279.702209 -1.719635
51.972 310.000 294.070557 279.653351 15.929443
51.989 278.000 293.250916 279.604584 -15.250916
52.006 267.000 292.324463 279.555847 -25.324463
52.023 307.000 291.359161 279.507141 15.640839
52.040 312.000 290.418823 279.458466 21.581177
52.057 295.000 289.560211 279.409882 5.439789
52.074 289.000 288.828827 279.361298 0.171173
52.091 274.000 288.259949 279.312775 -14.259949
52.108 274.000 287.879974 279.264313 -13.879974
52.125 282.000 287.707916 279.215851 -5.707916
52.142 288.000 287.758545 279.167480 0.241455
52.159 290.000 288.044067 279.119141 1.955933
52.176 280.000 288.575592 279.070862 -8.575592
52.193 266.000 289.364349 279.022614 -23.364349
52.210 267.000 290.420502 278.974426 -23.420502
52.227 284.000 291.753143 278.926300 -7.753143
52.244 300.000 293.368011 278.878204 6.631989
52.261 270.000 295.262970 278.830170 -25.262970
52.278 316.000 297.426910 278.782166 18.573090
52.295 294.000 299.831879 278.734253 -5.831879
52.312 299.000 302.432159 278.686401 -3.432159
52.329 306.000 305.156250 278.638550 0.843750
52.346 303.000 307.909607 278.590790 -4.909607
52.363 321.000 310.570526 278.543091 10.429474
52.380 321.000 312.999939 278.495422 8.000061
52.397 340.000 315.049713 278.447845 24.950287
52.414 336.000 316.575775 278.400299 19.424225
52.431 341.000 317.459076 278.352814 23.540924
52.448 328.000 317.619751 278.305420 10.380249
52.465 317.000 317.031647 278.258057 -0.031647
52.482 320.000 315.727356 278.210754 4.272644
52.499 315.000 313.793488 278.163513 1.206512
52.516 304.000 311.360596 278.116333 -7.360596
52.533 296.000 308.582062 278.069214 -12.582062
52.550 301.000 305.619171 278.022186 -4.619171
52.567 316.000 302.619781 277.975220 13.380219
52.584 318.000 299.708496 277.928284 18.291504
52.601 296.000 296.982544 277.881439 -0.982544
52.618 281.000 294.506500 277.834656 -13.506500
52.635 303.000 292.320068 277.787964 10.679932
52.652 308.000 290.438995 277.741302 17.561005
52.669 308.000 288.865082 277.694733 19.134918
52.686 284.000 287.588409 277.648254 -3.588409
52.703 295.000 286.594879 277.601807 8.405121
52.720 289.000 285.868134 277.555450 3.131866
52.737 282.000 285.393097 277.509155 -3.393097
52.754 280.000 285.157990 277.462921 -5.157990
52.771 269.000 285.154755 277.416809 -16.154755
52.788 287.000 285.379761 277.370728 1.620239
52.805 293.000 285.834045 277.324707 7.165955
52.822 306.000 286.522339 277.278809 19.477661
52.839 287.000 287.452850 277.232971 -0.452850
52.856 268.000 288.635010 277.187225 -20.635010
52.873 285.000 290.078827 277.141541 -5.078827
52.890 336.000 291.792175 277.095917 44.207825
52.907 300.000 293.776581 277.050415 6.223419
52.924 298.000 296.026337 277.004974 1.973663
52.941 303.000 298.521515 276.959625 4.478485
52.958 306.000 301.228088 276.914307 4.771912
52.975 305.000 304.090729 276.869141 0.909271
52.992 313.000 307.035522 276.824036 5.964478
53.009 310.000 309.965851 276.778992 0.034149
53.026 341.000 312.771088 276.734039 28.228912
53.043 309.000 315.328156 276.689209 -6.328156
53.060 319.000 317.516174 276.644440 1.483826
53.077 355.000 319.226532 276.599792 35.773468
53.094 321.000 320.374969 276.555176 0.625031
53.111 325.000 320.915741 276.510681 4.084259
53.128 303.000 320.847382 276.466278 -17.847382
53.145 313.000 320.216553 276.421967 -7.216553
53.162 337.000 319.114807 276.377747 17.885193
53.179 350.000 317.668762 276.333618 32.331238
53.196 284.000 316.028564 276.289581 -32.028564
53.213 305.000 314.350830 276.245636 -9.350830
53.230 336.000 312.784332 276.201813 23.215668
53.247 332.000 311.458527 276.158051 20.541473
53.264 340.000 310.471649 276.114380 29.528351
53.281 338.000 309.887115 276.070862 28.112885
53.298 348.000 309.728882 276.027405 38.271118
53.315 379.000 309.982452 275.984039 69.017548
53.332 351.000 310.596191 275.940796 40.403809
53.349 346.000 311.484528 275.897644 34.515472
53.366 335.000 312.534454 275.854614 22.465546
53.383 325.000 313.613281 275.811676 11.386719
53.400 333.000 314.578766 275.768829 18.421234
53.417 347.000 315.293945 275.726074 31.706055
53.434 328.000 315.639862 275.683472 12.360138
53.451 320.000 315.529999 275.640961 4.470001
53.468 348.000 314.919647 275.598572 33.080353
53.485 310.000 313.809418 275.556244 -3.809418
53.502 321.000 312.243713 275.514038 8.756287
53.519 328.000 310.299347 275.471985 17.700653
53.536 344.000 308.074890 275.430023 35.925110
53.553 348.000 305.673950 275.388184 42.326050
53.570 309.000 303.193634 275.346436 5.806366
53.587 304.000 300.718079 275.304810 3.281921
53.604 296.000 298.310486 275.263275 -2.310486
53.621 304.000 296.017334 275.221893 7.982666
53.638 305.000 293.866699 275.180603 11.133301
53.655 325.000 291.875885 275.139465 33.124115
53.672 299.000 290.051239 275.098419 8.948761
53.689 284.000 288.394592 275.057526 -4.394592
53.706 305.000 286.902313 275.016724 18.097687
53.723 266.000 285.568268 274.976044 -19.568268
53.740 249.000 284.385345 274.935486 -35.385345
53.757 261.000 283.344391 274.895081 -22.344391
53.774 261.000 282.436920 274.854767 -21.436920
53.791 255.000 281.654083 274.814575 -26.654083
53.808 261.000 280.988739 274.774536 -19.988739
53.825 267.000 280.434509 274.734619 -13.434509
53.842 275.000 279.987122 274.694824 -4.987122
53.859 270.000 279.643860 274.655182 -9.643860
53.876 275.000 279.403748 274.615631 -4.403748
53.893 282.000 279.267853 274.576233 2.732147
53.910 270.000 279.238831 274.536987 -9.238831
53.927 283.000 279.321198 274.497864 3.678802
53.944 300.000 279.521484 274.458862 20.478516
53.961 285.000 279.848083 274.420013 5.151917
53.978 292.000 280.311890 274.381287 11.688110
53.995 286.000 280.925659 274.342712 5.074341
54.012 285.000 281.704956 274.304260 3.295044
54.029 271.000 282.667725 274.265930 -11.667725
54.046 304.000 283.833527 274.227783 20.166473
54.063 302.000 285.224396 274.189758 16.775604
54.080 294.000 286.862366 274.151886 7.137634
54.097 278.000 288.770752 274.114136 -10.770752
54.114 292.000 290.969818 274.076569 1.030182
54.131 288.000 293.478271 274.039124 -5.478271
54.148 293.000 296.306915 274.001831 -3.306915
54.165 299.000 299.460175 273.964661 -0.460175
54.182 278.000 302.927582 273.927673 -24.927582
54.199 290.000 306.684540 273.890839 -16.684540
54.216 307.000 310.686554 273.854126 -3.686554
54.233 308.000 314.862488 273.817596 -6.862488
54.250 348.000 319.118317 273.781189 28.881683
54.267 330.000 323.329102 273.744965 6.670898
54.284 323.000 327.348755 273.708862 -4.348755
54.301 315.000 331.008911 273.672943 -16.008911
54.318 326.000 334.135925 273.637177 -8.135925
54.335 381.000 336.558594 273.601562 44.441406
54.352 368.000 338.129211 273.566101 29.870789
54.369 347.000 338.737183 273.530823 8.262817
54.386 342.000 338.323212 273.495697 3.676788
54.403 361.000 336.888855 273.460724 24.111145
54.420 327.000 334.499298 273.425934 -7.499298
54.437 331.000 331.275177 273.391296 -0.275177
54.454 313.000 327.384216 273.356812 -14.384216
54.471 303.000 323.018188 273.322510 -20.018188
54.488 308.000 318.380096 273.288391 -10.380096
54.505 306.000 313.659790 273.254395 -7.659790
54.522 306.000 309.022736 273.220612 -3.022736
54.539 296.000 304.604218 273.186981 -8.604218
54.556 299.000 300.498993 273.153534 -1.498993
54.573 293.000 296.770355 273.120239 -3.770355
54.590 299.000 293.447357 273.087158 5.552643
54.607 305.000 290.537476 273.054199 14.462524
54.624 296.000 288.027527 273.021423 7.972473
54.641 298.000 285.894775 272.988861 12.105225
54.658 272.000 284.107727 272.956482 -12.107727
54.675 271.000 282.633667 272.924255 -11.633667
54.692 279.000 281.438751 272.892212 -2.438751
54.709 267.000 280.491089 272.860352 -13.491089
54.726 282.000 279.761902 272.828674 2.238098
54.743 297.000 279.224640 272.797180 17.775360
54.760 290.000 278.855988 272.765869 11.144012
54.777 305.000 278.634399 272.734711 26.365601
54.794 304.000 278.540161 272.703796 25.459839
54.811 289.000 278.553986 272.673035 10.446014
54.828 287.000 278.656860 272.642487 8.343140
54.845 278.000 278.829163 272.612122 -0.829163
54.862 260.000 279.050720 272.581909 -19.050720
54.879 254.000 279.300934 272.551941 -25.300934
54.896 271.000 279.559753 272.522125 -8.559753
54.913 263.000 279.808777 272.492523 -16.808777
54.930 276.000 280.033112 272.463104 -4.033112
54.947 256.000 280.222992 272.433899 -24.222992
54.964 286.000 280.375488 272.404877 5.624512
54.981 275.000 280.495361 272.376068 -5.495361
54.998 268.000 280.595337 272.347443 -12.595337
55.015 305.000 280.695221 272.319031 24.304779
55.032 299.000 280.820404 272.290802 18.179596
55.049 289.000 281.000061 272.262787 7.999939
55.066 269.000 281.264557 272.234985 -12.264557
55.083 267.000 281.643860 272.207336 -14.643860
55.100 300.000 282.165436 272.179932 17.834564
55.117 267.000 282.853333 272.152740 -15.853333
55.134 302.000 283.726013 272.125732 18.273987
55.151 280.000 284.796661 272.098938 -4.796661
55.168 289.000 286.070160 272.072357 2.929840
55.185 269.000 287.543243 272.045990 -18.543243
55.202 284.000 289.202332 272.019836 -5.202332
55.219 277.000 291.020691 271.993896 -14.020691
55.236 308.000 292.959778 271.968140 15.040222
55.253 282.000 294.965851 271.942627 -12.965851
55.270 302.000 296.974182 271.917328 5.025818
55.287 295.000 298.908813 271.892212 -3.908813
55.304 302.000 300.691162 271.867340 1.308838
55.321 315.000 302.243652 271.842682 12.756348
55.338 288.000 303.501465 271.818237 -15.501465
55.355 309.000 304.419189 271.794006 4.580811
55.372 317.000 304.977814 271.769989 12.022186
55.389 318.000 305.189636 271.746216 12.810364
55.406 300.000 305.096802 271.722626 -5.096802
55.423 285.000 304.767426 271.699280 -19.767426
55.440 285.000 304.287048 271.676178 -19.287048
55.457 280.000 303.748138 271.653259 -23.748138
55.474 265.000 303.240723 271.630615 -38.240723
55.491 275.000 302.842773 271.608154 -27.842773
55.508 306.000 302.614929 271.585938 3.385071
55.525 297.000 302.597961 271.563934 -5.597961
55.542 266.000 302.812775 271.542175 -36.812775
55.559 296.000 303.263153 271.520630 -7.263153
55.576 304.000 303.940247 271.499329 0.059753
55.593 279.000 304.825500 271.478241 -25.825500
55.610 288.000 305.895569 271.457397 -17.895569
55.627 309.000 307.121674 271.436768 1.878326
55.644 312.000 308.471313 271.416382 3.528687
55.661 309.000 309.903442 271.396240 -0.903442
55.678 313.000 311.367401 271.376343 1.632599
55.695 305.000 312.798828 271.356628 -7.798828
55.712 310.000 314.117950 271.337189 -4.117950
55.729 330.000 315.233551 271.317993 14.766449
55.746 300.000 316.046448 271.299011 -16.046448
55.763 284.000 316.460815 271.280273 -32.460815
55.780 294.000 316.394073 271.261780 -22.394073
55.797 295.000 315.789185 271.243530 -20.789185
55.814 299.000 314.623871 271.225494 -15.623871
55.831 337.000 312.914948 271.207703 24.085052
55.848 308.000 310.717133 271.190186 -2.717133
55.865 294.000 308.118774 271.172882 -14.118774
55.882 317.000 305.227936 271.155823 11.772064
55.899 304.000 302.164429 271.139008 1.835571
55.916 329.000 299.042877 271.122437 29.957123
55.933 309.000 295.968231 271.106110 13.031769
55.950 277.000 293.023865 271.090027 -16.023865
55.967 298.000 290.274048 271.074188 7.725952
55.984 295.000 287.759338 271.058594 7.240662
56.001 300.000 285.500916 271.043243 14.499084
56.018 291.000 283.505524 271.028137 7.494476
56.035 280.000 281.765808 271.013306 -1.765808
56.052 268.000 280.267731 270.998688 -12.267731
56.069 295.000 278.990814 270.984314 16.009186
56.086 260.000 277.913483 270.970215 -17.913483
56.103 272.000 277.012665 270.956360 -5.012665
56.120 284.000 276.267303 270.942749 7.732697
56.137 290.000 275.657654 270.929382 14.342346
56.154 279.000 275.167114 270.916260 3.832886
56.171 292.000 274.781464 270.903412 17.218536
56.188 242.000 274.489258 270.890808 -32.489258
56.205 268.000 274.281738 270.878418 -6.281738
56.222 280.000 274.152283 270.866333 5.847717
56.239 295.000 274.095947 270.854462 20.904053
56.256 293.000 274.109283 270.842865 18.890717
56.273 284.000 274.189392 270.831482 9.810608
56.290 252.000 274.333954 270.820404 -22.333954
56.307 267.000 274.540070 270.809540 -7.540070
56.324 262.000 274.804382 270.798950 -12.804382
56.341 291.000 275.122070 270.788605 15.877930
56.358 266.000 275.486389 270.778503 -9.486389
56.375 288.000 275.888702 270.768677 12.111298
56.392 287.000 276.317657 270.759094 10.682343
56.409 278.000 276.760040 270.749756 1.239960
56.426 265.000 277.200531 270.740692 -12.200531
56.443 276.000 277.623199 270.731873 -1.623199
56.460 266.000 278.012299 270.723297 -12.012299
56.477 264.000 278.354340 270.714996 -14.354340
56.494 270.000 278.639404 270.706909 -8.639404
56.511 289.000 278.862640 270.699127 10.137360
56.528 284.000 279.025299 270.691559 4.974701
56.545 281.000 279.134583 270.684265 1.865417
56.562 293.000 279.203247 270.677246 13.796753
56.579 287.000 279.247528 270.670441 7.752472
56.596 260.000 279.285614 270.663910 -19.285614
56.613 263.000 279.334686 270.657623 -16.334686
56.630 267.000 279.409241 270.651611 -12.409241
56.647 266.000 279.518860 270.645844 -13.518860
56.664 277.000 279.667389 270.640320 -2.667389
56.681 280.000 279.852600 270.635071 0.147400
56.698 298.000 280.066315 270.630066 17.933685
56.715 294.000 280.296234 270.625305 13.703766
56.732 273.000 280.527222 270.620789 -7.527222
56.749 285.000 280.744232 270.616547 4.255768
56.766 282.000 280.934265 270.612549 1.065735
56.783 282.000 281.089264 270.608795 0.910736
56.800 275.000 281.207550 270.605286 -6.207550
56.817 270.000 281.295166 270.602051 -11.295166
56.834 282.000 281.365509 270.599060 0.634491
56.851 281.000 281.438507 270.596344 -0.438507
56.868 296.000 281.538544 270.593842 14.461456
56.885 297.000 281.692017 270.591614 15.307983
56.902 284.000 281.924713 270.589630 2.075287
56.919 272.000 282.259003 270.587891 -10.259003
56.936 285.000 282.711945 270.586395 2.288055
56.953 284.000 283.292786 270.585144 0.707214
56.970 321.000 284.002228 270.584167 36.997772
56.987 312.000 284.831268 270.583435 27.168732
57.004 281.000 285.759888 270.582916 -4.759888
57.021 280.000 286.758820 270.582672 -6.758820
57.038 284.000 287.788574 270.582672 -3.788574
57.055 294.000 288.802979 270.582916 5.197021
57.072 284.000 289.750275 270.583405 -5.750275
57.089 315.000 290.578644 270.584106 24.421356
57.106 307.000 291.239136 270.585083 15.760864
57.123 309.000 291.691650 270.586304 17.308350
57.140 276.000 291.907990 270.587769 -15.907990
57.157 276.000 291.875549 270.589478 -15.875549
57.174 271.000 291.597565 270.591400 -20.597565
57.191 251.000 291.092712 270.593567 -40.092712
57.208 288.000 290.391296 270.596008 -2.391296
57.225 274.000 289.531891 270.598633 -15.531891
57.242 296.000 288.555573 270.601532 7.444427
57.259 266.000 287.503143 270.604675 -21.503143
57.276 315.000 286.410278 270.608032 28.589722
57.293 275.000 285.307983 270.611633 -10.307983
57.310 270.000 284.220367 270.615448 -14.220367
57.327 291.000 283.166229 270.619507 7.833771
57.344 273.000 282.161041 270.623810 -9.161041
57.361 262.000 281.216553 270.628326 -19.216553
57.378 260.000 280.343781 270.633087 -20.343781
57.395 273.000 279.551819 270.638062 -6.551819
57.412 263.000 278.849792 270.643280 -15.849792
57.429 255.000 278.245392 270.648712 -23.245392
57.446 300.000 277.745819 270.654358 22.254181
57.463 291.000 277.356873 270.660248 13.643127
57.480 294.000 277.083038 270.666351 16.916962
57.497 297.000 276.927856 270.672668 20.072144
57.514 312.000 276.893402 270.679230 35.106598
57.531 285.000 276.980774 270.685974 8.019226
57.548 270.000 277.190002 270.692963 -7.190002
57.565 291.000 277.519836 270.700165 13.480164
57.582 286.000 277.967834 270.707581 8.032166
57.599 289.000 278.529388 270.715210 10.470612
57.616 307.000 279.198090 270.723022 27.801910
57.633 305.000 279.964142 270.731079 25.035858
57.650 301.000 280.814606 270.739319 20.185394
57.667 289.000 281.732910 270.747803 7.267090
57.684 291.000 282.697693 270.756470 8.302307
57.701 275.000 283.684692 270.765350 -8.684692
57.718 271.000 284.665527 270.774414 -13.665527
57.735 287.000 285.610626 270.783691 1.389374
57.752 295.000 286.489014 270.793182 8.510986
57.769 274.000 287.271362 270.802856 -13.271362
57.786 289.000 287.930237 270.812714 1.069763
57.803 306.000 288.442627 270.822784 17.557373
57.820 300.000 288.790039 270.833038 11.209961
57.837 287.000 288.959229 270.843506 -1.959229
57.854 289.000 288.942596 270.854126 0.057404
57.871 289.000 288.738342 270.864960 0.261658
57.888 293.000 288.350311 270.875977 4.649689
57.905 300.000 287.788666 270.887177 12.211334
57.922 283.000 287.069031 270.898560 -4.069031
57.939 318.000 286.213409 270.910126 31.786591
57.956 286.000 285.248138 270.921844 0.751862
57.973 281.000 284.203125 270.933777 -3.203125
57.990 289.000 283.110535 270.945862 5.889465
58.007 300.000 282.001526 270.958130 17.998474
58.024 281.000 280.905762 270.970551 0.094238
58.041 292.000 279.848236 270.983154 12.151764
58.058 262.000 278.849884 270.995941 -16.849884
58.075 264.000 277.925262 271.008850 -13.925262
58.092 283.000 277.084686 271.021973 5.915314
58.109 283.000 276.332703 271.035217 6.667297
58.126 282.000 275.670776 271.048645 6.329224
58.143 274.000 275.096649 271.062195 -1.096649
58.160 295.000 274.606201 271.075928 20.393799
58.177 265.000 274.194183 271.089813 -9.194183
58.194 265.000 273.854370 271.103821 -8.854370
58.211 273.000 273.580841 271.118011 -0.580841
58.228 240.000 273.367645 271.132324 -33.367645
58.245 284.000 273.209686 271.146790 10.790314
58.262 268.000 273.102448 271.161377 -5.102448
58.279 263.000 273.042480 271.176117 -10.042480
58.296 264.000 273.027008 271.190979 -9.027008
58.313 261.000 273.054382 271.205994 -12.054382
58.330 277.000 273.123749 271.221130 3.876251
58.347 244.000 273.235229 271.236420 -29.235229
58.364 253.000 273.389618 271.251801 -20.389618
58.381 273.000 273.588776 271.267334 -0.588776
58.398 305.000 273.834991 271.282959 31.165009
58.415 264.000 274.131653 271.298706 -10.131653
58.432 273.000 274.482483 271.314575 -1.482483
58.449 283.000 274.892029 271.330566 8.107971
58.466 265.000 275.365509 271.346649 -10.365509
58.483 285.000 275.908417 271.362854 9.091583
58.500 274.000 276.527130 271.379181 -2.527130
58.517 280.000 277.227936 271.395569 2.772064
58.534 302.000 278.018127 271.412079 23.981873
58.551 278.000 278.904419 271.428711 -0.904419
58.568 295.000 279.894165 271.445404 15.105835
58.585 306.000 280.993530 271.462189 25.006470
58.602 299.000 282.208649 271.479065 16.791351
58.619 302.000 283.543213 271.496033 18.456787
58.636 314.000 284.999634 271.513092 29.000366
58.653 297.000 286.577850 271.530243 10.422150
58.670 286.000 288.273773 271.547455 -2.273773
58.687 287.000 290.081726 271.564728 -3.081726
58.704 284.000 291.991821 271.582092 -7.991821
58.721 293.000 293.993774 271.599548 -0.993774
58.738 293.000 296.074432 271.617004 -3.074432
58.755 310.000 298.222809 271.634583 11.777191
58.772 315.000 300.426697 271.652191 14.573303
58.789 311.000 302.676819 271.669861 8.323181
58.806 314.000 304.964539 271.687622 9.035461
58.823 288.000 307.278595 271.705383 -19.278595
58.840 288.000 309.606506 271.723206 -21.606506
58.857 303.000 311.927216 271.741089 -8.927216
58.874 317.000 314.212250 271.759033 2.787750
58.891 327.000 316.419800 271.776978 10.580200
58.908 348.000 318.498444 271.794983 29.501556
58.925 318.000 320.384888 271.812988 -2.384888
58.942 322.000 322.011475 271.831055 -0.011475
58.959 303.000 323.309845 271.849152 -20.309845
58.976 319.000 324.217316 271.867249 -5.217316
58.993 318.000 324.685547 271.885376 -6.685547
59.010 340.000 324.684448 271.903534 15.315552
59.027 299.000 324.207001 271.921692 -25.207001
59.044 337.000 323.270782 271.939880 13.729218
59.061 319.000 321.916077 271.958069 -2.916077
59.078 300.000 320.204590 271.976227 -20.204590
59.095 289.000 318.212555 271.994446 -29.212555
59.112 300.000 316.027985 272.012604 -16.027985
59.129 352.000 313.741913 272.030792 38.258087
59.146 297.000 311.443665 272.048950 -14.443665
59.163 308.000 309.217346 272.067139 -1.217346
59.180 301.000 307.133423 272.085266 -6.133423
59.197 309.000 305.249634 272.103394 3.750366
59.214 304.000 303.604584 272.121521 0.395416
59.231 279.000 302.220276 272.139587 -23.220276
59.248 313.000 301.099335 272.157654 11.900665
59.265 295.000 300.228607 272.175690 -5.228607
59.282 289.000 299.579773 272.193665 -10.579773
59.299 322.000 299.113434 272.211609 22.886566
59.316 337.000 298.783112 272.229523 38.216888
59.333 297.000 298.539001 272.247375 -1.539001
59.350 292.000 298.333435 272.265198 -6.333435
59.367 304.000 298.124542 272.282959 5.875458
59.384 285.000 297.880554 272.300690 -12.880554
59.401 287.000 297.581757 272.318329 -10.581757
59.418 294.000 297.222290 272.335938 -3.222290
59.435 304.000 296.808624 272.353455 7.191376
59.452 299.000 296.357880 272.370911 2.642120
59.469 302.000 295.894562 272.388275 6.105438
59.486 289.000 295.445892 272.405609 -6.445892
59.503 289.000 295.038483 272.422821 -6.038483
59.520 292.000 294.694061 272.439972 -2.694061
59.537 305.000 294.427643 272.457031 10.572357
59.554 300.000 294.245605 272.474030 5.754395
59.571 286.000 294.145935 272.490906 -8.145935
59.588 286.000 294.118927 272.507690 -8.118927
59.605 285.000 294.149109 272.524353 -9.149109
59.622 280.000 294.217285 272.540955 -14.217285
59.639 289.000 294.302673 272.557434 -5.302673
59.656 305.000 294.384705 272.573792 10.615295
59.673 308.000 294.444519 272.590027 13.555481
59.690 303.000 294.465363 272.606171 8.534637
59.707 312.000 294.432800 272.622192 17.567200
59.724 299.000 294.334442 272.638092 4.665558
59.741 291.000 294.159668 272.653870 -3.159668
59.758 305.000 293.899506 272.669495 11.100494
59.775 322.000 293.546936 272.684998 28.453064
59.792 328.000 293.097382 272.700378 34.902618
59.809 302.000 292.550110 272.715607 9.449890
59.826 330.000 291.908264 272.730682 38.091736
59.843 297.000 291.180420 272.745605 5.819580
59.860 285.000 290.379547 272.760406 -5.379547
59.877 278.000 289.523590 272.775024 -11.523590
59.894 282.000 288.633179 272.789490 -6.633179
59.911 293.000 287.731537 272.803802 5.268463
59.928 281.000 286.841675 272.817963 -5.841675
59.945 294.000 285.985565 272.831940 8.014435
59.962 289.000 285.183807 272.845734 3.816193
59.979 280.000 284.453613 272.859375 -4.453613
59.996 282.000 283.809998 272.872833 -1.809998
60.013 260.000 283.264771 272.886108 -23.264771
60.030 284.000 282.827911 272.899200 1.172089
60.047 275.000 282.507324 272.912109 -7.507324
60.064 284.000 282.310089 272.924805 1.689911
60.081 303.000 282.242615 272.937347 20.757385
60.098 315.000 282.311218 272.949677 32.688782
60.115 315.000 282.522736 272.961792 32.477264
60.132 283.000 282.884552 272.973694 0.115448
60.149 258.000 283.404358 272.985413 -25.404358
60.166 273.000 284.090454 272.996918 -11.090454
60.183 307.000 284.950256 273.008179 22.049744
60.200 298.000 285.990784 273.019257 12.009216
60.217 291.000 287.215881 273.030121 3.784119
60.234 289.000 288.626770 273.040741 0.373230
60.251 301.000 290.218506 273.051147 10.781494
60.268 267.000 291.980194 273.061310 -24.980194
60.285 311.000 293.892853 273.071228 17.107147
60.302 302.000 295.926575 273.080933 6.073425
60.319 328.000 298.042480 273.090393 29.957520
60.336 301.000 300.189178 273.099640 0.810822
60.353 305.000 302.307129 273.108612 2.692871
60.370 296.000 304.327057 273.117340 -8.327057
60.387 315.000 306.176941 273.125824 8.823059
60.404 329.000 307.783203 273.134033 21.216797
60.421 317.000 309.079529 273.142029 7.920471
60.438 312.000 310.010925 273.149719 1.989075
60.455 299.000 310.539581 273.157166 -11.539581
60.472 306.000 310.650177 273.164368 -4.650177
60.489 291.000 310.351562 273.171265 -19.351562
60.506 288.000 309.677155 273.177917 -21.677155
60.523 291.000 308.682861 273.184265 -17.682861
60.540 310.000 307.441681 273.190369 2.558319
60.557 315.000 306.039246 273.196167 8.960754
60.574 300.000 304.565582 273.201721 -4.565582
60.591 287.000 303.111206 273.206970 -16.111206
60.608 289.000 301.760010 273.211914 -12.760010
60.625 310.000 300.586426 273.216614 9.413574
60.642 300.000 299.653900 273.220978 0.346100
60.659 291.000 299.012146 273.225067 -8.012146
60.676 289.000 298.698669 273.228851 -9.698669
60.693 284.000 298.737946 273.232330 -14.737946
60.710 273.000 299.142761 273.235504 -26.142761
60.727 275.000 299.914734 273.238403 -24.914734
60.744 303.000 301.043823 273.240967 1.956177
60.761 316.000 302.509552 273.243225 13.490448
60.778 291.000 304.280304 273.245178 -13.280304
60.795 283.000 306.311829 273.246796 -23.311829
60.812 311.000 308.550110 273.248138 2.449890
60.829 328.000 310.928040 273.249146 17.071960
60.846 307.000 313.371155 273.249817 -6.371155
60.863 299.000 315.795654 273.250153 -16.795654
60.880 333.000 318.116455 273.250183 14.883545
60.897 340.000 320.247437 273.249878 19.752563
60.914 308.000 322.110870 273.249268 -14.110870
60.931 327.000 323.640869 273.248291 3.359131
60.948 326.000 324.788177 273.247009 1.211823
60.965 331.000 325.525635 273.245392 5.474365
60.982 328.000 325.848206 273.243408 2.151794
60.999 312.000 325.773956 273.241119 -13.773956
61.016 309.000 325.340088 273.238464 -16.340088
61.033 340.000 324.598267 273.235474 15.401733
61.050 306.000 323.608856 273.232147 -17.608856
61.067 340.000 322.433167 273.228455 17.566833
61.084 301.000 321.129333 273.224426 -20.129333
61.101 307.000 319.745911 273.220062 -12.745911
61.118 313.000 318.320374 273.215332 -5.320374
61.135 302.000 316.879822 273.210266 -14.879822
61.152 292.000 315.440125 273.204803 -23.440125
61.169 316.000 314.011536 273.199036 1.988464
61.186 307.000 312.599304 273.192871 -5.599304
61.203 289.000 311.209778 273.186371 -22.209778
61.220 320.000 309.850281 273.179504 10.149719
61.237 328.000 308.532990 273.172272 19.467010
61.254 262.000 307.273285 273.164673 -45.273285
61.271 323.000 306.089966 273.156738 16.910034
61.288 309.000 305.004456 273.148407 3.995544
61.305 321.000 304.037567 273.139709 16.962433
61.322 291.000 303.209503 273.130676 -12.209503
61.339 280.000 302.536713 273.121246 -22.536713
61.356 291.000 302.032471 273.111450 -11.032471
61.373 302.000 301.705017 273.101318 0.294983
61.390 289.000 301.558594 273.090790 -12.558594
61.407 303.000 301.593109 273.079895 1.406891
61.424 309.000 301.805634 273.068604 7.194366
61.441 292.000 302.191467 273.056976 -10.191467
61.458 296.000 302.745819 273.044952 -6.745819
61.475 313.000 303.464966 273.032562 9.535034
61.492 320.000 304.348633 273.019806 15.651367
61.509 303.000 305.399414 273.006653 -2.399414
61.526 308.000 306.624542 272.993164 1.375458
61.543 307.000 308.033264 272.979279 -1.033264
61.560 308.000 309.636902 272.964996 -1.636902
61.577 297.000 311.443939 272.950378 -14.443939
61.594 298.000 313.458679 272.935364 -15.458679
61.611 299.000 315.676880 272.919952 -16.676880
61.628 305.000 318.080719 272.904205 -13.080719
61.645 315.000 320.639465 272.888062 -5.639465
61.662 317.000 323.303528 272.871521 -6.303528
61.679 329.000 326.009247 272.854614 2.990753
61.696 362.000 328.675201 272.837341 33.324799
61.713 380.000 331.210571 272.819702 48.789429
61.730 349.000 333.515076 272.801697 15.484924
61.747 333.000 335.489380 272.783295 -2.489380
61.764 318.000 337.039673 272.764496 -19.039673
61.781 325.000 338.084381 272.745361 -13.084381
61.798 359.000 338.562134 272.725830 20.437866
61.815 362.000 338.435394 272.705933 23.564606
61.832 326.000 337.694366 272.685669 -11.694366
61.849 348.000 336.357819 272.665009 11.642181
61.866 340.000 334.470306 272.644012 5.529694
61.883 348.000 332.100281 272.622620 15.899719
61.900 355.000 329.331726 272.600861 25.668274
61.917 331.000 326.258240 272.578735 4.741760
61.934 301.000 322.978394 272.556244 -21.978394
61.951 334.000 319.584015 272.533386 14.415985
61.968 324.000 316.160980 272.510162 7.839020
61.985 324.000 312.779572 272.486572 11.220428
62.002 317.000 309.498627 272.462616 7.501373
62.019 300.000 306.359650 272.438293 -6.359650
62.036 306.000 303.393707 272.413605 2.606293
62.053 311.000 300.618195 272.388550 10.381805
62.070 286.000 298.044617 272.363159 -12.044617
62.087 290.000 295.676727 272.337433 -5.676727
62.104 318.000 293.514618 272.311310 24.485382
62.121 273.000 291.557953 272.284851 -18.557953
62.138 296.000 289.803680 272.258026 6.196320
62.155 285.000 288.250122 272.230865 -3.250122
62.172 305.000 286.894135 272.203369 18.105865
62.189 307.000 285.733643 272.175476 21.266357
62.206 312.000 284.765503 272.147278 27.234497
62.223 304.000 283.986786 272.118713 20.013214
62.240 298.000 283.393433 272.089844 14.606567
62.257 308.000 282.980560 272.060608 25.019440
62.274 302.000 282.742737 272.031067 19.257263
62.291 263.000 282.672913 272.001160 -19.672913
62.308 252.000 282.762909 271.970917 -30.762909
62.325 266.000 283.002991 271.940369 -17.002991
62.342 307.000 283.381348 271.909485 23.618652
62.359 320.000 283.884369 271.878265 36.115631
62.376 285.000 284.495758 271.846710 0.504242
62.393 278.000 285.197296 271.814880 -7.197296
62.410 263.000 285.968445 271.782715 -22.968445
62.427 284.000 286.786438 271.750214 -2.786438
62.444 302.000 287.628052 271.717407 14.371948
62.461 301.000 288.469147 271.684326 12.530853
62.478 302.000 289.287415 271.650909 12.712585
62.495 309.000 290.062134 271.617188 18.937866
62.512 293.000 290.776978 271.583160 2.223022
62.529 297.000 291.419739 271.548859 5.580261
62.546 307.000 291.984253 271.514282 15.015747
62.563 311.000 292.469421 271.479370 18.530579
62.580 286.000 292.879974 271.444214 -6.879974
62.597 307.000 293.225006 271.408722 13.774994
62.614 304.000 293.516785 271.372986 10.483215
62.631 271.000 293.769775 271.336975 -22.769775
62.648 284.000 293.998871 271.300659 -9.998871
62.665 279.000 294.218933 271.264099 -15.218933
62.682 292.000 294.443512 271.227264 -2.443512
62.699 308.000 294.685394 271.190186 13.314606
62.716 299.000 294.956146 271.152832 4.043854
62.733 291.000 295.267456 271.115234 -4.267456
62.750 321.000 295.631531 271.077362 25.368469
62.767 322.000 296.061584 271.039246 25.938416
62.784 312.000 296.572754 271.000916 15.427246
62.801 326.000 297.181152 270.962341 28.818848
62.818 298.000 297.904236 270.923492 0.095764
62.835 274.000 298.758423 270.884430 -24.758423
62.852 296.000 299.759064 270.845154 -3.759064
62.869 305.000 300.917023 270.805664 4.082977
62.886 299.000 302.238617 270.765930 -3.238617
62.903 306.000 303.724091 270.725983 2.275909
62.920 298.000 305.365692 270.685852 -7.365692
62.937 316.000 307.149963 270.645508 8.850037
62.954 302.000 309.055786 270.604950 -7.055786
62.971 304.000 311.058899 270.564178 -7.058899
62.988 318.000 313.130676 270.523254 4.869324
63.005 313.000 315.243378 270.482117 -2.243378
63.022 298.000 317.369080 270.440826 -19.369080
63.039 315.000 319.484497 270.399323 -4.484497
63.056 327.000 321.568176 270.357666 5.431824
63.073 325.000 323.603363 270.315857 1.396637
63.090 342.000 325.575073 270.273865 16.424927
63.107 345.000 327.466461 270.231720 17.533539
63.124 296.000 329.259033 270.189392 -33.259033
63.141 331.000 330.926727 270.146973 0.073273
63.158 321.000 332.436676 270.104370 -11.436676
63.175 319.000 333.745819 270.061646 -14.745819
63.192 312.000 334.804443 270.018768 -22.804443
63.209 321.000 335.556763 269.975769 -14.556763
63.226 318.000 335.947205 269.932678 -17.947205
63.243 317.000 335.924988 269.889465 -18.924988
63.260 329.000 335.450684 269.846130 -6.450684
63.277 328.000 334.501617 269.802673 -6.501617
63.294 331.000 333.077118 269.759125 -2.077118
63.311 323.000 331.198914 269.715485 -8.198914
63.328 299.000 328.913574 269.671753 -29.913574
63.345 306.000 326.286591 269.627930 -20.286591
63.362 324.000 323.401703 269.584015 0.598297
63.379 311.000 320.351013 269.540070 -9.351013
63.396 297.000 317.229797 269.496033 -20.229797
63.413 300.000 314.132416 269.451935 -14.132416
63.430 295.000 311.142151 269.407776 -16.142151
63.447 309.000 308.332214 269.363556 0.667786
63.464 303.000 305.757904 269.319336 -2.757904
63.481 301.000 303.459930 269.275055 -2.459930
63.498 306.000 301.460022 269.230713 4.539978
63.515 298.000 299.765717 269.186340 -1.765717
63.532 284.000 298.368286 269.141998 -14.368286
63.549 296.000 297.247467 269.097626 -1.247467
63.566 312.000 296.371674 269.053223 15.628326
63.583 293.000 295.701569 269.008820 -2.701569
63.600 298.000 295.192719 268.964417 2.807281
63.617 302.000 294.797516 268.920044 7.202484
63.634 295.000 294.468811 268.875671 0.531189
63.651 292.000 294.162231 268.831299 -2.162231
63.668 286.000 293.839264 268.786987 -7.839264
63.685 292.000 293.468842 268.742706 -1.468842
63.702 297.000 293.029938 268.698456 3.970062
63.719 299.000 292.511841 268.654236 6.488159
63.736 314.000 291.914673 268.610077 22.085327
63.753 293.000 291.248901 268.565979 1.751099
63.770 282.000 290.533234 268.521942 -8.533234
63.787 293.000 289.793610 268.477997 3.206390
63.804 290.000 289.059814 268.434082 0.940186
63.821 294.000 288.364410 268.390289 5.635590
63.838 302.000 287.739197 268.346558 14.260803
63.855 296.000 287.214844 268.302948 8.785156
63.872 294.000 286.818207 268.259399 7.181793
63.889 308.000 286.572235 268.215973 21.427765
63.906 292.000 286.495361 268.172668 5.504639
63.923 294.000 286.601013 268.129517 7.398987
63.940 267.000 286.897827 268.086426 -19.897827
63.957 295.000 287.390442 268.043518 7.609558
63.974 275.000 288.079010 268.000732 -13.079010
63.991 284.000 288.960907 267.958069 -4.960907
64.008 310.000 290.030090 267.915588 19.969910
64.025 284.000 291.278900 267.873230 -7.278900
64.042 297.000 292.698090 267.831055 4.301910
64.059 301.000 294.277283 267.789062 6.722717
64.076 305.000 296.006256 267.747223 8.993744
64.093 319.000 297.871704 267.705566 21.128296
64.110 275.000 299.861664 267.664124 -24.861664
64.127 298.000 301.961884 267.622864 -3.961884
64.144 325.000 304.156433 267.581757 20.843567
64.161 312.000 306.422974 267.540894 5.577026
64.178 285.000 308.737122 267.500244 -23.737122
64.195 319.000 311.067963 267.459839 7.932037
64.212 310.000 313.378357 267.419617 -3.378357
64.229 318.000 315.626160 267.379639 2.373840
64.246 312.000 317.761139 267.339905 -5.761139
64.263 318.000 319.732544 267.300415 -1.732544
64.280 319.000 321.487457 267.261169 -2.487457
64.297 318.000 322.975037 267.222168 -4.975037
64.314 324.000 324.146851 267.183441 -0.146851
64.331 342.000 324.963989 267.144958 17.036011
64.348 340.000 325.396576 267.106781 14.603424
64.365 318.000 325.426788 267.068878 -7.426788
64.382 343.000 325.049988 267.031219 17.950012
64.399 343.000 324.276306 266.993896 18.723694
64.416 341.000 323.129517 266.956848 17.870483
64.433 343.000 321.646423 266.920105 21.353577
64.450 328.000 319.874146 266.883636 8.125854
64.467 315.000 317.871094 266.847534 -2.871094
64.484 327.000 315.698395 266.811707 11.301605
64.501 324.000 313.420349 266.776245 10.579651
64.518 314.000 311.098358 266.741089 2.901642
64.535 314.000 308.792572 266.706268 5.207428
64.552 312.000 306.552612 266.671783 5.447388
64.569 308.000 304.419922 266.637665 3.580078
64.586 303.000 302.425629 266.603882 0.574371
64.603 303.000 300.589600 266.570435 2.410400
64.620 297.000 298.923920 266.537384 -1.923920
64.637 285.000 297.429260 266.504700 -12.429260
64.654 273.000 296.099823 266.472351 -23.099823
64.671 265.000 294.923859 266.440399 -29.923859
64.688 279.000 293.887726 266.408844 -14.887726
64.705 291.000 292.974976 266.377655 -1.974976
64.722 284.000 292.170288 266.346863 -8.170288
64.739 307.000 291.460663 266.316467 15.539337
64.756 301.000 290.836365 266.286469 10.163635
64.773 299.000 290.292969 266.256897 8.707031
64.790 280.000 289.829895 266.227722 -9.829895
64.807 289.000 289.451813 266.198944 -0.451813
64.824 278.000 289.167633 266.170593 -11.167633
64.841 271.000 288.990295 266.142670 -17.990295
64.858 302.000 288.935211 266.115173 13.064789
64.875 316.000 289.019470 266.088135 26.980530
64.892 285.000 289.260773 266.061523 -4.260773
64.909 289.000 289.676331 266.035309 -0.676331
64.926 266.000 290.281189 266.009583 -24.281189
64.943 271.000 291.087952 265.984283 -20.087952
64.960 295.000 292.105499 265.959442 2.894501
64.977 320.000 293.338623 265.935059 26.661377
64.994 280.000 294.784973 265.911133 -14.784973
65.011 289.000 296.437836 265.887665 -7.437836
65.028 287.000 298.283264 265.864685 -11.283264
65.045 297.000 300.300171 265.842163 -3.300171
65.062 289.000 302.461334 265.820099 -13.461334
65.079 319.000 304.729156 265.798523 14.270844
65.096 302.000 307.062164 265.777435 -5.062164
65.113 291.000 309.411407 265.756805 -18.411407
65.130 304.000 311.723816 265.736694 -7.723816
65.147 306.000 313.938934 265.717041 -7.938934
65.164 332.000 315.997070 265.697876 16.002930
65.181 308.000 317.836853 265.679230 -9.836853
65.198 318.000 319.398376 265.661072 -1.398376
65.215 309.000 320.626038 265.643402 -11.626038
65.232 308.000 321.469330 265.626251 -13.469330
65.249 329.000 321.888245 265.609589 7.111755
65.266 341.000 321.853973 265.593445 19.146027
65.283 332.000 321.350922 265.577759 10.649078
65.300 319.000 320.379761 265.562622 -1.379761
65.317 327.000 318.956696 265.548004 8.043304
65.334 342.000 317.113831 265.533905 24.886169
65.351 325.000 314.897766 265.520294 10.102234
65.368 295.000 312.366028 265.507202 -17.366028
65.385 305.000 309.588287 265.494629 -4.588287
65.402 320.000 306.635712 265.482574 13.364288
65.419 324.000 303.581512 265.471039 20.418488
65.436 305.000 300.494507 265.460022 4.505493
65.453 305.000 297.441833 265.449524 7.558167
65.470 319.000 294.478058 265.439545 24.521942
65.487 291.000 291.649292 265.430084 -0.649292
65.504 301.000 288.990295 265.421143 12.009705
65.521 315.000 286.529144 265.412720 28.470856
65.538 274.000 284.281189 265.404846 -10.281189
65.555 253.000 282.254730 265.397461 -29.254730
65.572 265.000 280.451721 265.390625 -15.451721
65.589 268.000 278.868103 265.384308 -10.868103
65.606 273.000 277.498352 265.378510 -4.498352
65.623 279.000 276.332336 265.373230 2.667664
65.640 283.000 275.359344 265.368469 7.640656
65.657 261.000 274.567902 265.364227 -13.567902
65.674 277.000 273.947845 265.360504 3.052155
65.691 274.000 273.488586 265.357300 0.511414
65.708 263.000 273.180939 265.354614 -10.180939
65.725 292.000 273.016876 265.352448 18.983124
65.742 283.000 272.989685 265.350769 10.010315
65.759 254.000 273.093842 265.349640 -19.093842
65.776 262.000 273.324738 265.348999 -11.324738
65.793 276.000 273.678741 265.348877 2.321259
65.810 276.000 274.152985 265.349243 1.847015
65.827 266.000 274.744415 265.350128 -8.744415
65.844 283.000 275.450439 265.351501 7.549561
65.861 290.000 276.268036 265.353394 13.731964
65.878 297.000 277.193512 265.355774 19.806488
65.895 278.000 278.222595 265.358643 -0.222595
65.912 259.000 279.348297 265.362030 -20.348297
65.929 291.000 280.563324 265.365875 10.436676
65.946 271.000 281.858063 265.370239 -10.858063
65.963 270.000 283.221405 265.375061 -13.221405
65.980 302.000 284.638245 265.380341 17.361755
65.997 305.000 286.093170 265.386139 18.906830
66.014 273.000 287.567841 265.392365 -14.567841
66.031 289.000 289.042145 265.399109 -0.042145
66.048 324.000 290.494812 265.406281 33.505188
66.065 303.000 291.901276 265.413910 11.098724
66.082 271.000 293.238159 265.421997 -22.238159
66.099 292.000 294.481171 265.430542 -2.481171
66.116 282.000 295.607117 265.439514 -13.607117
66.133 313.000 296.592743 265.448975 16.407257
66.150 290.000 297.418671 265.458801 -7.418671
66.167 300.000 298.068817 265.469116 1.931183
66.184 282.000 298.531250 265.479828 -16.531250
66.201 301.000 298.799683 265.490967 2.200317
66.218 311.000 298.873230 265.502533 12.126770
66.235 310.000 298.757416 265.514496 11.242584
66.252 293.000 298.463196 265.526855 -5.463196
66.269 276.000 298.006226 265.539612 -22.006226
66.286 294.000 297.406616 265.552765 -3.406616
66.303 286.000 296.686218 265.566315 -10.686218
66.320 297.000 295.868164 265.580200 1.131836
66.337 295.000 294.975281 265.594482 0.024719
66.354 289.000 294.028473 265.609161 -5.028473
66.371 298.000 293.047607 265.624146 4.952393
66.388 293.000 292.048431 265.639526 0.951569
66.405 304.000 291.043793 265.655212 12.956207
66.422 304.000 290.043060 265.671265 13.956940
66.439 313.000 289.053772 265.687622 23.946228
66.456 313.000 288.079315 265.704285 24.920685
66.473 295.000 287.121307 265.721313 7.878693
66.490 295.000 286.178741 265.738586 8.821259
66.507 293.000 285.250732 265.756195 7.749268
66.524 282.000 284.334015 265.774078 -2.334015
66.541 278.000 283.425507 265.792236 -5.425507
66.558 267.000 282.522461 265.810699 -15.522461
66.575 266.000 281.622314 265.829407 -15.622314
66.592 292.000 280.725098 265.848358 11.274902
66.609 275.000 279.831116 265.867554 -4.831116
66.626 278.000 278.942780 265.886993 -0.942780
66.643 286.000 278.063629 265.906677 7.936371
66.660 298.000 277.199799 265.926544 20.800201
66.677 272.000 276.357269 265.946655 -4.357269
66.694 285.000 275.542847 265.966919 9.457153
66.711 274.000 274.763458 265.987427 -0.763458
66.728 272.000 274.025238 266.008087 -2.025238
66.745 280.000 273.334534 266.028900 6.665466
66.762 282.000 272.695709 266.049896 9.304291
66.779 276.000 272.112213 266.071045 3.887787
66.796 281.000 271.586121 266.092316 9.413879
66.813 275.000 271.119080 266.113708 3.880920
66.830 286.000 270.711151 266.135254 15.288849
66.847 270.000 270.361694 266.156860 -0.361694
66.864 282.000 270.069672 266.178589 11.930328
66.881 264.000 269.833466 266.200409 -5.833466
66.898 267.000 269.651550 266.222290 -2.651550
66.915 254.000 269.522156 266.244263 -15.522156
66.932 275.000 269.443481 266.266235 5.556519
66.949 273.000 269.413971 266.288300 3.586029
66.966 265.000 269.432159 266.310364 -4.432159
66.983 274.000 269.496704 266.332458 4.503296
67.000 247.000 269.606415 266.354553 -22.606415
67.017 259.000 269.760071 266.376617 -10.760071
67.034 254.000 269.956665 266.398712 -15.956665
67.051 303.000 270.194611 266.420746 32.805389
67.068 289.000 270.472534 266.442749 18.527466
67.085 278.000 270.788574 266.464691 7.211426
67.102 259.000 271.140717 266.486572 -12.140717
67.119 284.000 271.525909 266.508362 12.474091
67.136 269.000 271.941071 266.530060 -2.941071
67.153 289.000 272.382416 266.551666 16.617584
67.170 286.000 272.845459 266.573151 13.154541
67.187 273.000 273.325500 266.594543 -0.325500
67.204 280.000 273.816650 266.615753 6.183350
67.221 259.000 274.313293 266.636810 -15.313293
67.238 242.000 274.809418 266.657715 -32.809418
67.255 265.000 275.299194 266.678436 -10.299194
67.272 276.000 275.776306 266.698975 0.223694
67.289 264.000 276.235474 266.719299 -12.235474
67.306 290.000 276.671814 266.739380 13.328186
67.323 293.000 277.081329 266.759247 15.918671
67.340 285.000 277.461029 266.778870 7.538971
67.357 273.000 277.808624 266.798248 -4.808624
67.374 294.000 278.123352 266.817352 15.876648
67.391 294.000 278.405548 266.836182 15.594452
67.408 264.000 278.656494 266.854675 -14.656494
67.425 275.000 278.878357 266.872894 -3.878357
67.442 264.000 279.074036 266.890747 -15.074036
67.459 259.000 279.247009 266.908295 -20.247009
67.476 282.000 279.400818 266.925507 2.599182
67.493 288.000 279.538605 266.942322 8.461395
67.510 267.000 279.663300 266.958771 -12.663300
67.527 275.000 279.777008 266.974823 -4.777008
67.544 292.000 279.880981 266.990479 12.119019
67.561 282.000 279.975555 267.005707 2.024445
67.578 268.000 280.060150 267.020508 -12.060150
67.595 247.000 280.133606 267.034882 -33.133606
67.612 267.000 280.194336 267.048767 -13.194336
67.629 280.000 280.240784 267.062195 -0.240784
67.646 280.000 280.271515 267.075134 -0.271515
67.663 271.000 280.285797 267.087585 -9.285797
67.680 283.000 280.283508 267.099518 2.716492
67.697 283.000 280.265320 267.110931 2.734680
67.714 283.000 280.232605 267.121796 2.767395
67.731 303.000 280.187439 267.132111 22.812561
67.748 291.000 280.132202 267.141846 10.867798
67.765 284.000 280.069580 267.151031 3.930420
67.782 291.000 280.002167 267.159607 10.997833
67.799 286.000 279.932587 267.167603 6.067413
67.816 281.000 279.863159 267.174957 1.136841
67.833 292.000 279.795959 267.181671 12.204041
67.850 266.000 279.732971 267.187744 -13.732971
67.867 274.000 279.676025 267.193176 -5.676025
67.884 286.000 279.627075 267.197937 6.372925
67.901 265.000 279.588165 267.202026 -14.588165
67.918 274.000 279.561707 267.205414 -5.561707
67.935 235.000 279.550781 267.208099 -44.550781
67.952 285.000 279.559113 267.210052 5.440887
67.969 247.000 279.591400 267.211273 -32.591400
67.986 282.000 279.653381 267.211761 2.346619
68.003 266.000 279.751953 267.211487 -13.751953
68.020 257.000 279.895172 267.210449 -22.895172
68.037 287.000 280.091980 267.208649 6.908020
68.054 277.000 280.352173 267.206024 -3.352173
68.071 264.000 280.685974 267.202606 -16.685974
68.088 264.000 281.103821 267.198395 -17.103821
68.105 271.000 281.614777 267.193329 -10.614777
68.122 305.000 282.227264 267.187439 22.772736
68.139 295.000 282.947418 267.180725 12.052582
68.156 304.000 283.778503 267.173096 20.221497
68.173 304.000 284.720886 267.164642 19.279114
68.190 304.000 285.769165 267.155273 18.230835
68.207 295.000 286.914551 267.145050 8.085449
68.224 298.000 288.142365 267.133911 9.857635
68.241 271.000 289.433075 267.121826 -18.433075
68.258 269.000 290.759827 267.108856 -21.759827
68.275 286.000 292.092255 267.094940 -6.092255
68.292 287.000 293.394989 267.080109 -6.394989
68.309 296.000 294.629242 267.064301 1.370758
68.326 299.000 295.754883 267.047516 3.245117
68.343 307.000 296.730469 267.029785 10.269531
68.360 317.000 297.518158 267.011047 19.481842
68.377 330.000 298.084259 266.991333 31.915741
68.394 325.000 298.401703 266.970642 26.598297
68.411 313.000 298.451599 266.948914 14.548401
68.428 293.000 298.225403 266.926208 -5.225403
68.445 284.000 297.724915 266.902435 -13.724915
68.462 288.000 296.962097 266.877655 -8.962097
68.479 309.000 295.959564 266.851837 13.040436
68.496 308.000 294.747192 266.824982 13.252808
68.513 292.000 293.361237 266.797058 -1.361237
68.530 291.000 291.841827 266.768066 -0.841827
68.547 290.000 290.229950 266.738007 -0.229950
68.564 281.000 288.568085 266.706879 -7.568085
68.581 282.000 286.894073 266.674683 -4.894073
68.598 277.000 285.242493 266.641388 -8.242493
68.615 286.000 283.642395 266.606995 2.357605
68.632 284.000 282.119629 266.571503 1.880371
68.649 273.000 280.692444 266.534912 -7.692444
68.666 298.000 279.374817 266.497223 18.625183
68.683 281.000 278.175964 266.458405 2.824036
68.700 275.000 277.100861 266.418457 -2.100861
68.717 283.000 276.152588 266.377411 6.847412
68.734 280.000 275.330139 266.335205 4.669861
68.751 265.000 274.631439 266.291901 -9.631439
68.768 299.000 274.052582 266.247406 24.947418
68.785 296.000 273.589844 266.201813 22.410156
68.802 284.000 273.238220 266.155060 10.761780
68.819 277.000 272.992859 266.107147 4.007141
68.836 281.000 272.849030 266.058105 8.150970
68.853 257.000 272.802002 266.007874 -15.802002
68.870 292.000 272.847443 265.956512 19.152557
68.887 277.000 272.980957 265.903992 4.019043
68.904 272.000 273.198242 265.850281 -1.198242
68.921 249.000 273.495087 265.795410 -24.495087
68.938 313.000 273.866547 265.739410 39.133453
68.955 284.000 274.307495 265.682220 9.692505
68.972 257.000 274.812134 265.623840 -17.812134
68.989 270.000 275.373749 265.564331 -5.373749
69.006 277.000 275.984772 265.503601 1.015228
69.023 278.000 276.635651 265.441711 1.364349
69.040 297.000 277.316437 265.378693 19.683563
69.057 286.000 278.015472 265.314453 7.984528
69.074 284.000 278.720398 265.249023 5.279602
69.091 290.000 279.416870 265.182465 10.583130
69.108 294.000 280.090637 265.114716 13.909363
69.125 263.000 280.726929 265.045807 -17.726929
69.142 267.000 281.310852 264.975708 -14.310852
69.159 270.000 281.828308 264.904419 -11.828308
69.176 265.000 282.265381 264.832001 -17.265381
69.193 292.000 282.610352 264.758392 9.389648
69.210 284.000 282.853119 264.683624 1.146881
69.227 266.000 282.985931 264.607666 -16.985931
69.244 266.000 283.003357 264.530548 -17.003357
69.261 289.000 282.903259 264.452271 6.096741
69.278 305.000 282.686340 264.372833 22.313660
69.295 283.000 282.356476 264.292236 0.643524
69.312 278.000 281.920471 264.210449 -3.920471
69.329 283.000 281.388519 264.127533 1.611481
69.346 277.000 280.772949 264.043457 -3.772949
69.363 280.000 280.088409 263.958252 -0.088409
69.380 282.000 279.350739 263.871826 2.649261
69.397 278.000 278.577972 263.784302 -0.577972
69.414 285.000 277.787476 263.695618 7.212524
69.431 283.000 276.996857 263.605804 6.003143
69.448 271.000 276.222473 263.514801 -5.222473
69.465 280.000 275.480682 263.422699 4.519318
69.482 268.000 274.785034 263.329468 -6.785034
69.499 288.000 274.147522 263.235077 13.852478
69.516 280.000 273.578125 263.139557 6.421875
69.533 251.000 273.084351 263.042877 -22.084351
69.550 248.000 272.672119 262.945099 -24.672119
69.567 283.000 272.344482 262.846191 10.655518
69.584 279.000 272.102600 262.746155 6.897400
69.601 277.000 271.945435 262.644958 5.054565
69.618 263.000 271.870148 262.542664 -8.870148
69.635 250.000 271.871765 262.439270 -21.871765
69.652 268.000 271.943329 262.334717 -3.943329
69.669 264.000 272.076324 262.229095 -8.076324
69.686 240.000 272.260254 262.122253 -32.260254
69.703 273.000 272.482910 262.014343 0.517090
69.720 283.000 272.730896 261.905365 10.269104
69.737 269.000 272.989227 261.795197 -3.989227
69.754 271.000 273.242432 261.683899 -2.242432
69.771 283.000 273.474091 261.571533 9.525909
69.788 285.000 273.668152 261.458008 11.331848
69.805 295.000 273.809296 261.343384 21.190704
69.822 278.000 273.883392 261.227600 4.116608
69.839 262.000 273.878448 261.110626 -11.878448
69.856 258.000 273.785156 260.992615 -15.785156
69.873 288.000 273.597229 260.873413 14.402771
69.890 292.000 273.312103 260.753082 18.687897
69.907 288.000 272.930542 260.631561 15.069458
69.924 289.000 272.457336 260.508911 16.542664
69.941 269.000 271.900116 260.385101 -2.900116
69.958 257.000 271.269348 260.260132 -14.269348
69.975 282.000 270.577393 260.133972 11.422607
69.992 259.000 269.837677 260.006561 -10.837677
loop_
_pd_refln_peak_id
_refln_index_h
_refln_index_k
_refln_index_l
_pd_peak_2theta_centroid
_pd_peak_d_spacing
_refln_F_squared_meas
_refln_F_squared_calc
_refln_phase_calc
1 0 1 0 11.638 7.598 0 2903.740 0
2 1 0 0 14.950 5.921 0 254.749 180
3 0 0 1 15.334 5.773 0 575.710 180
4 0 1 -1 16.952 5.226 0 7246.279 0
5 1 -1 0 17.284 5.126 0 40.861 0
6 1 0 -1 17.936 4.942 0 207.687 0
7 1 1 0 20.553 4.318 0 4328.897 0
8 1 1 -1 20.884 4.250 0 4320.927 0
9 0 1 1 21.387 4.151 0 3460.526 0
10 1 -1 -1 21.969 4.043 0 455.221 0
11 0 2 0 23.398 3.799 0 2562.252 180
12 1 -1 1 24.343 3.653 0 4439.582 0
13 1 0 1 24.536 3.625 0 2967.717 0
14 0 2 -1 24.827 3.583 0 4865.159 0
15 1 -2 0 25.522 3.487 0 2082.888 0
16 1 2 -1 28.826 3.095 0 1698.864 0
17 1 -2 1 29.381 3.037 0 6378.982 0
18 2 0 -1 29.459 3.030 0 14366.808 0
19 1 1 1 29.867 2.989 0 1052.191 0
20 1 0 -2 30.065 2.970 0 9027.718 0
21 1 2 0 30.069 2.969 0 12978.006 0
22 2 0 0 30.162 2.960 0 24.203 180
23 2 -1 0 30.397 2.938 0 9732.591 0
24 0 1 -2 30.407 2.937 0 2290.236 180
25 1 -2 -1 30.429 2.935 0 6035.241 0
26 1 1 -2 30.564 2.922 0 5285.633 0
27 0 0 2 30.952 2.887 0 1821.915 0
28 0 2 1 31.046 2.878 0 7296.573 0
29 2 -1 -1 31.136 2.870 0 3010.497 0
30 2 1 -1 32.396 2.761 0 3.593 0
31 1 -1 -2 34.031 2.632 0 1685.132 0
32 0 2 -2 34.291 2.613 0 982.560 0
33 2 1 0 34.356 2.608 0 1028.896 0
34 2 -2 0 34.978 2.563 0 5935.368 0
35 0 3 -1 35.165 2.550 0 67.229 0
36 1 2 -2 35.358 2.536 0 259.149 0
37 0 3 0 35.414 2.533 0 932.887 0
38 0 1 2 35.745 2.510 0 4856.199 0
39 1 -3 0 36.014 2.492 0 7295.797 0
40 2 0 -2 36.330 2.471 0 16.978 180
41 2 -2 -1 36.864 2.436 0 555.998 0
42 2 -1 1 37.066 2.423 0 180.290 180
43 1 -1 2 37.237 2.413 0 4469.989 0
44 2 1 -2 37.630 2.388 0 3028.501 0
45 1 -3 1 37.764 2.380 0 4840.093 0
46 2 0 1 38.066 2.362 0 4811.307 0
47 1 2 1 38.412 2.341 0 21.174 0
48 1 0 2 38.552 2.333 0 5669.565 0
49 2 -1 -2 38.909 2.313 0 6548.062 0
50 2 2 -1 39.022 2.306 0 1375.651 0
51 1 3 -1 39.035 2.306 0 2049.076 0
52 1 -2 2 39.724 2.267 0 3257.094 0
53 2 -2 1 39.873 2.259 0 281.641 0
54 1 -3 -1 40.886 2.205 0 168.825 0
55 1 3 0 41.115 2.194 0 59.972 0
56 1 -2 -2 41.332 2.183 0 86.028 180
57 0 3 -2 41.512 2.174 0 9801.695 0
58 2 2 0 41.808 2.159 0 1429.506 0
59 0 3 1 42.161 2.142 0 7531.236 0
60 2 2 -2 42.505 2.125 0 4343.686 0
61 2 1 1 42.647 2.118 0 4791.691 0
62 2 -3 0 42.686 2.116 0 84.998 180
63 1 3 -2 43.204 2.092 0 135.490 0
64 1 1 2 43.379 2.084 0 556.148 0
65 0 2 2 43.569 2.076 0 3043.661 0
66 3 0 -1 43.754 2.067 0 403.324 0
67 3 -1 -1 44.209 2.047 0 121.330 180
68 1 1 -3 44.224 2.046 0 3847.951 0
69 2 -2 -2 44.801 2.021 0 4467.020 0
70 1 0 -3 44.903 2.017 0 586.210 0
71 2 -3 -1 45.327 1.999 0 1559.046 0
72 3 -1 0 45.368 1.997 0 4430.965 0
73 1 -3 2 45.493 1.992 0 944.033 0
74 0 1 -3 45.801 1.979 0 12136.005 0
75 2 -3 1 45.902 1.975 0 2375.425 0
76 3 0 0 45.944 1.974 0 9088.737 0
77 3 1 -1 46.629 1.946 0 6164.351 0
78 0 4 -1 46.662 1.945 0 513.957 0
79 1 2 -3 46.858 1.937 0 7621.062 0
80 0 0 3 47.188 1.924 0 1398.334 0
81 3 0 -2 47.307 1.920 0 1145.730 0
82 1 -4 0 47.606 1.909 0 4841.245 0
83 0 2 -3 47.655 1.907 0 168.445 0
84 0 4 0 47.850 1.899 0 8126.594 0
85 3 -2 -1 47.920 1.897 0 455.146 0
86 2 0 -3 47.986 1.894 0 1341.906 0
87 3 -2 0 48.039 1.892 0 37.663 0
88 1 -4 1 48.041 1.892 0 336.808 0
89 2 1 -3 48.058 1.892 0 50.335 180
90 2 3 -1 48.062 1.891 0 6441.196 0
91 2 -1 2 48.537 1.874 0 5628.266 0
92 3 -1 -2 48.711 1.868 0 1527.983 0
93 1 -1 -3 48.786 1.865 0 351.848 0
94 1 3 1 48.790 1.865 0 3442.823 0
95 3 1 -2 49.066 1.855 0 843.765 0
96 3 1 0 49.680 1.834 0 1659.558 0
97 2 -2 2 49.881 1.827 0 56.580 0
98 2 2 1 50.009 1.822 0 930.028 0
99 2 3 -2 50.108 1.819 0 963.049 0
100 2 0 2 50.298 1.813 0 512.776 0
101 1 4 -1 50.482 1.806 0 1567.787 0
102 1 -3 -2 50.806 1.796 0 1460.427 0
103 1 2 2 50.914 1.792 0 1974.770 0
104 0 4 -2 50.926 1.792 0 3709.146 0
105 2 -1 -3 51.014 1.789 0 1071.723 0
106 2 2 -3 51.220 1.782 0 1829.212 0
107 2 3 0 51.384 1.777 0 3105.843 0
108 0 1 3 51.617 1.769 0 40.696 180
109 3 -1 1 51.896 1.760 0 2457.676 0
110 3 2 -1 52.410 1.744 0 5384.317 0
111 1 -1 3 52.411 1.744 0 28.379 0
112 1 3 -3 52.418 1.744 0 1303.873 0
113 2 -4 0 52.434 1.744 0 11.843 180
114 0 3 -3 52.488 1.742 0 26.490 180
115 1 -4 -1 52.508 1.741 0 32.898 180
116 1 4 -2 53.045 1.725 0 2549.265 0
117 3 -2 -2 53.093 1.724 0 2606.299 0
118 1 4 0 53.113 1.723 0 331.212 180
119 2 -3 -2 53.141 1.722 0 2150.679 0
120 3 0 1 53.330 1.716 0 28.557 0
121 0 3 2 53.392 1.715 0 17.828 0
122 3 -2 1 53.425 1.714 0 6052.181 0
123 1 -2 3 53.439 1.713 0 224.561 0
124 3 -3 0 53.589 1.709 0 936.969 0
125 1 -4 2 53.718 1.705 0 177.644 0
126 3 2 -2 53.759 1.704 0 99.751 0
127 2 -3 2 54.162 1.692 0 16.898 0
128 0 4 1 54.221 1.690 0 436.581 0
129 2 -4 1 54.325 1.687 0 2367.607 0
130 1 0 3 54.325 1.687 0 2039.422 0
131 3 -3 -1 54.379 1.686 0 8547.574 0
132 2 1 2 54.948 1.670 0 1117.710 0
133 1 -2 -3 55.366 1.658 0 5780.464 0
134 2 -4 -1 55.601 1.652 0 2361.165 0
135 3 0 -3 55.762 1.647 0 8474.803 0
136 3 2 0 56.107 1.638 0 79.781 180
137 3 1 -3 56.465 1.628 0 1393.814 0
138 2 -2 -3 56.781 1.620 0 1649.466 0
139 2 3 -3 57.101 1.612 0 4270.043 0
140 1 -3 3 57.299 1.607 0 1027.263 0
141 3 1 1 57.575 1.600 0 31.410 180
142 3 -3 1 57.755 1.595 0 2218.452 0
143 3 -1 -3 57.880 1.592 0 2602.024 0
144 0 2 3 58.592 1.574 0 204.422 0
145 2 4 -1 58.760 1.570 0 3034.379 0
146 1 1 3 58.985 1.565 0 8397.585 0
147 0 5 -1 59.070 1.563 0 4415.267 0
148 4 -1 -1 59.339 1.556 0 4355.002 0
149 2 3 1 59.424 1.554 0 170.889 180
150 4 0 -1 59.587 1.550 0 234.540 180
151 1 -5 1 59.634 1.549 0 2308.289 0
152 2 4 -2 59.711 1.547 0 382.448 0
153 0 4 -3 59.792 1.545 0 2984.942 0
154 3 2 -3 59.924 1.542 0 52.136 180
155 1 1 -4 59.936 1.542 0 374.635 180
156 3 -3 -2 59.996 1.541 0 11.840 180
157 1 -5 0 60.102 1.538 0 262.010 180
158 1 4 -3 60.340 1.533 0 69.371 0
159 1 3 2 60.459 1.530 0 2470.496 0
160 1 4 1 60.465 1.530 0 7213.295 0
161 3 3 -1 60.516 1.529 0 192.453 180
162 0 5 0 60.918 1.520 0 3632.103 0
163 3 3 -2 60.918 1.520 0 2613.259 0
164 2 -4 2 60.955 1.519 0 6217.747 0
165 4 0 -2 61.129 1.515 0 5272.399 0
166 1 2 -4 61.258 1.512 0 357.312 0
167 1 0 -4 61.318 1.511 0 1039.501 0
168 3 -4 0 61.483 1.507 0 3466.205 0
169 4 -1 0 61.650 1.503 0 11.530 180
170 4 -1 -2 61.715 1.502 0 589.513 0
171 2 1 -4 61.733 1.501 0 6629.981 0
172 4 -2 -1 61.798 1.500 0 6169.238 0
173 1 -4 -2 61.844 1.499 0 5298.308 0
174 0 5 -2 61.919 1.497 0 457.179 180
175 2 2 2 62.047 1.495 0 2015.545 0
176 2 0 -4 62.496 1.485 0 1198.942 0
177 2 4 0 62.503 1.485 0 1854.736 0
178 4 1 -1 62.523 1.484 0 328.557 0
179 0 1 -4 62.571 1.483 0 759.655 0
180 3 -1 2 62.585 1.483 0 109.643 0
181 3 -2 -3 62.635 1.482 0 256.043 180
182 4 0 0 62.715 1.480 0 3078.740 0
183 2 -1 3 62.927 1.476 0 65.764 0
184 1 5 -1 62.951 1.475 0 194.672 180
185 3 -4 -1 63.028 1.474 0 7380.480 0
186 3 -2 2 63.133 1.471 0 851.393 0
187 4 1 -2 63.211 1.470 0 165.986 0
188 4 -2 0 63.245 1.469 0 606.404 0
189 2 -2 3 63.252 1.469 0 9903.936 0
190 0 2 -4 63.269 1.469 0 5744.919 0
191 2 -4 -2 63.318 1.468 0 847.934 0
192 2 2 -4 63.625 1.461 0 300.568 0
193 1 -4 3 63.658 1.461 0 1628.601 0
194 2 -5 0 63.695 1.460 0 4029.025 0
195 1 -5 2 63.807 1.458 0 309.184 0
196 1 -3 -3 64.108 1.451 0 2880.733 0
197 3 2 1 64.274 1.448 0 8298.107 0
198 1 5 -2 64.384 1.446 0 10722.281 0
199 0 0 4 64.508 1.443 0 798.612 0
200 3 -4 1 64.527 1.443 0 39.544 0
201 2 -5 1 64.572 1.442 0 386.301 0
202 3 0 2 64.670 1.440 0 1144.300 0
203 3 3 0 64.716 1.439 0 2020.327 0
204 0 4 2 64.721 1.439 0 266.181 0
205 2 -3 -3 64.822 1.437 0 1261.702 0
206 4 -2 -2 64.927 1.435 0 476.598 0
207 1 -5 -1 65.154 1.431 0 4215.982 0
208 1 3 -4 65.187 1.430 0 3281.115 0
209 2 0 3 65.224 1.429 0 8.607 0
210 2 4 -3 65.236 1.429 0 655.057 0
211 1 -1 -4 65.303 1.428 0 13459.574 0
212 2 -1 -4 65.862 1.417 0 8.279 0
213 3 3 -3 65.875 1.417 0 229.778 0
214 1 2 3 66.032 1.414 0 28.323 0
215 1 5 0 66.048 1.413 0 2621.132 0
216 2 -3 3 66.178 1.411 0 7764.717 0
217 3 -3 2 66.279 1.409 0 1676.441 0
218 4 1 0 66.367 1.407 0 2433.720 0
219 0 3 -4 66.557 1.404 0 2919.560 0
220 4 -3 -1 66.792 1.399 0 55.822 0
221 4 0 -3 67.154 1.393 0 340.633 180
222 0 5 1 67.236 1.391 0 7.556 0
223 2 -5 -1 67.311 1.390 0 1475.883 0
224 4 -3 0 67.395 1.388 0 1857.949 0
225 0 3 3 67.653 1.384 0 2570.353 0
226 3 1 -4 67.759 1.382 0 1228.798 0
227 4 2 -2 67.824 1.381 0 667.432 0
228 3 0 -4 67.915 1.379 0 100.381 0
229 4 2 -1 67.949 1.378 0 1686.123 0
230 2 3 -4 68.051 1.377 0 24.760 0
231 4 1 -3 68.357 1.371 0 8765.255 0
232 4 -1 1 68.374 1.371 0 4284.491 0
233 4 -1 -3 68.496 1.369 0 65.195 0
234 0 1 4 68.961 1.361 0 136.687 0
235 3 -4 -2 68.993 1.360 0 41.904 180
236 4 -2 1 69.110 1.358 0 316.232 0
237 0 5 -3 69.131 1.358 0 2656.573 0
238 3 1 2 69.260 1.355 0 4132.388 0
239 1 -1 4 69.351 1.354 0 1485.550 0
240 1 -2 4 69.449 1.352 0 18.284 0
241 3 -3 -3 69.727 1.348 0 305.986 0
242 2 -5 2 69.855 1.345 0 5354.076 0
