#------------------------------------------------------------------------------
#$Date: 2021-06-20 03:52:38 +0300 (Sun, 20 Jun 2021) $
#$Revision: 266587 $
#$URL: file:///home/coder/svn-repositories/cod/cif/1/56/36/1563605.cif $
#------------------------------------------------------------------------------
#
# This file is available in the Crystallography Open Database (COD),
# http://www.crystallography.net/
#
# All data on this site have been placed in the public domain by the
# contributors.
#
data_1563605
loop_
_publ_author_name
'Heinl, Veronika'
'Seitz, Andreas'
'Balazs, Gabor'
'Seidl, Michael'
'Scheer, Manfred'
_publ_section_title
;
 Transfer of Polyantimony Units
;
_journal_name_full               'Chemical Science'
_journal_paper_doi               10.1039/D1SC02498A
_journal_year                    2021
_chemical_formula_moiety         'C26 H42 Sb6 Zr2'
_chemical_formula_sum            'C26 H42 Sb6 Zr2'
_chemical_formula_weight         1267.53
_space_group_crystal_system      triclinic
_space_group_IT_number           2
_space_group_name_Hall           '-P 1'
_space_group_name_H-M_alt        'P -1'
_atom_sites_solution_hydrogens   geom
_atom_sites_solution_primary     iterative
_audit_creation_date             2020-04-15
_audit_creation_method
;
Olex2 1.3-alpha
(compiled 2019.07.11 svn.r3635 for OlexSys, GUI svn.r5848)
;
_audit_update_record
;
2021-04-23 deposited with the CCDC.	2021-06-17 downloaded from the CCDC.
;
_cell_angle_alpha                105.899(7)
_cell_angle_beta                 96.387(6)
_cell_angle_gamma                109.955(8)
_cell_formula_units_Z            1
_cell_length_a                   7.7940(6)
_cell_length_b                   10.9301(11)
_cell_length_c                   11.6145(7)
_cell_measurement_reflns_used    4042
_cell_measurement_temperature    123.01(10)
_cell_measurement_theta_max      73.3610
_cell_measurement_theta_min      4.5400
_cell_volume                     871.21(14)
_computing_cell_refinement       'CrysAlisPro 1.171.38.43 (Rigaku OD, 2015)'
_computing_data_collection       'CrysAlisPro 1.171.38.43 (Rigaku OD, 2015)'
_computing_data_reduction        'CrysAlisPro 1.171.38.43 (Rigaku OD, 2015)'
_computing_molecular_graphics    'Olex2 1.3-alpha (Dolomanov et al., 2009)'
_computing_publication_material  'Olex2 1.3-alpha (Dolomanov et al., 2009)'
_computing_structure_refinement
'olex2.refine 1.3-alpha (Bourhis et al., 2015)'
_computing_structure_solution
'olex2.solve 1.3-alpha (Bourhis et al., 2015)'
_diffrn_ambient_environment      N~2~
_diffrn_ambient_temperature      123.01(10)
_diffrn_detector                 'CCD plate'
_diffrn_detector_area_resol_mean 4.2047
_diffrn_detector_type            TitanS2
_diffrn_measured_fraction_theta_full 0.990
_diffrn_measured_fraction_theta_max 0.990
_diffrn_measurement_details
;
List of Runs (angles in degrees, time in seconds):

  # Type    Start    End  Width  t~exp~   \w     \q     \k     \f   Frames
#--------------------------------------------------------------------------
  1  \w     18.00 114.00   1.00    5.00    --   43.98  57.00 150.00   96
  2  \w    -20.00  83.00   1.00    5.00    --   43.98 -99.00 -90.00  103
  3  \w    -26.00  70.00   1.00    5.00    --   43.98 -57.00   0.00   96
  4  \w     31.00 131.00   1.00   20.00    --  104.50 -30.00-180.00  100
  5  \w     31.00 131.00   1.00   20.00    --  104.50 -30.00 -30.00  100
  6  \w     21.00 109.00   1.00   20.00    --  104.50 -94.00-120.00   88
  7  \w     78.00 178.00   1.00   20.00    --  104.50  30.00 150.00  100
  8  \w     21.00 109.00   1.00   20.00    --  104.50 -94.00 150.00   88
  9  \w     31.00 131.00   1.00   20.00    --  104.50 -30.00  90.00  100
 10  \w     30.00 136.00   1.00   20.00    --  104.50 -77.00 -30.00  106
 11  \w     18.00 114.00   1.00    5.00    --   43.98  57.00  60.00   96
 12  \w     18.00 106.00   1.00    5.00    --   43.98  57.00-120.00   88
 13  \w     18.00 114.00   1.00    5.00    --   43.98  57.00 -30.00   96
;
_diffrn_measurement_device       'four-circle diffractometer'
_diffrn_measurement_device_type  'GV1000, TitanS2'
_diffrn_measurement_method       '\w scans'
_diffrn_orient_matrix_type
'CrysAlisPro convention (1999,Acta A55,543-557)'
_diffrn_orient_matrix_UB_11      -0.0528989000
_diffrn_orient_matrix_UB_12      0.0290410000
_diffrn_orient_matrix_UB_13      -0.1186786000
_diffrn_orient_matrix_UB_21      0.0003420000
_diffrn_orient_matrix_UB_22      0.1393978000
_diffrn_orient_matrix_UB_23      0.0771761000
_diffrn_orient_matrix_UB_31      0.2093139000
_diffrn_orient_matrix_UB_32      0.0709333000
_diffrn_orient_matrix_UB_33      0.0029572000
_diffrn_radiation_monochromator  mirror
_diffrn_radiation_probe          x-ray
_diffrn_radiation_type           'Cu K\a'
_diffrn_radiation_wavelength     1.54184
_diffrn_reflns_av_R_equivalents  0.0465
_diffrn_reflns_av_unetI/netI     0.0466
_diffrn_reflns_Laue_measured_fraction_full 0.990
_diffrn_reflns_Laue_measured_fraction_max 0.990
_diffrn_reflns_limit_h_max       9
_diffrn_reflns_limit_h_min       -6
_diffrn_reflns_limit_k_max       13
_diffrn_reflns_limit_k_min       -12
_diffrn_reflns_limit_l_max       13
_diffrn_reflns_limit_l_min       -13
_diffrn_reflns_number            6598
_diffrn_reflns_point_group_measured_fraction_full 0.990
_diffrn_reflns_point_group_measured_fraction_max 0.990
_diffrn_reflns_theta_full        67.079
_diffrn_reflns_theta_max         67.079
_diffrn_reflns_theta_min         4.063
_diffrn_source                   'gradient vaccum rotating-anode X-ray tube'
_diffrn_source_type              'GV1000 (Cu) X-ray Source'
_exptl_absorpt_coefficient_mu    41.088
_exptl_absorpt_correction_T_max  0.612
_exptl_absorpt_correction_T_min  0.308
_exptl_absorpt_correction_type   gaussian
_exptl_absorpt_process_details
;
CrysAlisPro 1.171.38.43 (Rigaku Oxford Diffraction, 2015)
Numerical absorption correction based on gaussian integration over
			a multifaceted crystal model
Empirical absorption correction using spherical harmonics,
 implemented in SCALE3 ABSPACK scaling algorithm.
;
_exptl_crystal_colour            'orangish brown'
_exptl_crystal_colour_modifier   orangish
_exptl_crystal_colour_primary    brown
_exptl_crystal_density_diffrn    2.416
_exptl_crystal_description       plate
_exptl_crystal_F_000             584
_exptl_crystal_size_max          0.05
_exptl_crystal_size_mid          0.019
_exptl_crystal_size_min          0.017
_refine_diff_density_max         1.624
_refine_diff_density_min         -1.603
_refine_diff_density_rms         0.221
_refine_ls_extinction_method     none
_refine_ls_goodness_of_fit_ref   1.061
_refine_ls_hydrogen_treatment    constr
_refine_ls_matrix_type           full
_refine_ls_number_parameters     160
_refine_ls_number_reflns         3080
_refine_ls_number_restraints     0
_refine_ls_restrained_S_all      1.061
_refine_ls_R_factor_all          0.0422
_refine_ls_R_factor_gt           0.0367
_refine_ls_shift/su_max          0.001
_refine_ls_shift/su_mean         0.000
_refine_ls_structure_factor_coef Fsqd
_refine_ls_weighting_details
'w=1/[\s^2^(Fo^2^)+(0.0563P)^2^] where P=(Fo^2^+2Fc^2^)/3'
_refine_ls_weighting_scheme      calc
_refine_ls_wR_factor_gt          0.0981
_refine_ls_wR_factor_ref         0.1036
_reflns_Friedel_coverage         0.000
_reflns_number_gt                2672
_reflns_number_total             3080
_reflns_threshold_expression     'I > 2\s(I)'
_cod_data_source_file            d1sc02498a2.cif
_cod_data_source_block           sean242_brownorange_plate2
_cod_original_cell_volume        871.21(13)
_cod_database_code               1563605
_shelx_shelxl_version_number     2018/3
_chemical_oxdiff_formula         C26H42Zr2Sb6
_shelx_space_group_comment
;
The symmetry employed for this shelxl refinement is uniquely defined
by the following loop, which should always be used as a source of
symmetry information in preference to the above space-group names.
They are only intended as comments.
;
_shelx_estimated_absorpt_t_max   0.542
_shelx_estimated_absorpt_t_min   0.233
_reflns_odcompleteness_completeness 99.00
_reflns_odcompleteness_iscentric 1
_reflns_odcompleteness_theta     66.97
_olex2_refinement_description
;
1. Fixed Uiso
 At 1.2 times of:
  All C(H) groups
 At 1.5 times of:
  All C(H,H,H) groups
2.a Aromatic/amide H refined with riding coordinates:
 C3(H3), C4(H4), C1(H1)
2.b Idealised Me refined as rotating group:
 C8(H8a,H8b,H8c), C7(H7a,H7b,H7c), C11(H11a,H11b,H11c), C9(H9a,H9b,H9c),
 C12(H12a,H12b,H12c), C13(H13a,H13b,H13c)
;
_shelx_res_file
;
TITL sean242_brownorangeplate2_a.res in P-1
    sean242_brownorange_plate2.res
    created by SHELXL-2018/3 at 13:00:22 on 06-Apr-2020
REM Old TITL SeAn242_brownorange plate2 in P-1
REM SHELXT solution in P-1
REM R1 0.133, Rweak 0.004, Alpha 0.086, Orientation as input
REM Formula found by SHELXT: C13 Zr3 Sb
CELL 1.54184 7.794 10.9301 11.6145 105.899 96.387 109.955
ZERR 1 0.0006 0.0011 0.0007 0.007 0.006 0.008
LATT 1
SFAC C H Sb Zr
UNIT 26 42 6 2

L.S. 10 0 0
PLAN  11
SIZE 0.017 0.019 0.05
TEMP -150.14(10)
CONF
BOND $H
LIST 4
MORE -1
fmap 2 53
acta
REM <olex2.extras>
REM <HklSrc "%.\\SeAn242_brownorange_plate2.hkl">
REM </olex2.extras>

WGHT    0.056300
FVAR       0.35379
SB1   3    0.486610    0.828517    0.620477    11.00000    0.03830    0.01947 =
         0.02010    0.00861    0.01053    0.01354
SB3   3    0.810242    1.076370    0.416618    11.00000    0.01969    0.01877 =
         0.02937    0.00303    0.01281    0.00250
SB2   3    0.814699    1.065859    0.658639    11.00000    0.01806    0.03012 =
         0.02592    0.00253    0.00098    0.01305
ZR1   4    0.479371    0.842485    0.380007    11.00000    0.01417    0.01333 =
         0.01579    0.00421    0.00513    0.00520
C3    1    0.528079    0.622642    0.312086    11.00000    0.02187    0.01249 =
         0.02056    0.00458    0.00586    0.00726
AFIX  43
H3    2    0.589382    0.599135    0.372970    11.00000   -1.20000
AFIX   0
C4    1    0.616740    0.702077    0.243279    11.00000    0.01708    0.01505 =
         0.02226    0.00511    0.00462    0.00649
AFIX  43
H4    2    0.748222    0.741369    0.250465    11.00000   -1.20000
AFIX   0
C2    1    0.331699    0.583115    0.275843    11.00000    0.02462    0.01283 =
         0.02057   -0.00116    0.00611    0.00707
C10   1    0.175692    0.474220    0.304288    11.00000    0.02441    0.01455 =
         0.02681    0.00567    0.00873    0.00233
C6    1    0.504177    0.768351    0.054316    11.00000    0.02811    0.01952 =
         0.01779    0.00189    0.00205    0.00755
C1    1    0.304219    0.643458    0.184105    11.00000    0.02297    0.01934 =
         0.01586    0.00418    0.00127    0.00464
AFIX  43
H1    2    0.186572    0.636980    0.144357    11.00000   -1.20000
AFIX   0
C8    1    0.374700    0.843249    0.035885    11.00000    0.04767    0.03764 =
         0.03250    0.02203    0.00907    0.01817
AFIX 137
H8A   2    0.416335    0.930732    0.103850    11.00000   -1.50000
H8B   2    0.246108    0.785245    0.033945    11.00000   -1.50000
H8C   2    0.378819    0.861691   -0.041933    11.00000   -1.50000
AFIX   0
C7    1    0.707139    0.862768    0.067856    11.00000    0.04210    0.02996 =
         0.02199    0.01365    0.01062    0.00694
AFIX 137
H7A   2    0.719647    0.887078   -0.006849    11.00000   -1.50000
H7B   2    0.789570    0.814805    0.080532    11.00000   -1.50000
H7C   2    0.742407    0.946992    0.138572    11.00000   -1.50000
AFIX   0
C11   1    0.245654    0.441112    0.414433    11.00000    0.04081    0.02832 =
         0.03915    0.01840    0.01904    0.01291
AFIX 137
H11A  2    0.342651    0.404960    0.397587    11.00000   -1.50000
H11B  2    0.141174    0.371739    0.430290    11.00000   -1.50000
H11C  2    0.298367    0.525233    0.486629    11.00000   -1.50000
AFIX   0
C9    1    0.450672    0.639650   -0.062126    11.00000    0.04562    0.02708 =
         0.01194    0.00681    0.00761    0.01170
AFIX 137
H9A   2    0.321550    0.576397   -0.071886    11.00000   -1.50000
H9B   2    0.535703    0.592597   -0.053360    11.00000   -1.50000
H9C   2    0.461011    0.668771   -0.134585    11.00000   -1.50000
AFIX   0
C5    1    0.480674    0.714700    0.161709    11.00000    0.02664    0.01310 =
         0.01419    0.00372    0.00605    0.00591
C12   1    0.013794    0.518713    0.326609    11.00000    0.02456    0.03596 =
         0.03968    0.01651    0.01574    0.00685
AFIX 137
H12A  2    0.054716    0.597118    0.403221    11.00000   -1.50000
H12B  2   -0.091068    0.441636    0.332934    11.00000   -1.50000
H12C  2   -0.026465    0.546022    0.258039    11.00000   -1.50000
AFIX   0
C13   1    0.101105    0.341182    0.191817    11.00000    0.04265    0.02257 =
         0.03223   -0.00005    0.01494   -0.00488
AFIX 137
H13A  2    0.066471    0.362057    0.117869    11.00000   -1.50000
H13B  2   -0.009266    0.272852    0.203622    11.00000   -1.50000
H13C  2    0.198651    0.303985    0.182396    11.00000   -1.50000
AFIX   0
HKLF 4




REM  sean242_brownorangeplate2_a.res in P-1
REM wR2 = 0.1036, GooF = S = 1.061, Restrained GooF = 1.061 for all data
REM R1 = 0.0367 for 2672 Fo > 4sig(Fo) and 0.0422 for all 3080 data
REM 160 parameters refined using 0 restraints

END

WGHT      0.0563      0.0000

REM Highest difference peak  1.624,  deepest hole -1.603,  1-sigma level  0.221
Q1    1   0.6441  0.9144  0.4016  11.00000  0.05    1.62
Q2    1   0.8563  1.1868  0.4505  11.00000  0.05    1.32
Q3    1   0.5145  0.9368  0.4092  11.00000  0.05    1.18
Q4    1   0.9893  1.1524  0.4394  11.00000  0.05    1.13
Q5    1   0.5178  0.9206  0.6474  11.00000  0.05    1.11
Q6    1   0.7683  0.9578  0.6202  11.00000  0.05    1.09
Q7    1   0.7283  1.1316  0.4457  11.00000  0.05    1.07
Q8    1   0.7242  1.1242  0.6872  11.00000  0.05    1.07
Q9    1   0.5003  0.9528  0.6028  11.00000  0.05    1.03
Q10   1   0.6422  0.8928  0.6399  11.00000  0.05    1.03
Q11   1   0.7556  1.0839  0.3421  11.00000  0.05    0.97
;
_shelx_res_checksum              73391
_shelx_hkl_file
;
   0   0   1 6113.15   74.95
   0   0  -1 5782.38   74.73
   0   0  -2    2.24    0.87
   0   0   2    2.42    1.62
   0   0  -2    2.37    2.29
   0   0  -3 4911.26   94.28
   0   0   3 4901.37   93.21
   0   0   4 6536.57  126.57
   0   0  -4 6419.03  128.51
   0   0   5 2637.22   85.94
   0   0  -5 2802.81   90.11
   0   0   6   60.94   14.41
   0   0  -6   71.23   16.04
   0   0   7  389.09   41.11
   0   0  -7  438.23   43.80
   0   0  -8  220.27   34.01
   0   0  -8  209.51   20.67
   0   0   8  202.95   32.75
   0   0  -8  182.64   13.96
   0   0  -9  316.53   42.36
   0   0  -9  286.25   18.97
   0   0  -9  312.21   28.16
   0   0   9  296.70   43.44
   0   0 -10    6.86    6.66
   0   0 -10    1.30    2.48
   0   0  10    4.65    3.10
   0   0  11    5.92    3.24
   0   0 -11    4.27    3.03
   0   0 -12   -1.42    1.89
   0   0  12    3.89    2.80
   0   1 -13   33.34    5.53
   0  -1  12   12.09    3.46
   0   1 -12   16.17    4.92
   0   1 -11   15.42    4.59
   0  -1  11   26.17    6.16
   0   1 -10    6.78    4.95
   0   1 -10   11.77    6.76
   0  -1  10    2.15   11.14
   0   1 -10   -3.15    6.05
   0  -1  10    9.22    4.29
   0  -1   9   78.21   21.88
   0   1  -9   94.55   15.65
   0  -1   9  100.79   11.18
   0   1  -9   84.66   10.38
   0   1  -9  128.54   26.91
   0   1  -8  526.08   24.34
   0  -1   8  566.00   53.25
   0   1  -8  550.28   33.70
   0   1  -8  592.28   56.24
   0   1  -7  921.28   62.96
   0  -1   7  834.52   58.54
   0  -1   6   26.70   10.04
   0   1  -6   21.46    9.16
   0   1  -5 2001.02   74.14
   0  -1   5 1832.55   68.96
   0  -1   4 6164.02  119.53
   0   1  -4 6345.31  122.20
   0  -1   3 3866.04   78.10
   0   1  -3 3936.27   78.57
   0   1  -2   26.17    4.46
   0  -1   2   29.99    4.97
   0  -1   1 4309.74   57.21
   0   1  -1 4445.92   60.32
   0  -1   0 4428.19   76.23
   0   1   0 4477.06   69.44
   0   1   1 2160.86   39.57
   0   1   1 2119.58   53.53
   0  -1  -1 2069.30   49.52
   0  -1  -2  907.94   35.79
   0  -1  -2  936.22   22.07
   0  -1  -2  933.60   36.32
   0  -1  -3  490.98   29.49
   0   1   3  549.89   28.95
   0  -1  -4  809.97   43.89
   0   1   4  908.43   44.42
   0   1   5  574.57   40.23
   0  -1  -5  601.76   41.16
   0   1   6   42.15   12.14
   0  -1  -6   43.52   12.51
   0  -1  -7   17.82    9.74
   0  -1  -7   19.02    6.74
   0   1   7   16.68    5.35
   0   1   7   11.26    7.92
   0  -1  -7   13.36    3.43
   0   1   8    8.95    7.51
   0  -1  -8   11.32    4.57
   0  -1  -8    7.28    6.12
   0  -1  -8    0.38    5.99
   0  -1  -9  110.91   16.44
   0  -1  -9   81.28   10.20
   0   1   9   76.28   21.40
   0  -1  -9   78.22   20.63
   0  -1 -10    9.90    4.32
   0  -1 -10   14.08    6.57
   0  -1 -11   68.13    8.72
   0   1  11   58.09    8.42
   0   1  12   47.30    6.56
   0  -1 -12   46.58    6.55
   0   2 -13  243.80   15.98
   0   2 -12  305.63   20.52
   0  -2  11   21.11    4.94
   0   2 -11   29.67    6.64
   0   2 -10    4.00    8.53
   0   2 -10    5.20    4.01
   0  -2  10    9.71    4.33
   0   2 -10    3.28    4.83
   0   2  -9  104.36   15.88
   0   2  -9  124.52   26.60
   0  -2   9  109.86   11.53
   0  -2   9   94.79   23.73
   0   2  -9   94.84   10.97
   0  -2   8   18.21    9.14
   0  -2   8   16.03    4.07
   0   2  -8   14.16    5.26
   0   2  -8   13.30    4.02
   0   2  -8   16.50   10.41
   0  -2   7   59.89   14.80
   0   2  -7   68.11   18.52
   0  -2   6   15.15    6.85
   0   2  -6    9.61    5.03
   0  -2   5   72.83   12.92
   0   2  -5    8.51    5.57
   0  -2   4 1493.86   52.21
   0   2  -4 1570.04   44.72
   0   2  -4 1530.49   53.50
   0   2  -3  410.20   19.46
   0  -2   3  394.66   22.05
   0   2  -3  415.52   23.45
   0  -2   2  313.82   16.66
   0   2  -2  353.16   19.51
   0   2  -2  381.57   18.93
   0  -2   2  327.62   20.84
   0   2  -1  528.25   22.79
   0  -2   1  535.64   26.09
   0   2   0  112.30   11.71
   0  -2   0  104.73   13.57
   0  -2  -1  393.19   28.22
   0   2   1  441.10   27.96
   0  -2  -2   65.50   11.40
   0  -2  -2   84.46   13.44
   0   2   2   80.66    9.69
   0  -2  -3   14.68    3.18
   0  -2  -3   11.45    5.13
   0   2   3   19.28    5.82
   0   2   4 1257.51   55.14
   0  -2  -4 1172.91   55.71
   0   2   5 1169.59   60.56
   0  -2  -5  873.58   54.02
   0  -2  -6  149.80   12.36
   0  -2  -6  140.69   22.58
   0   2   6  167.83   25.67
   0   2   6  129.47   14.87
   0   2   7  752.84   40.58
   0   2   7  880.17   65.87
   0  -2  -7  873.55   40.85
   0  -2  -7  843.51   61.87
   0  -2  -7  793.08   30.84
   0  -2  -8 1857.67   66.38
   0  -2  -8 1714.63   48.81
   0  -2  -8 1769.89   97.43
   0  -2  -9 1125.77   38.87
   0  -2  -9 1291.89   58.46
   0  -2 -10   42.61   10.06
   0  -2 -10   46.61    7.60
   0  -2 -11  200.16   13.99
   0   2  11  190.46   14.45
   0   2  12  383.01   16.45
   0  -2 -12  396.68   17.10
   0   3 -13  372.94   20.72
   0   3 -12  381.66   23.34
   0   3 -11   95.27   12.68
   0   3 -10    7.20    3.66
   0  -3  10   11.95    8.98
   0  -3  10    7.36    4.03
   0   3 -10   -6.72    8.01
   0   3  -9   75.77   10.22
   0  -3   9   70.86   21.67
   0   3  -9   61.23   20.55
   0   3  -9   93.43   23.65
   0  -3   9   97.47   11.23
   0   3  -9   78.56   13.99
   0   3  -8   23.33   11.82
   0   3  -8   13.28    4.82
   0  -3   8   25.19   12.41
   0  -3   8   13.70    8.23
   0   3  -8   14.43    3.84
   0   3  -7   -2.85    4.70
   0  -3   7    2.46    5.78
   0  -3   6   32.28    9.96
   0   3  -6   26.79   10.11
   0   3  -5  113.61   16.73
   0   3  -5  123.32   14.37
   0  -3   5   97.60   14.55
   0   3  -5  129.85   17.89
   0  -3   4   10.01    4.52
   0   3  -4    8.83    3.04
   0  -3   4   11.09    5.01
   0   3  -3  151.35   14.22
   0  -3   3  166.27   14.59
   0  -3   3  152.62   18.55
   0   3  -3  163.33   17.01
   0   3  -2   34.54    7.35
   0  -3   2   33.44    7.76
   0  -3   2   32.11    5.48
   0   3  -1  397.07   22.18
   0  -3   1  428.11   30.18
   0   3  -1  387.42   24.78
   0   3   0 1450.09   34.43
   0   3   0 1436.49   53.70
   0  -3   0 1543.56   63.67
   0  -3  -1 2185.55   80.76
   0   3   1 2339.03   46.93
   0  -3  -2  425.94   33.49
   0   3   2  364.25   21.66
   0  -3  -2  392.11   34.02
   0  -3  -3 2786.61   90.06
   0  -3  -3 2585.72   70.50
   0  -3  -3 2543.73   91.49
   0   3   4 4365.59  111.44
   0  -3  -4 4150.39  119.68
   0   3   5 3252.09  107.97
   0  -3  -5 3204.14  111.72
   0  -3  -6  309.02   22.56
   0  -3  -6  247.00   31.82
   0   3   6  287.85   23.74
   0   3   7  756.82   42.06
   0  -3  -7  866.91   42.17
   0  -3  -7  788.25   61.21
   0  -3  -7  785.21   32.33
   0  -3  -8 2906.12   85.07
   0  -3  -8 2656.25  119.40
   0  -3  -8 2725.49   64.78
   0   3   8 2559.80   85.46
   0  -3  -9 1737.11   48.89
   0  -3  -9 1892.26   68.45
   0  -3 -10  245.89   22.58
   0  -3 -10  239.28   16.18
   0   3  11   70.90    7.86
   0  -3 -11   71.61    7.62
   0   4 -13   26.13    5.16
   0   4 -12   22.46    6.01
   0   4 -11    0.01    3.48
   0   4 -10    5.15    3.46
   0   4 -10   -7.16    8.83
   0  -4   9   56.76   19.11
   0   4  -9   61.29    9.42
   0  -4   9   46.03   14.82
   0   4  -9   51.32   18.66
   0   4  -8  261.88   17.71
   0  -4   8  307.59   39.82
   0   4  -8  275.88   37.30
   0  -4   8  249.55   34.19
   0   4  -7   12.48    7.97
   0  -4   7   13.42    7.34
   0  -4   7   17.67    8.56
   0  -4   6    6.75    7.13
   0   4  -6    7.18    4.78
   0  -4   6    8.47    4.42
   0  -4   5  198.29   21.65
   0   4  -5  212.68   24.57
   0  -4   5  207.92   26.20
   0   4  -4   12.62    6.38
   0  -4   4   10.13    6.01
   0   4  -4    6.88    3.17
   0  -4   4    8.72    4.67
   0   4  -3   17.00    7.20
   0  -4   3   13.77    8.01
   0  -4   3   11.26    4.02
   0   4  -3   16.40    5.98
   0   4  -2   34.05    8.79
   0  -4   2   34.99    9.45
   0   4  -2   44.79    8.47
   0   4  -1   40.48    8.37
   0   4  -1   35.14    9.25
   0  -4   1   41.59   12.26
   0  -4   0 2007.43   84.99
   0   4   0 1982.82   75.89
   0   4   1 1453.90   69.89
   0  -4  -1 1718.89   80.02
   0  -4  -2  326.51   33.55
   0  -4  -2  314.14   34.89
   0  -4  -3  750.90   55.74
   0  -4  -3  736.73   50.56
   0  -4  -4 2545.42  100.23
   0  -4  -5 2716.63  107.96
   0   4   5 2483.10   73.15
   0  -4  -6  300.00   22.91
   0   4   6  280.57   25.71
   0  -4  -6  257.98   34.15
   0  -4  -7  296.73   37.35
   0   4   7  282.17   25.72
   0  -4  -7  329.72   25.84
   0  -4  -7  299.62   20.41
   0   4   8  952.73   49.11
   0  -4  -8  963.71   46.16
   0  -4  -8  912.04   35.27
   0  -4  -9  731.42   38.00
   0  -4  -9  765.83   30.24
   0  -4 -10   89.16    9.08
   0   5 -13  291.31   18.66
   0   5 -12  814.75   35.44
   0   5 -11  352.17   24.57
   0   5 -10   74.90   22.27
   0  -5  10   58.69   19.92
   0   5 -10   77.17   11.58
   0  -5   9 1501.46   98.20
   0   5  -9 1350.85   46.71
   0  -5   9 1253.97   85.34
   0   5  -9 1363.38   91.97
   0   5  -8 1896.30   52.59
   0   5  -8 2056.42  103.89
   0  -5   8 1741.88   91.46
   0  -5   8 2052.93  110.30
   0  -5   7  807.50   64.50
   0   5  -7  842.09   60.55
   0  -5   7  668.32   52.06
   0   5  -7  750.88   30.09
   0  -5   6   30.10   11.45
   0   5  -6   40.10   12.64
   0  -5   6   39.60   11.30
   0  -5   5  881.74   59.93
   0  -5   5  683.59   42.32
   0   5  -5  784.13   49.96
   0  -5   4  867.11   57.23
   0   5  -4  900.04   52.33
   0  -5   3  356.55   36.31
   0   5  -3  384.42   33.47
   0   5  -3  352.83   26.87
   0   5  -2   11.95    6.50
   0   5  -2    9.88    4.79
   0  -5   2   12.61    8.82
   0   5  -1   12.90    7.51
   0  -5   1    5.51    7.08
   0  -5   0  115.96   22.60
   0   5   0  117.27   21.93
   0  -5  -1  275.75   35.29
   0   5   1  239.50   34.25
   0  -5  -2    6.02    4.18
   0  -5  -2    9.63    7.92
   0   5   3   54.29   10.98
   0  -5  -3   68.54   17.54
   0   5   3   68.49   10.93
   0   5   4  397.09   32.99
   0  -5  -4  441.33   43.39
   0   5   4  425.03   28.95
   0   5   5  262.95   30.56
   0   5   5  309.28   26.31
   0  -5  -5  269.70   34.54
   0   5   6   18.60    6.36
   0  -5  -6   23.15    9.66
   0  -5  -7    3.46    2.31
   0   5   7    3.65    3.34
   0  -5  -8   15.94    4.69
   0   5   8   10.75    5.44
   0  -5  -9   -1.30    1.96
   0   6 -13  784.09   31.99
   0   6 -12 1873.68   56.12
   0   6 -11  724.18   36.25
   0   6 -10   -4.37    3.54
   0  -6   9 1075.97   87.32
   0   6  -9 1085.58   81.92
   0   6  -9 1115.05   43.44
   0   6  -8 2260.10  112.63
   0  -6   8 1993.92  115.62
   0   6  -8 2219.00   60.87
   0  -6   7 1527.04   96.17
   0   6  -7 1638.48   89.56
   0   6  -7 1777.71   51.90
   0   6  -6   78.37   10.89
   0   6  -6   92.38   19.92
   0  -6   6   89.99   22.05
   0  -6   5  825.79   64.21
   0   6  -5  712.32   52.61
   0   6  -4  968.89   60.64
   0  -6   4  840.22   64.62
   0   6  -3  389.96   38.85
   0  -6   3  365.95   43.14
   0   6  -2    4.74    3.55
   0  -6   2    0.04    6.25
   0   6  -1    8.03    6.78
   0  -6   1   -5.57    9.44
   0   6   0    7.41    7.73
   0  -6   0   16.75   10.57
   0  -6  -1   19.53   10.76
   0  -6  -1   13.45   11.36
   0   6   1    0.16    5.60
   0   6   1   15.39    6.37
   0   6   1    9.75    2.95
   0   6   2   10.59    5.21
   0  -6  -2    3.20    4.69
   0  -6  -2   10.41   10.31
   0   6   2    6.44    1.97
   0  -6  -3   -4.42    6.45
   0   6   3    3.62    2.82
   0   6   3   13.48    6.12
   0  -6  -3   20.42   10.47
   0  -6  -4    1.76    3.76
   0   6   4    7.85    4.98
   0   6   5   32.04    9.36
   0  -6  -5   18.69    9.59
   0   6   6   14.64    7.39
   0  -6  -7   18.90    5.52
   0   6   7   28.52    8.72
   0  -6  -8  175.03   13.61
   0  -6  -9  424.26   15.91
   0   6   9   43.97    6.54
   0   7 -13  280.72   19.54
   0   7 -12  743.41   36.63
   0   7 -11  627.33   35.37
   0   7 -10   34.12    9.40
   0   7  -9  488.57   31.37
   0  -7   9  611.30   69.23
   0  -7   8  884.77   82.46
   0   7  -8  941.48   43.46
   0   7  -8  894.42   73.47
   0  -7   7  316.20   47.03
   0   7  -7  247.98   22.94
   0   7  -7  250.57   36.67
   0  -7   6    0.33    7.08
   0   7  -6    6.01    3.60
   0   7  -5    3.79    3.89
   0   7  -5   10.24    7.08
   0  -7   5   10.48    8.18
   0   7  -4   14.79    5.96
   0  -7   4   11.38    9.48
   0   7  -4   17.13    5.09
   0   7  -4   15.15    4.55
   0  -7   3    4.65    4.94
   0   7  -3    6.67    4.09
   0   7  -3    6.52    4.50
   0   7  -2   22.43   10.65
   0   7  -2   20.97    6.08
   0  -7   2   37.45   17.53
   0   7  -2   16.30    4.23
   0   7  -1  236.86   19.86
   0  -7   1  186.00   34.66
   0   7  -1  273.84   38.08
   0   7  -1  233.60   19.80
   0   7   0  339.56   43.54
   0   7   0  304.63   23.12
   0   7   0  287.89   23.80
   0  -7   0  348.43   46.23
   0  -7  -1   52.25   20.63
   0  -7  -1   44.15   16.75
   0   7   1   55.60   12.17
   0   7   1   71.93   11.73
   0   7   2   10.72    7.18
   0  -7  -2   -5.17    7.76
   0  -7  -2   -0.15    8.84
   0   7   2   -1.82    4.46
   0   7   3   20.90    9.79
   0   7   3   37.16    9.29
   0  -7  -3   25.06   12.99
   0   7   4    5.26    5.50
   0   7   4    4.43    5.09
   0   7   5   20.41    6.54
   0  -7  -6   28.41    6.68
   0   7   6   32.14    8.97
   0   7   7   16.14    6.23
   0  -7  -7    8.34    3.64
   0  -7  -8  260.62   12.21
   0   7   8   10.18    3.60
   0   8 -12    4.04    2.61
   0   8 -11   -5.63    3.75
   0   8 -10    6.75    4.71
   0   8  -9   50.80   12.10
   0   8  -8  364.59   32.22
   0   8  -7   59.68   15.18
   0  -8   7  120.80   32.64
   0   8  -7  100.47   24.89
   0   8  -6   17.33    9.63
   0   8  -6    9.90    5.84
   0  -8   6   35.24   14.81
   0   8  -5  757.32   38.06
   0  -8   5  875.00   81.20
   0   8  -5  794.61   32.95
   0   8  -5  910.26   73.94
   0  -8   4 1599.54  110.78
   0   8  -4 1375.97   52.01
   0   8  -4 1523.87   48.28
   0   8  -3  940.32   42.05
   0   8  -3 1108.04   81.50
   0   8  -3 1058.45   41.43
   0  -8   3  946.10   84.44
   0  -8   2   45.91   17.46
   0   8  -2   46.98    9.15
   0   8  -2   42.78   14.49
   0   8  -2   57.97   10.88
   0   8  -1  537.01   32.33
   0   8  -1  493.99   30.87
   0   8  -1  543.40   58.78
   0   8   0 1417.41   97.01
   0   8   0 1455.46   54.78
   0  -8   0 1552.97  103.67
   0   8   0 1475.48   56.91
   0   8   1 1307.04   53.56
   0   8   1 1341.30   59.09
   0  -8  -1 1331.34   88.64
   0   8   2   62.16   11.30
   0   8   2   45.06   13.25
   0   8   3   59.72   11.59
   0   8   3   44.60   13.62
   0   8   4  170.96   18.47
   0   8   5   71.79   12.02
   0  -8  -6    7.92    3.35
   0   8   6   12.28    5.20
   0   8   6    1.50    2.17
   0   9 -12  176.79   14.74
   0   9 -11  141.96   15.38
   0   9 -10    7.51    4.52
   0   9  -9  394.39   28.47
   0   9  -8 1302.02   52.17
   0   9  -7  929.35   43.88
   0   9  -6  124.36   16.43
   0   9  -5  785.09   71.83
   0   9  -5  678.56   36.93
   0   9  -5  738.58   33.81
   0  -9   5  636.80   73.27
   0   9  -4 2938.10   74.10
   0   9  -4 2855.38   78.76
   0   9  -3 2663.29   76.48
   0   9  -3 2818.58   75.09
   0   9  -2  290.63   44.76
   0   9  -2  298.43   24.71
   0  -9   2  263.25   44.41
   0   9  -2  327.14   25.48
   0   9  -1  485.70   31.52
   0   9  -1  524.89   33.04
   0   9   0 1777.93   64.36
   0   9   0 1658.43   60.07
   0   9   1 1205.95   53.88
   0   9   1 1219.42   51.04
   0   9   2  178.21   20.51
   0   9   2  177.15   18.96
   0   9   3   14.29    4.96
   0   9   4  147.08   15.54
   0  -9  -5   93.48    8.29
   0   9   5  111.90   11.82
   0  10 -11  139.75   13.07
   0  10 -10   17.46    5.40
   0  10  -9  246.89   20.47
   0  10  -8  644.53   34.47
   0  10  -7 1023.26   43.82
   0  10  -6   90.13   13.04
   0  10  -5  503.24   31.17
   0  10  -4 1206.20   46.68
   0  10  -4 1107.51   47.09
   0  10  -3  968.63   42.42
   0  10  -3 1112.75   47.17
   0  10  -2  131.31   15.59
   0  10  -2  124.97   15.52
   0  10  -1   35.01    7.86
   0  10  -1   46.37    8.73
   0  10   0  348.41   26.43
   0  10   0  391.57   26.59
   0  10   1  144.48   15.80
   0  10   1  145.38   16.67
   0  10   2   83.65   11.50
   0  10   3   20.29    5.99
   0  11  -9   17.78    4.97
   0  11  -8   50.99    8.38
   0  11  -7   96.38   12.35
   0  11  -6    9.08    4.06
   0  11  -5    3.11    3.14
   0  11  -4   18.15    5.38
   0  11  -3   17.46    5.76
   0  11  -3   14.18    4.50
   0  11  -2    4.49    4.02
   0  11  -2   -0.13    3.96
   0  11  -1   54.10    8.69
   0  11  -1   68.70   10.16
   0  11   0   89.54   11.40
   0  11   0  171.58   15.28
   0  11   1  142.55   13.09
   0  12  -7   38.02    6.22
   0  12  -6   12.28    3.53
   0  12  -5   87.95   10.04
   0  12  -4  145.21   12.87
   0  12  -3  345.13   19.68
   0  12  -2   39.45    6.35
  -1  12   0    1.29    1.55
  -1  12  -1   13.91    4.24
  -1  12  -2    3.84    2.68
  -1  12  -3   42.85    7.16
  -1  12  -4    0.46    2.36
  -1  12  -5   20.26    5.02
  -1  12  -6   54.36    8.23
  -1  12  -7  295.41   18.03
  -1  12  -8  400.73   20.13
  -1  11   2   47.12    7.79
  -1  11   1  176.41   15.89
  -1  11   0  198.10   17.42
  -1  11  -1   24.94    6.30
  -1  11  -2   23.70    7.09
  -1  11  -3   31.13    7.29
  -1  11  -4    1.28    3.41
  -1  11  -5   10.49    4.72
  -1  11  -6   17.30    5.11
  -1  11  -7   73.32   10.80
  -1  11  -8  188.73   16.58
  -1  11  -9  112.39   12.19
  -1  11 -10    3.06    2.72
  -1  10   4  835.35   33.26
  -1  10   3   88.01   11.42
  -1  10   2  467.68   28.68
  -1  10   1  855.97   43.56
  -1  10   1 1353.71   50.33
  -1  10   0 1209.35   48.29
  -1  10   0 1023.76   45.79
  -1  10  -1  111.75   14.55
  -1  10  -1  118.40   14.77
  -1  10  -2   36.51    8.25
  -1  10  -3  547.97   32.18
  -1  10  -4  408.69   27.67
  -1  10  -5   66.63   11.15
  -1  10  -6   39.39    8.27
  -1  10  -7   56.68   10.66
  -1  10  -8    7.17    4.79
  -1  10  -9    6.27    4.11
  -1  10 -10    9.31    3.59
  -1  10 -11   -1.65    1.96
  -1   9   6  332.93   19.77
   1  -9  -6  302.16   13.48
  -1   9   5 1554.76   50.02
  -1   9   4 1774.05   58.35
  -1   9   3  315.63   25.21
  -1   9   2  223.18   23.37
  -1   9   2  236.46   21.94
  -1   9   1 1476.67   60.64
  -1   9   1 1629.42   58.27
  -1   9   0 1786.84   60.14
  -1   9   0 1771.69   62.67
   1  -9   1  349.45   50.49
  -1   9  -1  374.81   26.32
  -1   9  -1  295.44   41.67
  -1   9  -1  411.39   27.10
  -1   9  -2  104.67   13.87
  -1   9  -2  102.75   13.30
  -1   9  -2   77.96   24.11
   1  -9   2   94.88   27.19
  -1   9  -3  516.56   53.52
   1  -9   3  478.73   60.01
  -1   9  -3  444.60   28.97
   1  -9   4  228.64   23.86
   1  -9   4  207.13   41.63
  -1   9  -4  210.41   19.75
  -1   9  -4  185.00   31.80
   1  -9   5   13.04   13.94
  -1   9  -5   12.30    6.80
   1  -9   5   12.02    5.53
  -1   9  -5    2.69    7.29
  -1   9  -6   18.37   11.26
  -1   9  -6   16.43    6.90
   1  -9   6   35.19   19.09
  -1   9  -7   -3.85    4.96
  -1   9  -8   13.24    5.37
  -1   9  -8    2.93    4.77
  -1   9  -9    5.92    4.07
  -1   9  -9    5.62    4.87
  -1   9 -10    5.07    3.98
  -1   9 -10    4.33    3.24
  -1   9 -11   25.35   10.48
  -1   9 -11   67.99   10.31
  -1   9 -12   88.26   10.17
   1  -8  -7   77.06    7.22
  -1   8   7   88.91   11.07
  -1   8   6  125.45   14.90
   1  -8  -6  121.43   11.20
  -1   8   5  847.04   41.45
  -1   8   4  973.90   46.16
  -1   8   3  119.84   18.33
  -1   8   3  117.04   15.58
   1  -8  -2   17.96    9.46
  -1   8   2   22.81    7.82
   1  -8  -2    1.22    4.81
  -1   8   2   20.37    6.73
   1  -8  -1  236.33   39.66
   1  -8  -1  308.41   40.20
  -1   8   1  299.24   24.03
  -1   8   1  302.73   25.64
  -1   8   0   97.70   21.72
  -1   8   0  106.95   14.27
  -1   8   0  112.65   14.86
   1  -8   0   88.68   24.36
  -1   8  -1   28.11    7.04
   1  -8   1   30.22   17.04
  -1   8  -1   26.96    7.10
  -1   8  -1   14.85   10.78
  -1   8  -2   22.40   10.96
   1  -8   2   23.84    8.15
  -1   8  -2   15.22    5.12
   1  -8   2   26.32   15.50
   1  -8   3  107.36   27.29
   1  -8   3  131.77   17.81
  -1   8  -3  154.63   26.82
  -1   8  -3  155.17   15.90
   1  -8   4  203.34   38.19
   1  -8   4  203.84   21.54
  -1   8  -4  233.59   33.19
  -1   8  -4  234.29   19.75
  -1   8  -5   12.94    5.13
   1  -8   5    4.98    5.82
  -1   8  -5    0.74    3.36
  -1   8  -5   16.31    8.57
   1  -8   5   15.09    6.99
   1  -8   6   37.83   16.79
   1  -8   6   50.89   10.53
  -1   8  -6   46.83   14.19
  -1   8  -6   32.61   10.17
  -1   8  -7  194.81   32.97
   1  -8   7  188.41   38.30
  -1   8  -7  142.25   20.26
  -1   8  -8   74.29   13.88
  -1   8  -8   90.00   24.20
   1  -8   8   72.07   23.82
  -1   8  -9   30.44    8.97
  -1   8 -10    3.56    3.75
  -1   8 -11   19.44    7.32
  -1   8 -12    2.10    2.47
   1  -7  -8   51.41    6.17
   1  -7  -7   43.01    6.66
  -1   7   7   34.62    8.13
  -1   7   6    1.67    3.75
  -1   7   5    8.62    6.92
  -1   7   4   22.89    7.23
   1  -7  -3   20.15   11.09
  -1   7   3   14.34    6.04
   1  -7  -3    0.81    2.74
  -1   7   3    3.16    3.72
   1  -7  -2  224.50   37.13
   1  -7  -2  239.19   32.32
  -1   7   2  192.21   18.74
  -1   7   2  208.82   21.41
  -1   7   1  733.84   35.37
   1  -7  -1  848.61   69.21
  -1   7   1  766.90   38.21
   1  -7   0 1287.23   86.67
  -1   7   0 1389.40   79.43
  -1   7   0 1344.31   46.80
  -1   7  -1  411.48   24.31
  -1   7  -1  399.55   40.63
   1  -7   2  393.43   47.18
  -1   7  -2  439.09   39.66
  -1   7  -2  484.55   43.38
  -1   7  -3 2336.98   93.34
  -1   7  -3 2462.94   62.74
  -1   7  -4 2568.44   66.23
  -1   7  -4 2805.49   98.46
  -1   7  -4 2528.64  100.44
  -1   7  -4 2721.52   71.87
  -1   7  -5 1142.13   43.07
  -1   7  -5 1022.76   62.93
   1  -7   5 1210.36   85.61
   1  -7   6  114.35   15.11
  -1   7  -6   89.65   18.92
  -1   7  -6   91.78   12.16
   1  -7   6   83.96   23.26
  -1   7  -7 1351.22   79.48
  -1   7  -7 1503.90   49.37
   1  -7   7 1497.49   55.81
  -1   7  -8 1936.82   58.21
  -1   7  -8 1720.89   95.45
  -1   7  -9  322.33   43.42
  -1   7  -9  347.71   24.65
  -1   7 -10    8.64    4.41
  -1   7 -11  216.09   20.02
  -1   7 -12  125.18   14.94
  -1   7 -13   15.88    4.87
   1  -6  -9    4.64    1.85
  -1   6   8    6.22    5.31
   1  -6  -8    1.80    2.05
   1  -6  -7   -2.25    2.20
  -1   6   7    2.61    3.11
   1  -6  -7    5.10    2.77
  -1   6   6  105.98   14.92
   1  -6  -6  111.15   14.15
   1  -6  -5  370.47   24.56
   1  -6  -5  369.43   39.78
  -1   6   5  381.08   29.27
   1  -6  -4  489.02   26.24
  -1   6   4  423.32   37.47
   1  -6  -4  498.49   44.25
  -1   6   4  495.58   32.04
   1  -6  -3  303.27   40.71
  -1   6   3  223.52   24.85
   1  -6  -3  262.44   31.77
  -1   6   3  241.56   20.95
   1  -6  -2  202.41   28.47
  -1   6   2  183.24   17.03
   1  -6  -2  130.10   27.20
   1  -6  -2  219.08   33.92
   1  -6  -1 3742.08  139.58
  -1   6   1 2916.52  111.94
  -1   6   0 5572.08  151.12
   1  -6   0 5588.22  174.02
  -1   6   0 5829.92  146.20
  -1   6  -1 1777.60   76.10
   1  -6   1 1637.45   91.64
  -1   6  -2   67.83   14.44
   1  -6   2   52.13   16.35
  -1   6  -2   93.00   16.51
  -1   6  -3 4613.23  126.42
   1  -6   3 4628.80  153.00
  -1   6  -4 5199.56  137.66
  -1   6  -4 5689.12  135.29
  -1   6  -5 2001.60   80.47
  -1   6  -5 1769.31   77.67
  -1   6  -6   13.16    4.06
  -1   6  -6   13.71    5.99
   1  -6   6   13.19    8.83
   1  -6   7 1477.25   50.55
  -1   6  -7 1398.96   77.52
  -1   6  -7 1446.30   43.94
   1  -6   8 1881.16   59.08
  -1   6  -8 1825.26   95.44
  -1   6  -8 1651.18   49.70
   1  -6   9  564.85   32.67
  -1   6  -9  553.04   28.93
  -1   6  -9  490.84   53.27
  -1   6 -10    2.14    2.63
  -1   6 -11  143.37   14.58
  -1   6 -12  139.38   13.84
  -1   6 -13   57.77    8.59
   1  -5 -10   24.21    4.15
   1  -5  -9   70.07    8.45
   1  -5  -9   67.94   11.50
   1  -5  -8   45.73    7.52
   1  -5  -8   39.23    9.54
  -1   5   8   36.84    9.69
  -1   5   7   -0.95    5.22
   1  -5  -7    7.14    4.91
   1  -5  -7   -1.15    3.04
   1  -5  -6    4.22    3.64
  -1   5   6    6.14    5.25
   1  -5  -6   14.94    9.53
   1  -5  -5   64.23   15.77
  -1   5   5   55.17   10.28
   1  -5  -5   67.38   10.13
  -1   5   4  475.63   30.18
   1  -5  -4  479.94   41.02
  -1   5   4  367.55   34.90
   1  -5  -3  816.03   51.49
   1  -5  -3  841.64   52.52
   1  -5  -2   60.77   16.32
   1  -5  -2   91.72   20.60
   1  -5  -2   60.99   14.56
  -1   5   1 2413.04   90.79
  -1   5   1 2335.36   73.26
   1  -5   0 4130.69  134.12
  -1   5   0 4408.31  117.93
   1  -5   1 1380.43   75.43
  -1   5  -1 1261.33   59.86
  -1   5  -2   22.82    8.44
   1  -5   2   35.79   12.25
   1  -5   3 2109.99   90.93
  -1   5  -3 2019.81   68.85
  -1   5  -4 2590.32   81.59
  -1   5  -4 2461.33   87.16
  -1   5  -5  605.88   41.53
  -1   5  -5  668.77   45.19
   1  -5   5  620.86   48.21
  -1   5  -6    4.20    5.74
   1  -5   6    8.76    5.73
  -1   5  -7  235.17   30.31
  -1   5  -7  214.81   14.82
   1  -5   7  196.69   29.65
   1  -5   7  241.71   33.00
  -1   5  -8   60.08   17.14
   1  -5   8   70.04    9.74
   1  -5   8   57.14   18.49
  -1   5  -8   56.19    8.60
   1  -5   9   18.38    6.42
  -1   5  -9   20.04    5.06
  -1   5  -9    3.36    5.46
   1  -5  10   20.11    6.31
  -1   5 -10   20.55    6.32
  -1   5 -11   24.55    6.46
   1  -5  11   30.12    8.61
  -1   5 -12   53.54    7.86
  -1   5 -13    3.34    2.13
   1  -4 -11   53.90    6.12
  -1   4  11   45.19    5.82
   1  -4 -10  150.98   11.76
   1  -4 -10  157.36   17.65
   1  -4  -9  569.19   35.91
   1  -4  -9  542.46   25.65
   1  -4  -8  334.30   27.30
  -1   4   8  315.17   29.53
   1  -4  -8  344.81   21.00
   1  -4  -7   11.52    7.40
  -1   4   7   16.61    7.21
   1  -4  -7   15.70    5.18
   1  -4  -7   13.73    5.40
   1  -4  -6   52.82    9.34
   1  -4  -6   56.72   15.09
  -1   4   6   43.56    9.72
  -1   4   5   14.09    5.93
   1  -4  -5    6.45    3.38
  -1   4   5    6.19    2.96
  -1   4   4  321.35   32.11
   1  -4  -4  370.88   33.71
  -1   4   3   17.26    7.21
   1  -4  -3   14.01    8.36
   1  -4  -3   18.20    7.67
   1  -4  -3   10.91    5.48
   1  -4  -2   25.13    8.73
   1  -4  -2   31.64   10.04
  -1   4   2   35.95    9.21
   1  -4  -2   46.78   14.55
   1  -4  -1  121.31   21.25
  -1   4   1  123.57   17.69
  -1   4   1   93.89   16.62
  -1   4   0  187.51   20.75
   1  -4   0  241.23   27.94
  -1   4  -1  637.59   33.28
   1  -4   1  556.44   41.85
  -1   4  -2   37.92    8.08
  -1   4  -2   39.59    9.15
   1  -4   2   37.36   11.60
  -1   4  -3   16.91    6.97
   1  -4   3   16.26    7.41
  -1   4  -3   16.99    6.05
   1  -4   4  189.59   22.71
  -1   4  -4  209.03   23.10
   1  -4   4  192.33   20.75
  -1   4  -4  193.09   19.69
  -1   4  -5    0.02    2.34
   1  -4   5    5.60    4.01
   1  -4   5    1.58    3.55
  -1   4  -5    2.58    3.54
   1  -4   6   41.13   11.64
  -1   4  -6   46.36   12.25
  -1   4  -6   55.94   13.52
  -1   4  -6   38.78   12.01
   1  -4   6   41.51   11.50
  -1   4  -7  659.68   25.23
   1  -4   7  543.41   47.97
  -1   4  -7  695.33   52.27
   1  -4   7  585.32   48.04
  -1   4  -7  665.78   51.20
  -1   4  -8 1314.68   40.47
   1  -4   8 1349.20   42.32
   1  -4   8 1207.88   79.16
  -1   4  -8 1402.67   82.80
  -1   4  -9  694.71   30.31
  -1   4  -9  677.07   62.24
   1  -4   9  701.58   31.83
   1  -4   9  604.19   60.72
   1  -4  10    1.35    6.92
   1  -4  10    3.67    3.59
  -1   4 -10    2.92    3.46
   1  -4  11  527.63   28.66
  -1   4 -11  517.52   27.78
   1  -4  12  956.98   36.99
  -1   4 -12  915.76   34.96
  -1   4 -13  568.02   24.27
   1  -3 -11   49.75    6.74
   1  -3 -11   58.18   11.15
  -1   3  11   34.91    5.86
   1  -3 -10   97.81   10.38
   1  -3 -10   91.88   14.82
   1  -3  -9  492.90   24.97
   1  -3  -9  473.35   34.01
   1  -3  -8  297.81   26.01
   1  -3  -8  272.92   19.13
  -1   3   8  261.04   26.22
   1  -3  -8  285.65   36.85
   1  -3  -7   19.14    9.77
  -1   3   7   19.09    7.65
   1  -3  -7   19.64    4.83
  -1   3   7   12.04    7.25
   1  -3  -7   18.79    6.04
  -1   3   6   -2.15    3.54
  -1   3   6    3.02    4.00
   1  -3  -6    5.81    5.94
   1  -3  -6    0.79    1.94
   1  -3  -5   58.26   13.36
  -1   3   5   72.39   16.10
   1  -3  -4   11.12    4.39
  -1   3   4   25.16    8.71
   1  -3  -4   13.24    7.20
  -1   3   3    3.42    3.37
   1  -3  -3   11.25    5.33
   1  -3  -3    9.79    6.97
   1  -3  -3    6.74    4.59
   1  -3  -2  511.18   38.12
  -1   3   2  508.85   33.04
  -1   3   2  632.76   34.14
   1  -3  -2  477.81   31.30
   1  -3  -2  589.30   43.00
  -1   3   1   12.70    5.07
  -1   3   1   10.86    5.89
   1  -3  -1   12.80    5.65
  -1   3   0   13.19    5.63
  -1   3   0   11.37    3.95
   1  -3   0   13.22    6.80
  -1   3  -1   57.85   10.59
   1  -3   1   88.16   14.31
  -1   3  -1   77.61    9.12
  -1   3  -2    7.67    5.69
   1  -3   2    7.22    4.90
  -1   3  -2    3.14    2.50
  -1   3  -3  507.55   28.32
  -1   3  -3  435.56   25.04
   1  -3   3  418.82   26.89
   1  -3   3  433.63   28.21
  -1   3  -3  400.47   24.43
   1  -3   4 2235.20   71.30
   1  -3   4 1959.09   67.19
  -1   3  -4 2135.78   64.49
  -1   3  -4 2003.89   62.78
  -1   3  -5 2120.35   69.13
   1  -3   5 2367.55   78.10
  -1   3  -5 2201.97   75.02
   1  -3   5 2237.52   79.68
   1  -3   6  154.94   20.76
   1  -3   6  140.03   22.04
  -1   3  -6  116.24   18.53
  -1   3  -6  126.36   19.65
  -1   3  -7 1871.70   86.83
  -1   3  -7 1801.21   78.02
   1  -3   7 1722.72   77.36
  -1   3  -8 3714.69   70.93
   1  -3   8 3675.10   72.26
   1  -3   9 1970.82  112.00
  -1   3  -9 2012.69   53.07
   1  -3   9 2130.41   55.56
  -1   3  -9 2142.25  111.19
   1  -3  10  115.90   30.39
  -1   3 -10  155.18   30.68
  -1   3 -10  135.72   14.55
   1  -3  10  169.46   15.43
   1  -3  11  903.49   36.64
  -1   3 -11  808.39   34.59
   1  -3  12 1622.85   47.76
  -1   3 -12 1512.92   44.93
  -1   3 -13  679.21   26.21
   1  -2 -12   74.10    7.74
  -1   2  12   69.95    6.74
  -1   2  11   23.99    4.95
   1  -2 -11   32.97    6.20
   1  -2 -11   27.04    9.37
   1  -2 -10   14.41    4.17
   1  -2 -10    8.42    4.04
   1  -2  -9   10.25    6.62
   1  -2  -9    9.37    4.42
  -1   2   9   16.58    8.47
   1  -2  -8  130.10   12.78
   1  -2  -8  126.94   16.19
  -1   2   8  107.19   24.66
   1  -2  -8  163.86   28.29
   1  -2  -7   12.35    4.17
   1  -2  -7   18.14    8.95
  -1   2   7    8.14    7.09
  -1   2   7   13.73    6.14
   1  -2  -7   18.74    6.07
  -1   2   6   34.50   12.32
   1  -2  -6   20.05    8.35
   1  -2  -5 1251.27   59.49
  -1   2   5 1130.20   61.33
   1  -2  -4  825.29   44.46
   1  -2  -4  858.34   31.17
  -1   2   3  680.63   37.62
   1  -2  -3  629.74   28.47
   1  -2  -2  505.16   26.51
  -1   2   2  479.99   25.17
  -1   2   2  541.85   31.95
   1  -2  -2  479.29   34.82
   1  -2  -1 1748.25   62.19
  -1   2   1 1850.22   48.91
  -1   2   0   43.25    7.99
  -1   2   0   42.90    5.33
   1  -2   0   39.64    8.67
  -1   2  -1  183.52   14.45
  -1   2  -1  163.82   10.39
  -1   2  -2  228.73   16.16
   1  -2   2  179.74   15.05
   1  -2   2  208.01   15.56
  -1   2  -2  172.31   12.76
   1  -2   3 1103.08   38.54
  -1   2  -3 1163.38   39.55
   1  -2   4 1455.57   49.14
  -1   2  -4 1579.05   55.35
   1  -2   4 1410.03   55.53
   1  -2   5 1246.29   58.74
  -1   2  -5 1430.18   59.91
  -1   2  -6    6.39    4.30
   1  -2   6    9.50    5.30
  -1   2  -7  915.54   60.10
   1  -2   7  726.33   56.54
   1  -2   8 1605.94   93.67
  -1   2  -8 1883.04   96.32
  -1   2  -8 1856.48   65.18
  -1   2  -8 1761.77   45.75
   1  -2   8 1716.33   46.28
  -1   2  -9 1396.46   88.89
  -1   2  -9 1298.82   41.34
   1  -2   9 1307.60   42.49
   1  -2   9 1174.72   88.59
  -1   2 -10   26.06    6.66
   1  -2  10   34.15    7.18
  -1   2 -11  196.68   16.45
   1  -2  11  221.20   17.27
   1  -2  12  398.80   21.79
  -1   2 -12  395.57   21.29
   1  -2  13  179.75   12.19
  -1   2 -13  163.39   11.72
   1  -1 -12  257.56   16.29
   1  -1 -11   72.28    9.65
  -1   1  11   76.15    9.29
   1  -1 -11   92.86   15.97
   1  -1 -10  138.03   13.78
   1  -1 -10  155.08   20.54
  -1   1   9 1727.41  106.96
   1  -1  -9 1713.31   66.88
   1  -1  -9 1562.92   47.54
   1  -1  -8 2657.27   61.07
  -1   1   8 2713.05  124.61
   1  -1  -8 2763.30  120.29
   1  -1  -8 2786.82   78.75
   1  -1  -7  528.94   24.06
   1  -1  -7  574.67   30.57
   1  -1  -7  649.24   52.70
  -1   1   7  547.79   50.16
   1  -1  -6  232.27   28.23
  -1   1   6  237.39   29.95
   1  -1  -5 4346.54  116.07
   1  -1  -5 4518.61   76.07
  -1   1   5 4521.20  122.37
  -1   1   4 6045.17  130.55
   1  -1  -4 6253.58   95.28
  -1   1   3 1594.72   55.38
   1  -1  -3 1558.44   41.10
   1  -1  -2  293.62   17.32
  -1   1   2  346.63   16.61
   1  -1  -2  321.70   16.64
  -1   1   1  484.44   20.47
   1  -1  -1  492.14   23.66
   1  -1  -1  433.22   12.90
   1  -1   0 1695.60   49.73
   1  -1   0 1779.18   44.08
   1  -1   1 1173.96   40.88
   1  -1   1 1152.10   30.14
  -1   1  -1 1185.62   26.32
   1  -1   2   76.62    6.59
   1  -1   2   72.39    9.39
  -1   1  -2   62.57    7.65
  -1   1  -3   45.34    8.03
   1  -1   3   43.59    6.37
   1  -1   3   45.56    8.47
   1  -1   4  141.67    8.65
   1  -1   4  180.89   19.92
  -1   1  -5  290.37   27.35
   1  -1   5  255.77   26.52
   1  -1   6  120.19   20.76
  -1   1  -6  121.32   20.15
  -1   1  -7   30.74   11.57
   1  -1   7   23.20   10.20
  -1   1  -7   24.38    4.61
  -1   1  -8  319.55   26.41
   1  -1   8  251.81   37.44
  -1   1  -8  341.47   40.98
  -1   1  -8  274.40   17.08
  -1   1  -9  143.40   28.86
  -1   1  -9  121.38   11.64
   1  -1   9  117.33   12.44
   1  -1   9  140.31   30.53
  -1   1  -9  136.59   18.30
  -1   1 -10    4.51    3.57
   1  -1  10    2.94    2.38
   1  -1  11    4.24    2.86
  -1   1 -11    3.25    2.55
  -1   1 -12   44.93    6.80
   1  -1  12   43.87    7.35
   1   0 -13  532.98   21.70
   1   0 -12 1176.58   38.71
   1   0 -11  267.69   26.99
   1   0 -11  241.90   18.33
  -1   0  11  261.13   17.72
   1   0 -10  130.14   19.13
  -1   0  10  131.74   12.37
   1   0 -10  118.33   13.40
   1   0  -9 2950.82   88.54
  -1   0   9 3120.00  143.35
   1   0  -9 3193.49   71.46
  -1   0   8 3843.46  145.52
   1   0  -8 3840.04   75.07
   1   0  -8 3573.08   90.19
   1   0  -7 2516.74  105.13
  -1   0   7 2039.13   95.97
   1   0  -6  295.28   31.06
  -1   0   6  276.44   30.98
  -1   0   5 4772.89  121.00
   1   0  -5 4944.49   87.45
   1   0  -4 5083.80   82.85
  -1   0   4 4752.39  109.35
   1   0  -3 2757.71   54.89
   1   0  -3 2759.83   61.84
   1   0  -2  274.67   14.30
   1   0  -2  252.75   13.14
  -1   0   2  260.88    9.16
  -1   0   2  273.06   18.81
  -1   0   1 1018.68   21.79
   1   0  -1 1090.43   28.02
   1   0   0 2558.81   44.28
   1   0   0 2466.02   44.98
   1   0   1   76.68    5.64
  -1   0  -1   89.27    9.03
   1   0   1   83.84    8.38
   1   0   2    4.94    1.19
   1   0   2    4.97    1.81
   1   0   3    1.62    3.60
  -1   0  -3   -1.63    3.99
   1   0   4    2.53    2.11
  -1   0  -4    6.14    5.49
   1   0   5   48.37   11.81
  -1   0  -5   43.91   10.91
  -1   0  -6   18.76    8.72
   1   0   6   27.60    9.90
   1   0   7   14.25    7.46
  -1   0  -7    8.17    2.61
  -1   0  -7   10.54    5.16
  -1   0  -7   10.85    6.69
  -1   0  -8   69.56   19.53
  -1   0  -8   67.80    8.54
   1   0   8   60.54   17.83
  -1   0  -8   58.09   11.27
  -1   0  -9  289.76   18.73
   1   0   9  244.15   40.05
  -1   0  -9  287.61   40.60
  -1   0  -9  294.79   27.70
  -1   0 -10   15.86    4.86
   1   0  10    9.61    4.88
  -1   0 -11   64.03    8.57
   1   0  11   66.64    9.49
  -1   0 -12  266.83   15.90
   1   0  12  267.69   16.08
   1   1 -13  305.98   17.70
   1   1 -12  672.07   30.61
   1   1 -11  358.62   31.99
   1   1 -11  303.92   22.16
   1   1 -10   33.40    8.71
   1   1 -10   11.67    7.14
   1   1 -10   41.41    8.21
  -1  -1  10   38.70   16.30
   1   1  -9 1174.85   53.69
   1   1  -9 1265.84   43.03
  -1  -1   9 1244.55   86.57
   1   1  -9 1348.21   90.27
   1   1  -8 1921.40   63.43
   1   1  -8 2004.80   52.26
  -1  -1   8 2057.57  103.40
   1   1  -7 1391.85   75.80
  -1  -1   7 1270.81   71.78
  -1  -1   6   55.93   12.88
   1   1  -6   41.30   11.48
  -1  -1   5  654.88   40.60
   1   1  -5  560.40   36.46
   1   1  -4  898.78   35.42
  -1  -1   4  942.43   42.23
   1   1  -4  893.15   39.44
   1   1  -3  405.05   22.39
  -1  -1   3  434.03   24.41
   1   1  -3  416.48   21.67
   1   1  -2  261.96   15.67
  -1  -1   2  285.84   16.35
   1   1  -2  251.14   16.52
   1   1  -1   48.37    7.73
   1   1  -1   68.82    8.24
   1   1   0  423.44   22.86
  -1  -1   0  493.91   21.05
   1   1   1  343.87   16.14
  -1  -1  -1  390.44   25.43
  -1  -1  -1  332.81   19.69
   1   1   1  358.32   25.04
  -1  -1  -2   94.92    9.82
  -1  -1  -2   74.49   11.67
   1   1   2   76.16    9.71
  -1  -1  -3  742.59   39.12
   1   1   3  560.25   31.50
   1   1   4  805.06   43.86
  -1  -1  -4  893.29   47.77
   1   1   5  270.24   28.95
  -1  -1  -5  221.73   26.60
  -1  -1  -6    1.97    4.83
   1   1   6   -2.52    5.44
  -1  -1  -7   77.84    9.28
   1   1   7   75.83   12.66
  -1  -1  -7   80.33   12.85
   1   1   7   76.13   20.24
  -1  -1  -7   68.51   16.90
  -1  -1  -8    4.55    4.11
  -1  -1  -8    9.49    5.92
   1   1   8    2.01    5.22
  -1  -1  -8    6.55    2.88
  -1  -1  -9   13.39    6.28
  -1  -1  -9    8.93    3.53
  -1  -1 -10   55.79    8.51
   1   1  10   56.33    8.82
  -1  -1 -11    8.09    2.90
   1   1  11   12.84    3.77
   1   1  12  227.93   13.57
  -1  -1 -12  219.45   12.96
   1   2 -13    9.48    4.09
   1   2 -13    8.48    3.52
   1   2 -12   38.84    8.13
   1   2 -11  172.95   22.38
   1   2 -11  153.69   16.57
  -1  -2  10    0.98    7.38
   1   2 -10    1.11   11.04
   1   2 -10   -0.67    4.78
   1   2 -10    2.33    2.99
   1   2  -9   18.10    9.66
  -1  -2   9   11.96    7.47
   1   2  -9    8.43    3.17
   1   2  -9    3.25    5.66
   1   2  -9   13.41    6.62
   1   2  -8    5.38    2.93
  -1  -2   8   -1.91    6.39
   1   2  -8   12.28    8.43
  -1  -2   7    6.56    5.36
   1   2  -7   13.99    8.11
  -1  -2   6   27.22    9.22
   1   2  -6   30.26   10.33
   1   2  -5 1434.23   61.15
  -1  -2   5 1541.04   60.22
   1   2  -5 1426.57   59.22
  -1  -2   4 1291.42   48.39
   1   2  -4 1380.82   53.97
  -1  -2   3 2759.84   62.99
   1   2  -3 2893.82   72.60
  -1  -2   2   12.86    3.08
   1   2  -2    9.73    4.31
   1   2  -1 4114.74   86.44
  -1  -2   1 3754.08   45.89
   1   2   0 9005.93  157.78
  -1  -2   0 9598.00  151.86
  -1  -2  -1 4087.52   97.37
   1   2   1 3894.81  104.23
   1   2   2   41.40    6.74
  -1  -2  -2   35.33    8.52
  -1  -2  -2   28.19    9.30
   1   2   3 2170.61   65.42
  -1  -2  -3 2081.18   76.94
   1   2   4 4226.11  109.43
  -1  -2  -4 3651.66  110.41
   1   2   5 1191.31   63.90
  -1  -2  -5  976.66   60.15
  -1  -2  -6   14.77    4.34
  -1  -2  -6   19.79   10.31
   1   2   6   22.91    6.01
  -1  -2  -7  151.30   13.35
   1   2   7  132.00   17.29
  -1  -2  -7  167.77   18.91
  -1  -2  -7  129.62   24.26
  -1  -2  -8  176.41   20.64
  -1  -2  -8  187.63   31.36
  -1  -2  -8  195.25   15.35
  -1  -2  -9   28.14    5.69
  -1  -2  -9   23.21    7.19
   1   2  10    9.47    4.14
   1   2  10    0.55    2.46
  -1  -2 -10   11.07    3.78
   1   2  11   -0.21    1.41
   1   2  11    3.23    1.49
   1   3 -13   -7.74    3.72
   1   3 -13    0.94    2.25
   1   3 -12   32.39    7.29
   1   3 -11   87.90   12.64
  -1  -3  10    7.43    9.71
   1   3 -10   -5.26    9.32
  -1  -3  10    5.59    6.84
   1   3 -10    6.03    3.81
   1   3 -10    1.85    5.08
   1   3  -9  477.84   26.73
   1   3  -9  477.58   33.77
  -1  -3   9  486.36   52.47
   1   3  -9  382.28   52.44
   1   3  -8  861.39   33.14
  -1  -3   8  928.66   66.08
   1   3  -8  882.52   42.28
   1   3  -8  812.79   69.12
   1   3  -7  714.48   54.74
  -1  -3   7  730.08   51.99
   1   3  -6   75.93   16.30
  -1  -3   6   73.09   14.81
   1   3  -5 2568.94   87.32
  -1  -3   5 2520.45   77.45
  -1  -3   4 7155.25  124.37
   1   3  -4 6652.61  141.09
   1   3  -3 3554.95   89.29
  -1  -3   3 3496.42   97.02
  -1  -3   2    5.38    2.03
  -1  -3   2    5.72    5.82
   1   3  -2    3.16    3.53
  -1  -3   1 4567.41  110.64
   1   3  -1 4497.83  111.87
   1   3   0 8985.49  183.00
  -1  -3  -1 5619.43  134.70
   1   3   1 4732.06  133.83
  -1  -3  -2  175.21   22.21
  -1  -3  -2  175.80   23.94
  -1  -3  -3 1388.26   69.27
  -1  -3  -3 1498.04   65.13
  -1  -3  -4 2189.48   91.90
  -1  -3  -5 1600.77   81.93
   1   3   5 1630.28   56.35
   1   3   5 1411.34   67.05
  -1  -3  -6   55.93    9.71
  -1  -3  -6   86.68   19.64
   1   3   6   71.60   12.79
  -1  -3  -7  114.94   13.13
   1   3   7  113.96   15.74
  -1  -3  -7  111.49   23.23
  -1  -3  -8  221.26   16.54
  -1  -3  -9   30.81    5.90
  -1  -3 -10    8.90    2.77
   1   3  10   10.72    2.73
   1   4 -13    2.37    2.36
   1   4 -12    0.87    2.35
   1   4 -12   -1.13    2.89
   1   4 -11    2.86    3.32
   1   4 -11    4.32    3.76
  -1  -4  10  -10.64   12.88
   1   4 -10   18.58   12.79
   1   4 -10   10.58    5.59
  -1  -4  10   22.56   17.29
  -1  -4   9  152.42   28.52
   1   4  -9  127.15   28.20
   1   4  -9  140.62   14.71
  -1  -4   9  132.22   29.23
   1   4  -8  286.10   19.75
  -1  -4   8  277.70   40.62
  -1  -4   8  306.87   37.25
   1   4  -8  325.14   42.36
  -1  -4   7  632.85   48.26
  -1  -4   7  730.37   63.16
   1   4  -7  706.08   57.26
   1   4  -6    2.83    2.40
  -1  -4   6    7.19    4.26
  -1  -4   5  989.28   47.31
   1   4  -5  904.08   54.32
  -1  -4   5  885.07   59.51
   1   4  -4 4256.60  116.32
  -1  -4   4 4420.51  130.29
  -1  -4   4 4398.14   91.49
  -1  -4   3 3804.40   69.45
   1   4  -3 3779.59  107.22
  -1  -4   2   86.81   16.49
   1   4  -2   95.00   17.23
  -1  -4   1 1317.04   69.37
   1   4  -1 1697.12   75.17
  -1  -4   0 4252.04  131.99
   1   4   0 3897.99  126.52
  -1  -4  -1 2317.63   94.90
   1   4   1 2199.45   98.96
  -1  -4  -2  156.90   25.89
  -1  -4  -2  158.65   24.17
  -1  -4  -3  250.74   31.48
  -1  -4  -3  276.53   31.87
  -1  -4  -4  242.68   32.68
   1   4   4  297.07   23.30
   1   4   4  274.83   26.40
  -1  -4  -5   50.37   16.72
   1   4   5   39.46    8.97
   1   4   5   49.66   13.09
  -1  -4  -6    0.36    3.03
  -1  -4  -6   -0.50    4.76
  -1  -4  -7   39.66    7.14
   1   4   7   23.67    8.16
  -1  -4  -8  122.29   11.89
   1   4   9   55.59    9.20
  -1  -4  -9   94.64    9.51
   1   4  10    2.93    2.09
   1   4  10    1.73    2.09
  -1  -4 -10    3.98    1.91
   1   5 -13  241.86   18.34
   1   5 -12  327.09   24.00
   1   5 -12  266.59   17.29
   1   5 -11   41.73    9.42
   1   5 -11   60.64    9.50
   1   5 -10   41.71    7.83
   1   5 -10   47.54    8.75
  -1  -5  10   55.21   18.60
   1   5  -9   25.78    7.35
  -1  -5   9   42.13   17.82
   1   5  -9   33.52    8.08
   1   5  -9   29.09   15.86
  -1  -5   9   31.39   11.14
   1   5  -8   83.00   22.72
   1   5  -8   64.07   10.62
  -1  -5   8   72.89   17.69
   1   5  -8   90.22   12.04
  -1  -5   8  112.28   27.41
   1   5  -7  169.94   29.15
   1   5  -7  178.03   15.31
   1   5  -7  138.33   14.61
  -1  -5   7  212.01   36.21
  -1  -5   7  160.02   24.00
   1   5  -6    5.81    6.04
  -1  -5   6    9.90    5.11
  -1  -5   6   10.59    7.43
  -1  -5   5  198.57   30.67
   1   5  -5  216.37   29.57
  -1  -5   5  249.02   23.44
  -1  -5   4  326.66   37.34
   1   5  -4  344.17   35.89
  -1  -5   3  153.55   24.99
   1   5  -3  160.55   24.35
  -1  -5   2   21.07   11.46
   1   5  -2   14.98    7.03
  -1  -5   1    9.03    8.09
   1   5  -1   -0.87    4.62
  -1  -5   0   27.88   12.64
   1   5   0   31.08   12.23
   1   5   1   34.37   13.91
  -1  -5  -1   46.10   14.41
  -1  -5  -1   24.10   14.14
   1   5   2   14.29    5.25
  -1  -5  -2   -4.58    6.96
  -1  -5  -2    3.35    6.15
   1   5   2    4.85    4.67
  -1  -5  -3  449.50   47.23
   1   5   3  393.44   27.62
   1   5   3  387.98   29.87
  -1  -5  -4  873.45   66.70
   1   5   4  818.27   49.81
   1   5   4  835.11   43.17
   1   5   5  934.05   46.89
  -1  -5  -5  989.95   72.21
   1   5   5  980.96   58.07
  -1  -5  -6   65.45    9.78
   1   5   6   65.62   12.29
   1   5   7  304.68   25.90
  -1  -5  -7  313.46   19.43
  -1  -5  -8  820.90   28.78
   1   5   8  604.14   30.08
   1   5   9  357.74   20.49
  -1  -5  -9  609.02   20.87
   1   6 -13  184.37   16.61
   1   6 -12  514.89   31.04
   1   6 -11   71.87   12.83
   1   6 -11   53.21    8.09
   1   6 -10    8.72    4.24
   1   6 -10   11.03    6.08
   1   6  -9    2.56    4.55
   1   6  -9    9.32    4.95
   1   6  -9    2.82    3.14
  -1  -6   9    4.35   13.05
   1   6  -8   89.61   25.83
   1   6  -8   74.67   13.43
   1   6  -8   61.79   10.80
   1   6  -7   58.32   18.88
   1   6  -7   35.72    7.84
   1   6  -7   38.68   10.73
  -1  -6   7   54.15   19.19
   1   6  -6   -0.76    2.44
  -1  -6   6   10.22    4.91
   1   6  -6   -1.98    2.26
   1   6  -6    3.22    5.27
   1   6  -5   29.67   13.77
   1   6  -5   32.61    6.42
   1   6  -5   11.55    8.12
  -1  -6   5   39.99   15.31
  -1  -6   4   43.13   15.61
   1   6  -4   31.69   12.70
  -1  -6   3   90.02   23.19
   1   6  -3   64.56   17.75
  -1  -6   2    7.10    4.05
   1   6  -2    5.89    6.73
   1   6  -1  255.73   36.90
   1   6  -1  234.07   18.68
  -1  -6   1  276.03   40.05
  -1  -6   0  733.23   63.93
   1   6   0  588.37   31.57
   1   6   0  741.21   66.21
   1   6   0  623.87   34.01
  -1  -6  -1 1015.64   74.57
   1   6   1 1113.18   83.74
  -1  -6  -1 1139.43   83.82
   1   6   1 1064.24   44.78
   1   6   1 1091.67   48.77
  -1  -6  -2  188.26   32.04
   1   6   2  177.58   20.01
   1   6   2  169.46   18.74
   1   6   3  530.05   37.58
  -1  -6  -3  537.99   54.19
   1   6   3  499.23   33.26
   1   6   4 2151.74   84.44
  -1  -6  -4 2154.04  107.94
   1   6   4 2157.86   72.78
   1   6   5 1720.97   64.04
  -1  -6  -6  287.94   18.76
   1   6   6  233.77   22.63
   1   6   7  135.31   13.24
  -1  -6  -7  183.45   13.36
   1   6   7  180.67   18.31
   1   6   8  471.09   23.82
  -1  -6  -8 1199.14   29.08
   1   7 -13    6.53    3.72
   1   7 -12   -2.20    2.61
   1   7 -11   -1.39    3.84
   1   7 -10   12.36    6.47
   1   7 -10   15.17    4.82
   1   7  -9   60.79   12.19
   1   7  -9   60.38   10.02
   1   7  -8   96.32   19.30
  -1  -7   8  209.03   41.57
   1   7  -8  144.26   15.66
   1   7  -8  175.27   34.56
  -1  -7   7  170.37   35.89
   1   7  -7  164.95   34.10
   1   7  -7  105.51   13.95
  -1  -7   6   -0.96    6.35
   1   7  -6   -0.67    3.58
   1   7  -6    6.69    1.74
  -1  -7   5   49.21   19.23
   1   7  -5   40.09    9.12
   1   7  -5   36.15    7.48
   1   7  -5   44.97   17.27
   1   7  -4   17.93    5.84
   1   7  -4   18.01    5.25
  -1  -7   4   41.39   18.55
   1   7  -4   31.50   14.03
   1   7  -3   11.18    4.32
   1   7  -3    6.91    3.56
   1   7  -3    5.97    3.53
  -1  -7   3    4.21   11.18
   1   7  -2   50.04   17.90
  -1  -7   2   25.71   13.12
   1   7  -2   25.88    7.67
   1   7  -2   52.68   10.11
   1   7  -1   99.05   13.67
   1   7  -1  115.70   27.10
  -1  -7   1   97.08   26.29
   1   7  -1  109.96   15.04
   1   7   0  999.30   47.80
  -1  -7   0  814.28   77.38
   1   7   0  963.61   43.86
  -1  -7   0  998.20   80.78
   1   7   0 1107.73   88.03
  -1  -7  -1 1084.62   82.70
   1   7   1  963.40   45.53
   1   7   1 1106.82   52.32
   1   7   2   37.64   10.73
   1   7   2   45.73    9.68
  -1  -7  -2   55.46   17.82
   1   7   3  271.23   27.79
   1   7   3  270.45   24.71
   1   7   4 1228.57   52.27
   1   7   4 1082.83   61.72
   1   7   5 1088.93   46.72
   1   7   5  600.49   31.53
   1   7   6  151.57   15.84
  -1  -7  -6  161.64   12.13
  -1  -7  -7   71.56    6.93
   1   7   7    9.69    3.60
   1   8 -12  579.00   30.89
   1   8 -11  127.27   18.02
   1   8 -10    2.60    4.15
   1   8  -9  395.98   29.78
   1   8  -9  408.37   23.28
   1   8  -8 1167.80   42.23
   1   8  -8 1193.29   52.72
   1   8  -7  415.69   30.58
   1   8  -7  368.22   24.41
  -1  -8   6   15.17   14.87
   1   8  -6   10.33    4.91
   1   8  -6    9.78    5.94
   1   8  -6   18.20   11.52
   1   8  -5  136.70   15.43
   1   8  -5  162.76   18.36
  -1  -8   5  167.16   36.46
   1   8  -5  203.10   39.71
   1   8  -4  285.30   22.14
  -1  -8   4  235.32   43.63
   1   8  -4  321.89   48.39
   1   8  -4  296.86   24.46
   1   8  -3   80.14   12.31
   1   8  -3   99.15   15.14
   1   8  -3  128.06   29.91
   1   8  -2   11.02    6.27
   1   8  -2   10.56    4.89
   1   8  -2   -0.30    9.23
   1   8  -1    8.86    6.80
  -1  -8   1   -2.75   10.65
   1   8  -1  -19.46   15.86
   1   8  -1    1.36    3.39
   1   8   0   58.88   13.21
  -1  -8   0   54.85   19.26
   1   8   0   61.95   12.05
   1   8   1   46.03   11.87
   1   8   1   50.42   10.60
   1   8   2   25.95    9.90
   1   8   2   42.02    9.82
   1   8   3   19.51    7.19
   1   8   3   15.08    5.87
   1   8   4   14.97    5.69
   1   8   4  158.45   16.75
  -1  -8  -5   75.74    7.85
   1   8   5   59.59    9.33
   1   9 -11  762.40   34.57
   1   9 -10    8.91    3.87
   1   9  -9  598.50   34.15
   1   9  -8 1380.37   54.33
   1   9  -8 1351.77   44.80
   1   9  -7  796.58   35.38
   1   9  -7  819.45   41.84
   1   9  -6  131.92   15.18
   1   9  -6  120.91   16.02
   1   9  -5  181.41   19.33
   1   9  -5  186.02   18.65
   1   9  -4  384.44   28.70
   1   9  -4  390.33   27.75
   1   9  -3  129.93   16.78
   1   9  -3  121.48   16.36
   1   9  -2   50.25   10.49
   1   9  -2   56.12   10.93
   1   9  -1   14.82    5.12
   1   9  -1    4.60    3.05
   1   9   0    6.99    5.17
   1   9   0    4.41    4.24
   1   9   1    2.30    2.36
   1   9   1    0.24    3.49
   1   9   2   -4.79    4.36
   1   9   2    2.99    2.34
   1   9   3    9.02    3.79
  -1  -9  -4    3.82    2.28
   1   9   4    8.37    3.78
   1  10 -10   60.60    8.98
   1  10  -9   48.98    8.96
   1  10  -8  149.20   16.09
   1  10  -7  158.91   15.26
   1  10  -7  141.39   16.21
   1  10  -6   47.49    9.23
   1  10  -6   51.69   10.01
   1  10  -5   16.08    5.84
   1  10  -5   22.14    7.12
   1  10  -4   59.50   10.89
   1  10  -4   78.27   11.79
   1  10  -3    4.56    2.37
   1  10  -3    4.41    3.30
   1  10  -2    7.68    5.32
   1  10  -2    4.74    3.76
   1  10  -1   34.59    8.27
   1  10  -1   37.68    8.23
   1  10   0  108.45   13.76
   1  10   0  119.53   14.30
   1  10   1   61.41   10.73
   1  10   1   75.30   10.53
   1  10   2    9.27    3.55
   1  11  -8  194.34   15.20
   1  11  -7  160.31   14.22
   1  11  -6   12.29    4.23
   1  11  -5  228.32   16.70
   1  11  -5  210.90   17.26
   1  11  -4  643.35   29.57
   1  11  -4  656.01   30.54
   1  11  -3  636.95   29.79
   1  11  -3  618.78   29.29
   1  11  -2  131.94   13.37
   1  11  -2  142.33   13.57
   1  11  -1   84.89   10.44
   1  11  -1  139.73   12.85
  -2  12   1  323.83   17.35
  -2  12   0  325.11   18.89
  -2  12  -1   13.72    4.48
  -2  12  -2  186.58   15.17
  -2  12  -3  857.50   33.21
  -2  12  -4  914.42   34.26
  -2  12  -5  337.66   20.27
  -2  12  -6  117.20   11.43
  -2  12  -7  923.25   32.18
  -2  12  -8  922.60   30.62
  -2  11   3    2.06    2.75
  -2  11   2   11.72    4.40
  -2  11   1   70.68   10.13
  -2  11   0  172.98   16.38
  -2  11  -1  134.60   14.66
  -2  11  -2   30.14    6.83
  -2  11  -3  606.50   31.33
  -2  11  -4  882.78   37.74
  -2  11  -5  168.95   15.85
  -2  11  -6   32.22    7.29
  -2  11  -7  215.66   17.64
  -2  11  -8  169.96   14.85
  -2  11  -9   58.41    8.24
  -2  11 -10   -2.21    2.57
  -2  10   5  230.99   15.49
   2 -10  -5  133.68    8.84
  -2  10   4  115.38   12.51
  -2  10   3    1.25    2.95
  -2  10   2   30.17    7.32
  -2  10   1   -0.60    3.31
  -2  10   0   11.87    4.39
  -2  10  -1   23.43    6.32
  -2  10  -2    1.58    2.36
   2 -10   3    9.94    5.84
  -2  10  -3    7.58    4.79
   2 -10   4    6.90    5.34
  -2  10  -4    8.12    4.70
   2 -10   5    0.58    4.06
  -2  10  -5    5.05    3.56
   2 -10   6   76.99   13.64
  -2  10  -6   65.54   10.65
  -2  10  -7  181.70   17.36
   2 -10   7  201.00   20.58
   2 -10   8  178.22   18.57
  -2  10  -8  168.47   15.98
  -2  10  -9   41.75    8.04
  -2  10 -10   21.60    5.15
  -2  10 -11  257.55   16.02
  -2   9   6   54.05    8.32
   2  -9  -6   44.08    5.62
  -2   9   5  169.36   16.21
  -2   9   4  137.54   15.77
  -2   9   3    4.65    3.30
  -2   9   2   10.52    3.45
  -2   9   1   19.47    6.72
   2  -9  -1    6.93    7.73
  -2   9   1   13.64    6.28
   2  -9   0   18.72   13.64
   2  -9   0   12.59    7.84
  -2   9   0    6.39    4.95
   2  -9   1   17.22   12.04
  -2   9  -1    3.28    2.71
   2  -9   1    6.00   11.92
   2  -9   2    8.36   10.78
   2  -9   2   23.01    5.52
   2  -9   2   25.63    7.93
  -2   9  -2   24.11    6.75
  -2   9  -3   27.27   10.56
   2  -9   3   33.06   16.14
   2  -9   3   35.13   10.32
  -2   9  -3   28.26    7.04
   2  -9   4   90.85   15.33
  -2   9  -4   78.04   11.61
   2  -9   4   58.42   20.48
   2  -9   5   38.83   10.15
   2  -9   5   26.07   14.82
  -2   9  -5   44.16   16.35
  -2   9  -5   41.49    9.09
  -2   9  -6   26.84    7.71
   2  -9   6   24.26   13.78
   2  -9   6   22.79    7.95
  -2   9  -7  258.33   21.57
   2  -9   7  290.29   24.78
  -2   9  -8  784.99   37.72
   2  -9   8  893.15   43.37
  -2   9  -8  936.31   42.93
   2  -9   9  357.56   26.60
  -2   9  -9  417.25   27.80
  -2   9  -9  356.42   24.47
  -2   9 -10   -0.10    2.75
  -2   9 -10   -0.40    2.77
  -2   9 -11  634.92   30.30
  -2   9 -11  564.31   27.24
  -2   9 -12  485.06   24.80
  -2   9 -12  592.51   23.37
   2  -8  -7   16.52    3.65
  -2   8   7   21.77    6.03
   2  -8  -6   29.51    5.24
  -2   8   6   33.60    7.86
   2  -8  -5   81.64   10.76
  -2   8   5   93.17   13.52
   2  -8  -4  272.51   19.80
  -2   8   4  283.40   24.25
  -2   8   3  113.80   14.89
   2  -8  -3  134.79   13.55
   2  -8  -2  212.69   16.58
   2  -8  -2  231.35   40.78
  -2   8   2  197.60   21.57
  -2   8   2  220.76   20.53
  -2   8   1  599.71   36.21
   2  -8  -1  651.38   28.13
   2  -8  -1  647.36   66.18
  -2   8   1  654.52   33.96
   2  -8   0  594.61   26.35
  -2   8   0  538.87   29.75
  -2   8  -1   72.94   17.59
  -2   8  -1   89.36   11.49
   2  -8   1  137.87   29.17
  -2   8  -1   91.90   19.57
   2  -8   1  106.76   10.84
   2  -8   1   97.62   15.26
  -2   8  -2   43.76    8.19
  -2   8  -2   52.13   15.26
   2  -8   2   28.03   12.82
   2  -8   2   51.81   10.82
  -2   8  -2   47.68   11.28
  -2   8  -3  153.61   15.18
   2  -8   3  168.87   33.14
  -2   8  -3  158.06   24.45
   2  -8   3  154.14   18.20
  -2   8  -3  195.45   27.99
  -2   8  -4    0.82    2.06
  -2   8  -4   -0.79    4.08
   2  -8   4    5.31    4.40
   2  -8   4    0.85    8.25
  -2   8  -4    4.10    8.83
  -2   8  -5   31.14   11.90
  -2   8  -5   30.12    7.51
  -2   8  -5   12.80    8.30
   2  -8   5   29.67    7.93
   2  -8   5   44.35   17.44
  -2   8  -6    2.33    3.47
   2  -8   6   12.81   13.54
   2  -8   6    4.32    3.50
  -2   8  -7  112.32   17.36
  -2   8  -7  129.98   27.27
   2  -8   7  137.39   17.67
  -2   8  -8  516.73   31.31
  -2   8  -8  480.34   50.13
   2  -8   8  545.23   34.73
  -2   8  -9  310.58   22.63
   2  -8   9  325.12   26.18
  -2   8 -10    2.39    2.83
   2  -8  10    4.26    4.42
  -2   8 -11  270.11   19.74
  -2   8 -12  353.61   20.99
   2  -7  -9  251.93   11.03
   2  -7  -8  418.06   23.45
   2  -7  -8  380.80   16.87
   2  -7  -7   75.20   10.92
   2  -7  -7   60.58    7.97
  -2   7   7   71.05   12.09
   2  -7  -6  295.48   23.16
  -2   7   6  265.82   23.42
   2  -7  -5 2222.23   62.83
  -2   7   5 2117.70   69.81
   2  -7  -4 2615.59   66.10
  -2   7   4 2625.17   77.15
   2  -7  -3  263.87   18.54
  -2   7   3  271.83   22.60
  -2   7   2  417.65   26.81
   2  -7  -2  496.37   55.18
   2  -7  -2  434.09   48.49
  -2   7   2  425.92   30.53
   2  -7  -2  427.42   22.85
   2  -7  -1 2684.80  100.35
   2  -7  -1 2744.00   60.35
   2  -7  -1 2480.77  117.95
  -2   7   1 2876.32   70.32
   2  -7  -1 2781.26  127.60
   2  -7   0 2481.80   74.48
   2  -7   0 2633.17  123.17
  -2   7   0 2455.06   95.64
  -2   7   0 2624.60   63.84
  -2   7  -1  385.66   35.56
  -2   7  -1  398.24   37.92
   2  -7   1  481.12   51.58
  -2   7  -2  230.79   30.57
  -2   7  -2  216.18   25.90
   2  -7   2  204.91   33.94
   2  -7   3  639.65   60.13
  -2   7  -3  643.64   45.62
   2  -7   4  300.48   41.98
  -2   7  -4  262.67   30.11
   2  -7   4  310.53   23.54
  -2   7  -4  293.79   35.28
  -2   7  -5   19.14    9.86
  -2   7  -5   42.94   14.25
   2  -7   5   45.30   15.01
  -2   7  -5   40.62    8.53
   2  -7   5   31.34    7.94
  -2   7  -6   98.60   13.62
   2  -7   6  126.33   27.45
  -2   7  -6  100.27   18.93
   2  -7   6  123.36   15.83
  -2   7  -7    3.18    2.79
  -2   7  -7    2.69    2.58
   2  -7   7    1.66    3.72
  -2   7  -8    0.62    6.66
  -2   7  -8    7.04    4.58
   2  -7   8    4.76    4.49
  -2   7  -9   25.90    6.80
   2  -7   9   31.37    7.79
  -2   7 -10    3.47    2.87
   2  -7  10    3.85    3.68
  -2   7 -11   17.23    4.85
   2  -7  11   25.16    7.09
  -2   7 -12    0.09    2.42
   2  -6  -9 1078.89   41.15
   2  -6  -9  909.36   27.04
   2  -6  -8 1376.93   51.21
   2  -6  -8 1379.99   38.60
  -2   6   8 1260.22   52.50
   2  -6  -7  341.02   25.51
   2  -6  -7  292.60   18.94
  -2   6   7  333.14   27.73
   2  -6  -6  703.02   35.99
  -2   6   6  640.44   38.96
   2  -6  -5 3512.19   80.70
  -2   6   5 3299.51   90.12
   2  -6  -4 3199.18   72.20
  -2   6   4 3302.07   85.78
  -2   6   3  621.35   38.93
   2  -6  -3  676.69   29.00
   2  -6  -3  780.43   53.59
  -2   6   3  725.62   35.32
   2  -6  -3  654.42   63.43
   2  -6  -2  233.30   37.02
   2  -6  -2  313.61   39.04
   2  -6  -2  293.55   29.20
  -2   6   1 1950.88   93.23
   2  -6  -1 2120.23   81.32
   2  -6  -1 3160.30  123.37
  -2   6   1 2114.65   88.16
   2  -6  -1 2976.72  120.98
   2  -6   0 3494.66  130.71
  -2   6   0 3003.23   94.44
  -2   6  -1  715.24   42.81
  -2   6  -1  686.28   49.73
   2  -6   1  723.29   58.90
   2  -6   2   50.31   15.93
  -2   6  -2   76.03   13.18
  -2   6  -2   73.00   16.55
  -2   6  -3  480.56   41.80
   2  -6   3  448.61   46.32
  -2   6  -3  440.89   32.21
  -2   6  -4  414.06   40.00
  -2   6  -4  280.15   26.90
   2  -6   4  388.97   43.09
  -2   6  -5    2.63    3.79
   2  -6   5    5.26    6.17
  -2   6  -5    5.46    5.49
  -2   6  -6   -0.68    4.48
  -2   6  -6   -8.73    6.55
   2  -6   6    0.20    4.26
  -2   6  -6    2.28    1.43
   2  -6   6    0.50    1.93
  -2   6  -7    0.12    3.48
   2  -6   7    3.15    1.88
  -2   6  -7    2.04    2.36
  -2   6  -8   26.79    5.66
  -2   6  -8   31.17   11.26
   2  -6   8   22.45    6.57
  -2   6  -9   -2.63    3.61
  -2   6  -9    7.10    4.59
   2  -6   9    5.07    4.41
  -2   6 -10   -2.70    3.38
   2  -6  10   -0.26    3.21
  -2   6 -11   13.69    2.81
   2  -6  11   26.68    6.43
  -2   6 -12   50.68    7.93
   2  -6  12   60.40    9.56
  -2   6 -13  133.14   10.58
   2  -5 -10   75.79   11.52
   2  -5 -10   70.46    7.05
   2  -5  -9  654.09   36.33
   2  -5  -9  597.74   24.46
   2  -5  -8  952.36   45.32
   2  -5  -8  863.38   32.53
  -2   5   8  888.97   46.93
   2  -5  -7  194.74   19.68
   2  -5  -7  177.01   16.03
  -2   5   7  177.83   21.12
   2  -5  -6   96.95   12.72
  -2   5   6   78.85   13.92
   2  -5  -5  757.49   33.63
  -2   5   5  795.20   41.12
   2  -5  -4 1399.26   42.73
  -2   5   4 1298.16   49.91
   2  -5  -4 1273.38   60.57
   2  -5  -3 1238.22   55.66
  -2   5   3 1061.12   62.29
   2  -5  -3 1142.38   62.68
   2  -5  -2   54.22   10.69
   2  -5  -2   71.78   19.19
   2  -5  -2   47.55   14.22
  -2   5   2   43.25   13.29
  -2   5   2   41.03   11.30
  -2   5   1  189.32   21.30
   2  -5  -1  209.51   29.10
   2  -5  -1  122.50   23.02
  -2   5   1   96.48   17.75
  -2   5   0   14.13    6.98
   2  -5   0    8.85    6.37
  -2   5   0    5.86    3.98
   2  -5   1   23.35   10.14
  -2   5  -1   19.08    6.42
  -2   5  -1   17.13    5.83
  -2   5  -2    8.88    5.23
   2  -5   2    7.53    6.36
  -2   5  -2   13.54    4.89
   2  -5   3  734.77   53.67
  -2   5  -3  670.21   34.52
   2  -5   4  787.15   55.72
  -2   5  -4  876.66   55.87
  -2   5  -4  841.80   42.60
   2  -5   5  569.47   48.83
  -2   5  -5  449.81   33.48
  -2   5  -5  594.93   49.14
   2  -5   6  105.78   21.48
  -2   5  -6   91.44   18.61
  -2   5  -7  326.49   17.96
  -2   5  -7  316.42   34.70
   2  -5   7  294.75   19.77
  -2   5  -7  280.28   36.23
   2  -5   8  383.89   23.79
  -2   5  -8  371.28   20.94
  -2   5  -8  387.61   42.48
  -2   5  -9   57.55   20.45
  -2   5  -9   83.46   10.75
   2  -5   9   77.47   11.24
  -2   5 -10   30.77    6.43
   2  -5  10   35.57    7.78
  -2   5 -11    9.09    3.56
   2  -5  11   10.80    4.03
   2  -5  12    3.10    2.17
  -2   5 -12    3.97    1.82
  -2   5 -13   91.39    8.68
  -2   4  11   25.37    4.09
   2  -4 -11   27.51    4.07
   2  -4 -11   36.33    7.89
   2  -4 -10    8.34    2.88
   2  -4 -10   17.80    7.80
   2  -4  -9   35.06    6.13
   2  -4  -9   25.67    8.54
   2  -4  -8   80.13   10.18
  -2   4   8   73.22   14.79
   2  -4  -8   71.62   12.78
   2  -4  -7  103.99   13.71
   2  -4  -7   90.68   11.57
  -2   4   7   91.32   22.42
  -2   4   7   95.01   14.95
  -2   4   6   20.45    8.85
   2  -4  -6   29.89    6.72
  -2   4   6   20.39    6.50
   2  -4  -5    5.74    2.09
  -2   4   5   -0.03    3.81
   2  -4  -5   -0.59    2.21
  -2   4   4   34.53   11.76
   2  -4  -4   40.95   10.20
   2  -4  -4   39.72    9.59
   2  -4  -3  310.94   25.61
  -2   4   3  330.97   29.61
   2  -4  -3  297.71   29.42
   2  -4  -2  148.95   16.34
  -2   4   2  108.17   20.63
   2  -4  -2  150.99   22.58
   2  -4  -2  106.41   20.68
  -2   4   2  140.34   18.16
  -2   4   1 1548.53   66.71
   2  -4  -1 2540.64   96.76
  -2   4   1 1926.87   64.50
   2  -4  -1 2327.13   94.74
  -2   4   0 4637.23  113.18
   2  -4   0 4545.20  128.78
  -2   4  -1 2010.25   51.06
  -2   4  -1 2149.89   74.85
   2  -4   2  233.83   27.39
  -2   4  -2  238.56   16.80
  -2   4  -2  187.26   23.29
  -2   4  -3 4246.98   84.77
   2  -4   3 3812.35  111.66
  -2   4  -4 4889.66  102.50
   2  -4   4 5233.23  135.55
  -2   4  -5 1555.12   62.80
   2  -4   5 1380.19   66.71
  -2   4  -5 1466.68   67.00
  -2   4  -6   13.69    7.69
  -2   4  -6   10.59    7.63
  -2   4  -7 1357.59   73.31
  -2   4  -7 1333.15   37.35
  -2   4  -7 1417.37   76.31
   2  -4   7 1381.28   41.15
  -2   4  -8 1958.27   49.84
   2  -4   8 2046.79   54.65
  -2   4  -9  304.67   19.35
  -2   4  -9  301.35   40.47
   2  -4   9  291.30   20.76
  -2   4 -10    6.88    4.18
   2  -4  10    6.41    3.24
  -2   4 -11  121.97   12.82
   2  -4  11  131.51   14.41
  -2   4 -12   90.25   10.19
   2  -4  12  107.47   12.07
   2  -4  13   22.70    4.65
  -2   4 -13   16.56    3.59
   2  -3 -12    2.92    1.78
   2  -3 -12    2.65    3.45
   2  -3 -11    9.11    2.84
   2  -3 -11   10.08    6.08
  -2   3  11    8.19    3.30
   2  -3 -10   19.80    8.95
   2  -3 -10    2.71    2.22
   2  -3  -9    5.34    3.11
   2  -3  -9   -0.28    2.03
   2  -3  -8   46.07    7.30
  -2   3   8   32.82   13.85
   2  -3  -8   35.41    8.05
   2  -3  -7   -1.06    3.09
   2  -3  -7    4.11    3.09
  -2   3   7    6.47    5.71
   2  -3  -6   15.68    4.91
  -2   3   6    5.65    3.58
  -2   3   6   19.18   10.46
  -2   3   5  812.59   57.72
   2  -3  -5  922.62   42.83
  -2   3   4 2123.25   88.70
   2  -3  -4 1907.62   67.98
   2  -3  -3 1030.12   49.00
  -2   3   3 1030.57   47.04
  -2   3   3 1073.87   61.09
   2  -3  -3  943.77   41.11
   2  -3  -2  530.02   25.30
   2  -3  -2  764.58   51.78
   2  -3  -2  390.02   33.16
  -2   3   2  634.32   36.78
   2  -3  -1 5489.87  146.45
   2  -3  -1 6305.27  102.59
  -2   3   0 7498.08  101.52
  -2   3   0 7777.87  143.31
   2  -3   1 4440.72  123.72
  -2   3  -1 4201.60   63.59
  -2   3  -2  235.75   15.59
  -2   3  -2  205.99   19.91
   2  -3   2  260.80   24.68
  -2   3  -2  205.67   14.31
  -2   3  -3 5285.63  112.42
   2  -3   3 4986.77  112.21
  -2   3  -4 8922.47  152.60
   2  -3   4 9999.00  193.99
   2  -3   4 8412.73  159.85
  -2   3  -4 9565.73  170.94
  -2   3  -5 3552.41   97.26
   2  -3   5 3656.93  105.16
  -2   3  -6   25.12    9.83
   2  -3   6   13.47    9.07
  -2   3  -6   25.97    9.56
  -2   3  -7 1492.21   38.28
   2  -3   7 1417.85   84.65
   2  -3   7 1354.08   39.76
  -2   3  -7 1377.01   74.54
  -2   3  -8 1343.82   81.16
  -2   3  -8 1492.97   84.62
  -2   3  -8 1449.45   41.13
   2  -3   8 1452.83   44.15
  -2   3  -9  290.53   18.80
  -2   3  -9  303.95   40.41
   2  -3   9  289.65   20.53
   2  -3  10   21.91    5.97
  -2   3 -10   23.81    5.15
   2  -3  11  116.74   12.91
  -2   3 -11  115.76   11.74
  -2   3 -12   52.41    7.48
   2  -3  12   69.58    9.37
   2  -2 -12   97.50   14.00
   2  -2 -12  100.03    8.80
   2  -2 -11   20.42    7.25
   2  -2 -11   14.59    3.80
   2  -2 -10   27.53   10.22
   2  -2 -10   16.73    4.76
   2  -2  -9   24.50    5.52
  -2   2   9   24.88   11.94
   2  -2  -9   23.01    8.55
   2  -2  -8   76.62    9.71
  -2   2   8   75.95   21.42
   2  -2  -8   74.54   12.56
  -2   2   7   25.20    7.93
  -2   2   7   13.00    8.92
   2  -2  -7   30.26    6.26
   2  -2  -7   15.38    9.09
   2  -2  -7   28.72    6.62
   2  -2  -6   15.79    7.51
  -2   2   6    6.14    5.09
   2  -2  -5  476.08   29.46
  -2   2   5  436.72   40.54
   2  -2  -5  481.77   34.70
   2  -2  -4 1557.21   57.18
   2  -2  -4 1676.06   55.33
  -2   2   4 1494.73   70.49
  -2   2   3  663.65   32.05
   2  -2  -3  605.12   35.84
   2  -2  -2   14.13    6.22
  -2   2   2    6.02    3.95
   2  -2  -2    7.27    2.17
   2  -2  -1 2243.18   77.02
   2  -2  -1 2166.20   73.08
  -2   2   0 8604.32  126.73
   2  -2   0 6864.56  138.05
  -2   2  -1 2880.46   49.51
   2  -2   1 2934.26   84.59
  -2   2  -1 2745.75   69.27
   2  -2   2   27.50    7.84
  -2   2  -2   30.52    5.48
   2  -2   2   38.85    7.61
   2  -2   3 1118.22   47.03
   2  -2   3 1216.48   38.50
  -2   2  -3 1158.51   42.14
   2  -2   4 2100.58   79.04
  -2   2  -4 2210.63   69.05
   2  -2   4 2155.73   58.50
   2  -2   5  618.81   46.14
  -2   2  -5  672.66   42.34
  -2   2  -6   11.82    6.78
   2  -2   6    5.62    6.31
  -2   2  -7    9.72    6.78
   2  -2   7   15.98   10.03
  -2   2  -7   12.97    3.52
   2  -2   7   12.34    3.69
  -2   2  -8    0.86    1.65
   2  -2   8   -0.03    1.56
  -2   2  -8    7.53    7.00
  -2   2  -9    5.95    3.52
   2  -2   9   10.70    3.30
   2  -2  10    3.55    2.57
  -2   2 -10    1.37    2.93
  -2   2 -11   12.80    4.20
   2  -2  11   12.79    4.50
  -2   2 -12  124.03   11.02
   2  -2  12  137.19   12.54
   2  -1 -13  555.97   18.22
   2  -1 -12  822.96   42.76
   2  -1 -12  846.70   29.93
   2  -1 -11  147.04   19.69
   2  -1 -11  142.33   13.62
   2  -1 -10  204.04   23.27
   2  -1 -10  198.19   16.78
   2  -1  -9  699.89   41.12
   2  -1  -9  724.00   31.94
  -2   1   9  697.58   67.46
   2  -1  -8  405.97   28.01
   2  -1  -8  423.90   23.10
  -2   1   8  407.70   48.73
  -2   1   7   17.40    8.54
   2  -1  -7    8.04    4.14
   2  -1  -7    1.45    6.15
   2  -1  -6   63.17   11.02
  -2   1   6   43.17   12.89
   2  -1  -6   55.93   13.54
  -2   1   5   15.16    7.37
   2  -1  -5   20.53    5.94
   2  -1  -5   19.80    6.53
   2  -1  -4  147.19   15.97
   2  -1  -4  131.22   14.01
  -2   1   4  148.16   20.91
   2  -1  -3  676.92   33.50
   2  -1  -3  496.45   21.81
  -2   1   3  726.39   44.12
  -2   1   3  502.89   22.99
   2  -1  -2    3.33    1.89
  -2   1   2    2.88    3.00
   2  -1  -2    1.40    2.08
   2  -1  -1  206.50   17.55
  -2   1   1  169.41   13.57
   2  -1   0  343.16   21.93
  -2   1   0  382.46   12.46
   2  -1   1  289.66   19.35
  -2   1  -1  325.13   16.42
  -2   1  -2    4.74    3.36
   2  -1   2    4.08    3.18
  -2   1  -3    3.64    2.36
   2  -1   3    0.55    1.49
   2  -1   4  154.40   20.94
  -2   1  -4  195.03   19.98
  -2   1  -5  486.71   36.56
   2  -1   5  552.29   44.12
   2  -1   6    2.39    4.54
  -2   1  -6    1.72    4.68
  -2   1  -7  368.38   18.39
   2  -1   7  372.47   45.19
  -2   1  -7  428.17   42.44
   2  -1   8 1350.01   42.37
  -2   1  -8 1195.55   37.53
  -2   1  -8 1314.92   81.66
   2  -1   8 1269.10   41.79
   2  -1   9 1328.15   41.89
  -2   1  -9 1220.08   39.66
   2  -1   9 1278.09   43.73
  -2   1 -10   92.48   10.47
   2  -1  10   95.48   11.59
  -2   1 -11  418.73   21.49
   2  -1  11  448.76   24.19
  -2   1 -12  829.01   27.39
   2  -1  12  909.35   30.70
   2   0 -13  796.56   25.23
   2   0 -12 1009.74   49.44
   2   0 -12  934.17   33.99
   2   0 -11  111.27   12.81
   2   0 -11  109.61   17.13
   2   0 -10   24.52    6.78
   2   0 -10   33.71   10.37
   2   0  -9  454.44   32.78
   2   0  -9  487.04   26.57
  -2   0   9  500.98   56.06
   2   0  -8  147.60   16.35
   2   0  -8  187.55   15.27
   2   0  -8  187.90   29.28
  -2   0   8  137.29   27.28
   2   0  -7   60.56   15.92
  -2   0   7   74.95   18.14
  -2   0   6   14.48    7.60
   2   0  -6   20.77    6.91
   2   0  -6    9.68    5.34
   2   0  -5   10.59    4.49
  -2   0   5    8.53    5.34
   2   0  -5   15.81    7.54
   2   0  -4   49.10    8.76
   2   0  -4   34.91    7.52
  -2   0   4   49.06   12.01
  -2   0   3    7.75    2.04
   2   0  -3    3.49    3.83
  -2   0   3   10.98    5.96
   2   0  -3    7.72    3.93
   2   0  -2    4.31    2.06
  -2   0   2    5.75    1.32
   2   0  -2    5.28    3.82
   2   0  -1  109.37   10.10
   2   0  -1  113.27   11.87
  -2   0   0  124.55   12.94
   2   0   0  144.08   14.06
   2   0   0  144.21   12.46
   2   0   1  252.37   15.29
  -2   0  -1  279.16   19.33
  -2   0  -2    3.18    3.58
   2   0   2    1.76    1.24
  -2   0  -3  851.35   41.31
   2   0   4 2482.46   88.56
  -2   0  -4 2490.55   82.17
   2   0   5 1665.00   80.38
  -2   0  -5 1591.57   70.53
  -2   0  -6   42.76    5.88
   2   0   6   52.40   16.40
  -2   0  -6   40.17   12.81
  -2   0  -7 1077.89   33.72
  -2   0  -7 1081.64   70.03
  -2   0  -8 2896.62   61.97
  -2   0  -8 2831.36  124.94
  -2   0  -9 1711.17   47.70
   2   0   9 1718.67   50.93
   2   0   9 1806.12   52.84
  -2   0 -10   52.00    8.36
   2   0  10   34.95    8.51
   2   0  10   64.53    9.28
  -2   0 -11  329.12   17.99
   2   0  11  347.25   20.26
   2   1 -13   72.48    8.12
   2   1 -12   23.90    5.74
   2   1 -12   25.27    9.71
   2   1 -11   12.00    5.22
   2   1 -11   15.38    7.80
   2   1 -10   49.82    9.46
  -2  -1  10   47.91   20.31
   2   1 -10   45.02   11.82
   2   1  -9  130.03   17.09
   2   1  -9  153.28   15.41
  -2  -1   9  128.13   27.78
   2   1  -8  191.00   19.00
   2   1  -8  201.38   15.69
  -2  -1   8  171.57   29.76
   2   1  -8  127.57   24.93
   2   1  -7   47.78   17.40
  -2  -1   7   94.33   19.74
  -2  -1   6   36.78   11.83
   2   1  -6    7.79    7.91
   2   1  -6   23.61    8.79
   2   1  -5  804.33   40.62
  -2  -1   5  679.73   44.27
   2   1  -4 1354.41   49.83
  -2  -1   4 1219.55   53.38
   2   1  -4 1261.17   49.95
   2   1  -3  513.85   28.24
  -2  -1   3  540.04   32.07
   2   1  -3  554.28   29.55
   2   1  -2   15.81    5.34
  -2  -1   2   14.08    4.91
   2   1  -2   16.71    5.67
   2   1  -1   35.03    7.48
   2   1  -1   14.35    4.85
   2   1   0  126.01   11.79
  -2  -1   0  140.68   13.26
   2   1   0  127.08   16.71
   2   1   1  214.24   14.48
   2   1   1  210.87   23.66
  -2  -1  -1  233.72   16.88
  -2  -1  -1  236.64   22.66
  -2  -1  -2   10.55    3.71
  -2  -1  -3  288.53   27.07
  -2  -1  -4 1148.79   59.25
  -2  -1  -5 1144.63   64.22
   2   1   6  177.98   17.82
  -2  -1  -6  203.45   14.58
  -2  -1  -6  149.59   24.45
  -2  -1  -7  284.14   17.97
  -2  -1  -7  272.78   36.11
  -2  -1  -8 1586.53   44.49
  -2  -1  -8 1562.12   92.12
   2   1   9  784.57   34.25
  -2  -1  -9  732.29   29.83
   2   1   9  734.46   32.68
   2   1  10   67.39   10.81
  -2  -1 -10   86.69    9.31
   2   1  10  101.04   11.49
  -2  -1 -11  100.27    9.12
   2   1  11  104.87   10.18
   2   2 -13  274.19   16.93
   2   2 -13  171.94   15.33
   2   2 -12  387.96   24.00
   2   2 -11   73.98   14.23
   2   2 -11   98.70   13.42
   2   2 -10   39.58   17.74
   2   2 -10   87.61   12.91
   2   2 -10   59.11   12.79
  -2  -2  10   86.80   25.28
   2   2  -9 1611.05   63.47
   2   2  -9 1463.71   95.80
  -2  -2   9 1589.79   97.82
   2   2  -8 3058.23   81.79
   2   2  -8 3000.36   67.61
   2   2  -8 3100.29  127.30
  -2  -2   8 3304.68  129.33
   2   2  -7 1181.37   72.19
  -2  -2   7 1186.00   69.62
  -2  -2   6  122.42   19.48
   2   2  -6   93.16   17.92
   2   2  -5 3611.60  106.88
  -2  -2   5 3370.23   97.34
   2   2  -5 3614.15  105.51
   2   2  -4 5169.95  113.44
   2   2  -4 5099.46  117.13
   2   2  -3 1385.02   52.08
  -2  -2   3 1275.14   44.73
   2   2  -3 1271.04   52.21
   2   2  -2  204.54   20.18
  -2  -2   2  250.21   16.08
   2   2  -2  253.17   23.09
  -2  -2   1  885.53   43.44
  -2  -2   1  933.29   26.26
   2   2   0  512.47   30.63
   2   2   0  666.63   45.03
  -2  -2  -1   40.41   11.22
  -2  -2  -1   62.71   11.92
   2   2   1   39.48   12.97
  -2  -2  -2   13.83    7.75
  -2  -2  -2   20.71    5.70
  -2  -2  -3    0.08    3.42
  -2  -2  -4  206.00   27.18
  -2  -2  -5  206.93   30.18
  -2  -2  -5  205.74   15.49
   2   2   5  224.41   19.62
   2   2   5  164.90   23.09
  -2  -2  -6   11.80   10.18
   2   2   6    6.11    4.14
  -2  -2  -6    2.36    1.31
  -2  -2  -7   85.67   21.10
  -2  -2  -7   97.73   10.89
   2   2   8   22.05   10.16
  -2  -2  -8   46.34    7.24
   2   2   9    4.63    3.62
  -2  -2  -9    3.23    1.85
   2   2   9    6.52    3.54
   2   2  10    1.39    1.96
  -2  -2 -10    7.74    2.86
   2   2  10    4.81    2.63
   2   3 -13  713.35   28.51
   2   3 -13  527.39   25.80
   2   3 -12 1667.46   52.54
   2   3 -12 1470.47   51.84
   2   3 -11  922.37   42.09
   2   3 -10  142.41   19.46
   2   3 -10  117.41   32.37
   2   3 -10  156.17   17.27
  -2  -3  10  135.01   29.53
  -2  -3  10  188.81   38.29
   2   3  -9 2720.51   83.32
   2   3  -9 2835.00   70.12
  -2  -3   9 2695.42  126.51
   2   3  -9 2496.47  129.44
   2   3  -8 4423.06  101.34
   2   3  -8 4384.67   84.53
   2   3  -8 4115.05  153.75
  -2  -3   7 1979.00   86.86
   2   3  -7 2155.36   98.79
  -2  -3   6   84.00   15.75
   2   3  -6   88.83   18.17
  -2  -3   5 1965.25   70.54
   2   3  -5 1876.40   78.08
  -2  -3   4 3504.77   83.41
   2   3  -4 3025.05   98.68
  -2  -3   3 1269.19   39.44
   2   3  -3 1270.97   61.06
  -2  -3   3 1195.17   61.76
  -2  -3   2  431.04   35.15
   2   3  -2  401.35   36.31
   2   3  -1  446.14   39.56
  -2  -3   1  547.83   39.01
  -2  -3   0  205.28   25.70
   2   3   0  221.19   30.51
  -2  -3  -1   18.37    7.76
   2   3   1   28.31   13.42
  -2  -3  -1   25.59   10.77
  -2  -3  -2   36.82   12.32
  -2  -3  -3   14.66    9.59
  -2  -3  -4   56.86   16.01
   2   3   4   65.83   13.78
   2   3   4   71.06   10.54
  -2  -3  -5    7.83    7.20
   2   3   5   -6.59    5.60
   2   3   5    4.42    4.42
  -2  -3  -6    8.17    3.67
  -2  -3  -6    5.51    6.30
   2   3   6    3.67    6.51
  -2  -3  -7   -3.30    2.54
   2   3   8   37.36   10.40
  -2  -3  -8   51.83    7.67
   2   3   9   59.13    8.97
  -2  -3  -9   49.55    6.90
   2   3   9   62.68    8.68
   2   3  10   11.24    3.24
  -2  -3 -10   17.29    3.23
   2   4 -13  310.75   19.73
   2   4 -13  253.64   16.14
   2   4 -12  916.24   39.78
   2   4 -12  846.29   36.27
   2   4 -11  369.29   26.29
   2   4 -11  419.65   28.57
   2   4 -10    7.52    4.66
   2   4 -10    4.42    3.41
  -2  -4   9  568.26   55.58
   2   4  -9  600.00   31.66
  -2  -4   9  573.02   66.75
   2   4  -9  620.46   33.83
   2   4  -9  535.95   59.81
   2   4  -8 1085.03   41.14
  -2  -4   8 1050.92   69.35
   2   4  -8 1154.20   45.07
   2   4  -8 1075.76   79.70
  -2  -4   7  813.53   54.64
   2   4  -7  802.29   34.46
   2   4  -7  702.71   58.89
   2   4  -6   48.63   14.62
  -2  -4   6   46.92   11.64
   2   4  -6    8.33    3.56
  -2  -4   6   45.23   15.26
   2   4  -5   82.10   19.08
  -2  -4   5   85.60   13.83
  -2  -4   5   89.47   19.74
  -2  -4   4  209.89   29.29
   2   4  -4  262.35   31.57
  -2  -4   3   23.85    9.80
   2   4  -3   23.08    9.07
  -2  -4   2   11.61    6.68
   2   4  -2   -2.58    4.14
  -2  -4   1  113.39   21.37
   2   4  -1   98.48   23.05
  -2  -4   0  775.47   58.01
   2   4   0  824.99   64.46
   2   4   1  369.91   44.48
  -2  -4  -1  415.16   39.56
  -2  -4  -1  353.79   42.10
  -2  -4  -2   12.90    8.30
   2   4   2    6.87    4.42
  -2  -4  -3  350.76   41.70
   2   4   3  323.09   24.02
   2   4   3  295.13   27.60
   2   4   4  352.43   33.23
   2   4   4  384.77   27.23
  -2  -4  -4  404.35   45.02
  -2  -4  -5  125.48   26.31
   2   4   5  108.20   21.52
   2   4   5  114.73   16.02
  -2  -4  -6   13.31    4.94
   2   4   6    8.65    4.98
   2   4   7    1.47    4.93
  -2  -4  -7   12.25    3.67
   2   4   8    0.47    2.07
  -2  -4  -8   -0.13    1.92
  -2  -4  -9   35.60    4.91
   2   4   9   26.02    5.10
   2   4   9   39.02    5.96
   2   5 -13    2.03    2.24
   2   5 -13   -1.28    1.51
   2   5 -12   15.32    6.41
   2   5 -12    9.44    3.00
   2   5 -11   15.26    5.81
   2   5 -11   22.45    6.88
   2   5 -10   28.46    7.65
   2   5 -10   26.56    7.31
   2   5  -9   -4.57   10.25
   2   5  -9   10.39    5.53
   2   5  -9    6.97    2.70
  -2  -5   9   -5.17   10.45
   2   5  -8   10.44   10.19
  -2  -5   8   -4.33    9.73
   2   5  -8    6.81    4.94
   2   5  -8   21.90    6.18
   2   5  -7   99.33   23.77
  -2  -5   7  110.57   27.01
   2   5  -7   94.01   13.93
   2   5  -7  117.32   13.00
   2   5  -6   75.56   20.59
   2   5  -6   42.78   11.52
   2   5  -6   80.07   10.53
  -2  -5   6   75.54   21.17
  -2  -5   5  691.08   62.41
   2   5  -5  606.78   27.62
   2   5  -5  625.03   56.51
  -2  -5   4 1930.77   99.34
   2   5  -4 1867.18   98.53
  -2  -5   3 1346.42   81.75
   2   5  -3 1192.47   78.45
  -2  -5   2   -1.39    4.17
   2   5  -2   -3.03    7.30
   2   5  -1 1967.64  105.82
   2   5  -1 1807.09   54.03
   2   5   0 3776.44   87.75
   2   5   0 3971.03  158.93
   2   5   1 1502.81   50.03
   2   5   1 1434.08   98.39
  -2  -5  -1 1479.71   92.97
   2   5   1 1399.27   55.83
   2   5   1 1435.41   51.00
   2   5   2  195.72   19.40
  -2  -5  -2  209.21   33.95
   2   5   2  213.56   22.67
   2   5   2  205.27   19.47
  -2  -5  -3  620.12   59.86
   2   5   3  664.55   42.77
   2   5   3  636.33   36.02
   2   5   4 1182.13   51.01
   2   5   4 1216.10   62.63
  -2  -5  -4 1165.53   81.05
   2   5   5  931.00   43.14
  -2  -5  -5  838.71   34.21
   2   5   5  863.64   54.55
   2   5   5  812.51   41.74
   2   5   6   10.06    5.81
  -2  -5  -6   25.75    5.30
   2   5   6   31.98    8.29
   2   5   7   56.56    9.10
  -2  -5  -7   43.85    6.30
   2   5   8   26.49    5.50
  -2  -5  -8   36.24    4.98
   2   5   8   36.79    5.82
   2   6 -12   23.29    6.77
   2   6 -12   56.03    7.88
   2   6 -11   11.61    5.71
   2   6 -11    6.43    2.54
   2   6 -10    9.43    5.50
   2   6 -10    9.71    4.90
   2   6  -9  245.43   24.02
   2   6  -9  333.19   23.28
  -2  -6   8 1019.67   91.52
   2   6  -8  949.86   39.03
   2   6  -8  841.93   80.31
   2   6  -7  453.14   55.60
   2   6  -7  445.80   25.70
   2   6  -6    1.91    2.68
  -2  -6   6    9.66   11.48
   2   6  -6    5.40    3.76
   2   6  -6    2.21    6.67
  -2  -6   5 1193.91   88.25
   2   6  -5 1268.44   91.08
   2   6  -5 1179.79   42.06
   2   6  -5 1106.25   46.78
   2   6  -4 4301.22   86.24
   2   6  -4 4108.28   93.49
  -2  -6   3 2873.58  140.04
   2   6  -3 2763.16   68.46
   2   6  -3 2648.13   71.88
  -2  -6   2  103.52   25.30
   2   6  -2   83.01   11.62
   2   6  -2   82.17   11.86
   2   6  -2   87.94   23.72
   2   6  -1 1324.07   50.05
   2   6  -1 1419.79   53.09
   2   6   0 3818.98   96.37
   2   6   0 3633.23   87.86
  -2  -6  -1 2772.91  134.74
   2   6   1 3015.92   82.24
   2   6   2  138.77   19.06
   2   6   2  198.92   23.63
   2   6   2  171.84   19.28
  -2  -6  -2  156.13   31.55
   2   6   3  509.47   30.86
   2   6   3  489.38   37.78
   2   6   3  470.04   31.51
   2   6   4  769.76   37.48
   2   6   4  719.13   40.08
   2   6   4  823.83   52.15
   2   6   5  488.15   28.66
  -2  -6  -5  410.14   22.23
   2   6   5  467.26   29.87
   2   6   6   28.89    6.50
  -2  -6  -6   25.00    4.99
   2   6   6   29.42    6.62
   2   6   7   -0.19    1.56
  -2  -6  -7    1.60    1.67
   2   7 -12    0.39    2.37
   2   7 -12    1.47    2.04
   2   7 -11   11.82    4.39
   2   7 -10    2.82    4.71
   2   7 -10    3.02    2.05
   2   7  -9   15.73    8.05
   2   7  -9   65.61   11.33
   2   7  -8  501.60   29.36
   2   7  -8  510.15   35.11
  -2  -7   7  343.27   53.79
   2   7  -7  394.66   25.59
   2   7  -7  438.45   58.95
   2   7  -7  385.28   29.85
   2   7  -6   33.65    9.94
  -2  -7   6   42.96   19.09
   2   7  -6   47.31   20.42
   2   7  -6   30.39    6.69
  -2  -7   5  805.17   83.51
   2   7  -5  691.41   33.84
   2   7  -5  762.09   75.37
   2   7  -5  686.51   37.50
   2   7  -4 1963.74   59.64
   2   7  -4 1984.22  124.20
   2   7  -4 1869.48   63.11
   2   7  -3  987.30   43.62
   2   7  -3 1105.78   91.64
   2   7  -3  996.92   44.97
  -2  -7   2  112.50   29.43
   2   7  -2  112.00   14.82
   2   7  -2  119.20   16.03
   2   7  -2  143.96   33.39
   2   7  -1  460.24   34.13
   2   7  -1  480.50   61.92
   2   7  -1  431.45   29.22
  -2  -7   0  724.25   74.71
   2   7   0  729.67   43.32
   2   7   0  735.57   38.94
   2   7   1  583.65   39.10
   2   7   1  543.90   33.85
   2   7   2   13.02    6.06
   2   7   2   39.22   10.12
   2   7   2   34.05    9.07
   2   7   3   -1.08    3.66
   2   7   3    4.34    6.26
   2   7   3    2.05    3.20
   2   7   4    7.23    4.31
   2   7   4    8.16    6.51
   2   7   4   16.01    5.87
   2   7   5    2.41    2.58
  -2  -7  -5    1.94    2.00
   2   7   5    2.86    2.45
   2   7   6   -0.42    1.37
  -2  -7  -6    1.60    1.58
   2   7   6    2.32    1.63
   2   8 -12  156.43   14.24
   2   8 -11   73.99    9.01
   2   8 -11   80.13   11.78
   2   8 -10   12.56    6.00
   2   8 -10   12.07    3.33
   2   8  -9    1.16    3.47
   2   8  -9   -1.27    2.04
   2   8  -8    6.09    5.23
   2   8  -8    1.03    1.94
   2   8  -7   25.60    8.26
   2   8  -7   20.63    6.05
   2   8  -6   -3.37    2.14
   2   8  -6    9.08    5.27
   2   8  -5   38.31    9.13
   2   8  -5   45.39    9.24
   2   8  -4   18.19    7.28
   2   8  -4   15.36    5.88
   2   8  -3  103.98   14.82
   2   8  -3   85.29   14.97
   2   8  -2   62.31   12.34
   2   8  -2   60.96   11.65
   2   8  -1    3.96    3.64
   2   8  -1    3.40    2.11
   2   8   0    5.66    4.94
   2   8   0    8.37    4.47
   2   8   1   52.02   11.78
   2   8   1   48.21   10.20
   2   8   2    5.67    3.46
   2   8   2    4.69    3.34
   2   8   3  109.89   13.06
   2   8   3   79.98   15.28
  -2  -8  -4  249.91   13.68
   2   8   4  302.51   18.88
   2   9 -11   81.35    9.64
   2   9 -10    7.93    3.75
   2   9 -10    3.59    3.17
   2   9  -9    3.35    3.46
   2   9  -9    7.61    3.42
   2   9  -8    0.68    2.07
   2   9  -8    3.08    3.39
   2   9  -7    8.06    3.14
   2   9  -7    2.81    3.50
   2   9  -6    0.30    2.59
   2   9  -6    0.94    3.11
   2   9  -5   12.04    4.28
   2   9  -5   19.05    5.71
   2   9  -4   18.54    7.10
   2   9  -4   21.78    6.84
   2   9  -3   22.43    8.25
   2   9  -3   17.73    5.95
   2   9  -2   41.92    9.81
   2   9  -2   39.55    8.46
   2   9  -1  157.04   18.18
   2   9  -1  145.30   15.87
   2   9   0  764.53   41.61
   2   9   0  724.85   35.09
   2   9   1  604.66   36.85
   2   9   1  572.12   29.11
   2   9   2  100.60   14.41
   2   9   2   99.19   10.87
  -2  -9  -3  155.67    8.96
   2  10  -9   38.03    6.43
   2  10  -8   38.07    7.21
   2  10  -8   37.41    7.13
   2  10  -7   13.26    4.93
   2  10  -7   20.27    5.72
   2  10  -6    0.33    2.01
   2  10  -6    5.52    3.11
   2  10  -5    6.14    3.84
   2  10  -5   -0.92    2.13
   2  10  -4   11.87    5.40
   2  10  -4    5.84    3.38
   2  10  -3   40.42    8.75
   2  10  -3   31.28    6.91
   2  10  -2    4.89    3.89
   2  10  -2    1.24    2.38
   2  10  -1  120.46   14.15
   2  10  -1  129.57   12.57
   2  10   0  272.28   21.38
   2  10   0  274.83   16.57
   2  11  -5   40.91    6.92
   2  11  -5   34.79    5.62
   2  11  -4   60.64    8.26
  -3  13  -3  739.17   23.79
  -3  13  -4  357.58   16.29
  -3  13  -5    6.20    1.34
  -3  12   1 1188.55   33.88
  -3  12   0  873.92   30.57
  -3  12  -1  118.70   11.38
  -3  12  -2  103.11   10.76
  -3  12  -3  513.49   24.36
  -3  12  -4  400.88   21.08
  -3  12  -5   85.77    9.55
  -3  12  -6   15.78    4.26
  -3  12  -7   94.43    9.39
  -3  12  -8   52.14    6.11
  -3  11   3   76.08    8.82
  -3  11   2   42.00    7.23
  -3  11   1  209.79   16.70
  -3  11   0  196.75   16.79
  -3  11  -1   66.23    9.91
   3 -11   2    9.63    3.23
  -3  11  -2   11.35    4.79
   3 -11   3   12.28    3.70
  -3  11  -3   17.53    4.99
   3 -11   4   18.69    4.49
   3 -11   4   22.00    8.29
  -3  11  -4   19.06    5.13
   3 -11   5   24.04    7.63
  -3  11  -5   20.16    5.59
   3 -11   6   32.56    8.62
  -3  11  -6   21.96    5.35
   3 -11   7  143.47   16.25
  -3  11  -7  132.16   12.66
   3 -11   8  251.42   20.22
  -3  11  -8  238.90   16.04
  -3  11  -9   39.01    6.16
  -3  11 -10   22.60    3.83
  -3  10   5   14.37    3.86
   3 -10  -5    5.97    2.03
  -3  10   4   18.44    5.13
  -3  10   3   11.07    4.22
   3 -10  -2   44.42    6.89
  -3  10   2   55.56    9.92
   3 -10  -1  170.63   14.03
  -3  10   1  158.38   16.10
   3 -10   0  230.54   16.48
  -3  10   0  220.98   19.06
   3 -10   1   35.28    6.30
  -3  10  -1   32.78    6.62
   3 -10   2  228.99   16.56
   3 -10   2  217.17   23.20
  -3  10  -2  214.59   18.05
   3 -10   3 1204.12   40.23
   3 -10   3 1207.25   55.13
  -3  10  -3 1195.50   43.37
   3 -10   4 1223.25   54.74
  -3  10  -4 1149.39   42.53
   3 -10   5  367.15   29.11
  -3  10  -5  356.92   23.11
   3 -10   6  196.11   20.98
  -3  10  -6  189.16   16.67
   3 -10   7 1230.31   50.87
  -3  10  -7 1187.02   42.28
   3 -10   8 1174.34   47.47
  -3  10  -8 1124.30   39.90
   3 -10   9  228.67   19.73
  -3  10  -9  218.25   16.09
  -3  10 -10   40.98    6.40
   3 -10  10   41.98    7.55
   3  -9  -6    1.03    1.06
   3  -9  -6    1.06    1.55
  -3   9   6    0.84    2.79
   3  -9  -5    4.05    2.24
  -3   9   5    6.12    4.03
   3  -9  -4   45.52    8.10
  -3   9   4   41.94    8.86
   3  -9  -3   -1.40    1.60
  -3   9   3   -1.21    4.14
   3  -9  -2   99.86   11.59
  -3   9   2   94.10   13.07
   3  -9  -1  787.70   32.52
   3  -9  -1  799.94   73.85
  -3   9   1  756.63   36.40
   3  -9   0  747.26   74.29
   3  -9   0 1063.42   37.39
   3  -9   0  624.85   66.10
  -3   9   0  978.89   40.29
   3  -9   1  421.05   23.60
  -3   9  -1  345.78   42.60
   3  -9   1  409.94   52.16
   3  -9   1  403.14   31.88
  -3   9  -1  413.29   25.30
  -3   9  -2  369.40   42.75
   3  -9   2  303.40   45.46
   3  -9   2  374.49   30.10
  -3   9  -2  348.11   22.92
  -3   9  -3 1735.86   91.81
   3  -9   3 1656.41  106.85
   3  -9   3 1912.79   67.96
  -3   9  -3 1911.54   54.76
  -3   9  -4 2710.26  119.83
   3  -9   4 3075.61  145.10
   3  -9   4 2742.70   80.64
  -3   9  -4 2937.84   69.22
  -3   9  -5  817.49   35.28
   3  -9   5  858.41   43.38
   3  -9   6  168.80   19.09
  -3   9  -6  173.99   16.15
   3  -9   7 1358.93   54.37
  -3   9  -7 1284.89   44.95
  -3   9  -8 1455.57   51.04
  -3   9  -8 1505.77   48.99
  -3   9  -9  247.52   19.97
   3  -9   9  282.91   23.22
  -3   9  -9  246.25   18.86
  -3   9 -10   -3.88    2.74
  -3   9 -10   -0.36    2.14
   3  -9  11  343.10   19.87
  -3   9 -11  281.39   15.87
   3  -8  -8  154.54   12.19
   3  -8  -7    2.95    1.44
   3  -8  -7    0.57    2.21
  -3   8   7    1.69    2.63
   3  -8  -6   36.28    5.68
   3  -8  -6   57.59    9.10
  -3   8   6   41.77    8.89
   3  -8  -5   25.14    6.64
  -3   8   5   26.97    7.32
   3  -8  -4    6.47    3.36
  -3   8   4    1.42    2.71
   3  -8  -3   10.32    4.38
  -3   8   3   29.54    7.80
   3  -8  -2    7.86    8.43
   3  -8  -2    4.71    2.70
  -3   8   2    3.49    3.51
   3  -8  -1  354.61   21.34
   3  -8  -1  397.70   51.55
  -3   8   1  430.24   44.39
   3  -8  -1  279.62   41.07
  -3   8   1  347.02   23.69
   3  -8   0  575.71   27.52
  -3   8   0  686.86   57.85
   3  -8   0  497.92   55.68
   3  -8   0  515.60   56.99
   3  -8   0  556.94   36.29
  -3   8   0  593.65   29.93
  -3   8  -1  342.71   38.59
   3  -8   1  361.43   27.95
   3  -8   1  324.15   49.53
  -3   8  -1  332.45   21.59
   3  -8   2   15.17   12.81
   3  -8   2   27.56   15.08
   3  -8   2   18.92    7.09
  -3   8  -2   18.09    8.37
  -3   8  -2   15.19    5.47
   3  -8   3  510.99   57.15
   3  -8   3  525.83   63.41
   3  -8   3  709.08   37.71
  -3   8  -3  759.08   32.15
   3  -8   4 1265.45   51.24
  -3   8  -4 1254.66   42.44
  -3   8  -5  183.20   30.75
  -3   8  -5   69.84   15.31
   3  -8   5   64.08   25.48
   3  -8   5  155.60   30.61
   3  -8   5  228.54   21.50
  -3   8  -5  198.18   16.69
  -3   8  -6   -2.88    2.62
   3  -8   6    1.32    8.57
  -3   8  -6   -0.16    2.67
   3  -8   6   -1.23    4.40
  -3   8  -7   91.49   14.38
   3  -8   7  127.71   16.71
  -3   8  -8  215.26   17.95
   3  -8   8  201.82   20.82
  -3   8  -9   59.14    9.00
   3  -8   9   52.64   10.36
   3  -8  10   -1.48    4.22
  -3   8 -10    4.19    3.91
  -3   8 -11    2.32    3.01
   3  -8  11    2.25    3.32
  -3   8 -12   14.63    3.96
   3  -7  -9  916.01   32.54
   3  -7  -8  734.17   32.97
   3  -7  -8  480.14   18.51
   3  -7  -7   92.01   12.52
   3  -7  -7   71.68    7.83
  -3   7   7   82.66   12.30
   3  -7  -6  139.36   15.81
   3  -7  -6  115.54   11.14
  -3   7   6  121.45   15.70
   3  -7  -5  594.70   31.50
  -3   7   5  598.66   34.71
   3  -7  -4  487.09   27.33
  -3   7   4  503.02   31.47
   3  -7  -3    4.76    6.42
   3  -7  -3   20.63    5.46
  -3   7   3    9.92    5.56
   3  -7  -2   11.20    6.39
  -3   7   2   21.85    9.97
   3  -7  -2   46.23    7.61
   3  -7  -2   26.49   15.00
  -3   7   2   16.43    6.20
   3  -7  -1   41.58   14.54
  -3   7   1   20.43   11.84
   3  -7  -1   52.44   18.00
   3  -7  -1   33.84    6.49
   3  -7  -1   28.80    8.25
  -3   7   1   36.75    7.31
  -3   7   1   46.50   14.30
   3  -7   0   96.34   26.51
  -3   7   0  143.77   23.88
   3  -7   0  114.74   25.63
   3  -7   0  121.17   15.54
   3  -7   1   85.45   25.39
  -3   7  -1  119.41   23.13
   3  -7   1   98.98   23.49
   3  -7   1  104.88   13.85
   3  -7   2   18.41   12.86
  -3   7  -2   11.36    7.54
   3  -7   2    2.44    4.59
   3  -7   2    2.52    3.30
   3  -7   3    2.07    9.90
  -3   7  -3   10.43    2.87
   3  -7   3   14.43    5.79
   3  -7   3   -4.24    7.49
   3  -7   4   10.00    9.89
  -3   7  -4   17.63    5.16
   3  -7   4   17.77    9.85
  -3   7  -4    6.33    4.93
   3  -7   4   10.96    4.14
   3  -7   5   -4.43    9.65
  -3   7  -5    4.97    5.92
  -3   7  -5    7.91    3.46
   3  -7   5    8.24    4.16
   3  -7   6   70.67   23.35
  -3   7  -6   77.53   10.90
   3  -7   6   87.48   12.54
  -3   7  -6  104.21   23.73
  -3   7  -7   32.39    7.58
   3  -7   7   37.85    8.93
  -3   7  -8  490.01   25.84
   3  -7   8  485.52   31.54
  -3   7  -9  269.17   19.15
   3  -7   9  278.31   23.90
  -3   7 -10   -1.35    2.16
   3  -7  10    5.17    4.14
  -3   7 -11  403.85   21.80
   3  -7  11  411.49   25.95
  -3   7 -12  764.60   27.60
   3  -7  12  709.42   29.14
   3  -6 -10  298.97   19.01
   3  -6  -9  846.83   37.32
   3  -6  -9  621.90   20.67
   3  -6  -8  728.76   36.88
   3  -6  -8  576.58   23.15
   3  -6  -7   57.07    7.98
   3  -6  -7   51.25    9.64
  -3   6   7   55.12   10.97
   3  -6  -6  177.17   18.10
   3  -6  -6  150.50   13.23
  -3   6   6  173.36   19.37
   3  -6  -5  168.62   16.26
  -3   6   5  158.11   18.15
   3  -6  -4    1.59    2.17
  -3   6   4    0.58    2.97
   3  -6  -3   10.47    6.20
   3  -6  -3    7.64    3.39
  -3   6   3    9.31    6.95
  -3   6   3   15.05    4.92
   3  -6  -2   23.83    9.50
  -3   6   2   26.25   10.37
   3  -6  -2   21.97    4.90
  -3   6   2   21.51   11.24
   3  -6  -2   17.88    4.86
   3  -6  -2   17.03    9.54
   3  -6  -1   20.12   10.55
   3  -6  -1    7.51    7.52
  -3   6   1   20.73    8.83
  -3   6   0  128.83   22.04
   3  -6   0  123.94   27.60
   3  -6   0  158.43   28.06
  -3   6  -1    2.49    4.23
   3  -6   1   -7.81    7.26
   3  -6   2    2.70    4.35
  -3   6  -2   11.59    7.67
   3  -6   2   -4.94    6.39
  -3   6  -3   32.32    9.20
   3  -6   3   47.56   18.28
  -3   6  -3   40.82   13.73
   3  -6   3   48.86   15.15
  -3   6  -4  263.80   33.92
   3  -6   4  377.06   41.54
   3  -6   4  318.85   43.33
  -3   6  -4  278.80   25.40
   3  -6   5  123.47   27.34
  -3   6  -5   96.73   10.09
  -3   6  -5   99.76   21.55
   3  -6   5  114.74   12.61
  -3   6  -5   74.66   15.31
  -3   6  -6    4.26    3.21
   3  -6   6    2.18    8.72
  -3   6  -6    1.34    6.35
   3  -6   6    0.38    1.72
  -3   6  -6   -1.75    1.80
  -3   6  -7  487.78   23.53
  -3   6  -7  509.64   53.97
   3  -6   7  505.99   29.32
  -3   6  -7  474.71   42.05
  -3   6  -8 1752.42   48.59
   3  -6   8 1687.45   56.66
  -3   6  -8 1706.74   85.47
  -3   6  -9  772.29   31.82
   3  -6   9  755.65   38.07
  -3   6 -10    5.15    3.08
   3  -6  10   -0.48    3.17
  -3   6 -11  635.65   26.79
   3  -6  11  614.85   31.70
  -3   6 -12  968.41   30.72
   3  -6  12  949.95   35.35
   3  -5 -10    4.92    3.81
   3  -5  -9    7.10    2.91
   3  -5  -9   10.87    5.34
   3  -5  -8    0.54    2.40
   3  -5  -8    2.38    3.18
   3  -5  -7    9.15    3.71
   3  -5  -7   -1.10    4.70
  -3   5   7    6.35    3.45
   3  -5  -6  191.33   18.41
   3  -5  -6  165.22   13.88
  -3   5   6  155.59   29.24
  -3   5   6  193.63   20.53
   3  -5  -5  448.31   25.87
  -3   5   5  423.86   29.61
   3  -5  -4  656.27   29.45
  -3   5   4  694.84   58.91
   3  -5  -4  679.47   49.63
   3  -5  -3   71.42   16.11
  -3   5   3   76.39   19.65
  -3   5   3   88.47   17.03
   3  -5  -2  106.66   21.08
  -3   5   2  125.85   19.61
   3  -5  -2  104.78   23.53
  -3   5   1  952.97   58.08
   3  -5  -1  976.11   68.39
  -3   5   0 1167.45   62.26
   3  -5   0 1096.87   68.70
   3  -5   0 1098.80   75.98
   3  -5   1   51.76   15.65
   3  -5   1   43.48   12.94
  -3   5  -1   87.65   17.87
  -3   5  -2    6.87    3.48
   3  -5   2   19.94   12.03
  -3   5  -2    8.94    6.75
   3  -5   2   10.09    7.19
   3  -5   3  359.49   43.93
   3  -5   3  314.24   34.32
  -3   5  -3  277.54   33.96
  -3   5  -3  299.93   21.17
  -3   5  -4    5.12    4.59
   3  -5   4    4.58    3.45
   3  -5   4    9.03    5.87
  -3   5  -4   17.11    8.83
   3  -5   5  143.18   27.79
  -3   5  -5   92.19   17.42
  -3   5  -5  107.57   21.44
  -3   5  -6   99.50    9.27
   3  -5   6   95.16   10.93
  -3   5  -6   57.96   14.94
  -3   5  -6  107.71   21.36
  -3   5  -7  273.67   16.89
  -3   5  -7  318.97   39.69
   3  -5   7  270.39   19.83
  -3   5  -7  212.17   29.65
  -3   5  -8  475.67   23.63
   3  -5   8  498.85   27.95
  -3   5  -9  283.91   18.81
   3  -5   9  286.94   22.24
  -3   5 -10   60.12    8.80
   3  -5  10   59.09   10.23
  -3   5 -11  173.81   13.78
   3  -5  11  178.31   16.61
  -3   5 -12  306.66   16.20
   3  -5  12  273.04   18.45
   3  -4 -11   -0.91    2.75
   3  -4 -10  211.10   20.88
   3  -4 -10  168.37   11.99
   3  -4  -9  714.49   40.36
   3  -4  -9  653.44   26.16
   3  -4  -8 1126.87   49.93
   3  -4  -8 1189.33   38.15
   3  -4  -7  259.04   22.16
   3  -4  -7  255.24   17.57
  -3   4   7  271.22   41.77
  -3   4   7  280.15   26.16
   3  -4  -6  504.31   28.68
  -3   4   6  493.39   52.75
  -3   4   6  478.15   33.27
  -3   4   5 3711.47  140.76
   3  -4  -5 3592.72   76.57
   3  -4  -5 3484.56  109.47
   3  -4  -4 5214.49  139.67
  -3   4   4 4975.66  163.03
  -3   4   3 1247.63   77.12
   3  -4  -3 1139.12   62.18
  -3   4   2  326.95   31.33
   3  -4  -2  517.50   43.83
  -3   4   1 5056.86  127.63
   3  -4  -1 5079.29  151.71
   3  -4   0 3804.81  127.39
  -3   4   0 4109.86  113.59
   3  -4   1  942.03   56.49
  -3   4  -1  879.83   53.02
   3  -4   2  288.07   29.71
  -3   4  -2  282.20   28.92
   3  -4   2  335.51   38.36
  -3   4  -2  250.74   15.18
  -3   4  -3  761.97   34.37
   3  -4   3  894.57   49.26
  -3   4  -3  943.14   51.88
   3  -4   3  829.40   59.29
  -3   4  -4  193.81   19.06
  -3   4  -4  144.98   21.52
   3  -4   4  193.31   27.60
   3  -4   5    3.17    4.21
  -3   4  -5    8.88    4.76
  -3   4  -5    9.67    4.84
  -3   4  -6   11.29    7.94
  -3   4  -6   12.23    6.79
   3  -4   6    9.55    3.14
  -3   4  -7    1.13    1.18
  -3   4  -7    2.40    6.78
  -3   4  -7   -0.28    4.09
   3  -4   7    1.16    1.35
  -3   4  -8   11.83    3.64
  -3   4  -8   14.22    9.06
  -3   4  -8   16.31    8.63
   3  -4   8   10.72    3.91
  -3   4  -9   93.31   10.72
   3  -4   9   91.68   11.97
  -3   4 -10    6.56    2.58
   3  -4  10    3.78    3.25
  -3   4 -11    1.15    2.35
   3  -4  11    0.08    2.38
  -3   4 -12    1.35    2.21
   3  -4  12   -1.91    1.92
   3  -3 -12  288.38   21.01
   3  -3 -11   84.94   12.56
   3  -3 -10  228.98   22.94
   3  -3 -10  269.01   16.49
   3  -3  -9 1784.69   66.26
   3  -3  -9 1912.68   49.81
   3  -3  -8 2718.16   81.50
  -3   3   8 2868.93  142.02
   3  -3  -7  554.79   31.88
  -3   3   7  534.71   57.10
   3  -3  -6  404.87   24.20
  -3   3   6  451.43   48.76
  -3   3   6  401.93   31.37
  -3   3   5 4430.59  150.95
   3  -3  -5 4618.95  123.79
  -3   3   4 5810.96  170.74
  -3   3   4 5318.88  123.50
   3  -3  -3 1631.64   72.69
  -3   3   3 1472.76   84.25
  -3   3   2  127.72   18.03
   3  -3  -2  113.09   20.03
  -3   3   1 2520.82   82.31
   3  -3  -1 3142.24  103.82
   3  -3   0 2275.76   85.69
  -3   3   0 2078.30   76.51
   3  -3   1  812.59   44.21
   3  -3   1  717.47   48.07
  -3   3  -2  135.97   11.89
   3  -3   2   99.62   18.50
  -3   3  -2  103.15   16.22
   3  -3   3   68.56   14.33
  -3   3  -3   70.47   10.36
  -3   3  -3   76.91   14.54
   3  -3   4    3.60    4.68
  -3   3  -4   18.80    7.62
  -3   3  -4   14.10    5.30
  -3   3  -5   31.08   11.38
  -3   3  -5   -1.45    2.76
  -3   3  -6   14.35    7.76
   3  -3   6   11.86    3.66
  -3   3  -6    8.68    4.56
  -3   3  -7    3.90    1.91
  -3   3  -7   -0.92    2.63
   3  -3   7    1.90    1.66
  -3   3  -8   13.23    3.87
  -3   3  -8    1.28    3.75
  -3   3  -8    7.85    9.69
   3  -3   8   14.33    4.48
  -3   3  -9    5.00    3.39
   3  -3   9   -0.68    2.12
  -3   3 -10   30.97    6.66
   3  -3  10   39.54    7.70
  -3   3 -11   15.94    4.74
   3  -3  11   27.53    6.88
  -3   3 -12  108.86    8.89
   3  -3  12  117.13   11.47
   3  -2 -12  184.61   19.10
   3  -2 -11   63.83   12.44
   3  -2 -10   65.56    8.86
   3  -2 -10   54.85   12.25
   3  -2  -9  781.73   42.87
  -3   2   9  809.91   75.90
   3  -2  -8 1198.49   50.16
  -3   2   8 1129.00   86.92
   3  -2  -7  461.38   27.93
  -3   2   7  455.88   51.77
  -3   2   6   65.48   18.19
   3  -2  -6   55.01   11.95
  -3   2   5  965.21   66.46
   3  -2  -5 1051.17   54.48
  -3   2   4 1511.56   52.84
   3  -2  -4 1615.88   69.00
  -3   2   4 1419.27   78.33
  -3   2   3  474.38   46.23
  -3   2   3  434.90   29.87
  -3   2   2   15.78    6.78
   3  -2  -2   19.62    9.35
  -3   2   1   69.36   12.86
   3  -2  -1   88.97   15.49
   3  -2   0   52.85   11.31
  -3   2   0   82.13   13.02
   3  -2   1  117.49   17.16
  -3   2  -1  134.57   10.09
  -3   2  -1  158.97   18.11
   3  -2   2   42.00   10.21
  -3   2  -2   47.73    7.52
   3  -2   3  582.12   34.19
  -3   2  -3  675.06   33.75
  -3   2  -4  822.07   42.95
  -3   2  -5  531.27   38.81
  -3   2  -6    9.05    5.66
   3  -2   6    2.92    2.09
  -3   2  -6    7.31    2.86
   3  -2   6    6.76    3.13
   3  -2   7  381.42   20.41
  -3   2  -7  376.70   18.73
  -3   2  -7  396.43   41.01
   3  -2   7  330.89   20.20
   3  -2   8  340.46   19.63
  -3   2  -8  314.85   18.27
  -3   2  -8  350.91   42.30
  -3   2  -8  286.16   45.31
   3  -2   8  287.54   19.95
  -3   2  -9   26.63    5.84
   3  -2   9   21.24    5.62
  -3   2 -10    4.06    2.67
   3  -2  10    3.15    2.45
  -3   2 -11   15.13    4.15
   3  -2  11   15.26    5.26
  -3   2 -12    1.85    1.04
   3  -2  12    0.43    1.40
   3  -1 -12   11.56    5.23
   3  -1 -11   18.29    8.31
   3  -1 -10   -3.39    4.53
  -3   1   9   12.97    9.40
   3  -1  -9   17.94    7.32
   3  -1  -8   49.73   10.50
  -3   1   8   50.20   18.81
   3  -1  -7   67.31   10.56
  -3   1   7   52.55   16.74
   3  -1  -6  102.15   16.72
  -3   1   6   83.15   19.91
   3  -1  -5   12.59    9.13
  -3   1   5   56.20   16.13
   3  -1  -5   45.30   11.14
   3  -1  -4  640.25   40.98
  -3   1   4  599.43   26.55
   3  -1  -4  499.14   29.50
  -3   1   4  575.31   47.30
  -3   1   3  313.36   35.96
  -3   1   3  275.34   19.98
   3  -1  -3  288.75   27.79
   3  -1  -3  258.13   15.33
  -3   1   2  280.92   22.32
   3  -1  -2  263.84   25.43
   3  -1  -2  211.95   11.25
  -3   1   1 3012.14   72.63
  -3   1   1 2870.68   40.36
   3  -1   0 5237.01  112.57
  -3   1   0 5468.92   77.30
   3  -1   1 1531.83   55.86
  -3   1  -1 1880.70   47.83
   3  -1   2   23.67    7.28
  -3   1  -2    7.90    3.78
   3  -1   3 3327.27   71.21
  -3   1  -3 3601.80   87.70
  -3   1  -4 5065.06  119.50
  -3   1  -5 2410.22   87.44
   3  -1   6   -0.78    1.41
  -3   1  -6   -2.92    5.10
  -3   1  -6    0.31    1.77
   3  -1   6    1.03    1.05
   3  -1   7  903.65   36.12
  -3   1  -7 1029.91   31.97
  -3   1  -7  934.93   66.48
   3  -1   7  923.65   34.95
   3  -1   8 1328.85   42.18
  -3   1  -8 1218.97   37.14
  -3   1  -8 1306.57   82.49
   3  -1   8 1164.59   41.57
   3  -1   9  435.44   22.92
  -3   1  -9  392.15   21.27
   3  -1   9  390.82   24.09
   3  -1  10    3.71    1.84
  -3   1 -10    0.62    1.95
  -3   1 -11   61.46    7.36
   3  -1  11   81.72    9.64
   3   0 -12    3.92    4.18
   3   0 -11   16.66    6.36
   3   0 -10   13.52    7.52
   3   0  -9   32.44    9.18
  -3   0   9   44.28   18.02
  -3   0   8   31.96   13.66
   3   0  -8   19.32    5.94
   3   0  -8   34.47    6.57
   3   0  -7   23.90   14.31
   3   0  -7   58.24    9.38
   3   0  -7   39.61    6.39
   3   0  -7   53.44   13.84
  -3   0   7   56.52   17.57
   3   0  -6   25.39   10.39
  -3   0   6   27.15    9.60
   3   0  -6   26.83   10.57
   3   0  -5 1118.30   54.52
   3   0  -5 1160.39   52.16
   3   0  -4 3350.65   94.55
  -3   0   4 3213.13  107.25
   3   0  -4 3119.36   79.61
   3   0  -3 1605.58   61.63
  -3   0   3 1487.89   41.60
   3   0  -3 1473.16   48.03
  -3   0   3 1431.40   69.21
  -3   0   2   25.14    5.85
   3   0  -2   26.61    8.33
   3   0  -2   30.30    6.59
   3   0  -1 3984.00   84.33
   3   0  -1 4047.29   94.46
  -3   0   0 8797.45  137.91
   3   0   0 8689.22  144.49
  -3   0  -1 4542.68   95.94
   3   0   1 4342.14   89.49
   3   0   2   47.63    7.73
  -3   0  -2   98.39   13.52
  -3   0  -3 2911.98   88.14
  -3   0  -4 5010.53  130.52
   3   0   5 1867.92   49.90
  -3   0  -5 1610.66   76.14
   3   0   6    0.64    2.55
  -3   0  -6    2.92    4.57
  -3   0  -6    8.66    2.56
   3   0   7  427.86   26.82
  -3   0  -7  431.07   46.04
  -3   0  -7  456.40   21.19
   3   0   7  415.84   23.67
   3   0   8  563.19   28.24
  -3   0  -8  554.54   24.56
   3   0   8  537.40   27.82
   3   0   9  197.19   15.66
  -3   0  -9  172.26   13.49
   3   0   9  180.72   15.78
   3   0  10    2.07    2.51
  -3   0 -10   -2.14    2.53
   3   0  10    1.55    1.75
  -3   0 -11    8.87    2.76
   3   0  11    8.94    3.09
   3   1 -13  113.13   12.41
   3   1 -12  265.79   24.60
   3   1 -11    7.71    5.09
   3   1 -10   25.08    7.52
   3   1  -9  119.47   16.29
  -3  -1   9   97.49   26.07
   3   1  -8   -3.58    7.64
  -3  -1   8    9.23    8.09
   3   1  -8   -0.02    4.52
   3   1  -8    1.67    2.94
   3   1  -7   16.72   13.03
  -3  -1   7   42.22   14.56
   3   1  -7   29.11    6.26
   3   1  -7   35.63   12.38
   3   1  -6    1.85    3.47
  -3  -1   6    4.39    3.38
   3   1  -6    0.99    2.60
   3   1  -5  636.97   42.98
  -3  -1   5  521.38   41.59
   3   1  -5  648.31   41.73
   3   1  -4 1561.56   64.98
   3   1  -4 1511.54   60.20
   3   1  -3  624.01   38.80
   3   1  -3  612.43   36.55
   3   1  -2   66.46   12.82
  -3  -1   2   68.52   13.75
   3   1  -2   79.18   13.21
   3   1  -1 2306.83   70.95
   3   1  -1 2511.97   79.34
  -3  -1   0 4152.22   88.95
   3   1   0 3553.57   85.59
  -3  -1   0 4153.63  105.18
   3   1   0 3416.39  103.12
   3   1   1 1969.90   58.95
  -3  -1  -1 2462.31   79.16
  -3  -1  -2   16.61    7.68
  -3  -1  -3  680.68   45.59
   3   1   4  704.33   29.76
  -3  -1  -4  648.81   48.89
   3   1   5  295.07   20.18
  -3  -1  -5  270.39   15.31
  -3  -1  -5  257.89   32.36
   3   1   6    5.65    4.84
  -3  -1  -6    3.07    1.55
  -3  -1  -6    6.09    6.38
   3   1   7    6.52    4.32
  -3  -1  -7    3.21    1.66
   3   1   8    1.57    3.58
  -3  -1  -8    0.78    2.11
   3   1   8    5.09    3.47
   3   1   9   63.32    9.06
  -3  -1  -9   67.55    8.15
   3   1   9   70.36    9.59
   3   1  10    3.15    2.19
  -3  -1 -10    4.68    2.02
   3   1  10    7.42    2.51
   3   2 -13  443.63   24.31
   3   2 -12  743.40   38.37
   3   2 -11  219.84   24.69
   3   2 -10   25.31    9.27
   3   2  -9  458.93   33.19
  -3  -2   9  424.00   50.99
   3   2  -9  418.65   51.96
  -3  -2   8  204.14   32.60
   3   2  -8  185.16   16.75
   3   2  -8  199.54   32.86
   3   2  -7   59.51   17.66
  -3  -2   7   95.06   20.53
   3   2  -7   51.77    8.52
   3   2  -6    1.31    2.07
  -3  -2   6    4.41    5.23
   3   2  -6    8.07    2.69
   3   2  -5   -0.92    3.81
  -3  -2   5    4.40    5.05
   3   2  -5    1.14    4.43
   3   2  -4  123.25   19.75
  -3  -2   4  125.55   17.91
   3   2  -4  143.20   21.04
  -3  -2   3  399.33   27.82
   3   2  -3  361.28   33.25
  -3  -2   2   -1.35    3.03
  -3  -2   2    8.56    5.73
   3   2  -2    9.26    5.68
   3   2  -2    6.00    4.67
   3   2  -1  280.26   24.89
   3   2  -1  297.47   31.88
  -3  -2   0   28.66    9.15
   3   2   0   19.72    6.99
   3   2   0   20.44    9.08
  -3  -2   0   22.42   10.73
  -3  -2  -1   66.12   14.91
  -3  -2  -2    9.43    6.68
   3   2   3  110.44   12.57
  -3  -2  -3  114.73   20.68
   3   2   4  346.31   21.70
  -3  -2  -4  315.54   16.57
   3   2   4  280.60   26.47
  -3  -2  -4  303.89   35.63
   3   2   5  347.84   24.57
  -3  -2  -5  366.40   19.16
   3   2   5  314.65   30.58
  -3  -2  -5  342.31   40.26
   3   2   6   14.69    6.34
  -3  -2  -6   25.11    5.21
  -3  -2  -6   13.29   11.54
   3   2   7  210.74   23.33
  -3  -2  -7  276.49   16.76
   3   2   8  874.34   38.49
  -3  -2  -8  922.01   30.42
   3   2   8  965.97   36.09
  -3  -2  -9  882.66   27.04
   3   2   9  886.21   32.19
   3   3 -13  526.60   25.71
   3   3 -12  753.42   37.22
   3   3 -11  358.15   30.24
   3   3 -10   32.01    9.42
  -3  -3   9  214.41   35.64
   3   3  -9  198.33   22.37
   3   3  -9  162.57   34.41
   3   3  -8   96.32   23.99
  -3  -3   8   99.22   22.06
   3   3  -8  142.80   17.24
   3   3  -7   52.76   17.09
   3   3  -7   42.06    9.44
   3   3  -7   11.49    6.41
  -3  -3   7   57.42   15.90
   3   3  -6   18.36   11.82
  -3  -3   6   43.44   12.37
   3   3  -6   12.23    4.30
   3   3  -6   34.27    7.24
   3   3  -5   31.07   10.82
  -3  -3   5   49.76   11.80
  -3  -3   4    7.45    4.97
   3   3  -4    2.73    4.07
  -3  -3   3   32.74   11.20
   3   3  -3   19.34   10.47
  -3  -3   2   14.63    7.16
   3   3  -2    3.08    4.34
  -3  -3   1  114.08   20.28
   3   3  -1   79.74   20.41
  -3  -3   0   78.25   21.13
   3   3   0   65.16   19.32
  -3  -3  -1  107.63   22.33
   3   3   2   27.38    7.20
   3   3   2   30.79    7.51
  -3  -3  -2   43.15   14.90
   3   3   3  454.51   26.03
  -3  -3  -3  402.99   42.77
   3   3   3  403.21   31.84
   3   3   4 1099.39   43.97
  -3  -3  -4 1091.36   34.51
   3   3   4 1010.83   54.01
  -3  -3  -4  939.44   68.51
   3   3   5 1585.63   55.78
  -3  -3  -5 1546.66   42.25
   3   3   5 1445.41   68.36
  -3  -3  -5 1415.69   87.69
   3   3   6  107.36   16.14
  -3  -3  -6  146.32   12.26
   3   3   7  314.86   25.46
  -3  -3  -7  338.50   17.92
   3   3   8 1565.60   47.80
  -3  -3  -8 1524.33   37.48
   3   3   8 1617.87   44.69
  -3  -3  -9  904.23   23.74
   3   3   9  979.66   29.96
   3   3   9  965.07   30.49
   3   4 -13   24.32    5.21
   3   4 -12   19.79    5.74
   3   4 -11    4.24    5.00
   3   4 -10   51.20   10.98
   3   4  -9  302.60   24.98
   3   4  -9  294.99   45.99
  -3  -4   8  154.71   37.31
   3   4  -8  206.06   20.37
   3   4  -8  214.18   37.81
  -3  -4   7  271.22   43.17
   3   4  -7  196.97   18.46
   3   4  -7  207.57   35.94
   3   4  -6   12.63    8.19
   3   4  -6    8.16    3.89
  -3  -4   6    9.45    9.67
   3   4  -6   10.86    4.26
  -3  -4   5  771.71   68.05
   3   4  -5  648.48   31.29
   3   4  -5  797.04   65.63
  -3  -4   4  572.38   56.58
   3   4  -4  689.58   30.07
  -3  -4   3  304.18   37.92
   3   4  -3  262.72   18.41
   3   4  -3  206.33   35.40
  -3  -4   2    8.00    7.40
   3   4  -2    7.76    2.18
   3   4  -2    2.72    4.20
  -3  -4   1   27.59   12.73
   3   4  -1   21.06    6.27
   3   4  -1   36.60   16.25
   3   4   0   14.57    5.55
  -3  -4   0    3.65    6.37
   3   4   0   19.41   12.69
   3   4   1  140.90   14.27
  -3  -4  -1  133.94   26.81
   3   4   1  114.30   17.39
   3   4   2   14.67    6.04
   3   4   2   29.40   10.23
  -3  -4  -2   23.03   11.93
   3   4   3  234.37   22.07
  -3  -4  -3  233.69   35.49
   3   4   3  228.03   25.27
  -3  -4  -4  783.88   30.13
   3   4   4  878.36   52.08
  -3  -4  -4  783.24   65.98
  -3  -4  -5  536.09   24.51
   3   4   5  545.63   43.92
   3   4   6   14.62    5.59
  -3  -4  -6   16.97    4.32
   3   4   7  246.22   18.20
  -3  -4  -7  209.42   12.84
   3   4   7  210.54   15.41
   3   4   8  509.08   22.83
  -3  -4  -8  487.21   16.99
   3   4   8  556.94   21.81
   3   5 -13  329.02   17.38
   3   5 -12  578.13   28.55
   3   5 -11  214.53   19.82
   3   5 -10   54.43    9.45
   3   5  -9 1402.44   52.59
  -3  -5   8 2257.94  144.16
   3   5  -8 2216.95   66.51
   3   5  -8 2379.33  132.34
   3   5  -7 1385.30   49.95
   3   5  -7 1513.47  103.00
  -3  -5   6   85.28   24.99
   3   5  -6   72.69   11.22
   3   5  -6   90.59   26.27
  -3  -5   5  698.70   68.49
   3   5  -5  697.81   34.75
   3   5  -5  801.43   74.82
   3   5  -4 1512.70   50.45
   3   5  -4 1708.58  109.11
   3   5  -3  970.40   40.05
   3   5  -3 1039.52   84.51
  -3  -5   2   27.09   12.49
   3   5  -2   24.13    6.95
   3   5  -2   13.97    9.71
   3   5  -1   59.92   11.27
   3   5  -1   73.07   23.78
  -3  -5   0  112.89   29.15
   3   5   0   95.33   16.21
   3   5   0  118.86   31.68
   3   5   1    3.53    3.63
  -3  -5  -1   -0.83    8.12
   3   5   1    8.01    6.86
   3   5   2   78.71   12.91
  -3  -5  -2   70.19   20.34
   3   5   2   73.25   15.29
   3   5   3    6.40    3.84
   3   5   3    7.22    6.43
   3   5   4   79.89   12.14
  -3  -5  -4   62.48    8.05
   3   5   4   92.39   17.52
   3   5   5   59.61   10.37
  -3  -5  -5   43.33    6.46
   3   5   6    5.01    2.92
  -3  -5  -6    7.51    2.42
   3   5   6    9.46    3.42
   3   5   7    1.70    1.57
  -3  -5  -7   -1.76    1.66
   3   5   7    4.67    2.06
   3   6 -12  921.54   33.98
   3   6 -12 1013.03   39.39
   3   6 -11  573.91   31.01
   3   6 -10   18.93    5.48
   3   6  -9 1174.29   46.15
   3   6  -9 1099.86   49.37
   3   6  -8 2311.96   67.07
   3   6  -8 2220.55   71.59
  -3  -6   7 1186.80  101.70
   3   6  -7 1184.58   46.51
   3   6  -7 1377.00  106.82
   3   6  -7 1123.41   48.58
  -3  -6   6    9.55   10.74
   3   6  -6   25.73    6.88
   3   6  -6    6.24    7.53
  -3  -6   5  496.00   62.62
   3   6  -5  549.50   31.23
   3   6  -5  621.86   68.21
  -3  -6   4 1827.52  123.97
   3   6  -4 1519.79   54.85
   3   6  -4 1846.39  122.08
  -3  -6   3  555.30   65.01
   3   6  -3  555.61   33.68
   3   6  -3  624.62   70.64
   3   6  -2   22.94    7.33
   3   6  -2   45.75   19.24
   3   6  -1   78.64   13.25
   3   6  -1   90.06   26.37
  -3  -6   0   35.10   15.42
   3   6   0   42.15   11.15
   3   6   1    0.73    4.51
   3   6   2    3.14    2.34
   3   6   2    4.97    3.83
   3   6   3    6.45    3.72
   3   6   3   15.56    5.35
   3   6   4   48.28    7.99
  -3  -6  -4   31.57    5.91
   3   6   4   33.26   11.43
   3   6   5    0.42    1.63
  -3  -6  -5    3.22    1.53
   3   6   6    0.89    1.44
   3   7 -12  335.83   17.76
   3   7 -11  355.95   21.86
   3   7 -11  373.22   23.03
   3   7 -10    3.38    2.05
   3   7 -10    3.62    3.33
   3   7  -9  174.50   17.56
   3   7  -9  210.21   19.87
   3   7  -8  562.23   31.39
   3   7  -8  522.70   31.79
   3   7  -7  285.71   22.40
   3   7  -7  303.16   24.05
   3   7  -6   80.48   11.94
   3   7  -5   14.55    6.73
   3   7  -4    7.63    4.21
   3   7  -3   37.98   10.40
   3   7  -2   41.52   10.12
   3   7  -1  160.72   20.84
   3   7   0  410.86   33.83
   3   7   1  180.89   21.98
   3   7   2    9.79    6.47
  -3  -7  -3   58.40    6.96
   3   7   3   84.25   15.10
   3   7   3   76.37    9.27
   3   7   4   79.97    8.42
   3   8 -11    0.48    1.83
   3   8 -10   29.86    6.40
   3   8  -9   80.57   11.62
   3   8  -8   54.51   10.67
   3   8  -7   63.31   11.30
   3   8  -6    6.75    4.93
   3   8  -5  401.98   29.70
   3   8  -4 1274.16   54.23
   3   8  -3  647.99   38.81
   3   8  -2   40.89   10.51
   3   8  -1  355.53   28.67
   3   8   0 1483.79   59.37
   3   8   1 1089.49   50.63
   3   8   2  137.17   17.36
   3   9  -9  196.01   15.89
   3   9  -8  504.97   27.54
   3   9  -7  460.63   27.50
   3   9  -6   -9.02    4.60
   3   9  -5  560.79   32.20
   3   9  -4 1665.01   58.59
   3   9  -3 1089.40   47.30
   3   9  -2  120.77   15.38
   3   9  -1  378.92   26.70
   3   9   0 1275.72   48.33
   3   9   1  833.96   37.86
   3  10  -6    0.14    2.69
   3  10  -5  171.43   15.30
   3  10  -4  537.99   27.52
   3  10  -3  607.88   29.38
  -4  12   0    2.68    1.75
   4 -12   1   -0.02    1.23
  -4  12  -1    4.35    2.26
   4 -12   2   11.23    2.90
  -4  12  -2    6.62    1.93
   4 -12   3   11.20    3.00
  -4  12  -3   11.24    2.84
   4 -12   4    4.89    2.18
   4 -12   5    1.31    1.14
   4 -12   6    2.51    1.53
   4 -12   6    3.86    2.71
   4 -12   7   67.82    6.70
   4 -12   7   64.46    9.58
   4 -11  -3    2.57    2.41
  -4  11   3    2.52    1.58
   4 -11  -2  117.64    9.98
  -4  11   2  110.49   10.59
   4 -11  -1  453.24   20.79
  -4  11   1  407.71   21.58
   4 -11   0  375.01   19.45
  -4  11   0  381.54   21.33
   4 -11   1   29.85    5.54
  -4  11  -1   21.72    5.16
   4 -11   2   99.71   10.07
  -4  11  -2   86.19   10.27
   4 -11   3  507.40   23.92
   4 -11   3  520.59   33.48
  -4  11  -3  530.87   24.91
   4 -11   4  143.48   12.63
   4 -11   4  148.21   17.54
  -4  11  -4  144.90   12.64
   4 -11   5    4.64    3.39
   4 -11   6   28.76    7.93
   4 -11   7    2.83    2.36
   4 -11   8    5.07    4.23
   4 -11   9   18.70    4.28
   4 -10  -5  844.26   27.99
  -4  10   5  795.15   26.27
   4 -10  -4  923.58   31.64
  -4  10   4  868.20   31.28
   4 -10  -3   61.26    8.33
  -4  10   3   56.19    8.34
   4 -10  -2  536.35   25.38
  -4  10   2  535.98   27.28
   4 -10  -1 2064.15   52.92
  -4  10   1 2020.90   56.04
   4 -10   0 1809.00   49.64
  -4  10   0 1866.00   53.18
   4 -10   1  259.02   25.22
  -4  10  -1  295.65   20.11
   4 -10   1  296.45   19.24
   4 -10   2  338.08   20.83
   4 -10   2  334.78   28.06
  -4  10  -2  337.65   21.11
   4 -10   3 1236.85   54.39
  -4  10  -3 1220.71   40.88
   4 -10   4  702.05   39.72
   4 -10   5  121.60   16.22
   4 -10   6   41.41    9.29
   4 -10   7  256.48   22.04
   4 -10   8   95.16   13.25
   4 -10   9    3.18    3.14
   4 -10  10   21.43    5.33
   4  -9  -7   11.08    3.39
   4  -9  -6  214.48   15.47
   4  -9  -5 1465.13   45.44
  -4   9   5 1527.55   46.11
   4  -9  -4 1712.92   50.53
  -4   9   4 1733.31   52.20
   4  -9  -3  245.56   18.36
  -4   9   3  236.60   19.37
   4  -9  -2  309.56   20.62
  -4   9   2  318.50   22.48
   4  -9  -1 2718.86   64.52
  -4   9   1 2650.20   67.73
   4  -9   0 1787.95   51.03
  -4   9   0 1799.32   96.23
   4  -9   0 1641.27  106.09
   4  -9   0 1767.61  105.87
   4  -9   0 1726.75   65.86
   4  -9   1  240.02   17.73
  -4   9  -1  273.56   36.80
   4  -9   1  279.12   43.56
   4  -9   1  233.26   23.67
  -4   9  -2  334.03   41.12
   4  -9   2  301.34   44.73
   4  -9   2  249.06   41.50
   4  -9   2  252.01   24.69
  -4   9  -3  602.52   57.75
   4  -9   3  539.02   58.19
   4  -9   3  573.05   63.85
   4  -9   3  548.23   34.35
  -4   9  -4  524.26   54.88
   4  -9   4  499.76   59.68
   4  -9   4  440.29   31.21
   4  -9   5   31.53    8.55
   4  -9   6  109.66   14.95
   4  -9   7   18.60    6.24
   4  -9   8    8.38    4.56
   4  -9   9    6.09    4.10
   4  -9  10   -1.36    2.19
   4  -9  11    1.96    1.83
   4  -8  -8  237.23   15.46
   4  -8  -7   49.57    8.20
   4  -8  -6  101.08   12.48
  -4   8   6  112.16   12.44
   4  -8  -5  849.22   36.68
  -4   8   5  860.86   37.77
   4  -8  -4  669.79   32.26
  -4   8   4  698.97   34.66
   4  -8  -3  124.01   13.80
  -4   8   3  108.87   13.52
   4  -8  -2   57.01   16.91
  -4   8   2   76.53   18.84
   4  -8  -2   61.98    8.94
   4  -8  -1  279.80   19.38
  -4   8   1  217.21   32.39
   4  -8  -1  297.55   41.04
   4  -8  -1  271.12   24.75
   4  -8   0   97.68   27.30
   4  -8   0  127.75   13.07
  -4   8   0  125.19   23.90
   4  -8   0  113.34   29.22
   4  -8   0  112.57   16.31
   4  -8   1   71.42   22.01
  -4   8  -1   48.84   16.46
   4  -8   1   39.56   18.02
   4  -8   1   39.78    9.48
   4  -8   2   17.19    7.35
   4  -8   2   20.58    9.95
  -4   8  -2    5.86    5.05
   4  -8   2   11.31    4.92
   4  -8   3   54.51   19.81
  -4   8  -3   66.74   19.29
   4  -8   3   57.34   19.03
   4  -8   3   54.25   10.19
   4  -8   4  106.18   27.91
  -4   8  -4   98.30   22.59
   4  -8   4  109.72   14.87
   4  -8   5  122.51   30.23
  -4   8  -5  157.44   29.23
   4  -8   5  117.20   16.12
  -4   8  -6   24.64    5.52
  -4   8  -6   48.11   20.02
   4  -8   6   56.19   11.10
  -4   8  -7  215.85   17.30
   4  -8   7  393.83   28.73
  -4   8  -8  227.11   17.47
   4  -8   8  350.28   27.11
  -4   8  -9   52.28    8.31
   4  -8   9   75.90   11.89
  -4   8 -10    3.35    2.44
   4  -8  10   10.41    4.62
  -4   8 -11   51.38    6.72
   4  -8  11  106.74   11.62
   4  -7  -9    3.18    1.63
   4  -7  -8   23.59    4.87
   4  -7  -7   18.52    5.60
   4  -7  -6   17.23    5.92
  -4   7   6   21.17    7.57
   4  -7  -5    4.75    2.62
  -4   7   5    1.15    3.35
   4  -7  -4    5.81    3.95
   4  -7  -3   87.34   11.01
  -4   7   3   87.99   23.49
   4  -7  -3   77.86   21.22
   4  -7  -2   35.77   13.20
  -4   7   2   17.00    8.56
  -4   7   2   17.98    9.55
   4  -7  -2   31.92    6.62
   4  -7  -1  513.25   26.66
   4  -7  -1  604.06   56.22
   4  -7  -1  557.24   34.29
  -4   7   0  843.23   63.19
   4  -7   0  608.12   60.57
   4  -7   0  768.04   64.75
   4  -7   0  623.74   35.38
  -4   7  -1  235.88   33.46
   4  -7   1  319.00   43.10
   4  -7   1  212.33   35.81
   4  -7   1  218.70   20.04
   4  -7   2  141.65   29.72
  -4   7  -2   99.31   21.93
   4  -7   2   87.52   12.58
   4  -7   3 2000.08  114.17
   4  -7   3 1732.12   57.52
  -4   7  -4 3055.01  127.75
   4  -7   4 3297.96  146.60
  -4   7  -5 1020.69   75.31
   4  -7   5 1085.47   82.44
   4  -7   5 1000.81   44.00
  -4   7  -6  127.74   12.48
  -4   7  -6  161.70   30.61
   4  -7   6  175.82   18.86
  -4   7  -7 1218.38   40.18
   4  -7   7 1266.65   51.13
  -4   7  -8 1803.57   49.52
   4  -7   8 1816.41   62.49
  -4   7  -9  459.01   23.10
   4  -7   9  486.33   31.06
  -4   7 -10   21.99    5.27
   4  -7  10   18.37    6.14
  -4   7 -11  350.06   17.52
   4  -7  11  367.01   22.71
   4  -6 -10    5.63    3.15
   4  -6  -9   11.86    3.96
   4  -6  -8   21.02    6.54
   4  -6  -7   11.81    5.62
   4  -6  -6   -2.23    4.24
  -4   6   6   -6.13    5.34
   4  -6  -5   19.62    7.21
  -4   6   5    7.58    8.72
   4  -6  -4  149.83   14.76
   4  -6  -4  118.62   24.40
  -4   6   4  166.03   31.84
   4  -6  -3   89.18   10.80
  -4   6   3  103.67   20.36
  -4   6   3  107.35   26.78
   4  -6  -3   78.38   19.53
   4  -6  -2   89.75   10.40
  -4   6   2  114.99   21.50
   4  -6  -2  112.91   23.81
   4  -6  -2   97.66   13.63
   4  -6  -1 1266.96   40.74
  -4   6   1 1259.96   72.99
   4  -6  -1 1292.38   81.94
   4  -6  -1 1278.90   48.70
  -4   6   0 2196.70   95.79
   4  -6   0 2216.89  110.96
   4  -6   0 2158.56  108.81
   4  -6   1 1477.16   85.69
   4  -6   1 1456.62   87.96
   4  -6   2  317.25   38.00
   4  -6   2  231.98   36.48
  -4   6  -2  259.73   33.61
   4  -6   2  210.54   18.04
  -4   6  -3 2737.84  115.50
   4  -6   3 2837.46  126.04
   4  -6   3 2737.92   69.00
  -4   6  -4 3986.18  143.87
   4  -6   4 4059.98  150.36
   4  -6   5  929.14   68.73
   4  -6   5  899.55   38.22
  -4   6  -6   30.23   14.19
   4  -6   6   18.76    5.84
  -4   6  -7 1346.18   39.87
  -4   6  -7 1327.34   96.96
   4  -6   7 1358.41   50.80
  -4   6  -8 1730.72   46.04
   4  -6   8 1633.45   56.83
  -4   6  -9  329.27   19.11
   4  -6   9  343.23   25.22
  -4   6 -10   13.66    3.86
   4  -6  10   20.94    6.71
  -4   6 -11  260.02   14.50
   4  -6  11  243.21   18.50
   4  -5 -10  114.66   13.97
   4  -5  -9  550.36   32.72
   4  -5  -8  278.34   23.99
   4  -5  -7   58.23    9.98
  -4   5   6   29.71   14.80
   4  -5  -6   46.39    9.05
  -4   5   5   35.25   15.31
   4  -5  -5   35.04    7.73
   4  -5  -5   63.29   16.91
  -4   5   4   49.29   18.49
  -4   5   4   30.43   10.88
   4  -5  -4   35.31    7.10
   4  -5  -4   35.70   12.69
  -4   5   3   44.21   16.87
   4  -5  -3   44.36    7.48
  -4   5   3   53.39   13.27
   4  -5  -3   43.87   14.57
   4  -5  -2    5.64    7.33
  -4   5   2   14.79    8.07
  -4   5   1  477.17   41.71
   4  -5  -1  514.79   49.33
  -4   5   0 1067.43   63.53
   4  -5   0 1180.52   75.24
   4  -5   1  961.08   62.06
   4  -5   1 1005.39   68.94
   4  -5   2   67.01   17.65
  -4   5  -2   53.56   15.42
   4  -5   3  925.40   65.13
  -4   5  -3  985.64   66.07
  -4   5  -4 1652.84   85.27
   4  -5   4 1549.31   83.03
   4  -5   4 1519.03   46.33
  -4   5  -5  372.19   41.15
   4  -5   5  467.65   25.25
  -4   5  -6    6.95    5.71
   4  -5   6    3.62    2.90
  -4   5  -7  197.87   34.61
   4  -5   7  241.98   19.78
  -4   5  -8   59.13    8.24
   4  -5   8   54.18    9.59
  -4   5  -9   -0.60    2.86
   4  -5   9    5.35    3.97
   4  -5  10    6.39    3.93
  -4   5 -10   -4.71    2.44
  -4   5 -11    2.81    1.67
   4  -5  11    5.07    2.68
   4  -4 -11   68.80   10.64
   4  -4 -10  363.19   26.75
   4  -4  -9 1255.05   53.29
   4  -4  -8 1013.22   47.57
   4  -4  -7  108.30   14.76
  -4   4   7  147.83   31.90
   4  -4  -6  212.94   18.86
  -4   4   6  178.81   34.40
   4  -4  -5  420.53   24.74
  -4   4   5  406.65   49.52
   4  -4  -5  472.16   44.95
   4  -4  -4   86.73   10.63
  -4   4   4   68.84   21.11
  -4   4   4   92.50   17.20
   4  -4  -4   90.85   20.18
  -4   4   3   27.34   12.57
  -4   4   3   40.88   11.90
   4  -4  -3   49.07   15.65
  -4   4   2   16.19    7.26
   4  -4  -2   17.26   10.40
   4  -4  -1   47.83   16.01
  -4   4   1   53.23   13.93
  -4   4   0  462.39   39.93
   4  -4   0  344.71   37.93
   4  -4   1   20.87    9.28
  -4   4  -1   19.91    8.43
   4  -4   2   -0.81    2.92
  -4   4  -2    5.01    5.07
   4  -4   3    4.06    5.12
  -4   4  -3    5.06    3.81
   4  -4   4   14.07    7.35
  -4   4  -4   13.19    7.77
  -4   4  -4    9.52    4.70
   4  -4   4   11.43    3.47
  -4   4  -5   19.72    9.82
  -4   4  -5   22.80    8.47
   4  -4   5   21.35    5.12
  -4   4  -6   -8.71    5.83
  -4   4  -6   -1.07    4.40
   4  -4   6    1.84    1.93
  -4   4  -7  209.61   28.07
  -4   4  -7  204.39   33.95
   4  -4   7  208.54   17.36
  -4   4  -8  605.35   25.56
   4  -4   8  596.61   30.81
  -4   4  -9  338.72   18.67
   4  -4   9  325.28   23.14
  -4   4 -10   30.89    5.21
   4  -4  10   27.05    7.78
   4  -4  11  286.31   19.44
   4  -3 -11  115.78   15.17
   4  -3 -10  206.87   21.33
   4  -3  -9  651.84   39.11
   4  -3  -8  766.92   40.92
  -4   3   8  735.66   73.73
   4  -3  -7  114.11   14.47
  -4   3   7  111.13   28.57
  -4   3   6   23.81   13.08
   4  -3  -6   34.39    7.72
   4  -3  -6   32.55   10.24
  -4   3   5   62.93   19.35
   4  -3  -5   49.98    8.05
   4  -3  -5   57.50   15.18
  -4   3   4    9.29    9.60
  -4   3   4    3.42    3.44
   4  -3  -4    0.70    5.24
  -4   3   3    1.41    2.30
   4  -3  -3    1.55    3.12
  -4   3   2   30.45    9.41
   4  -3  -2   41.68   14.11
  -4   3   1    9.69    6.27
   4  -3  -1   14.61    8.71
  -4   3   0   36.49   11.82
   4  -3   0   39.77   13.04
  -4   3  -1   14.40    7.14
   4  -3   1   19.92    9.42
  -4   3  -2   31.40   10.35
   4  -3   2   18.63    8.29
  -4   3  -3    1.08    2.99
  -4   3  -3    5.77    3.46
   4  -3   3    3.34    4.25
  -4   3  -4  161.12   18.99
  -4   3  -4  163.98   24.74
  -4   3  -5  290.92   36.36
  -4   3  -5  317.48   30.44
   4  -3   5  307.16   18.64
   4  -3   5  319.31   17.15
   4  -3   6   17.26    4.49
   4  -3   6   11.22    3.77
  -4   3  -6   12.88    7.35
  -4   3  -6   23.84   10.91
  -4   3  -7  291.23   34.44
  -4   3  -7  325.92   43.21
   4  -3   7  340.18   21.95
   4  -3   7  330.16   18.67
  -4   3  -8 1057.30   33.67
   4  -3   8 1040.18   40.23
  -4   3  -9  895.04   30.53
   4  -3   9  961.55   38.74
  -4   3 -10   29.27    4.85
   4  -3  10   30.76    6.49
   4  -3  11  428.72   22.60
   4  -2 -12  157.30   16.25
   4  -2 -11   67.01   12.31
   4  -2 -10   12.14    6.97
   4  -2  -9    6.07    5.01
  -4   2   8   65.35   22.93
   4  -2  -8   68.64   13.27
   4  -2  -7   73.50   11.81
  -4   2   7   39.27   16.89
   4  -2  -6  143.65   14.36
   4  -2  -6  129.08   23.16
  -4   2   6  126.68   27.52
   4  -2  -6  130.58   12.09
  -4   2   5 1142.76   80.36
   4  -2  -5 1108.68   67.78
  -4   2   4 1490.05   90.36
   4  -2  -4 1489.18   79.37
  -4   2   4 1294.44   51.31
   4  -2  -3  710.47   54.88
  -4   2   3  751.90   41.39
   4  -2  -2   49.68   15.99
  -4   2   2   70.56   13.51
   4  -2  -1 2088.54   88.96
  -4   2   1 2344.60   80.87
  -4   2   0 1465.38   62.44
   4  -2   0 1455.98   68.26
  -4   2  -1  236.62   25.57
   4  -2   1  159.24   23.29
  -4   2  -2  108.85   18.83
  -4   2  -2  109.11   12.44
   4  -2   2   66.30   15.35
   4  -2   3   67.57   13.22
  -4   2  -3   79.10   12.29
  -4   2  -4   58.23   12.26
   4  -2   4   55.92    7.19
  -4   2  -5  191.39   25.11
   4  -2   5  174.24   13.53
   4  -2   5  201.20   14.46
  -4   2  -6   26.65    9.90
   4  -2   6   14.61    4.36
   4  -2   6   24.09    5.49
  -4   2  -7  268.98   34.41
  -4   2  -7  273.99   41.57
   4  -2   7  249.00   18.36
   4  -2   7  277.22   17.80
   4  -2   8  516.71   27.59
   4  -2   8  609.05   26.64
  -4   2  -9  396.16   19.04
   4  -2   9  379.31   23.41
   4  -2   9  391.48   19.98
   4  -2  10    4.85    2.76
   4  -2  11   93.14    9.80
   4  -1 -12  165.19   17.84
   4  -1 -11   35.86    8.60
   4  -1 -10  156.85   19.45
   4  -1  -9 1458.28   59.98
   4  -1  -8 2077.55   68.65
   4  -1  -8 2244.97   58.24
   4  -1  -7  548.57   31.50
   4  -1  -7  573.90   48.35
  -4   1   7  501.85   56.70
   4  -1  -7  576.13   27.18
   4  -1  -6  501.96   27.49
   4  -1  -6  549.46   47.40
  -4   1   6  568.31   56.17
   4  -1  -6  534.11   24.60
   4  -1  -5 3659.81  122.13
  -4   1   5 3422.79  136.10
   4  -1  -4 5563.47  153.21
  -4   1   4 4795.88  161.12
  -4   1   3 1626.49   91.84
   4  -1  -3 1539.46   76.87
  -4   1   3 1531.04   56.19
   4  -1  -2  286.95   32.64
  -4   1   2  301.47   26.42
   4  -1  -1 2792.91   94.71
  -4   1   1 2389.05   76.53
   4  -1   0 2294.54   84.71
  -4   1   0 2960.19   87.56
   4  -1   1  358.68   30.20
  -4   1  -1  398.29   23.37
  -4   1  -2   21.07    5.76
   4  -1   2   15.68    6.75
  -4   1  -3  137.95   18.03
   4  -1   4   59.94    8.26
  -4   1  -4   56.55   13.32
   4  -1   4   55.84    7.19
   4  -1   5    0.78    1.18
   4  -1   5    3.75    2.80
   4  -1   6    1.27    1.65
   4  -1   6    5.34    3.15
   4  -1   7    0.50    2.32
   4  -1   7    5.27    3.11
   4  -1   8   29.62    5.95
   4  -1   8   34.68    7.15
   4  -1   9   17.74    4.65
   4  -1   9   15.25    4.49
   4  -1  10    4.87    3.28
   4   0 -12  339.71   26.40
   4   0 -11   98.45   15.45
   4   0 -10  182.21   21.73
   4   0  -9 2121.88   74.21
  -4   0   9 1971.99  119.24
   4   0  -8 2723.79   78.69
   4   0  -8 2788.62   68.36
   4   0  -7 1163.11   71.78
   4   0  -7 1101.28   39.54
   4   0  -6  184.82   28.42
   4   0  -6  150.75   13.23
   4   0  -5 3545.77  120.77
  -4   0   5 3705.24  134.19
   4   0  -4 5911.23  154.05
  -4   0   4 5453.20  162.89
   4   0  -3 1688.48   77.19
  -4   0   3 1353.39   79.80
  -4   0   2   89.71   12.87
   4   0  -2   53.79   13.44
  -4   0   1 1089.47   40.68
   4   0  -1 1004.76   53.21
  -4   0   1 1066.76   51.88
  -4   0   0 1593.55   53.24
   4   0   0 1530.29   62.99
   4   0   1  318.87   26.47
  -4   0  -1  391.80   27.92
  -4   0  -2    3.42    2.02
   4   0   3   50.06    7.58
  -4   0  -3   46.63   12.67
   4   0   4    8.56    3.12
   4   0   4    9.50    3.03
   4   0   5   20.27    7.55
  -4   0  -5   37.70   12.86
   4   0   5   38.75    6.69
   4   0   6    6.34    4.53
  -4   0  -6    9.70    6.73
   4   0   6    0.80    1.68
   4   0   7   14.95    5.41
   4   0   7    8.66    2.33
   4   0   8   34.23    6.39
   4   0   8   34.48    6.76
   4   0   9    3.24    2.14
   4   0   9    1.02    1.66
   4   0  10    7.88    2.77
   4   0  10    9.68    3.56
   4   1 -13   60.38    8.08
   4   1 -12  265.83   21.70
   4   1 -11  200.80   22.01
   4   1 -10  111.43   17.10
  -4  -1   9  489.50   57.76
   4   1  -9  512.79   30.61
  -4  -1   8 1295.60   90.02
   4   1  -8 1334.80   47.98
   4   1  -7  704.00   62.04
  -4  -1   7  644.66   59.82
   4   1  -7  677.88   32.32
  -4  -1   6   15.43    7.89
   4   1  -6   24.56    5.19
   4   1  -6   17.97    9.44
   4   1  -5  544.72   48.13
  -4  -1   5  449.47   43.88
   4   1  -5  481.12   23.39
   4   1  -4  501.61   44.03
  -4  -1   4  604.74   47.43
   4   1  -3  101.05   18.24
  -4  -1   3  108.68   20.07
   4   1  -2  111.91   19.60
  -4  -1   2  106.28   20.34
  -4  -1   2  122.93   16.82
   4   1  -2   87.68   18.68
   4   1  -1    1.57    3.27
  -4  -1   1    1.69    4.08
   4   1  -1    4.71    4.53
   4   1   0  282.34   27.02
  -4  -1   0  354.58   29.48
  -4  -1  -1  363.62   31.94
   4   1   1  326.34   27.46
   4   1   2    3.34    2.52
  -4  -1  -2    3.04    2.59
   4   1   3  414.56   23.34
  -4  -1  -3  427.50   39.19
   4   1   4 1084.86   41.74
  -4  -1  -4 1046.93   65.53
   4   1   4 1109.76   35.28
   4   1   5  548.98   28.90
  -4  -1  -5  506.46   47.48
   4   1   5  474.41   24.44
   4   1   6   14.32    5.24
   4   1   6    7.77    3.94
   4   1   7  215.00   18.66
   4   1   7  250.83   17.97
   4   1   8  154.32   13.69
   4   1   8  148.73   13.46
   4   1   9   20.95    4.61
   4   1   9   15.25    3.95
   4   2 -13    2.67    3.15
   4   2 -12    6.27    2.49
   4   2 -11   14.63    6.53
   4   2 -10    4.94    4.56
  -4  -2   9  -11.14   12.72
   4   2  -9    4.80    3.33
  -4  -2   8   26.11    9.26
   4   2  -8   16.84    7.50
   4   2  -8   14.54    7.96
  -4  -2   7    5.17    7.43
   4   2  -7    5.87    4.58
   4   2  -7    3.49    4.19
  -4  -2   6   25.14    7.97
   4   2  -6   18.03    6.47
   4   2  -6   27.73   13.19
   4   2  -6   36.61    7.44
   4   2  -5  300.47   37.65
  -4  -2   5  275.44   31.76
   4   2  -5  276.98   17.98
   4   2  -5  287.96   21.21
   4   2  -4  443.80   44.80
   4   2  -4  482.34   23.23
  -4  -2   3  587.10   51.07
   4   2  -3  528.83   44.76
  -4  -2   2   24.20   11.83
   4   2  -2    6.39    8.53
   4   2  -2   32.91   11.03
   4   2  -1 1208.87   64.76
  -4  -2   1 1410.90   73.53
   4   2  -1 1466.80   79.06
  -4  -2   0 4058.90  123.20
   4   2   0 3681.27   71.92
  -4  -2  -1 1898.52   85.75
   4   2   1 1753.35   48.62
   4   2   2    8.14    3.01
  -4  -2  -2    2.68    4.65
   4   2   3 1341.92   45.95
  -4  -2  -3 1323.05   76.08
   4   2   4 2794.72   69.77
  -4  -2  -4 2795.45  117.81
   4   2   4 2694.06   60.13
   4   2   5  979.22   40.97
   4   2   5 1050.79   36.63
   4   2   6   15.98    7.17
   4   2   6   21.50    5.00
   4   2   7  217.61   16.02
   4   2   7  229.88   17.80
   4   2   8  405.53   20.27
   4   2   8  411.48   21.35
   4   3 -13   11.94    3.67
   4   3 -12    9.63    4.53
   4   3 -11   -0.52    2.82
   4   3 -10    9.70    5.89
   4   3  -9    7.55    2.97
   4   3  -8   39.95   10.03
  -4  -3   8   60.42   29.18
   4   3  -8   47.64   11.22
   4   3  -7  111.58   16.56
  -4  -3   7  147.15   37.67
   4   3  -7  165.93   19.53
   4   3  -6  103.78   12.44
  -4  -3   6  136.12   31.56
   4   3  -6  163.18   16.97
   4   3  -5  664.78   29.56
  -4  -3   5  885.31   74.97
   4   3  -5  820.72   36.23
   4   3  -5  839.72   67.87
   4   3  -4 1743.83   49.39
  -4  -3   4 2089.23  113.21
   4   3  -4 1978.16   56.12
   4   3  -4 2338.93  110.10
   4   3  -3  842.01   31.23
   4   3  -3  859.21   35.89
   4   3  -2    9.14    4.49
   4   3  -2   -2.93    4.39
  -4  -3   1 2262.95  104.90
   4   3  -1 2096.74  108.51
   4   3  -1 2159.31   63.31
   4   3  -1 2137.40   53.82
  -4  -3   0 4259.81  143.18
   4   3   0 3917.41   96.43
   4   3   0 4181.45   82.20
  -4  -3  -1 1939.52   97.16
   4   3   1 1933.44   68.90
   4   3   1 2068.43   56.81
   4   3   2   82.37   11.70
  -4  -3  -2   74.13   17.98
   4   3   2   82.09   14.14
   4   3   3 1239.08   45.14
   4   3   3 1198.02   58.07
  -4  -3  -3 1161.68   76.15
   4   3   4 2018.90   59.69
   4   3   4 1941.30   76.25
   4   3   5 1045.58   42.45
   4   3   5 1049.84   36.08
   4   3   6   36.27    7.31
   4   3   6   32.09    6.13
   4   3   7  165.36   12.37
   4   3   7  152.28   13.65
   4   3   8  248.80   13.14
   4   3   8  258.64   14.82
   4   4 -12  223.75   18.36
   4   4 -11   25.65    8.73
   4   4 -10   -0.65    4.81
   4   4  -9    4.44    5.50
   4   4  -8   17.71    7.06
   4   4  -7    5.55    4.19
  -4  -4   7   -5.37   11.98
   4   4  -7    5.01    2.90
  -4  -4   6   29.93   13.55
   4   4  -6   16.36    5.20
   4   4  -6   18.58    7.49
   4   4  -6   27.04   14.57
   4   4  -5  151.06   14.26
  -4  -4   5  164.32   34.20
   4   4  -5  173.47   17.64
   4   4  -5  190.36   35.02
  -4  -4   4 1109.83   85.23
   4   4  -4 1042.33   42.44
   4   4  -4 1089.36   83.25
   4   4  -3  622.93   33.00
   4   4  -3  630.55   63.34
   4   4  -2   -0.34    2.50
  -4  -4   2    5.51    5.98
  -4  -4   1  521.80   55.18
   4   4  -1  475.69   58.56
   4   4  -1  530.71   34.48
  -4  -4   0 1448.76   89.96
   4   4   0 1350.73   59.26
   4   4   0 1499.59   48.48
  -4  -4  -1 1041.20   76.89
   4   4   1  893.54   50.21
   4   4   1  917.73   39.59
   4   4   2   10.03    4.75
  -4  -4  -2   -1.58    5.76
   4   4   2    7.39    6.55
   4   4   3  223.73   24.45
   4   4   3  202.94   18.19
   4   4   4  103.29   18.87
   4   4   4  152.01   15.40
   4   4   5   28.81    7.20
   4   4   6    1.39    2.97
   4   4   7    2.29    1.66
   4   5 -12  672.28   30.78
   4   5 -11  191.33   18.61
   4   5 -10    3.76    3.00
   4   5  -9  250.58   21.90
   4   5  -8  143.84   16.93
   4   5  -7   53.75   12.14
  -4  -5   6    2.88    8.26
   4   5  -6    4.30    4.31
  -4  -5   5   53.37   16.69
   4   5  -5   21.18    7.84
   4   5  -5   37.60   17.71
   4   5  -4   81.82   12.87
   4   5  -4   83.61   26.60
   4   5  -3   46.52   11.68
   4   5  -3   26.52   17.43
  -4  -5   2    9.18    9.35
   4   5  -2    0.96    4.64
  -4  -5   1   47.15   17.24
   4   5  -1   44.98   13.11
  -4  -5   0   -9.03    9.89
   4   5   0    8.21    4.22
   4   5   1   15.19    4.86
   4   5   1    5.49    5.57
   4   5   2    8.69    4.07
   4   5   2   10.45    6.03
   4   5   3   67.70   14.49
   4   5   3   94.64   12.07
   4   5   4  199.87   16.88
   4   5   5  277.49   17.89
   4   6 -11  199.04   17.68
   4   6 -10   12.81    5.72
   4   6  -9   30.74    8.69
   4   6  -8   14.09    6.19
   4   6  -7    8.00    4.56
   4   6  -6    6.36    4.26
   4   6  -5   45.77    9.28
   4   6  -4    6.97    3.45
   4   6  -3    5.73    4.21
   4   6  -2    5.80    5.80
   4   6  -1   31.66   10.31
   4   6   0   89.03   15.84
   4   6   1  109.47   17.02
   4   6   2    2.10    2.30
   4   6   2    7.33    5.17
   4   6   3  124.49   18.63
   4   6   3  140.78   12.76
   4   6   4  590.57   23.57
   4   7 -10    7.08    3.53
   4   7  -9  153.41   16.66
   4   7  -8  221.92   21.43
   4   7  -7  100.12   14.45
   4   7  -6    1.19    4.82
   4   7  -5   79.54   13.44
   4   7  -4  187.39   22.00
   4   7  -3  205.07   22.28
   4   7  -2   15.46    7.05
   4   7  -1   16.15    5.85
   4   7   0   19.08    8.04
   4   7   1   20.43    7.72
   4   7   2    4.35    3.16
   4   8  -9  522.62   27.37
   4   8  -8 1114.22   43.36
   4   8  -7  723.64   36.54
   4   8  -6   22.02    6.28
   4   8  -5  283.21   23.79
   4   8  -4  811.19   41.93
   4   8  -3  411.75   29.24
   4   8  -2   42.19    9.75
   4   8  -1   15.66    5.90
   4   8   0    3.48    2.42
   4   9  -6   38.88    7.81
   4   9  -5  111.29   13.21
   4   9  -4  235.70   19.33
   4   9  -3  162.06   15.58
   5 -12  -1   22.94    3.66
   5 -12   0   76.46    7.18
   5 -12   1   21.06    3.93
   5 -12   2   81.83    7.81
   5 -12   3  505.04   19.74
   5 -12   4  436.72   18.11
   5 -12   5  134.15    9.91
   5 -12   5  129.36   13.04
   5 -12   6   62.95    6.53
   5 -12   6   67.68    9.41
   5 -11  -3    6.85    2.01
   5 -11  -2   49.93    6.62
   5 -11  -1   14.67    3.44
   5 -11   0   12.55    3.38
   5 -11   1   32.07    5.85
   5 -11   2   12.72    3.86
   5 -11   2    6.80    3.95
   5 -11   3   72.66    8.79
   5 -11   3   54.55   10.10
   5 -11   4  255.65   16.51
   5 -11   4  243.44   21.43
   5 -11   5  123.27   15.14
   5 -11   6   13.13    5.06
   5 -11   7  112.12   13.04
   5 -11   8   96.10   11.20
   5 -10  -5  808.99   27.27
   5 -10  -4  446.81   21.32
   5 -10  -3    5.43    2.66
   5 -10  -2  139.41   12.73
   5 -10  -1  145.65   13.09
   5 -10   0   76.61    9.74
   5 -10   1    6.58    3.61
   5 -10   1    5.74    3.37
   5 -10   2   58.09    9.02
   5 -10   2   34.31    7.26
   5 -10   2   65.62   12.26
   5 -10   3    7.07    5.31
   5 -10   4    8.95    5.12
   5 -10   5    3.98    3.41
   5 -10   6   -1.53    3.53
   5 -10   7   66.93   10.97
   5 -10   8   61.88    9.69
   5 -10   9   58.27    8.36
   5  -9  -6  166.63   13.22
   5  -9  -5  376.09   21.45
   5  -9  -4  188.16   15.43
   5  -9  -3    1.87    1.74
   5  -9  -2    8.25    3.59
   5  -9  -1   17.28    4.94
   5  -9   0   36.84    7.17
   5  -9   0   21.62    5.44
   5  -9   0   24.74    8.46
   5  -9   1   20.40    5.76
   5  -9   1   23.35    4.92
   5  -9   1   25.09    7.63
   5  -9   2    6.25    4.63
   5  -9   3   31.84    8.43
   5  -9   4    3.24    3.95
   5  -9   5    8.64    4.92
   5  -9   6    2.64    2.62
   5  -9   7   30.98    8.19
   5  -9   8  199.88   18.63
   5  -9   9  109.01   12.70
   5  -9  10    1.29    1.46
   5  -9  10    4.96    2.55
   5  -8  -7    3.40    2.41
   5  -8  -6   32.24    7.16
   5  -8  -5  164.00   15.42
   5  -8  -4  274.89   20.00
   5  -8  -3   35.04    7.71
   5  -8  -2  169.54   15.47
  -5   8   2  185.45   28.76
   5  -8  -2  132.52   27.90
   5  -8  -1  780.15   33.01
  -5   8   1  685.98   55.77
   5  -8  -1  621.04   60.56
   5  -8  -1  643.16   26.75
   5  -8  -1  762.60   41.28
   5  -8   0  898.59   36.56
  -5   8   0  957.94   69.43
   5  -8   0  987.58   76.92
   5  -8   0  979.76   36.04
   5  -8   0  942.18   46.22
  -5   8  -1  285.18   39.62
   5  -8   1  218.83   36.79
   5  -8   1  127.44   16.19
   5  -8   1  187.67   20.03
   5  -8   2  112.90   28.60
  -5   8  -2  136.61   27.31
   5  -8   2  103.39   14.31
  -5   8  -3  356.45   45.05
   5  -8   3  367.13   27.50
  -5   8  -4  319.16   42.89
   5  -8   4  284.57   40.61
   5  -8   4  287.93   24.36
   5  -8   5   35.24    9.06
   5  -8   6   38.15    8.14
   5  -8   7   32.66    8.42
   5  -8   8   11.10    5.08
   5  -8   9   78.21   11.48
   5  -8  10    0.62    1.30
   5  -8  10   14.10    4.89
   5  -7  -8  269.97   19.24
   5  -7  -7   13.20    4.90
   5  -7  -6  427.02   26.03
   5  -7  -5 1404.48   48.60
   5  -7  -4 2004.89   58.09
   5  -7  -3  361.25   23.17
  -5   7   3  419.01   53.89
  -5   7   3  442.72   44.10
   5  -7  -3  439.97   48.98
   5  -7  -2  453.25   25.12
  -5   7   2  420.16   42.48
   5  -7  -2  462.78   50.45
   5  -7  -2  391.74   20.85
   5  -7  -1 3584.49   77.16
  -5   7   1 4066.86  142.86
   5  -7  -1 3929.84  151.43
   5  -7  -1 3463.36   73.18
   5  -7  -1 3494.52   90.88
   5  -7   0 2902.59   67.87
  -5   7   0 3523.32  133.12
   5  -7   0 3505.92  142.01
   5  -7   0 3013.55   70.22
   5  -7   0 2763.04   77.90
  -5   7  -1  411.56   44.50
   5  -7   1  423.01   48.72
   5  -7   1  334.67   24.73
  -5   7  -2  320.79   40.41
   5  -7   2  333.72   43.67
   5  -7   2  320.25   24.12
  -5   7  -3 1516.89   91.63
   5  -7   3 1431.92   53.24
  -5   7  -4  980.21   74.44
   5  -7   4  892.25   69.83
   5  -7   4  828.04   40.50
  -5   7  -5   15.06    9.79
   5  -7   5   18.24    7.27
   5  -7   6  112.72   15.13
   5  -7   7   69.72   11.63
   5  -7   8   30.89    7.36
   5  -7   9   -5.92    4.80
   5  -7  10    7.58    3.52
   5  -6  -9  552.68   28.08
   5  -6  -8  661.63   33.43
   5  -6  -7  106.93   13.85
   5  -6  -6  401.86   26.60
   5  -6  -5 2843.91   72.17
  -5   6   5 2793.81  138.52
   5  -6  -4 2647.63   68.43
  -5   6   4 3047.53  147.31
  -5   6   4 2902.96  108.69
   5  -6  -4 2742.24  122.40
   5  -6  -3  442.93   25.19
  -5   6   3  427.99   56.10
  -5   6   3  453.88   42.29
   5  -6  -3  489.77   51.58
   5  -6  -3  427.78   21.72
   5  -6  -2  547.27   27.23
  -5   6   2  636.16   52.40
   5  -6  -2  629.70   58.59
   5  -6  -2  517.21   25.35
   5  -6  -2  562.93   33.24
   5  -6  -1 2345.16   59.92
  -5   6   1 2577.88  107.93
   5  -6  -1 2561.30  120.77
   5  -6  -1 2478.20   61.54
   5  -6  -1 2295.28   68.18
  -5   6   0 1853.22   92.92
   5  -6   0 2152.53  109.48
   5  -6   0 2013.26   56.09
   5  -6   0 1784.18   56.35
  -5   6  -1  424.19   45.07
   5  -6   1  397.24   46.07
   5  -6   1  335.69   23.80
   5  -6   1  355.05   21.33
   5  -6   2   70.37   18.96
  -5   6  -2   86.82   20.50
   5  -6   2   67.71   10.85
   5  -6   2   66.54    8.39
   5  -6   3  289.75   38.62
   5  -6   3  359.63   24.89
  -5   6  -4  284.97   40.45
   5  -6   4  279.70   36.76
   5  -6   4  271.09   21.64
  -5   6  -5    5.71    4.25
   5  -6   5   13.73    4.06
  -5   6  -6    7.91    9.98
   5  -6   6   -1.65    3.29
   5  -6   7   33.16    8.50
   5  -6   8    6.95    2.20
   5  -6   9    2.07    3.35
   5  -6  10    0.65    3.05
   5  -5 -10   16.56    5.28
   5  -5  -9  101.92   13.22
   5  -5  -8  399.49   27.48
   5  -5  -7   99.66   13.66
  -5   5   6   38.50   18.06
   5  -5  -6   41.80    8.64
   5  -5  -5  608.30   31.71
  -5   5   5  675.53   69.15
   5  -5  -5  680.95   60.07
   5  -5  -4  748.09   33.63
  -5   5   4  762.59   74.43
  -5   5   4  674.02   49.57
   5  -5  -4  846.02   69.12
   5  -5  -4  692.17   27.81
   5  -5  -3  285.36   19.59
  -5   5   3  221.12   39.78
  -5   5   3  316.86   34.38
   5  -5  -3  331.11   42.85
   5  -5  -3  297.11   18.90
   5  -5  -2    5.01    3.95
  -5   5   2    7.65    6.04
   5  -5  -2    5.30    2.77
   5  -5  -2    6.26    1.67
   5  -5  -2    3.32    3.67
   5  -5  -1  134.11   12.84
  -5   5   1  133.31   22.47
   5  -5  -1  145.31   28.33
   5  -5  -1  138.37   13.99
   5  -5  -1  101.19   12.65
  -5   5   0   72.15   18.51
   5  -5   0  142.92   26.99
   5  -5   0  110.98   12.98
   5  -5   0  109.13   11.44
   5  -5   1    8.22    4.83
   5  -5   1    3.44    2.07
  -5   5  -1   -2.47    3.79
   5  -5   1    9.96    4.02
   5  -5   1    5.73    3.07
   5  -5   2   18.31    4.83
  -5   5  -2    2.67    6.73
   5  -5   2   11.45    3.40
   5  -5   2   11.98    8.81
  -5   5  -3   84.59   21.01
   5  -5   3   79.09   10.80
   5  -5   3   71.37    8.69
   5  -5   3   61.38   17.02
   5  -5   4  506.92   27.79
   5  -5   4  475.75   21.97
  -5   5  -5  366.77   45.90
   5  -5   5  405.64   25.49
  -5   5  -6   -7.56    7.87
   5  -5   6    3.13    2.86
   5  -5   7  345.09   24.19
   5  -5   8  649.10   33.40
   5  -5   9  151.27   15.22
   5  -5  10    3.80    2.52
   5  -4 -11   -2.23    2.43
   5  -4 -10   24.59    6.54
   5  -4  -9    4.06    4.01
   5  -4  -8   63.01   11.14
   5  -4  -7   20.62    6.57
  -5   4   6    3.57    4.65
   5  -4  -6   -1.79    4.21
   5  -4  -6   -2.29    4.54
  -5   4   5   -0.29    7.86
   5  -4  -5    4.81    3.54
   5  -4  -5   -0.69    2.00
   5  -4  -5    1.33    5.86
  -5   4   4   -0.46    6.89
   5  -4  -4    3.73    3.10
   5  -4  -4    5.71    2.99
   5  -4  -4    6.86   10.66
   5  -4  -3    4.43    3.04
  -5   4   3    6.56    5.73
  -5   4   3    8.67    5.97
   5  -4  -3    3.23    2.67
   5  -4  -3   17.86    4.96
   5  -4  -3    8.91    4.73
   5  -4  -2    6.53    4.27
  -5   4   2    2.98    3.95
   5  -4  -2   13.57    4.26
   5  -4  -2    8.72    3.80
   5  -4  -2    9.97    7.24
  -5   4   1  525.55   44.58
   5  -4  -1  572.67   54.39
   5  -4  -1  531.18   28.96
   5  -4  -1  504.86   25.43
  -5   4   0 1157.87   68.57
   5  -4   0 1237.06   77.57
   5  -4   0 1232.05   46.52
   5  -4   0 1282.30   37.73
   5  -4   1  919.53   40.99
   5  -4   1  962.91   31.42
   5  -4   2  131.70   24.87
  -5   4  -2  130.99   22.86
   5  -4   2  140.34   16.14
   5  -4   2  156.89   12.12
  -5   4  -3 1857.52   90.95
   5  -4   3 1983.60   91.26
   5  -4   3 1964.48   53.67
   5  -4   3 2059.00   48.01
   5  -4   4 3195.79   72.33
   5  -4   4 3296.18   64.66
  -5   4  -5  769.40   64.89
   5  -4   5  833.00   35.31
   5  -4   5  842.14   30.37
   5  -4   6   26.74    6.22
  -5   4  -6   44.01   17.11
   5  -4   6   59.54    9.60
   5  -4   6   38.92    7.56
   5  -4   7 1121.29   42.81
   5  -4   8 1314.59   46.99
   5  -4   9  358.07   22.95
   5  -4  10    0.04    3.10
   5  -3 -11    3.56    3.26
   5  -3 -10    4.55    4.43
   5  -3  -9   31.48    8.14
   5  -3  -8    3.44    4.26
  -5   3   7    9.79    9.08
   5  -3  -7   30.83    8.56
  -5   3   6   37.77   16.36
   5  -3  -6   33.86    7.84
   5  -3  -6   24.84    6.33
   5  -3  -6   33.45   13.50
  -5   3   5   45.36   17.94
   5  -3  -5   39.76    7.93
   5  -3  -5   31.13    7.15
   5  -3  -5   31.02   15.17
   5  -3  -4  183.99   15.96
  -5   3   4  168.59   34.04
   5  -3  -4  176.32   31.78
   5  -3  -4  180.39   15.09
   5  -3  -4  196.83   17.88
   5  -3  -3  157.57   31.15
  -5   3   3  179.22   22.97
   5  -3  -3  167.54   14.78
   5  -3  -3  154.48   15.12
  -5   3   2  166.55   23.74
   5  -3  -2  116.97   25.89
   5  -3  -2  137.87   14.49
   5  -3  -2  143.64   12.84
  -5   3   1 1417.66   72.12
   5  -3  -1 1602.60   88.90
  -5   3   0 1846.66   86.64
   5  -3   0 2050.19   98.00
  -5   3  -1 1100.85   62.59
   5  -3   1 1095.30   68.27
   5  -3   1 1238.56   47.44
   5  -3   1 1150.81   34.68
   5  -3   2   91.34   19.19
  -5   3  -2   78.63   18.95
   5  -3   2   66.45   11.65
   5  -3   2   80.37    8.68
   5  -3   3 1926.61   59.21
   5  -3   3 1869.89   49.75
   5  -3   3 1961.94   47.49
   5  -3   4 2794.15   71.17
   5  -3   4 2949.20   66.03
   5  -3   4 2967.27   62.10
  -5   3  -5 1234.14   82.27
   5  -3   5 1064.84   39.35
   5  -3   5 1192.57   37.65
  -5   3  -6    7.77    8.41
   5  -3   6    3.73    2.85
   5  -3   7  822.59   35.18
   5  -3   7  794.17   31.39
   5  -3   8 1059.69   40.16
   5  -3   8 1016.20   32.87
   5  -3   9  278.02   19.52
   5  -3  10   16.75    4.52
   5  -2 -11   46.48    9.01
   5  -2 -10  120.22   16.35
   5  -2  -9  412.81   30.93
   5  -2  -8  542.98   35.07
   5  -2  -8  635.15   29.43
  -5   2   7   44.39   18.00
   5  -2  -7   66.17    9.35
   5  -2  -7   64.68   11.57
   5  -2  -7   35.83   14.51
  -5   2   6   52.95   20.65
   5  -2  -6   52.88    8.59
   5  -2  -6   46.03    9.45
   5  -2  -6   43.45   15.30
  -5   2   5   30.97   13.76
   5  -2  -5   50.67    8.58
   5  -2  -5   31.34   11.93
   5  -2  -4   28.47    7.73
  -5   2   4   32.72   17.90
   5  -2  -4   45.07    7.86
   5  -2  -4   36.36   13.86
  -5   2   3  103.39   31.58
   5  -2  -3  117.48   12.91
   5  -2  -3   97.37   22.27
   5  -2  -3  107.68   12.39
  -5   2   2   15.79    7.23
   5  -2  -2    8.55    3.65
   5  -2  -2    9.76    9.57
   5  -2  -1  365.03   39.98
  -5   2   1  415.89   38.27
   5  -2   0 1457.51   76.66
   5  -2   0 1418.00   38.70
   5  -2   1  452.36   40.85
   5  -2   1  392.12   24.73
  -5   2  -1  481.66   42.39
   5  -2   1  411.44   20.56
   5  -2   2    4.60    2.98
  -5   2  -2   -5.22    6.16
   5  -2   2    0.20    2.64
   5  -2   2    3.95    3.72
   5  -2   3  563.88   27.84
   5  -2   3  582.44   26.26
   5  -2   4  879.12   32.78
   5  -2   4  872.65   33.59
  -5   2  -5  218.98   35.54
   5  -2   5  258.74   18.22
   5  -2   5  255.37   17.71
   5  -2   6   11.54    4.17
   5  -2   6   14.95    4.56
   5  -2   7  145.23   14.37
   5  -2   7  132.35   13.94
   5  -2   8   -1.00    2.34
   5  -2   8    2.26    3.48
   5  -2   9   12.98    3.23
   5  -2   9   16.79    4.99
   5  -1 -12  698.58   30.91
   5  -1 -12  477.83   22.71
   5  -1 -11   90.54   13.38
   5  -1 -10  157.70   18.76
   5  -1  -9 1251.77   55.50
   5  -1  -9 1392.97   45.63
   5  -1  -8 1316.01   55.39
   5  -1  -8 1357.63   46.20
   5  -1  -7  154.60   31.88
  -5   1   7  162.29   33.93
   5  -1  -7  202.48   16.80
  -5   1   6   50.56   17.53
   5  -1  -6   46.11    7.78
   5  -1  -6   58.84   18.14
   5  -1  -5  144.25   27.94
  -5   1   5  141.87   30.52
   5  -1  -5  151.36   14.66
   5  -1  -5  142.02   16.20
   5  -1  -4  132.16   27.17
  -5   1   4  108.23   26.53
   5  -1  -4  113.50   12.25
   5  -1  -4   86.48   12.20
   5  -1  -3   13.16    4.61
  -5   1   3   13.11   12.05
   5  -1  -3   15.77    4.97
   5  -1  -3   31.46   13.58
   5  -1  -2   11.44    4.33
  -5   1   2    3.23    2.72
   5  -1  -2    6.42    3.14
   5  -1  -2   10.49    5.66
   5  -1  -1   38.67    5.87
  -5   1   1   37.46   11.21
   5  -1  -1   35.03   11.87
   5  -1   0  155.75   23.77
  -5   1   0  176.75   24.28
   5  -1   0  147.08   12.42
   5  -1   1   83.41   16.74
  -5   1  -1   59.00   16.77
   5  -1   1   65.23    9.45
   5  -1   1   59.55    8.16
   5  -1   2    1.68    2.24
  -5   1  -2   -3.11    8.53
   5  -1   3   19.06    5.60
  -5   1  -3   15.75   13.28
   5  -1   4    6.06    3.55
  -5   1  -4   12.59    9.26
   5  -1   4   10.25    4.16
   5  -1   5   70.67    9.38
   5  -1   5   59.09    8.91
   5  -1   6   31.57    6.73
   5  -1   6   28.66    6.17
   5  -1   7  146.70   14.16
   5  -1   7  150.57   14.01
   5  -1   8  490.72   24.84
   5  -1   8  458.17   22.34
   5  -1   9  394.62   20.67
   5  -1   9  408.77   17.84
   5   0 -12  704.21   29.73
   5   0 -11  198.33   23.75
   5   0 -10   56.91   11.72
   5   0  -9  823.22   36.65
  -5   0   8  281.99   46.32
   5   0  -8  363.56   24.51
  -5   0   7   59.69   19.68
   5   0  -7   66.92   10.97
   5   0  -7   70.46   11.64
   5   0  -7   42.00   17.90
   5   0  -6   -1.77    2.80
   5   0  -6   -0.68    1.96
   5   0  -6    1.09    6.43
   5   0  -5   17.52    5.76
  -5   0   5   23.54   12.46
   5   0  -5   13.63    5.51
   5   0  -5    5.32    4.02
   5   0  -5   14.29   10.97
  -5   0   4   98.46   24.10
   5   0  -4   85.42   10.84
   5   0  -4  113.84   23.75
   5   0  -4   77.85   10.82
   5   0  -3  118.06   22.87
  -5   0   3   97.00   24.48
   5   0  -3  106.31   12.06
   5   0  -3   99.95   11.25
   5   0  -2    2.75    2.53
  -5   0   2    0.43    4.86
   5   0  -2   -0.01    2.43
   5   0  -2   -2.56    5.17
   5   0  -1  177.63   25.68
  -5   0   1  215.24   26.67
   5   0  -1  208.68   16.50
   5   0  -1  180.68   14.24
   5   0   0   38.74    6.43
  -5   0   0   60.50   14.18
   5   0   0   40.87    6.97
   5   0   0   47.41   13.57
   5   0   1   15.85    4.55
  -5   0  -1   22.25   10.92
   5   0   2    0.74    1.78
   5   0   3    5.71    3.31
   5   0   4  367.44   22.85
   5   0   5  270.89   18.41
   5   0   5  283.74   20.43
   5   0   6    7.35    3.86
   5   0   6    7.88    3.14
   5   0   7  343.78   20.38
   5   0   7  332.51   19.96
   5   0   8  687.15   27.73
   5   0   8  656.60   26.00
   5   1 -12   43.03    7.94
   5   1 -11   13.88    6.19
   5   1 -10    4.94    4.60
   5   1  -9  170.55   17.13
   5   1  -9  167.53   19.26
   5   1  -8  254.78   21.80
   5   1  -8  216.39   23.78
  -5  -1   7   43.70   16.58
   5   1  -7   36.09   10.02
   5   1  -7   25.97   12.06
   5   1  -7   39.48    7.79
  -5  -1   6  114.70   27.16
   5   1  -6   82.86   13.23
   5   1  -6   84.23   12.07
   5   1  -6   57.49   22.71
   5   1  -5  960.21   76.12
   5   1  -5  836.22   38.44
   5   1  -5  861.33   37.75
   5   1  -4 1116.73   78.81
   5   1  -4 1135.61   40.20
   5   1  -4 1027.95   39.81
   5   1  -4 1100.26   39.31
   5   1  -3  320.27   41.02
   5   1  -3  350.18   21.52
   5   1  -3  331.27   20.51
   5   1  -2   20.45    5.11
   5   1  -2   23.26    5.56
   5   1  -2   18.64    9.59
   5   1  -1  362.61   38.07
   5   1  -1  410.03   21.15
   5   1  -1  367.28   21.28
   5   1   0  546.76   46.47
  -5  -1   0  539.70   47.34
   5   1   0  562.01   26.84
   5   1   1  163.69   14.80
   5   1   2    3.72    2.76
   5   1   3    9.21    4.16
   5   1   4   12.58    4.48
   5   1   5   58.31    9.34
   5   1   6   17.47    4.89
   5   1   6   21.35    4.94
   5   1   7   75.80    8.94
   5   1   7   64.35    8.35
   5   1   8  364.06   17.31
   5   1   8  359.72   17.71
   5   2 -12  229.72   17.88
   5   2 -11   25.10    7.35
   5   2 -10  247.13   22.86
   5   2  -9 1406.50   50.52
   5   2  -9 1322.66   54.09
   5   2  -8 1613.33   54.96
   5   2  -8 1537.63   58.59
   5   2  -7  746.24   36.15
   5   2  -7  682.90   37.09
  -5  -2   6   26.58   17.18
   5   2  -6   30.26    8.43
   5   2  -6   46.26    9.79
   5   2  -5 2205.65  119.69
   5   2  -5 2084.76   63.42
  -5  -2   5 1882.68  117.30
   5   2  -5 2129.80   62.43
   5   2  -4 3178.52  139.36
   5   2  -4 3418.74   80.73
   5   2  -3 1632.50   52.78
   5   2  -3 1562.34   47.77
   5   2  -2    4.58    3.13
   5   2  -2   11.16    4.27
   5   2  -2    1.02    2.38
   5   2  -2    3.24    2.48
   5   2  -1 1049.69   38.84
   5   2   0 1215.25   42.42
   5   2   1  317.61   21.45
   5   2   2    4.18    3.64
   5   2   3   17.91    4.77
   5   2   4   14.87    4.64
   5   2   5   13.16    4.33
   5   2   6   -2.05    1.91
   5   2   7   31.54    6.13
   5   3 -12  534.25   26.00
   5   3 -11  177.27   18.07
   5   3 -10   79.87   12.35
   5   3  -9 1374.48   53.72
   5   3  -8 2239.75   69.11
   5   3  -8 2456.55   72.86
   5   3  -7 1157.72   46.28
   5   3  -7 1121.80   47.52
   5   3  -6  109.60   13.48
   5   3  -6  143.62   16.25
   5   3  -5 1510.98   51.44
   5   3  -5 1474.18   53.58
   5   3  -4 2121.14   58.70
   5   3  -4 2031.75   63.59
   5   3  -3  605.79   28.50
   5   3  -3  701.64   36.46
   5   3  -2    1.91    2.05
   5   3  -2    3.94    2.29
   5   3  -1  244.93   24.11
   5   3  -1  241.00   18.65
   5   3   0  116.97   19.95
   5   3   0  144.67   14.91
   5   3   1   65.45   10.64
   5   3   2    8.54    3.49
   5   3   3    8.44    3.69
   5   3   4   28.15    6.58
   5   3   5   35.46    6.53
   5   3   6   -1.06    1.58
   5   4 -11   62.81    9.68
   5   4 -10   38.13    8.60
   5   4  -9  367.12   26.36
   5   4  -8  532.87   32.08
   5   4  -7  199.32   19.98
   5   4  -6    4.47    4.21
   5   4  -6    4.99    3.93
   5   4  -5   36.52    8.98
   5   4  -5   83.86   12.73
   5   4  -4   69.17   10.65
   5   4  -4   96.57   14.14
   5   4  -3   48.27   10.87
   5   4  -2   21.78    8.52
   5   4  -1   73.24   10.65
   5   4  -1   65.10   12.79
   5   4   0   86.52   16.44
   5   4   0  122.82   14.02
   5   4   1  244.48   24.48
   5   4   1  198.64   18.21
   5   4   2   47.38    8.52
   5   4   2   33.68    9.39
   5   4   3  206.22   17.22
   5   4   4  469.66   24.94
   5   4   5  263.09   16.13
   5   5 -11   18.62    5.32
   5   5 -10   -0.23    2.68
   5   5  -9   -1.79    2.83
   5   5  -8   -8.15    4.59
   5   5  -7    3.70    2.54
   5   5  -6   67.67   11.92
   5   5  -5  197.35   20.25
   5   5  -4  427.16   31.30
   5   5  -3  382.56   30.10
   5   5  -2    1.37    2.86
   5   5  -1  710.13   42.67
   5   5   0 1663.75   65.08
   5   5   1 1299.59   55.84
   5   5   1 1251.13   42.89
   5   5   2   34.97    6.78
   5   5   2   35.05    9.43
   5   5   3  432.12   21.79
   5   5   4  956.35   28.85
   5   6 -10   11.91    4.27
   5   6  -9   66.47   10.84
   5   6  -8  103.04   14.33
   5   6  -7   37.78    8.27
   5   6  -6   21.35    7.08
   5   6  -5  501.87   32.87
   5   6  -4 1112.07   50.26
   5   6  -3  636.83   39.18
   5   6  -2    9.52    6.13
   5   6  -1  818.67   43.33
   5   6   0 1664.80   59.77
   5   6   1  981.05   44.40
   5   7  -8    5.43    3.72
   5   7  -7   -2.15    2.49
   5   7  -6   24.01    7.29
   5   7  -5  201.08   19.66
   5   7  -4  403.69   27.79
   5   7  -3  191.43   19.56
   5   7  -2    7.90    4.37
   5   7  -1  211.22   19.32
   5   7   0  355.35   23.67
   6 -12   1   59.37    6.09
   6 -12   2  160.21   10.19
   6 -12   3  571.42   19.61
   6 -12   4  216.24   11.51
   6 -12   4   42.17    4.88
   6 -11  -2   14.14    3.49
   6 -11  -1  161.55   11.55
   6 -11   0  131.09   10.76
   6 -11   1    8.75    3.15
   6 -11   2    3.87    2.53
   6 -11   2    0.36    1.87
   6 -11   3    3.47    2.31
   6 -11   3    0.74    2.05
   6 -11   4    9.98    3.63
   6 -11   4    5.55    2.89
   6 -11   4   13.57    4.42
   6 -11   5    6.12    2.49
   6 -11   5    4.14    2.40
   6 -11   5    4.39    2.72
   6 -11   6    3.32    1.70
   6 -11   6    4.76    2.18
   6 -11   6   -0.56    2.48
   6 -11   7  131.52    9.29
   6 -11   7  118.27   11.55
   6 -10  -4   15.42    3.89
   6 -10  -3   23.03    5.04
   6 -10  -2   28.33    5.33
   6 -10  -1   13.97    4.19
   6 -10   0   58.28    7.93
   6 -10   1    8.11    3.71
   6 -10   1    5.58    2.91
   6 -10   1    0.86    2.58
   6 -10   2   75.35    9.49
   6 -10   2   55.27    8.35
   6 -10   2   70.07   11.67
   6 -10   3  415.43   21.99
   6 -10   3  375.04   26.12
   6 -10   4  652.75   28.41
   6 -10   4  675.36   34.63
   6 -10   5  111.80   14.84
   6 -10   5  209.29   18.71
   6 -10   6   35.97    7.05
   6 -10   6   49.13    8.84
   6 -10   7  402.86   22.18
   6 -10   7  757.64   31.43
   6 -10   8  229.84   14.25
   6 -10   8  821.96   29.66
   6  -9  -6    6.01    2.88
   6  -9  -5   22.09    4.66
   6  -9  -4   34.32    6.36
   6  -9  -3    7.22    3.22
   6  -9  -2   -0.26    1.77
   6  -9  -1   80.03   10.10
   6  -9  -1   74.65    8.32
   6  -9   0  262.67   18.30
   6  -9   0  253.63   17.09
   6  -9   0  264.93   22.51
   6  -9   1  100.48   11.67
   6  -9   1   81.62   11.40
   6  -9   1  100.45   14.64
   6  -9   2   54.50    8.62
   6  -9   2   61.29    9.91
   6  -9   2   52.69   10.32
   6  -9   3  844.96   35.98
   6  -9   3  687.92   36.15
   6  -9   4 1192.77   42.59
   6  -9   4  992.45   43.10
   6  -9   5  280.31   21.11
   6  -9   5  250.01   20.97
   6  -9   6   63.04   10.22
   6  -9   6   81.83   11.64
   6  -9   7  502.44   25.89
   6  -9   7  639.62   31.30
   6  -9   8  358.50   20.47
   6  -9   8  653.59   29.04
   6  -8  -7   26.99    5.45
   6  -8  -6  235.25   16.99
   6  -8  -5  523.97   26.45
   6  -8  -4  204.85   16.49
   6  -8  -3    5.02    3.53
   6  -8  -2   17.25    4.92
   6  -8  -2   28.68    5.40
   6  -8  -1    7.69    3.37
   6  -8  -1    7.45    4.36
   6  -8  -1    8.09    4.55
   6  -8   0   18.07    5.55
   6  -8   0   26.06    6.01
   6  -8   0   20.16    6.72
   6  -8   1   22.51    6.21
   6  -8   1   24.68    6.45
   6  -8   1   27.06    7.29
   6  -8   2    3.02    2.28
   6  -8   2    4.56    3.63
   6  -8   3  182.13   17.07
   6  -8   3  145.64   16.38
   6  -8   4  262.63   21.01
   6  -8   4  218.32   20.27
   6  -8   5  116.97   14.85
   6  -8   6   -1.26    2.55
   6  -8   6    3.95    4.08
   6  -8   7   87.13   13.52
   6  -8   7  140.47   15.01
   6  -8   8   74.97    9.15
   6  -8   8   83.89   11.18
   6  -8   9    0.89    1.51
   6  -8   9    9.03    3.26
   6  -7  -8  971.61   33.67
   6  -7  -7   43.60    7.44
   6  -7  -6  283.39   20.35
   6  -7  -5  920.54   37.64
   6  -7  -4  680.45   31.79
   6  -7  -3   29.31    7.04
   6  -7  -3   18.49    4.82
   6  -7  -2   80.70   10.88
  -6   7   2  106.66   22.13
   6  -7  -2  100.45   11.06
   6  -7  -1  134.65   14.07
  -6   7   1  102.84   23.60
   6  -7  -1  140.19   13.94
   6  -7  -1  144.51   17.32
   6  -7  -1  135.09   29.18
  -6   7   0   -0.56    5.47
   6  -7   0    0.71    1.79
   6  -7   0    6.12    4.64
   6  -7   0    3.61    2.99
   6  -7   0    5.83    9.29
  -6   7  -1   72.88   19.80
   6  -7   1   51.37    9.29
   6  -7   1   51.19   10.26
   6  -7   1   64.98   19.18
   6  -7   2   13.22    5.96
  -6   7  -2   21.71   11.15
   6  -7   2   27.05    8.58
   6  -7   2   19.41    6.33
   6  -7   2   20.85   12.67
   6  -7   3   16.72    5.72
   6  -7   3   18.62    6.03
   6  -7   3   18.11    8.57
   6  -7   4   44.50    9.23
   6  -7   4   44.64    9.68
   6  -7   5    6.88    3.16
   6  -7   5    3.74    3.97
   6  -7   6   -1.01    4.15
   6  -7   6    3.15    4.36
   6  -7   7    8.56    3.88
   6  -7   7   16.90    5.81
   6  -7   8  106.36   10.33
   6  -7   8  110.48   12.94
   6  -7   9  103.82   11.17
   6  -6  -9  788.66   30.25
   6  -6  -8  607.84   29.61
   6  -6  -7   54.12    9.14
   6  -6  -6  104.05   12.87
   6  -6  -5  356.36   23.69
   6  -6  -4   56.95    9.37
   6  -6  -4   39.10    6.78
  -6   6   3  -11.29   15.88
   6  -6  -3    3.20    2.29
   6  -6  -3    0.98    2.55
   6  -6  -3   10.58   11.18
  -6   6   2   37.39   13.39
   6  -6  -2   36.49    7.45
   6  -6  -2   39.77    7.75
   6  -6  -2   38.09   17.69
   6  -6  -1   23.50    6.46
  -6   6   1   24.82   10.68
   6  -6  -1   25.39    6.54
   6  -6  -1   31.21    7.50
   6  -6  -1   30.94   14.26
   6  -6   0  142.04   14.56
  -6   6   0  165.35   27.98
   6  -6   0  140.79   15.33
   6  -6   0   88.11   12.55
   6  -6   0  133.57   28.59
   6  -6   1   37.25    7.96
  -6   6  -1   55.47   17.69
   6  -6   1   55.24    9.96
   6  -6   1   45.79    9.25
   6  -6   1   36.71   14.94
   6  -6   2    6.16    2.94
  -6   6  -2   -7.34   12.35
   6  -6   2    6.63    5.66
   6  -6   2    1.34    2.81
   6  -6   3   31.04    7.15
  -6   6  -3   28.97   10.49
   6  -6   3   43.02    9.09
   6  -6   3   24.56    6.36
   6  -6   3   26.52   12.95
   6  -6   4    2.22    2.80
   6  -6   4    4.97    4.75
   6  -6   5    3.60    3.64
   6  -6   5    3.37    2.88
   6  -6   6    2.97    2.45
   6  -6   6   -1.73    3.13
   6  -6   7   70.26    9.84
   6  -6   7   69.07   11.45
   6  -6   8  150.07   15.26
   6  -6   9  159.90   14.44
   6  -5  -9   15.21    4.94
   6  -5  -8   13.65    5.18
   6  -5  -7   11.77    4.87
   6  -5  -6   33.92    7.75
   6  -5  -5  328.87   23.53
   6  -5  -5  343.40   20.06
   6  -5  -4  711.92   33.89
  -6   5   4  801.83   79.58
   6  -5  -4  650.11   65.49
   6  -5  -4  699.02   29.87
   6  -5  -3  127.07   13.67
  -6   5   3  131.51   33.10
   6  -5  -3  135.88   13.68
   6  -5  -3  137.17   28.93
   6  -5  -2  182.25   15.66
  -6   5   2  223.26   31.50
   6  -5  -2  176.89   35.14
   6  -5  -2  169.39   15.87
   6  -5  -2  172.59   16.32
   6  -5  -1 1374.36   45.18
   6  -5  -1 1310.61   92.94
   6  -5  -1 1483.34   50.22
   6  -5  -1 1410.58   46.68
   6  -5   0 1329.25   44.13
  -6   5   0 1069.23   72.57
   6  -5   0 1133.75   83.61
   6  -5   0 1353.50   48.76
   6  -5   0 1341.43   43.05
  -6   5  -1  369.42   42.74
   6  -5   1  293.51   40.98
   6  -5   1  290.88   23.59
   6  -5   1  268.37   18.34
  -6   5  -2   91.75   23.78
   6  -5   2  102.12   14.21
   6  -5   2   91.22   12.38
   6  -5   2   59.30   19.54
   6  -5   2   88.30   10.42
  -6   5  -3  497.43   55.34
   6  -5   3  439.80   31.49
   6  -5   3  455.86   28.25
   6  -5   3  477.24   23.80
  -6   5  -4  378.33   49.63
   6  -5   4  345.98   25.36
   6  -5   4  338.22   24.38
   6  -5   4  376.70   20.93
   6  -5   5   32.93    6.58
   6  -5   5   33.03    7.57
   6  -5   5   33.64    7.86
   6  -5   6   48.02    8.22
   6  -5   6   42.62    8.75
   6  -5   7   11.65    4.56
   6  -5   8   26.39    6.54
   6  -5   9   83.49   10.11
   6  -4 -10  156.82   14.50
   6  -4  -9  346.59   23.95
   6  -4  -8  669.52   35.68
   6  -4  -7   82.25   12.35
   6  -4  -6  413.74   27.46
   6  -4  -6  489.31   24.41
   6  -4  -5 2784.64   73.17
   6  -4  -5 2604.67  130.46
  -6   4   5 2485.69  140.87
   6  -4  -5 2786.68   64.77
   6  -4  -4 2668.91   68.44
   6  -4  -4 2525.29  130.55
   6  -4  -4 2606.17   64.29
   6  -4  -3  787.63   34.52
  -6   4   3  771.19   81.92
   6  -4  -3  703.43   68.62
   6  -4  -3  747.62   33.63
   6  -4  -3  693.63   34.82
   6  -4  -2  325.35   45.76
  -6   4   2  382.68   39.20
   6  -4  -2  370.79   24.25
   6  -4  -2  386.25   23.38
   6  -4  -1 3061.78  138.27
  -6   4   1 3065.63  119.77
   6  -4  -1 3185.09   78.57
   6  -4  -1 3177.09   70.55
   6  -4   0 2242.82  114.29
  -6   4   0 2240.20  105.74
   6  -4   0 2639.19   71.88
   6  -4   0 2581.90   61.23
   6  -4   1  687.53   61.28
  -6   4  -1  647.49   58.76
   6  -4   1  760.45   37.48
   6  -4   1  779.72   31.14
   6  -4   2  111.60   15.71
   6  -4   2   92.11   21.58
   6  -4   2  128.65   12.42
   6  -4   3  756.33   35.12
   6  -4   3  750.89   30.70
  -6   4  -4  609.34   58.60
   6  -4   4  681.41   34.01
   6  -4   4  645.90   32.65
   6  -4   4  703.73   29.71
   6  -4   5    8.07    2.97
   6  -4   5    7.13    2.83
   6  -4   6   31.15    5.97
   6  -4   6   35.65    7.88
   6  -4   7   17.90    4.38
   6  -4   7   23.85    5.89
   6  -4   8   10.14    4.67
   6  -4   9    6.21    2.85
   6  -3 -10  119.42   13.58
   6  -3 -10   48.40    7.41
   6  -3  -9  623.49   34.06
   6  -3  -9  376.44   26.16
   6  -3  -8  967.04   44.57
   6  -3  -8 1164.65   37.23
   6  -3  -7  189.66   19.14
   6  -3  -7  188.16   16.08
   6  -3  -6  263.93   22.03
   6  -3  -6  200.65   35.89
   6  -3  -6  257.59   19.17
   6  -3  -5 2164.16  121.58
   6  -3  -5 2315.37   60.93
   6  -3  -4 2920.23  144.70
   6  -3  -4 2980.40   71.60
   6  -3  -4 2825.63   75.38
   6  -3  -3  871.83   76.83
  -6   3   3  937.18   90.19
   6  -3  -3  890.53   38.64
   6  -3  -3  941.60   38.08
   6  -3  -2  260.67   39.94
   6  -3  -2  280.92   21.69
   6  -3  -2  277.65   20.04
   6  -3  -1 1640.98   97.29
  -6   3   1 1653.11   86.21
   6  -3  -1 1729.31   56.94
   6  -3  -1 1583.34   47.49
   6  -3   0 1758.90   96.54
  -6   3   0 1838.70   97.17
   6  -3   0 1741.40   59.24
   6  -3   0 1858.23   50.28
   6  -3   1  248.90   35.38
  -6   3  -1  227.32   33.34
   6  -3   1  191.90   21.10
   6  -3   1  253.24   17.98
   6  -3   2  111.93   15.29
   6  -3   2  145.41   13.74
  -6   3  -3  265.86   37.85
   6  -3   3  220.98   19.85
   6  -3   3  247.46   18.22
   6  -3   4   32.56    6.37
   6  -3   4   38.69    7.72
   6  -3   4   30.68    7.17
   6  -3   5   15.83    5.14
   6  -3   5   18.90    5.77
   6  -3   6    5.40    1.87
   6  -3   6    2.14    1.85
   6  -3   7    6.60    2.80
   6  -3   7    4.76    2.94
   6  -3   8   35.22    6.42
   6  -3   8   38.75    5.64
   6  -2 -11    1.00    1.96
   6  -2 -10    1.88    2.00
   6  -2  -9  441.85   22.24
   6  -2  -9  388.46   25.35
   6  -2  -8  515.28   26.76
   6  -2  -8  442.22   29.30
   6  -2  -7  174.12   16.40
   6  -2  -7  160.48   15.90
  -6   2   6  104.54   28.47
   6  -2  -6   97.81   12.35
   6  -2  -6   91.40   24.64
   6  -2  -5  820.63   75.16
   6  -2  -5  790.09   36.17
   6  -2  -4  726.73   71.30
  -6   2   4  676.77   74.91
   6  -2  -4  676.72   33.90
   6  -2  -4  698.80   33.54
  -6   2   3   98.39   31.41
   6  -2  -3  121.77   14.57
   6  -2  -3  117.42   27.24
   6  -2  -3  102.88   12.18
   6  -2  -2   59.92   10.38
   6  -2  -2   52.31   17.92
   6  -2  -2   64.03    9.16
   6  -2  -1    1.57    1.32
   6  -2  -1   -0.06    3.01
   6  -2  -1    0.60    6.46
   6  -2   0    3.53    2.20
  -6   2   0    3.46    6.53
   6  -2   0    3.58    4.04
   6  -2   0    2.79    3.39
   6  -2   1  126.56   22.82
  -6   2  -1  117.37   23.51
   6  -2   1   84.70   12.08
   6  -2   1  116.33   12.33
   6  -2   2    5.02    2.62
  -6   2  -2    4.48    7.82
   6  -2   2   -0.21    2.29
  -6   2  -3  328.70   43.74
   6  -2   3  290.66   19.35
   6  -2   4  572.84   27.82
   6  -2   5  355.19   22.28
   6  -2   5  343.49   21.12
   6  -2   6    3.69    2.62
   6  -2   6    2.63    2.96
   6  -2   7  192.87   15.54
   6  -2   7  193.79   14.05
   6  -2   8  535.56   24.11
   6  -2   8  541.54   20.58
   6  -1 -11    0.40    1.80
   6  -1 -10    5.43    3.65
   6  -1  -9    5.57    3.56
   6  -1  -9   -1.79    2.12
   6  -1  -8    9.01    3.75
   6  -1  -8    8.62    3.24
   6  -1  -7   46.69    8.85
   6  -1  -7   30.48    6.72
  -6   1   6   -0.92    9.65
   6  -1  -6   17.44    5.92
   6  -1  -6    9.50   10.98
   6  -1  -5   53.70   11.59
  -6   1   5   61.00   23.10
   6  -1  -5   57.69   10.96
   6  -1  -5   46.65   20.23
  -6   1   4   71.35   22.71
   6  -1  -4   63.64   10.99
   6  -1  -4   76.39   23.14
   6  -1  -4   62.11   10.74
   6  -1  -3    5.84    3.16
  -6   1   3    3.89    9.17
   6  -1  -3    2.22    2.44
   6  -1  -3    7.25    5.50
  -6   1   2  100.48   31.45
   6  -1  -2   99.78   13.84
   6  -1  -2  122.78   25.65
   6  -1  -2  100.08   11.64
   6  -1  -1  479.22   48.78
   6  -1  -1  441.67   28.77
   6  -1  -1  474.99   25.06
   6  -1   0 1226.43   75.36
   6  -1   0 1174.51   44.24
   6  -1   0 1145.58   40.16
  -6   1  -1  819.12   65.10
   6  -1   1  836.15   33.96
   6  -1   1  784.71   33.81
   6  -1   2   15.35    4.81
  -6   1  -2   20.60   11.33
   6  -1   3  927.25   36.54
   6  -1   4 2149.74   57.86
   6  -1   5 1163.44   40.26
   6  -1   6   11.77    4.47
   6  -1   7  630.39   25.28
   6  -1   8  826.12   24.76
   6   0 -11    4.54    2.84
   6   0 -10    0.34    2.97
   6   0  -9   10.46    4.27
   6   0  -9    7.90    3.57
   6   0  -8   77.50   11.50
   6   0  -8   57.10   11.15
   6   0  -7   63.14   11.00
   6   0  -7   47.54    9.66
   6   0  -6    6.30    4.84
   6   0  -6   -1.43    3.75
   6   0  -5   48.96    9.34
   6   0  -5   60.74   10.28
   6   0  -5   37.56   17.90
   6   0  -4  108.55   14.86
   6   0  -4   92.64   25.87
   6   0  -4   93.64   12.49
   6   0  -3  269.37   43.29
   6   0  -3  326.51   24.49
   6   0  -3  275.45   20.64
   6   0  -2   10.72    4.60
   6   0  -2    9.79    4.81
   6   0  -2   11.26    9.11
   6   0  -1  986.49   71.57
   6   0  -1 1025.61   39.37
   6   0  -1  969.86   37.70
   6   0   0 2303.15   57.66
   6   0   0 2112.21   57.95
   6   0   1  852.63   36.11
   6   0   2    2.74    2.28
   6   0   3 1029.03   40.49
   6   0   4 2190.21   59.03
   6   0   5  490.14   25.78
   6   0   6    5.84    2.38
   6   0   7  332.78   17.64
   6   1 -11   91.63   11.08
   6   1 -10   25.45    7.69
   6   1  -9  419.10   26.58
   6   1  -9  386.74   27.41
   6   1  -8  507.03   30.30
   6   1  -8  418.69   28.64
   6   1  -7   43.95    9.06
   6   1  -7   51.22    9.70
   6   1  -6    2.62    2.50
   6   1  -6    5.01    4.31
   6   1  -5   16.38    5.73
   6   1  -5   24.37    7.47
   6   1  -5    9.28    3.74
   6   1  -5   13.79   13.93
   6   1  -4   88.17   12.97
   6   1  -4   78.59   11.55
   6   1  -3   37.71    7.88
   6   1  -3   50.87    9.56
   6   1  -2   82.70   10.82
   6   1  -2   83.22   11.89
   6   1  -2   68.04   21.77
   6   1  -1  480.09   25.09
   6   1  -1  424.16   25.21
   6   1   0  594.04   30.32
   6   1   1  210.05   18.68
   6   1   2    2.51    3.11
   6   1   3  306.75   21.57
   6   1   4  296.23   20.62
   6   1   5   52.32    8.63
   6   1   6    4.19    3.21
   6   2 -11  270.79   18.46
   6   2 -10   57.30   10.00
   6   2  -9  448.74   27.85
   6   2  -8  724.74   37.84
   6   2  -8  635.57   34.06
   6   2  -7  199.91   19.67
   6   2  -7  171.05   18.04
   6   2  -6    2.10    3.38
   6   2  -6   -1.63    3.18
   6   2  -5   72.50   12.44
   6   2  -5   59.06   10.68
   6   2  -4   10.49    5.70
   6   2  -4   10.83    6.06
   6   2  -3    6.18    4.53
   6   2  -3    3.83    2.74
   6   2  -2   -4.12    3.27
   6   2  -2    0.47    2.93
   6   2  -1    0.56    2.62
   6   2   0  126.79   14.20
   6   2   1   56.65    9.16
   6   2   2    2.21    2.17
   6   2   3    7.59    3.50
   6   2   4   36.70    7.22
   6   2   5   49.28    8.43
   6   3 -10   11.22    3.89
   6   3  -9  158.59   16.49
   6   3  -8  131.58   15.65
   6   3  -7   33.69    9.70
   6   3  -7   53.79   10.04
   6   3  -6    8.12    5.92
   6   3  -6   10.48    4.97
   6   3  -5    7.54    5.85
   6   3  -5   12.68    4.73
   6   3  -4   24.09    7.49
   6   3  -4   38.02    8.35
   6   3  -3   34.59    7.32
   6   3  -3   52.50   10.50
   6   3  -2    4.36    2.31
   6   3  -2    7.72    5.55
   6   3  -1   55.57    9.91
   6   3   0   29.11    7.58
   6   3   1    3.49    3.50
   6   3   2    3.47    2.54
   6   3   3   49.31    7.97
   6   3   4   78.16    8.84
   6   4 -10   40.04    7.47
   6   4  -9  103.44   12.85
   6   4  -8  158.24   16.25
   6   4  -7  145.11   15.85
   6   4  -6    9.87    5.02
   6   4  -5  365.26   26.91
   6   4  -4  929.97   44.36
   6   4  -3  393.18   28.69
   6   4  -2   12.60    5.45
   6   4  -1  127.94   17.24
   6   4   0  175.70   15.30
   6   4   1   69.21    9.24
   6   4   2   24.74    5.12
   6   4   3    2.35    1.78
   6   5  -9  661.63   29.95
   6   5  -8 1115.22   42.07
   6   5  -7  520.01   29.73
   6   5  -6   11.92    4.04
   6   5  -5  758.96   39.08
   6   5  -4 1377.15   53.32
   6   5  -3  579.85   34.01
   6   5  -2   22.94    6.74
   6   5  -1  140.88   15.31
   6   6  -7  348.80   22.53
   6   6  -6    1.81    2.77
   6   6  -5  317.42   22.46
   6   6  -4  632.76   32.70
   6   6  -3  386.76   24.73
   6   6  -2   31.69    6.68
   7 -11  -1  377.43   15.89
   7 -11   0  424.08   17.49
   7 -11   1   50.40    6.07
   7 -11   2  136.38    9.82
   7 -11   2  121.96    8.00
   7 -11   3  472.27   18.26
   7 -11   3  383.68   15.70
   7 -11   4  295.93   13.62
   7 -11   4  325.63   18.71
   7 -10  -3   34.90    5.27
   7 -10  -2  426.42   18.98
   7 -10  -1 1244.18   34.89
   7 -10   0 1080.98   32.86
   7 -10   0 1175.18   28.66
   7 -10   1  137.45   11.11
   7 -10   1  137.28   10.46
   7 -10   2  248.14   14.86
   7 -10   2  277.42   15.57
   7 -10   2  236.66   18.09
   7 -10   3 1029.29   31.52
   7 -10   3  925.38   36.73
   7 -10   4  745.14   25.82
   7 -10   4  797.79   27.40
   7 -10   4  700.53   31.08
   7 -10   5   45.00    5.95
   7 -10   5   39.72    5.95
   7 -10   5   41.42    7.26
   7 -10   6  119.47    8.82
   7 -10   6  111.89   10.83
   7  -9  -5  498.12   20.34
   7  -9  -4  525.91   22.36
   7  -9  -3   73.23    8.43
   7  -9  -2  208.72   14.90
   7  -9  -1 1172.12   36.82
   7  -9  -1 1182.02   32.02
   7  -9   0 1160.35   36.42
   7  -9   0 1142.07   34.43
   7  -9   1  117.49   10.91
   7  -9   1  128.82   11.63
   7  -9   1  106.62   12.85
   7  -9   2  218.93   15.34
   7  -9   2  248.22   16.61
   7  -9   2  210.87   18.05
   7  -9   3  626.18   26.38
   7  -9   3  651.49   28.09
   7  -9   3  598.82   30.48
   7  -9   4  247.94   15.69
   7  -9   4  263.47   17.43
   7  -9   4  215.08   17.75
   7  -9   5    0.71    1.71
   7  -9   5    0.58    2.36
   7  -9   6   51.77    7.31
   7  -9   6   57.78    8.18
   7  -9   7   30.69    4.37
   7  -9   7   23.26    4.31
   7  -9   7   24.68    4.90
   7  -8  -6   14.95    4.01
   7  -8  -5  180.14   13.89
   7  -8  -4  264.14   17.35
   7  -8  -3   79.31    9.97
   7  -8  -2   53.49    6.91
   7  -8  -2   46.36    7.37
   7  -8  -1  237.23   16.89
   7  -8  -1  232.55   15.55
   7  -8   0  122.23   12.22
   7  -8   0  114.66   12.30
   7  -8   1    6.75    2.70
   7  -8   1    7.85    3.78
   7  -8   1    8.89    4.20
   7  -8   2    2.11    2.18
   7  -8   2    1.76    3.65
   7  -8   2    7.00    4.47
   7  -8   3   25.90    5.72
   7  -8   3   23.66    5.93
   7  -8   3   26.52    6.60
   7  -8   4  114.86   12.36
   7  -8   4   98.58   12.33
   7  -8   5   93.33   10.39
   7  -8   5   72.64   10.49
   7  -8   6    5.54    3.07
   7  -8   6   -0.23    1.98
   7  -8   7  119.28    9.53
   7  -8   7  121.65   11.50
   7  -7  -7    7.86    2.69
   7  -7  -6    3.61    2.84
   7  -7  -5    3.78    2.76
   7  -7  -4    9.83    3.86
   7  -7  -4   12.77    3.27
   7  -7  -3    7.07    3.56
   7  -7  -3    9.25    3.55
   7  -7  -2   -1.20    1.97
   7  -7  -2    1.55    1.97
   7  -7  -1   89.44   10.74
   7  -7  -1   87.56   10.84
   7  -7   0  198.61   16.10
   7  -7   0  186.56   17.95
   7  -7   1   50.26    8.12
   7  -7   1   49.51    9.98
   7  -7   2   44.57    7.26
   7  -7   2   51.97    8.45
   7  -7   2   43.29    9.15
   7  -7   2   48.02    8.85
   7  -7   3  445.30   26.79
   7  -7   3  423.54   21.91
   7  -7   4  989.80   38.51
   7  -7   4  857.58   37.20
   7  -7   5  483.13   24.87
   7  -7   5  414.67   25.10
   7  -7   6   39.37    6.17
   7  -7   6   30.46    6.44
   7  -7   7  622.41   22.06
   7  -7   7  648.21   28.04
   7  -6  -8   55.69    7.41
   7  -6  -7   20.59    5.28
   7  -6  -6   14.62    4.88
   7  -6  -5   23.75    5.61
   7  -6  -5   26.78    5.11
   7  -6  -4   76.90   10.58
   7  -6  -4   83.15    9.13
   7  -6  -3    2.69    2.01
   7  -6  -3    1.90    1.91
   7  -6  -2   16.99    5.09
   7  -6  -2   16.71    5.53
   7  -6  -1   75.07   10.08
   7  -6  -1   56.79   11.11
   7  -6  -1   55.10   11.11
   7  -6   0  202.39   16.24
   7  -6   0  196.87   19.33
   7  -6   0  165.37   16.85
   7  -6   1  125.96   13.16
   7  -6   1  134.39   16.34
   7  -6   1  124.96   14.30
   7  -6   2   16.91    5.12
   7  -6   2   26.97    6.34
   7  -6   2   18.80    6.69
   7  -6   3  704.27   34.02
   7  -6   3  765.58   30.31
   7  -6   4 1426.24   47.13
   7  -6   4 1334.03   39.30
   7  -6   5  341.11   20.72
   7  -6   5  313.83   21.77
   7  -6   6   41.11    6.62
   7  -6   6   35.09    7.31
   7  -6   7  625.83   27.79
   7  -5  -8  536.98   25.51
   7  -5  -7  137.30   14.16
   7  -5  -6  134.58   14.11
   7  -5  -6  130.01   11.08
   7  -5  -5  550.19   29.06
   7  -5  -5  619.16   26.80
   7  -5  -4  312.91   21.52
   7  -5  -4  305.43   19.96
   7  -5  -3    4.98    3.48
   7  -5  -3    2.21    2.01
   7  -5  -2    5.39    4.54
   7  -5  -2    8.28    4.70
   7  -5  -1    4.18    3.86
   7  -5  -1    4.13    3.61
   7  -5   0   81.36   13.02
   7  -5   0   80.57   11.59
   7  -5   1  132.79   15.94
   7  -5   1  159.00   14.94
   7  -5   2    4.60    2.87
   7  -5   2   -0.03    3.08
   7  -5   3  301.68   21.93
   7  -5   3  321.49   20.66
   7  -5   4  348.06   22.27
   7  -5   4  339.95   19.62
   7  -5   5   78.81    9.32
   7  -5   5   65.31    9.71
   7  -5   5   79.67    8.90
   7  -5   6   12.73    4.51
   7  -5   7  110.15   11.24
   7  -4  -7   65.93    8.20
   7  -4  -6  249.32   17.30
   7  -4  -5  742.57   32.68
   7  -4  -4  366.73   23.42
   7  -4  -3   22.47    9.36
   7  -4  -3   40.29    8.70
   7  -4  -2   35.20    9.12
   7  -4  -2   25.03    8.51
   7  -4  -1   32.57    8.60
   7  -4  -1   48.47   10.49
   7  -4   0   23.41    6.82
   7  -4   0   29.12    8.17
   7  -4   1    4.91    3.59
   7  -4   1    1.11    2.30
   7  -4   2    0.42    3.92
   7  -4   2    5.47    4.47
   7  -4   3    4.53    2.78
   7  -4   3    6.86    3.45
   7  -4   4    5.68    3.13
   7  -4   4    0.27    2.36
   7  -4   5   -2.80    2.21
   7  -4   6    2.13    1.26
   7  -3  -8  682.20   26.64
   7  -3  -7   81.65   10.24
   7  -3  -6   13.23    4.63
   7  -3  -5   92.37   15.01
   7  -3  -4   20.47    6.81
   7  -3  -4   24.62    7.07
   7  -3  -3   -1.80    2.17
   7  -3  -3    4.68    4.70
   7  -3  -2   16.78    5.35
   7  -3  -2   12.68    5.11
   7  -3  -1  113.09   14.86
   7  -3  -1  108.99   13.68
   7  -3   0  190.94   18.63
   7  -3   0  204.69   17.33
   7  -3   1   87.26   11.86
   7  -3   1   88.60   11.76
   7  -3   2    3.90    2.46
   7  -3   2   10.44    4.28
   7  -3   3   56.64    8.72
   7  -3   3   50.06    7.87
   7  -3   4   38.71    6.85
   7  -3   5   -0.25    1.58
   7  -3   6    8.91    2.56
   7  -3   7   35.00    4.72
   7  -2  -9    9.48    3.08
   7  -2  -8   28.91    5.82
   7  -2  -7    8.49    3.73
   7  -2  -6   31.94    7.27
   7  -2  -5  437.94   28.28
   7  -2  -4 1211.23   48.29
   7  -2  -4 1291.79   48.62
   7  -2  -3  395.97   26.88
   7  -2  -3  380.32   25.07
   7  -2  -2   80.27   12.12
   7  -2  -2   67.27   10.76
   7  -2  -1 1130.11   44.24
   7  -2  -1 1092.84   41.74
   7  -2   0  891.69   37.54
   7  -2   0  862.47   36.43
   7  -2   1  391.64   23.44
   7  -2   1  416.28   24.69
   7  -2   2   18.46    5.79
   7  -2   2   15.39    4.72
   7  -2   3  284.85   19.33
   7  -2   4   97.72   11.12
   7  -2   5    8.65    3.47
   7  -2   6    2.44    1.62
   7  -1  -9  516.13   24.11
   7  -1  -8  880.22   36.10
   7  -1  -7  195.22   17.75
   7  -1  -6  305.87   22.73
   7  -1  -5 2371.86   68.59
   7  -1  -4 2446.41   70.99
   7  -1  -4 2655.66   69.93
   7  -1  -3  700.77   36.46
   7  -1  -3  649.27   32.57
   7  -1  -2   99.40   12.71
   7  -1  -2   96.71   11.86
   7  -1  -1 1398.36   47.49
   7  -1  -1 1388.58   47.75
   7  -1   0 2059.48   55.64
   7  -1   0 2039.27   57.84
   7  -1   1  511.26   27.77
   7  -1   2   46.89    8.36
   7  -1   3  284.11   19.36
   7  -1   4  249.64   17.85
   7  -1   5   17.96    5.18
   7  -1   6    6.90    2.96
   7   0  -9  888.29   33.73
   7   0  -9  779.93   28.76
   7   0  -8 1101.30   42.55
   7   0  -7  201.37   18.76
   7   0  -6  172.68   17.80
   7   0  -5 1928.77   62.48
   7   0  -5 1930.49   58.29
   7   0  -4 2040.09   64.76
   7   0  -4 1914.35   58.86
   7   0  -3  747.11   36.94
   7   0  -3  696.88   33.99
   7   0  -2   57.55    9.80
   7   0  -2   52.97    9.45
   7   0  -1  814.60   34.20
   7   0  -1  773.58   35.12
   7   0   0  652.60   31.91
   7   0   1   61.54    9.55
   7   0   2   15.49    4.80
   7   0   3   14.98    4.30
   7   0   4   -0.74    2.12
   7   0   5   18.81    4.62
   7   1 -10   31.10    5.32
   7   1  -9  160.25   12.99
   7   1  -8  247.11   20.41
   7   1  -8  211.54   15.95
   7   1  -7  113.13   14.73
   7   1  -7   77.54   10.60
   7   1  -6   16.56    7.00
   7   1  -5  205.68   20.87
   7   1  -4  292.15   23.22
   7   1  -4  302.38   22.32
   7   1  -3   77.17   11.62
   7   1  -3   70.13   10.58
   7   1  -2    3.97    1.92
   7   1  -2    5.92    3.73
   7   1  -1   -3.10    2.50
   7   1   0   62.32    9.46
   7   1   1   59.75    9.35
   7   1   2    1.71    2.90
   7   1   3   31.05    7.73
   7   1   4  218.77   15.58
   7   2  -9   12.53    4.28
   7   2  -8   17.42    4.94
   7   2  -7   33.43    8.06
   7   2  -7   32.24    7.02
   7   2  -6    4.08    4.20
   7   2  -5   -3.09    3.41
   7   2  -4   45.73    9.06
   7   2  -3   59.76    9.26
   7   2  -3   66.43   10.03
   7   2  -2   11.87    4.77
   7   2  -1  276.96   20.72
   7   2   0  554.55   27.86
   7   2   1  318.01   20.37
   7   2   2    2.92    2.62
   7   2   3  332.04   18.14
   7   3  -8    6.50    2.80
   7   3  -7    5.22    3.32
   7   3  -6   46.07    8.27
   7   3  -1  402.64   21.87
   7   3   0  568.21   25.44
   7   3   1  227.40   14.97
   7   4  -7   89.80   10.29
   7   4  -6   12.52    4.31
   8 -10   0   58.22    5.83
   8 -10   0   54.51    4.64
   8 -10   1    2.64    1.62
   8 -10   1    0.86    0.79
   8 -10   2   21.44    3.61
   8 -10   2   21.74    3.69
   8  -9  -3    3.73    1.44
   8  -9  -2   17.02    3.64
   8  -9  -1    5.24    2.11
   8  -9  -1    5.35    1.55
   8  -9   0   13.96    3.57
   8  -9   0   11.85    2.96
   8  -9   1   35.37    5.26
   8  -9   1   42.78    5.85
   8  -9   2   11.94    3.08
   8  -9   2   12.51    3.36
   8  -9   3   38.11    4.85
   8  -9   3   41.78    5.84
   8  -9   4  112.18    7.68
   8  -9   4  123.17    9.41
   8  -8  -4  130.97   10.07
   8  -8  -3   24.37    4.73
   8  -8  -3   24.42    3.61
   8  -8  -2   64.55    7.38
   8  -8  -2   62.38    6.56
   8  -8  -1  465.41   20.64
   8  -8  -1  461.60   19.87
   8  -8   0  733.00   25.98
   8  -8   0  754.86   27.10
   8  -8   1  191.23   12.67
   8  -8   1  204.74   14.11
   8  -8   2  109.51    9.16
   8  -8   2  122.68   10.95
   8  -8   3  667.80   25.62
   8  -8   4  466.17   20.24
   8  -8   5   62.01    6.53
   8  -7  -5  709.45   24.76
   8  -7  -4  711.48   26.09
   8  -7  -4  678.89   21.91
   8  -7  -3   99.24    9.49
   8  -7  -3  100.03    8.78
   8  -7  -2  251.07   15.50
   8  -7  -2  228.26   14.91
   8  -7  -1 1700.68   45.09
   8  -7   0 1853.53   48.29
   8  -7   1  223.78   15.95
   8  -7   2  239.12   16.48
   8  -7   3 1086.48   34.76
   8  -7   4  719.57   26.17
   8  -7   5   67.46    6.88
   8  -6  -5  729.86   23.89
   8  -6  -4  712.70   25.67
   8  -6  -3  177.66   13.45
   8  -6  -2  243.12   16.56
   8  -6  -1 1337.24   42.38
   8  -6   0  801.38   33.55
   8  -6   0  756.03   32.64
   8  -6   1  108.92   11.67
   8  -6   1  107.13   11.84
   8  -6   2  101.23   11.10
   8  -6   2  112.93   11.45
   8  -6   3  356.27   19.75
   8  -6   3  359.52   19.37
   8  -6   4  149.88   11.54
   8  -6   4  153.07   11.21
   8  -6   5    4.90    2.30
   8  -5  -6    8.30    2.47
   8  -5  -5  166.03   12.41
   8  -5  -4  274.57   17.30
   8  -5  -3   41.36    7.08
   8  -5  -2   56.07    8.79
   8  -5  -1   97.29   12.22
   8  -5  -1  100.07   13.06
   8  -5   0   45.60    8.09
   8  -5   0   46.69    7.64
   8  -5   1   -0.56    2.00
   8  -5   1   -0.94    2.19
   8  -5   2   37.84    6.52
   8  -5   2   27.55    5.67
   8  -5   3   19.33    4.67
   8  -5   3   12.72    3.58
   8  -5   4  195.36   12.55
   8  -5   4  225.19   14.39
   8  -5   5  191.67   11.57
   8  -4  -7   41.15    5.38
   8  -4  -6   -1.69    1.69
   8  -4  -5   32.36    6.11
   8  -4  -4   27.25    6.08
   8  -4  -3    0.58    2.59
   8  -4  -2    6.38    5.48
   8  -4  -2    3.94    3.40
   8  -4  -1   75.25   10.73
   8  -4  -1   78.39   11.99
   8  -4   0  134.36   13.34
   8  -4   0  163.86   15.16
   8  -4   1  158.61   13.98
   8  -4   1  182.12   15.56
   8  -4   2   16.92    4.69
   8  -4   2   10.58    3.67
   8  -4   3  487.47   21.30
   8  -4   3  527.83   23.94
   8  -4   4 1014.53   31.57
   8  -4   5  537.52   20.02
   8  -3  -8  120.41    8.91
   8  -3  -7   39.62    6.17
   8  -3  -6   14.27    4.40
   8  -3  -5   21.62    5.85
   8  -3  -4    6.12    4.38
   8  -3  -3    9.37    3.94
   8  -3  -3   12.45    4.92
   8  -3  -2   26.18    6.88
   8  -3  -2   15.99    4.93
   8  -3  -1   71.89   10.42
   8  -3  -1   84.29   11.48
   8  -3   0  326.92   20.66
   8  -3   0  369.41   22.99
   8  -3   1  178.70   14.48
   8  -3   1  208.93   16.70
   8  -3   2   19.52    5.45
   8  -3   2   21.57    4.47
   8  -3   3  537.99   24.26
   8  -3   4  834.55   28.53
   8  -2  -8  692.83   24.86
   8  -2  -7  156.21   13.16
   8  -2  -6   19.87    5.34
   8  -2  -5  281.74   20.74
   8  -2  -4  351.66   23.79
   8  -2  -3   37.73    7.96
   8  -2  -3   33.08    6.95
   8  -2  -2    0.42    2.22
   8  -2  -2   -0.95    2.64
   8  -2  -1   10.82    3.58
   8  -2  -1   16.77    3.96
   8  -2   0   98.31   10.85
   8  -2   0   94.18   11.49
   8  -2   1   26.68    6.44
   8  -2   1   23.20    5.00
   8  -2   2    6.93    3.54
   8  -2   3  129.23   12.30
   8  -2   4  174.21   12.39
   8  -1  -8 1204.23   35.73
   8  -1  -7  252.54   17.97
   8  -1  -6   57.25    8.99
   8  -1  -5  412.69   25.57
   8  -1  -4  197.20   17.67
   8  -1  -4  199.29   16.99
   8  -1  -3   13.72    4.45
   8  -1  -3   17.64    4.82
   8  -1  -2    8.15    4.43
   8  -1  -2   11.05    4.77
   8  -1  -1    4.33    2.62
   8  -1  -1    4.64    2.53
   8  -1   0    8.44    3.72
   8  -1   1   22.83    6.27
   8  -1   2    0.46    1.53
   8  -1   3   10.60    3.24
   8   0  -8  288.98   17.42
   8   0  -7   40.26    7.70
   8   0  -6    7.10    3.42
   8   0  -5    8.69    3.99
   8   0  -4   26.81    6.66
   8   0  -4   26.32    6.28
   8   0  -3   29.24    6.38
   8   0  -3   24.78    5.97
   8   0  -2   12.09    5.02
   8   0  -2    1.97    1.68
   8   0  -1   59.35    8.34
   8   0   0  101.30   10.99
   8   0   1   53.24    7.46
   8   0   2    0.02    1.58
   8   1  -7   16.00    4.97
   8   1  -6   40.62    7.32
   8   1  -5  413.94   23.04
   8   1  -4  543.02   25.34
   8   1  -3  312.99   17.61
   8   1  -3  318.17   19.56
   8   1  -2    6.70    3.22
   8   1  -1  237.51   16.27
   8   1   0  341.38   18.77
   8   1   1  143.98   11.77
   9  -7  -2   80.04    7.17
   9  -7  -1  180.72   11.08
   9  -7   0   45.34    5.68
   9  -7   1   20.01    3.71
   9  -6  -3    3.55    1.92
   9  -6  -2   14.00    3.29
   9  -6  -1    2.46    2.17
   9  -6   0  101.88    9.02
   9  -6   1   53.15    6.47
   9  -5  -4  157.49   10.89
   9  -5  -3   81.73    8.42
   9  -5  -2   42.04    6.33
   9  -5  -1  521.92   21.83
   9  -5   0  797.61   26.49
   9  -5   1  240.79   13.43
   9  -5   1  267.40   15.37
   9  -5   2   27.33    4.90
   9  -5   2   27.73    4.01
   9  -4  -4  885.00   28.74
   9  -4  -3  246.63   15.21
   9  -4  -2  162.24   12.34
   9  -4  -1 1274.22   35.70
   9  -4   0 1216.62   33.26
   9  -4   0 1448.20   39.27
   9  -4   1  244.91   12.98
   9  -4   1  295.75   16.37
   9  -3  -5  694.39   24.81
   9  -3  -4  735.41   26.87
   9  -3  -3  116.86   10.62
   9  -3  -2  156.43   11.96
   9  -3  -1  673.53   24.54
   9  -3  -1  786.96   29.25
   9  -3   0  630.86   21.63
   9  -3   0  716.03   26.71
   9  -3   1   53.57    6.92
   9  -2  -4  216.53   14.10
   9  -2  -3   27.01    4.88
   9  -2  -2   28.88    5.64
   9  -2  -2   15.02    3.64
   9  -2  -1   42.42    5.57
   9  -2  -1   49.73    7.14
   0   0   0    0.00    0.00


TITL SeAn242_brownorange plate2 in P-1
REM P-1 (#2 in standard setting)
CELL 1.54184   7.794000  10.930065  11.614524 105.8994  96.3868 109.9552
ZERR    1.00   0.000632   0.001053   0.000676   0.0068   0.0059   0.0081
LATT  1
SFAC C H Zr Sb
UNIT 26.00 42.00 2.00 6.00
TREF
HKLF 4
END
_computing_structure_solution     'SHELXT 2014/5 (Sheldrick, 2014)'
;
_shelx_hkl_checksum              43828
_olex2_submission_special_instructions 'No special instructions were received'
_oxdiff_exptl_absorpt_empirical_details
;
Empirical correction (ABSPACK) includes:
- Absorption correction using spherical harmonics
- Frame scaling
;
_oxdiff_exptl_absorpt_empirical_full_max 2.000
_oxdiff_exptl_absorpt_empirical_full_min 0.565
loop_
_space_group_symop_operation_xyz
'x, y, z'
'-x, -y, -z'
loop_
_atom_site_label
_atom_site_type_symbol
_atom_site_fract_x
_atom_site_fract_y
_atom_site_fract_z
_atom_site_U_iso_or_equiv
_atom_site_adp_type
_atom_site_occupancy
_atom_site_site_symmetry_order
_atom_site_calc_flag
_atom_site_refinement_flags_posn
_atom_site_refinement_flags_adp
_atom_site_refinement_flags_occupancy
_atom_site_disorder_assembly
_atom_site_disorder_group
Sb1 Sb 0.48661(7) 0.82852(4) 0.62048(4) 0.02453(15) Uani 1 1 d . . . . .
Sb3 Sb 0.81024(6) 1.07637(4) 0.41662(4) 0.02448(15) Uani 1 1 d . . . . .
Sb2 Sb 0.81470(6) 1.06586(5) 0.65864(4) 0.02552(15) Uani 1 1 d . . . . .
Zr1 Zr 0.47937(7) 0.84248(5) 0.38001(4) 0.01446(15) Uani 1 1 d . . . . .
C3 C 0.5281(9) 0.6226(6) 0.3121(6) 0.0183(12) Uani 1 1 d . . . . .
H3 H 0.589382 0.599135 0.372970 0.022 Uiso 1 1 calc R U . . .
C4 C 0.6167(9) 0.7021(6) 0.2433(6) 0.0183(12) Uani 1 1 d . . . . .
H4 H 0.748222 0.741369 0.250465 0.022 Uiso 1 1 calc R U . . .
C2 C 0.3317(9) 0.5831(6) 0.2758(6) 0.0208(13) Uani 1 1 d . . . . .
C10 C 0.1757(9) 0.4742(7) 0.3043(6) 0.0234(14) Uani 1 1 d . . . . .
C6 C 0.5042(9) 0.7684(7) 0.0543(6) 0.0235(14) Uani 1 1 d . . . . .
C1 C 0.3042(9) 0.6435(7) 0.1841(6) 0.0210(13) Uani 1 1 d . . . . .
H1 H 0.186572 0.636980 0.144357 0.025 Uiso 1 1 calc R U . . .
C8 C 0.3747(12) 0.8432(8) 0.0359(7) 0.0366(18) Uani 1 1 d . . . . .
H8A H 0.416335 0.930732 0.103850 0.055 Uiso 1 1 calc R U . . .
H8B H 0.246108 0.785245 0.033945 0.055 Uiso 1 1 calc R U . . .
H8C H 0.378819 0.861691 -0.041933 0.055 Uiso 1 1 calc R U . . .
C7 C 0.7071(11) 0.8628(8) 0.0679(6) 0.0319(16) Uani 1 1 d . . . . .
H7A H 0.719647 0.887078 -0.006849 0.048 Uiso 1 1 calc R U . . .
H7B H 0.789570 0.814805 0.080532 0.048 Uiso 1 1 calc R U . . .
H7C H 0.742407 0.946992 0.138572 0.048 Uiso 1 1 calc R U . . .
C11 C 0.2457(11) 0.4411(8) 0.4144(7) 0.0338(17) Uani 1 1 d . . . . .
H11A H 0.342651 0.404960 0.397587 0.051 Uiso 1 1 calc R U . . .
H11B H 0.141174 0.371739 0.430290 0.051 Uiso 1 1 calc R U . . .
H11C H 0.298367 0.525233 0.486629 0.051 Uiso 1 1 calc R U . . .
C9 C 0.4507(11) 0.6396(7) -0.0621(6) 0.0287(16) Uani 1 1 d . . . . .
H9A H 0.321550 0.576397 -0.071886 0.043 Uiso 1 1 calc R U . . .
H9B H 0.535703 0.592597 -0.053360 0.043 Uiso 1 1 calc R U . . .
H9C H 0.461011 0.668771 -0.134585 0.043 Uiso 1 1 calc R U . . .
C5 C 0.4807(9) 0.7147(6) 0.1617(5) 0.0185(13) Uani 1 1 d . . . . .
C12 C 0.0138(10) 0.5187(8) 0.3266(7) 0.0332(17) Uani 1 1 d . . . . .
H12A H 0.054716 0.597118 0.403221 0.050 Uiso 1 1 calc R U . . .
H12B H -0.091068 0.441636 0.332934 0.050 Uiso 1 1 calc R U . . .
H12C H -0.026465 0.546022 0.258039 0.050 Uiso 1 1 calc R U . . .
C13 C 0.1011(12) 0.3412(8) 0.1918(7) 0.0389(19) Uani 1 1 d . . . . .
H13A H 0.066471 0.362057 0.117869 0.058 Uiso 1 1 calc R U . . .
H13B H -0.009266 0.272852 0.203622 0.058 Uiso 1 1 calc R U . . .
H13C H 0.198651 0.303985 0.182396 0.058 Uiso 1 1 calc R U . . .
loop_
_atom_site_aniso_label
_atom_site_aniso_U_11
_atom_site_aniso_U_22
_atom_site_aniso_U_33
_atom_site_aniso_U_23
_atom_site_aniso_U_13
_atom_site_aniso_U_12
Sb1 0.0383(3) 0.0195(2) 0.0201(2) 0.00861(17) 0.01053(19) 0.0135(2)
Sb3 0.0197(2) 0.0188(2) 0.0294(3) 0.00303(18) 0.01281(18) 0.00250(18)
Sb2 0.0181(2) 0.0301(3) 0.0259(2) 0.00253(19) 0.00098(17) 0.0131(2)
Zr1 0.0142(3) 0.0133(3) 0.0158(3) 0.0042(2) 0.00513(19) 0.0052(2)
C3 0.022(3) 0.012(3) 0.021(3) 0.005(2) 0.006(2) 0.007(3)
C4 0.017(3) 0.015(3) 0.022(3) 0.005(2) 0.005(2) 0.006(3)
C2 0.025(3) 0.013(3) 0.021(3) -0.001(2) 0.006(3) 0.007(3)
C10 0.024(3) 0.015(3) 0.027(3) 0.006(3) 0.009(3) 0.002(3)
C6 0.028(4) 0.020(3) 0.018(3) 0.002(3) 0.002(3) 0.008(3)
C1 0.023(3) 0.019(3) 0.016(3) 0.004(2) 0.001(2) 0.005(3)
C8 0.048(5) 0.038(4) 0.033(4) 0.022(3) 0.009(4) 0.018(4)
C7 0.042(4) 0.030(4) 0.022(3) 0.014(3) 0.011(3) 0.007(3)
C11 0.041(4) 0.028(4) 0.039(4) 0.018(3) 0.019(4) 0.013(4)
C9 0.046(4) 0.027(4) 0.012(3) 0.007(3) 0.008(3) 0.012(3)
C5 0.027(3) 0.013(3) 0.014(3) 0.004(2) 0.006(2) 0.006(3)
C12 0.025(4) 0.036(4) 0.040(4) 0.017(3) 0.016(3) 0.007(3)
C13 0.043(5) 0.023(4) 0.032(4) 0.000(3) 0.015(3) -0.005(3)
loop_
_atom_type_symbol
_atom_type_description
_atom_type_scat_dispersion_real
_atom_type_scat_dispersion_imag
_atom_type_scat_source
C C 0.0181 0.0091 'International Tables Vol C Tables 4.2.6.8 and 6.1.1.4'
H H 0.0000 0.0000 'International Tables Vol C Tables 4.2.6.8 and 6.1.1.4'
Sb Sb -0.0562 5.8946 'International Tables Vol C Tables 4.2.6.8 and 6.1.1.4'
Zr Zr -0.1862 2.2449 'International Tables Vol C Tables 4.2.6.8 and 6.1.1.4'
loop_
_exptl_crystal_face_index_h
_exptl_crystal_face_index_k
_exptl_crystal_face_index_l
_exptl_crystal_face_perp_dist
4 1 -2 0.0172
-3 7 0 0.0097
2 0 6 0.0042
-4 -1 3 0.0212
3 -7 0 0.0097
5 -4 0 0.0027
-1 0 -6 0.0102
loop_
_geom_angle_atom_site_label_1
_geom_angle_atom_site_label_2
_geom_angle_atom_site_label_3
_geom_angle
_geom_angle_site_symmetry_1
_geom_angle_site_symmetry_3
_geom_angle_publ_flag
Sb2 Sb1 Sb3 103.108(19) . 2_676 ?
Zr1 Sb1 Sb3 77.792(17) . 2_676 ?
Zr1 Sb1 Sb2 77.841(19) . . ?
Sb2 Sb3 Sb1 101.303(17) . 2_676 ?
Zr1 Sb3 Sb1 75.986(18) . 2_676 ?
Zr1 Sb3 Sb2 77.800(19) . . ?
Sb1 Sb2 Sb3 102.015(19) . . ?
Zr1 Sb2 Sb1 76.581(19) 2_676 . ?
Zr1 Sb2 Sb3 78.364(17) 2_676 . ?
Sb1 Zr1 Sb2 102.54(2) . 2_676 ?
Sb1 Zr1 Zr1 63.846(17) . 2_676 ?
Sb3 Zr1 Sb1 102.33(2) . . ?
Sb3 Zr1 Sb2 104.32(2) . 2_676 ?
Sb3 Zr1 Zr1 65.387(19) . 2_676 ?
Sb2 Zr1 Zr1 64.855(18) 2_676 2_676 ?
C3 Zr1 Sb1 90.46(15) . . ?
C3 Zr1 Sb3 112.30(15) . . ?
C3 Zr1 Sb2 137.39(15) . 2_676 ?
C3 Zr1 Zr1 151.56(15) . 2_676 ?
C3 Zr1 C2 32.8(2) . . ?
C3 Zr1 C1 54.1(2) . . ?
C3 Zr1 C5 54.3(2) . . ?
C4 Zr1 Sb1 117.64(14) . . ?
C4 Zr1 Sb3 87.76(15) . . ?
C4 Zr1 Sb2 134.55(14) . 2_676 ?
C4 Zr1 Zr1 151.83(15) . 2_676 ?
C4 Zr1 C3 32.7(2) . . ?
C4 Zr1 C2 54.3(2) . . ?
C4 Zr1 C1 53.8(2) . . ?
C4 Zr1 C5 32.6(2) . . ?
C2 Zr1 Sb1 94.26(15) . . ?
C2 Zr1 Sb3 141.99(15) . . ?
C2 Zr1 Sb2 105.06(15) . 2_676 ?
C2 Zr1 Zr1 150.92(15) . 2_676 ?
C2 Zr1 C5 54.6(2) . . ?
C1 Zr1 Sb1 125.27(15) . . ?
C1 Zr1 Sb3 127.86(16) . . ?
C1 Zr1 Sb2 86.43(15) . 2_676 ?
C1 Zr1 Zr1 151.24(15) . 2_676 ?
C1 Zr1 C2 32.9(2) . . ?
C1 Zr1 C5 32.7(2) . . ?
C5 Zr1 Sb1 144.54(14) . . ?
C5 Zr1 Sb3 95.88(15) . . ?
C5 Zr1 Sb2 102.04(14) . 2_676 ?
C5 Zr1 Zr1 151.22(14) . 2_676 ?
Zr1 C3 H3 117.4 . . ?
C4 C3 Zr1 73.6(3) . . ?
C4 C3 H3 125.6 . . ?
C4 C3 C2 108.8(6) . . ?
C2 C3 Zr1 75.3(3) . . ?
C2 C3 H3 125.6 . . ?
Zr1 C4 H4 117.2 . . ?
C3 C4 Zr1 73.7(3) . . ?
C3 C4 H4 125.2 . . ?
C3 C4 C5 109.5(6) . . ?
C5 C4 Zr1 75.8(3) . . ?
C5 C4 H4 125.2 . . ?
C3 C2 Zr1 71.9(3) . . ?
C3 C2 C10 128.2(6) . . ?
C3 C2 C1 106.1(6) . . ?
C10 C2 Zr1 129.8(4) . . ?
C1 C2 Zr1 73.0(4) . . ?
C1 C2 C10 124.5(6) . . ?
C2 C10 C13 107.8(6) . . ?
C11 C10 C2 112.0(6) . . ?
C11 C10 C12 109.2(6) . . ?
C11 C10 C13 108.0(6) . . ?
C12 C10 C2 111.6(6) . . ?
C12 C10 C13 108.2(6) . . ?
C8 C6 C9 108.4(6) . . ?
C7 C6 C8 109.8(6) . . ?
C7 C6 C9 107.9(6) . . ?
C5 C6 C8 112.5(6) . . ?
C5 C6 C7 111.8(5) . . ?
C5 C6 C9 106.3(5) . . ?
Zr1 C1 H1 117.9 . . ?
C2 C1 Zr1 74.0(3) . . ?
C2 C1 H1 125.3 . . ?
C5 C1 Zr1 74.5(3) . . ?
C5 C1 C2 109.4(6) . . ?
C5 C1 H1 125.3 . . ?
C6 C8 H8A 109.5 . . ?
C6 C8 H8B 109.5 . . ?
C6 C8 H8C 109.5 . . ?
H8A C8 H8B 109.5 . . ?
H8A C8 H8C 109.5 . . ?
H8B C8 H8C 109.5 . . ?
C6 C7 H7A 109.5 . . ?
C6 C7 H7B 109.5 . . ?
C6 C7 H7C 109.5 . . ?
H7A C7 H7B 109.5 . . ?
H7A C7 H7C 109.5 . . ?
H7B C7 H7C 109.5 . . ?
C10 C11 H11A 109.5 . . ?
C10 C11 H11B 109.5 . . ?
C10 C11 H11C 109.5 . . ?
H11A C11 H11B 109.5 . . ?
H11A C11 H11C 109.5 . . ?
H11B C11 H11C 109.5 . . ?
C6 C9 H9A 109.5 . . ?
C6 C9 H9B 109.5 . . ?
C6 C9 H9C 109.5 . . ?
H9A C9 H9B 109.5 . . ?
H9A C9 H9C 109.5 . . ?
H9B C9 H9C 109.5 . . ?
C4 C5 Zr1 71.7(3) . . ?
C4 C5 C6 128.8(6) . . ?
C4 C5 C1 106.2(5) . . ?
C6 C5 Zr1 128.7(4) . . ?
C1 C5 Zr1 72.8(3) . . ?
C1 C5 C6 124.1(6) . . ?
C10 C12 H12A 109.5 . . ?
C10 C12 H12B 109.5 . . ?
C10 C12 H12C 109.5 . . ?
H12A C12 H12B 109.5 . . ?
H12A C12 H12C 109.5 . . ?
H12B C12 H12C 109.5 . . ?
C10 C13 H13A 109.5 . . ?
C10 C13 H13B 109.5 . . ?
C10 C13 H13C 109.5 . . ?
H13A C13 H13B 109.5 . . ?
H13A C13 H13C 109.5 . . ?
H13B C13 H13C 109.5 . . ?
loop_
_geom_bond_atom_site_label_1
_geom_bond_atom_site_label_2
_geom_bond_distance
_geom_bond_site_symmetry_2
_geom_bond_publ_flag
Sb1 Sb3 2.8783(6) 2_676 ?
Sb1 Sb2 2.8381(7) . ?
Sb1 Zr1 2.8340(7) . ?
Sb3 Sb2 2.8414(7) . ?
Sb3 Zr1 2.8332(7) . ?
Sb2 Zr1 2.8360(6) 2_676 ?
Zr1 Zr1 3.6763(10) 2_676 ?
Zr1 C3 2.488(6) . ?
Zr1 C4 2.488(6) . ?
Zr1 C2 2.532(6) . ?
Zr1 C1 2.519(6) . ?
Zr1 C5 2.541(6) . ?
C3 H3 0.9500 . ?
C3 C4 1.401(9) . ?
C3 C2 1.419(9) . ?
C4 H4 0.9500 . ?
C4 C5 1.410(9) . ?
C2 C10 1.524(10) . ?
C2 C1 1.431(9) . ?
C10 C11 1.516(10) . ?
C10 C12 1.523(10) . ?
C10 C13 1.540(10) . ?
C6 C8 1.532(10) . ?
C6 C7 1.528(10) . ?
C6 C9 1.554(9) . ?
C6 C5 1.520(9) . ?
C1 H1 0.9500 . ?
C1 C5 1.423(9) . ?
C8 H8A 0.9800 . ?
C8 H8B 0.9800 . ?
C8 H8C 0.9800 . ?
C7 H7A 0.9800 . ?
C7 H7B 0.9800 . ?
C7 H7C 0.9800 . ?
C11 H11A 0.9800 . ?
C11 H11B 0.9800 . ?
C11 H11C 0.9800 . ?
C9 H9A 0.9800 . ?
C9 H9B 0.9800 . ?
C9 H9C 0.9800 . ?
C12 H12A 0.9800 . ?
C12 H12B 0.9800 . ?
C12 H12C 0.9800 . ?
C13 H13A 0.9800 . ?
C13 H13B 0.9800 . ?
C13 H13C 0.9800 . ?
loop_
_geom_torsion_atom_site_label_1
_geom_torsion_atom_site_label_2
_geom_torsion_atom_site_label_3
_geom_torsion_atom_site_label_4
_geom_torsion
_geom_torsion_site_symmetry_1
_geom_torsion_site_symmetry_2
_geom_torsion_site_symmetry_3
_geom_torsion_site_symmetry_4
_geom_torsion_publ_flag
Zr1 C3 C4 C5 -68.0(4) . . . . ?
Zr1 C3 C2 C10 -126.9(6) . . . . ?
Zr1 C3 C2 C1 65.6(4) . . . . ?
Zr1 C4 C5 C6 125.3(6) . . . . ?
Zr1 C4 C5 C1 -65.1(4) . . . . ?
Zr1 C2 C10 C11 -77.9(7) . . . . ?
Zr1 C2 C10 C12 44.9(8) . . . . ?
Zr1 C2 C10 C13 163.5(5) . . . . ?
Zr1 C2 C1 C5 66.8(4) . . . . ?
Zr1 C1 C5 C4 64.3(4) . . . . ?
Zr1 C1 C5 C6 -125.5(6) . . . . ?
C3 C4 C5 Zr1 66.6(4) . . . . ?
C3 C4 C5 C6 -168.1(6) . . . . ?
C3 C4 C5 C1 1.5(7) . . . . ?
C3 C2 C10 C11 20.3(9) . . . . ?
C3 C2 C10 C12 143.0(7) . . . . ?
C3 C2 C10 C13 -98.4(8) . . . . ?
C3 C2 C1 Zr1 -64.8(4) . . . . ?
C3 C2 C1 C5 2.0(7) . . . . ?
C4 C3 C2 Zr1 -66.6(4) . . . . ?
C4 C3 C2 C10 166.5(6) . . . . ?
C4 C3 C2 C1 -1.0(7) . . . . ?
C2 C3 C4 Zr1 67.7(4) . . . . ?
C2 C3 C4 C5 -0.3(7) . . . . ?
C2 C1 C5 Zr1 -66.4(4) . . . . ?
C2 C1 C5 C4 -2.1(7) . . . . ?
C2 C1 C5 C6 168.1(5) . . . . ?
C10 C2 C1 Zr1 127.1(6) . . . . ?
C10 C2 C1 C5 -166.2(6) . . . . ?
C1 C2 C10 C11 -174.3(6) . . . . ?
C1 C2 C10 C12 -51.5(8) . . . . ?
C1 C2 C10 C13 67.1(8) . . . . ?
C8 C6 C5 Zr1 -49.5(8) . . . . ?
C8 C6 C5 C4 -146.7(7) . . . . ?
C8 C6 C5 C1 45.4(9) . . . . ?
C7 C6 C5 Zr1 74.5(7) . . . . ?
C7 C6 C5 C4 -22.7(9) . . . . ?
C7 C6 C5 C1 169.4(6) . . . . ?
C9 C6 C5 Zr1 -168.0(4) . . . . ?
C9 C6 C5 C4 94.8(8) . . . . ?
C9 C6 C5 C1 -73.1(8) . . . . ?
loop_
_exptl_oxdiff_crystal_face_indexfrac_h
_exptl_oxdiff_crystal_face_indexfrac_k
_exptl_oxdiff_crystal_face_indexfrac_l
_exptl_oxdiff_crystal_face_x
_exptl_oxdiff_crystal_face_y
_exptl_oxdiff_crystal_face_z
4.4691 0.9403 -2.4649 0.0834 -0.0576 0.9948
-3.0065 6.9942 -0.0030 0.3625 0.9737 -0.1332
2.1206 -0.0756 5.6304 -0.7826 0.4247 0.4552
-4.3785 -1.0555 3.0837 -0.1650 0.0894 -0.9822
3.0065 -6.9942 0.0030 -0.3625 -0.9737 0.1332
4.8152 -4.3391 0.1951 -0.4039 -0.5882 0.7007
-1.4821 -0.4957 -5.9330 0.7681 -0.5275 -0.3629
