#------------------------------------------------------------------------------
#$Date: 2021-06-18 11:04:29 +0300 (Fri, 18 Jun 2021) $
#$Revision: 266559 $
#$URL: file:///home/coder/svn-repositories/cod/cif/1/56/35/1563567.cif $
#------------------------------------------------------------------------------
#
# This file is available in the Crystallography Open Database (COD),
# http://www.crystallography.net/
#
# All data on this site have been placed in the public domain by the
# contributors.
#
data_1563567
loop_
_publ_author_name
'Beekman, M.'
'Stefanoski, S.'
'Wong-Ng, W.'
'Kaduk, J.A.'
'Huang, Q.'
'Reeg, C.'
'Bowers, C.R.'
'Nolas, G.S.'
_publ_section_title
;
 Structure and thermal conductivity of Na1&#x2212;Ge3+
;
_journal_issue                   6
_journal_name_full               'Journal of Solid State Chemistry'
_journal_page_first              1272
_journal_page_last               1277
_journal_paper_doi               10.1016/j.jssc.2010.03.035
_journal_volume                  183
_journal_year                    2010
_chemical_formula_sum            Ge
_chemical_formula_weight         72.59
_space_group_IT_number           227
_space_group_name_Hall           '-F 4vw 2vw 3'
_space_group_name_H-M_alt        'F d -3 m :2'
_symmetry_cell_setting           cubic
_symmetry_space_group_name_H-M   'F d -3 m :2'
_cell_angle_alpha                90.0
_cell_angle_beta                 90.0
_cell_angle_gamma                90.0
_cell_formula_units_Z            16
_cell_length_a                   5.6575(20)
_cell_length_b                   5.6575
_cell_length_c                   5.6575
_cell_volume                     181.08(6)
_diffrn_radiation_probe          neutron
_diffrn_radiation_wavelength     1.5403
_exptl_absorpt_correction_T_max  0.51073
_exptl_absorpt_correction_T_min  0.46200
_exptl_absorpt_process_details
;   GSAS Absorption/surface roughness correction: function number 0
 Debye-Scherrer absorption correction
Term (= MU.r/wave) =     0.30000    
Correction is not refined.
;
_pd_calc_method                  'Rietveld Refinement'
_pd_instr_location               ' ?'
_pd_meas_2theta_range_inc        0.05
_pd_meas_2theta_range_max        165.35
_pd_meas_2theta_range_min        3.0
_pd_meas_number_of_points        3248
_pd_proc_2theta_range_inc        0.05
_pd_proc_2theta_range_max        165.383
_pd_proc_2theta_range_min        3.033
_pd_proc_info_datetime           2006-07-17T09:52:49
_pd_proc_ls_background_function
;   GSAS Background function number 2 with 24 terms.
 Cosine Fourier series
      1:    2379.10     2:    1315.30     3:   -326.565     4:    531.893    
      5:   -402.169     6:    567.947     7:   -379.224     8:    487.541    
      9:   -313.405    10:    428.582    11:   -272.721    12:    281.246    
     13:   -192.983    14:    250.366    15:   -91.1733    16:    177.187    
     17:   -73.5971    18:    78.8118    19:   -59.3063    20:    29.4677    
     21:   -14.1045    22:    23.0584    23:   -2.13873    24:    15.9591    
;
_pd_proc_ls_prof_R_factor        0.0171
_pd_proc_ls_prof_wR_expected     0.0188
_pd_proc_ls_prof_wR_factor       0.0204
_pd_proc_number_of_points        3248
_pd_spec_mounting                ' ?'
_pd_spec_shape
;? 
 CW Profile function number 2 with  18 terms
 Profile coefficients for Simpson's rule integration o 0.00500
;
_refine_ls_R_Fsqd_factor         0.05715
_reflns_d_resolution_high        0.783
_reflns_d_resolution_low         13.046
_reflns_limit_h_max              16
_reflns_limit_h_min              0
_reflns_limit_k_max              16
_reflns_limit_k_min              0
_reflns_limit_l_max              5
_reflns_limit_l_min              0
_reflns_number_total             668
_cod_data_source_file            JSSC-2010-183-1272.cif
_cod_data_source_block           NAGE3RT_phase_2
_cod_original_cell_volume        181.08(19)
_cod_original_sg_symbol_H-M      'F d 3 m'
_cod_database_code               1563567
_gsas_exptl_extinct_corr_t_min   1.00000
_gsas_exptl_extinct_corr_t_max   1.00000
loop_
_symmetry_equiv_pos_site_id
_symmetry_equiv_pos_as_xyz
1 +x,+y,+z
2 +z,+x,+y
3 +y,+z,+x
4 +x+1/4,+y+1/4,-z
5 -z,+x+1/4,+y+1/4
6 +y+1/4,-z,+x+1/4
7 -z+1/4,+x+1/2,-y+3/4
8 -y+3/4,-z+1/4,+x+1/2
9 +y+1/2,-z+1/4,-x+3/4
10 -x+3/4,+y+1/2,-z+1/4
11 -z+1/4,-x+3/4,+y+1/2
12 +x+1/2,-y+3/4,-z+1/4
13 +y,+x,+z
14 +z,+y,+x
15 +x,+z,+y
16 +y+1/4,+x+1/4,-z
17 -z,+y+1/4,+x+1/4
18 +x+1/4,-z,+y+1/4
19 -z+1/4,+y+1/2,-x+3/4
20 -x+3/4,-z+1/4,+y+1/2
21 +x+1/2,-z+1/4,-y+3/4
22 -y+3/4,+x+1/2,-z+1/4
23 -z+1/4,-y+3/4,+x+1/2
24 +y+1/2,-x+3/4,-z+1/4
-1 -x,-y,-z
-2 -z,-x,-y
-3 -y,-z,-x
-4 -x+3/4,-y+3/4,+z
-5 +z,-x+3/4,-y+3/4
-6 -y+3/4,+z,-x+3/4
-7 +z+3/4,-x+1/2,+y+1/4
-8 +y+1/4,+z+3/4,-x+1/2
-9 -y+1/2,+z+3/4,+x+1/4
-10 +x+1/4,-y+1/2,+z+3/4
-11 +z+3/4,+x+1/4,-y+1/2
-12 -x+1/2,+y+1/4,+z+3/4
-13 -y,-x,-z
-14 -z,-y,-x
-15 -x,-z,-y
-16 -y+3/4,-x+3/4,+z
-17 +z,-y+3/4,-x+3/4
-18 -x+3/4,+z,-y+3/4
-19 +z+3/4,-y+1/2,+x+1/4
-20 +x+1/4,+z+3/4,-y+1/2
-21 -x+1/2,+z+3/4,+y+1/4
-22 +y+1/4,-x+1/2,+z+3/4
-23 +z+3/4,+y+1/4,-x+1/2
-24 -y+1/2,+x+1/4,+z+3/4
101 +x,+y+1/2,+z+1/2
102 +z,+x+1/2,+y+1/2
103 +y,+z+1/2,+x+1/2
104 +x+1/4,+y+3/4,-z+1/2
105 -z,+x+3/4,+y+3/4
106 +y+1/4,-z+1/2,+x+3/4
107 -z+1/4,+x,-y+1/4
108 -y+3/4,-z+3/4,+x
109 +y+1/2,-z+3/4,-x+1/4
110 -x+3/4,+y,-z+3/4
111 -z+1/4,-x+1/4,+y
112 +x+1/2,-y+1/4,-z+3/4
113 +y,+x+1/2,+z+1/2
114 +z,+y+1/2,+x+1/2
115 +x,+z+1/2,+y+1/2
116 +y+1/4,+x+3/4,-z+1/2
117 -z,+y+3/4,+x+3/4
118 +x+1/4,-z+1/2,+y+3/4
119 -z+1/4,+y,-x+1/4
120 -x+3/4,-z+3/4,+y
121 +x+1/2,-z+3/4,-y+1/4
122 -y+3/4,+x,-z+3/4
123 -z+1/4,-y+1/4,+x
124 +y+1/2,-x+1/4,-z+3/4
-101 -x,-y+1/2,-z+1/2
-102 -z,-x+1/2,-y+1/2
-103 -y,-z+1/2,-x+1/2
-104 -x+3/4,-y+1/4,+z+1/2
-105 +z,-x+1/4,-y+1/4
-106 -y+3/4,+z+1/2,-x+1/4
-107 +z+3/4,-x,+y+3/4
-108 +y+1/4,+z+1/4,-x
-109 -y+1/2,+z+1/4,+x+3/4
-110 +x+1/4,-y,+z+1/4
-111 +z+3/4,+x+3/4,-y
-112 -x+1/2,+y+3/4,+z+1/4
-113 -y,-x+1/2,-z+1/2
-114 -z,-y+1/2,-x+1/2
-115 -x,-z+1/2,-y+1/2
-116 -y+3/4,-x+1/4,+z+1/2
-117 +z,-y+1/4,-x+1/4
-118 -x+3/4,+z+1/2,-y+1/4
-119 +z+3/4,-y,+x+3/4
-120 +x+1/4,+z+1/4,-y
-121 -x+1/2,+z+1/4,+y+3/4
-122 +y+1/4,-x,+z+1/4
-123 +z+3/4,+y+3/4,-x
-124 -y+1/2,+x+3/4,+z+1/4
201 +x+1/2,+y,+z+1/2
202 +z+1/2,+x,+y+1/2
203 +y+1/2,+z,+x+1/2
204 +x+3/4,+y+1/4,-z+1/2
205 -z+1/2,+x+1/4,+y+3/4
206 +y+3/4,-z,+x+3/4
207 -z+3/4,+x+1/2,-y+1/4
208 -y+1/4,-z+1/4,+x
209 +y,-z+1/4,-x+1/4
210 -x+1/4,+y+1/2,-z+3/4
211 -z+3/4,-x+3/4,+y
212 +x,-y+3/4,-z+3/4
213 +y+1/2,+x,+z+1/2
214 +z+1/2,+y,+x+1/2
215 +x+1/2,+z,+y+1/2
216 +y+3/4,+x+1/4,-z+1/2
217 -z+1/2,+y+1/4,+x+3/4
218 +x+3/4,-z,+y+3/4
219 -z+3/4,+y+1/2,-x+1/4
220 -x+1/4,-z+1/4,+y
221 +x,-z+1/4,-y+1/4
222 -y+1/4,+x+1/2,-z+3/4
223 -z+3/4,-y+3/4,+x
224 +y,-x+3/4,-z+3/4
-201 -x+1/2,-y,-z+1/2
-202 -z+1/2,-x,-y+1/2
-203 -y+1/2,-z,-x+1/2
-204 -x+1/4,-y+3/4,+z+1/2
-205 +z+1/2,-x+3/4,-y+1/4
-206 -y+1/4,+z,-x+1/4
-207 +z+1/4,-x+1/2,+y+3/4
-208 +y+3/4,+z+3/4,-x
-209 -y,+z+3/4,+x+3/4
-210 +x+3/4,-y+1/2,+z+1/4
-211 +z+1/4,+x+1/4,-y
-212 -x,+y+1/4,+z+1/4
-213 -y+1/2,-x,-z+1/2
-214 -z+1/2,-y,-x+1/2
-215 -x+1/2,-z,-y+1/2
-216 -y+1/4,-x+3/4,+z+1/2
-217 +z+1/2,-y+3/4,-x+1/4
-218 -x+1/4,+z,-y+1/4
-219 +z+1/4,-y+1/2,+x+3/4
-220 +x+3/4,+z+3/4,-y
-221 -x,+z+3/4,+y+3/4
-222 +y+3/4,-x+1/2,+z+1/4
-223 +z+1/4,+y+1/4,-x
-224 -y,+x+1/4,+z+1/4
301 +x+1/2,+y+1/2,+z
302 +z+1/2,+x+1/2,+y
303 +y+1/2,+z+1/2,+x
304 +x+3/4,+y+3/4,-z
305 -z+1/2,+x+3/4,+y+1/4
306 +y+3/4,-z+1/2,+x+1/4
307 -z+3/4,+x,-y+3/4
308 -y+1/4,-z+3/4,+x+1/2
309 +y,-z+3/4,-x+3/4
310 -x+1/4,+y,-z+1/4
311 -z+3/4,-x+1/4,+y+1/2
312 +x,-y+1/4,-z+1/4
313 +y+1/2,+x+1/2,+z
314 +z+1/2,+y+1/2,+x
315 +x+1/2,+z+1/2,+y
316 +y+3/4,+x+3/4,-z
317 -z+1/2,+y+3/4,+x+1/4
318 +x+3/4,-z+1/2,+y+1/4
319 -z+3/4,+y,-x+3/4
320 -x+1/4,-z+3/4,+y+1/2
321 +x,-z+3/4,-y+3/4
322 -y+1/4,+x,-z+1/4
323 -z+3/4,-y+1/4,+x+1/2
324 +y,-x+1/4,-z+1/4
-301 -x+1/2,-y+1/2,-z
-302 -z+1/2,-x+1/2,-y
-303 -y+1/2,-z+1/2,-x
-304 -x+1/4,-y+1/4,+z
-305 +z+1/2,-x+1/4,-y+3/4
-306 -y+1/4,+z+1/2,-x+3/4
-307 +z+1/4,-x,+y+1/4
-308 +y+3/4,+z+1/4,-x+1/2
-309 -y,+z+1/4,+x+1/4
-310 +x+3/4,-y,+z+3/4
-311 +z+1/4,+x+3/4,-y+1/2
-312 -x,+y+3/4,+z+3/4
-313 -y+1/2,-x+1/2,-z
-314 -z+1/2,-y+1/2,-x
-315 -x+1/2,-z+1/2,-y
-316 -y+1/4,-x+1/4,+z
-317 +z+1/2,-y+1/4,-x+3/4
-318 -x+1/4,+z+1/2,-y+3/4
-319 +z+1/4,-y,+x+1/4
-320 +x+3/4,+z+1/4,-y+1/2
-321 -x,+z+1/4,+y+1/4
-322 +y+3/4,-x,+z+3/4
-323 +z+1/4,+y+3/4,-x+1/2
-324 -y,+x+3/4,+z+3/4
loop_
_atom_site_type_symbol
_atom_site_label
_atom_site_fract_x
_atom_site_fract_y
_atom_site_fract_z
_atom_site_occupancy
_atom_site_thermal_displace_type
_atom_site_U_iso_or_equiv
_atom_site_symmetry_multiplicity
Ge Ge 0.0 0.0 0.0 1.0 Uiso 0.01 16
loop_
_atom_type_symbol
_atom_type_scat_length_neutron
_atom_type_scat_source
Ge 0.8185 International_Tables_Vol_C
Na 0.3630 International_Tables_Vol_C
loop_
_pd_meas_intensity_total
_pd_proc_ls_weight
_pd_proc_intensity_bkg_calc
_pd_calc_intensity_total
4590(140) . . .
4510(140) . . .
4410(140) . . .
4530(140) . . .
4430(140) . . .
4550(140) . . .
4370(140) . . .
4440(140) . . .
4310(140) . . .
4550(140) . . .
4520(140) . . .
4350(140) . . .
4540(140) . . .
4240(140) . . .
4230(140) . . .
4260(140) . . .
4220(140) . . .
4440(140) . . .
4350(140) . . .
4350(140) . . .
4360(140) . . .
4220(140) 0.0000533 4237. 4237.
4380(140) 0.0000510 4232. 4232.
4500(140) 0.0000503 4228. 4228.
4460(140) 0.0000503 4223. 4223.
4040(130) 0.0000557 4218. 4219.
4250(140) 0.0000525 4214. 4214.
4280(140) 0.0000525 4209. 4209.
4370(140) 0.0000518 4204. 4204.
4340(140) 0.0000518 4199. 4199.
4050(140) 0.0000549 4194. 4195.
4300(140) 0.0000525 4190. 4190.
4220(140) 0.0000533 4185. 4185.
4400(140) 0.0000510 4180. 4180.
4220(140) 0.0000533 4175. 4175.
4330(140) 0.0000518 4170. 4170.
4270(140) 0.0000525 4165. 4165.
4270(140) 0.0000525 4160. 4160.
4250(140) 0.0000525 4155. 4155.
4280(140) 0.0000525 4149. 4149.
3950(130) 0.0000565 4144. 4144.
4180(140) 0.0000533 4139. 4139.
4420(140) 0.0000510 4134. 4134.
4410(140) 0.0000510 4129. 4129.
3880(130) 0.0000574 4124. 4124.
3930(130) 0.0000565 4118. 4118.
4050(140) 0.0000549 4113. 4113.
4210(140) 0.0000533 4108. 4108.
4060(140) 0.0000549 4102. 4102.
4300(140) 0.0000525 4097. 4097.
4070(140) 0.0000549 4092. 4092.
4060(140) 0.0000549 4086. 4086.
4050(140) 0.0000549 4081. 4081.
4110(140) 0.0000541 4076. 4076.
3980(130) 0.0000565 4070. 4075.
4360(140) 0.0000518 4065. 4070.
4100(140) 0.0000549 4059. 4066.
3890(130) 0.0000574 4054. 4065.
3920(130) 0.0000565 4048. 4069.
4280(140) 0.0000525 4043. 4089.
4150(140) 0.0000541 4037. 4141.
4280(140) 0.0000525 4032. 4242.
4170(140) 0.0000541 4026. 4408.
4430(140) 0.0000510 4021. 4636.
4450(140) 0.0000503 4015. 4896.
4610(140) 0.0000489 4010. 5145.
4740(150) 0.0000476 4004. 5352.
4920(150) 0.0000457 3999. 5522.
5260(150) 0.0000433 3993. 5690.
5330(150) 0.0000427 3988. 5891.
5840(160) 0.0000391 3982. 6144.
6420(170) 0.0000359 3977. 6439.
6960(170) 0.00003303 3971. 6711.
7290(180) 0.00003156 3965. 6834.
7430(180) 0.00003086 3960. 6679.
6800(170) 0.00003380 3954. 6216.
6070(160) 0.0000376 3949. 5566.
5450(160) 0.0000416 3943. 4925.
4550(140) 0.0000496 3938. 4443.
4290(140) 0.0000525 3932. 4154.
4170(140) 0.0000541 3926. 4013.
3820(130) 0.0000583 3921. 3954.
3970(130) 0.0000565 3915. 3931.
3920(130) 0.0000565 3910. 3920.
4050(140) 0.0000549 3904. 3904.
3900(130) 0.0000574 3899. 3899.
3830(130) 0.0000583 3893. 3893.
3940(130) 0.0000565 3888. 3888.
3720(130) 0.0000601 3882. 3882.
3740(130) 0.0000592 3877. 3877.
3990(130) 0.0000557 3871. 3871.
3920(130) 0.0000565 3866. 3866.
3840(130) 0.0000583 3860. 3860.
3870(130) 0.0000574 3855. 3855.
3830(130) 0.0000583 3849. 3849.
4070(140) 0.0000549 3844. 3844.
3730(130) 0.0000592 3838. 3838.
3630(130) 0.0000610 3833. 3833.
3820(130) 0.0000583 3827. 3827.
3760(130) 0.0000592 3822. 3822.
3743(88) 0.0001291 3817. 3817.
3768(89) 0.0001262 3811. 3811.
3780(89) 0.0001262 3806. 3806.
3725(88) 0.0001291 3801. 3801.
3773(89) 0.0001262 3795. 3795.
3858(90) 0.0001235 3790. 3790.
3823(89) 0.0001262 3785. 3785.
3664(87) 0.0001321 3779. 3779.
3769(89) 0.0001262 3774. 3774.
3789(89) 0.0001262 3769. 3769.
3726(88) 0.0001291 3764. 3764.
3728(88) 0.0001291 3758. 3758.
3836(89) 0.0001262 3753. 3753.
3782(89) 0.0001262 3748. 3748.
3597(87) 0.0001321 3743. 3743.
3805(89) 0.0001262 3738. 3738.
3628(87) 0.0001321 3733. 3733.
3631(87) 0.0001321 3728. 3728.
3627(87) 0.0001321 3723. 3723.
3668(87) 0.0001321 3717. 3717.
3697(88) 0.0001291 3712. 3712.
3558(86) 0.0001352 3707. 3707.
3644(87) 0.0001321 3702. 3702.
3705(88) 0.0001291 3698. 3698.
3692(88) 0.0001291 3693. 3693.
3678(88) 0.0001291 3688. 3688.
3686(88) 0.0001291 3683. 3683.
3661(87) 0.0001321 3678. 3678.
3688(88) 0.0001291 3673. 3673.
3621(87) 0.0001321 3668. 3668.
3589(87) 0.0001321 3664. 3664.
3664(87) 0.0001321 3659. 3659.
3664(87) 0.0001321 3654. 3654.
3574(86) 0.0001352 3650. 3650.
3646(87) 0.0001321 3645. 3645.
3620(87) 0.0001321 3640. 3640.
3591(87) 0.0001321 3636. 3636.
3688(88) 0.0001291 3631. 3631.
3701(88) 0.0001291 3626. 3626.
3625(87) 0.0001321 3622. 3622.
3676(88) 0.0001291 3617. 3617.
3545(86) 0.0001352 3613. 3613.
3704(88) 0.0001291 3609. 3609.
3516(86) 0.0001352 3604. 3604.
3564(86) 0.0001352 3600. 3600.
3646(87) 0.0001321 3596. 3596.
3632(87) 0.0001321 3591. 3591.
3667(95) 0.0001108 3587. 3587.
3610(94) 0.0001132 3583. 3583.
3683(95) 0.0001108 3578. 3578.
3662(95) 0.0001108 3574. 3574.
3684(95) 0.0001108 3570. 3570.
3538(93) 0.0001156 3566. 3566.
3500(93) 0.0001156 3562. 3562.
3539(93) 0.0001156 3558. 3558.
3574(94) 0.0001132 3554. 3554.
3469(93) 0.0001156 3550. 3550.
3666(95) 0.0001108 3546. 3546.
3430(92) 0.0001181 3542. 3542.
3605(94) 0.0001132 3538. 3538.
3591(94) 0.0001132 3534. 3535.
3575(94) 0.0001132 3530. 3531.
3495(93) 0.0001156 3527. 3528.
3530(93) 0.0001156 3523. 3525.
3507(93) 0.0001156 3519. 3523.
3628(95) 0.0001108 3516. 3523.
3560(94) 0.0001132 3512. 3527.
3428(92) 0.0001181 3508. 3534.
3543(93) 0.0001156 3505. 3543.
3725(96) 0.0001085 3501. 3555.
3644(95) 0.0001108 3498. 3566.
3572(94) 0.0001132 3494. 3576.
3511(93) 0.0001156 3491. 3581.
3552(94) 0.0001132 3487. 3577.
3588(94) 0.0001132 3484. 3563.
3538(93) 0.0001156 3480. 3540.
3599(94) 0.0001132 3477. 3516.
3419(92) 0.0001181 3474. 3495.
3461(92) 0.0001181 3471. 3481.
3623(94) 0.0001132 3467. 3472.
3567(94) 0.0001132 3464. 3466.
3574(94) 0.0001132 3461. 3462.
3571(94) 0.0001132 3458. 3458.
3420(92) 0.0001181 3455. 3455.
3500(93) 0.0001156 3452. 3452.
3543(93) 0.0001156 3449. 3449.
3516(93) 0.0001156 3446. 3446.
3453(92) 0.0001181 3443. 3443.
3335(91) 0.0001208 3440. 3440.
3267(90) 0.0001235 3437. 3437.
3535(93) 0.0001156 3434. 3434.
3396(92) 0.0001181 3431. 3431.
3577(94) 0.0001132 3429. 3429.
3444(92) 0.0001181 3426. 3426.
3344(91) 0.0001208 3423. 3425.
3356(91) 0.0001208 3421. 3422.
3330(110) 0.0000769 3418. 3420.
3240(110) 0.0000797 3415. 3418.
3290(110) 0.0000783 3413. 3416.
3340(110) 0.0000769 3410. 3415.
3421(83) 0.0001452 3408. 3417.
3372(82) 0.0001487 3405. 3424.
3421(83) 0.0001452 3403. 3442.
3501(84) 0.0001417 3400. 3476.
3418(83) 0.0001452 3398. 3532.
3523(84) 0.0001417 3396. 3612.
3790(87) 0.0001321 3393. 3709.
3864(88) 0.0001291 3391. 3808.
4033(90) 0.0001235 3389. 3884.
4089(91) 0.0001208 3387. 3913.
4015(90) 0.0001235 3384. 3879.
3841(88) 0.0001291 3382. 3786.
3709(86) 0.0001352 3380. 3661.
3544(84) 0.0001417 3378. 3545.
3469(84) 0.0001417 3376. 3460.
3381(82) 0.0001487 3374. 3411.
3288(81) 0.0001524 3372. 3387.
3358(82) 0.0001487 3370. 3377.
3410(83) 0.0001452 3368. 3372.
3349(82) 0.0001487 3366. 3369.
3345(82) 0.0001487 3364. 3364.
3321(82) 0.0001487 3362. 3362.
3351(82) 0.0001487 3360. 3360.
3306(82) 0.0001487 3359. 3359.
3354(82) 0.0001487 3357. 3357.
3366(82) 0.0001487 3355. 3355.
3302(81) 0.0001524 3353. 3353.
3307(82) 0.0001487 3352. 3352.
3372(82) 0.0001487 3350. 3350.
3410(83) 0.0001452 3348. 3348.
3434(83) 0.0001452 3347. 3347.
3407(83) 0.0001452 3345. 3345.
3376(82) 0.0001487 3344. 3344.
3355(82) 0.0001487 3342. 3342.
3319(82) 0.0001487 3341. 3341.
3448(83) 0.0001452 3339. 3339.
3381(82) 0.0001487 3338. 3338.
3404(83) 0.0001452 3336. 3336.
3362(82) 0.0001487 3335. 3335.
3250(81) 0.0001524 3334. 3334.
3327(82) 0.0001487 3332. 3332.
3319(82) 0.0001487 3331. 3331.
3398(83) 0.0001452 3330. 3330.
3483(84) 0.0001417 3329. 3329.
3427(83) 0.0001452 3327. 3327.
3391(83) 0.0001452 3326. 3326.
3332(82) 0.0001487 3325. 3325.
3206(88) 0.0001291 3324. 3324.
3286(89) 0.0001262 3323. 3323.
3264(89) 0.0001262 3322. 3322.
3320(90) 0.0001235 3321. 3321.
3285(89) 0.0001262 3319. 3319.
3445(91) 0.0001208 3318. 3318.
3369(90) 0.0001235 3317. 3317.
3305(90) 0.0001235 3316. 3316.
3268(89) 0.0001262 3316. 3315.
3359(90) 0.0001235 3315. 3315.
3356(90) 0.0001235 3314. 3314.
3258(89) 0.0001262 3313. 3313.
3287(89) 0.0001262 3312. 3312.
3391(91) 0.0001208 3311. 3311.
3360(90) 0.0001235 3310. 3310.
3374(91) 0.0001208 3309. 3309.
3243(89) 0.0001262 3309. 3309.
3231(89) 0.0001262 3308. 3308.
3230(89) 0.0001262 3307. 3307.
3175(88) 0.0001291 3306. 3306.
3267(89) 0.0001262 3306. 3306.
3286(89) 0.0001262 3305. 3305.
3259(89) 0.0001262 3304. 3304.
3217(88) 0.0001291 3304. 3304.
3354(90) 0.0001235 3303. 3303.
3387(91) 0.0001208 3302. 3302.
3379(91) 0.0001208 3302. 3302.
3342(90) 0.0001235 3301. 3301.
3297(90) 0.0001235 3301. 3301.
3311(90) 0.0001235 3300. 3300.
3171(88) 0.0001291 3300. 3300.
3196(88) 0.0001291 3299. 3299.
3212(88) 0.0001291 3299. 3299.
3218(88) 0.0001291 3298. 3298.
3260(89) 0.0001262 3298. 3298.
3350(90) 0.0001235 3297. 3297.
3308(90) 0.0001235 3297. 3299.
3291(89) 0.0001262 3297. 3299.
3312(90) 0.0001235 3296. 3299.
3227(89) 0.0001262 3296. 3299.
3311(90) 0.0001235 3295. 3300.
3148(87) 0.0001321 3295. 3302.
3206(88) 0.0001291 3295. 3306.
3256(89) 0.0001262 3294. 3317.
3321(90) 0.0001235 3294. 3342.
3362(90) 0.0001235 3294. 3386.
3448(92) 0.0001181 3294. 3459.
3645(94) 0.0001132 3293. 3564.
3883(97) 0.0001063 3293. 3700.
4070(130) 0.0000592 3293. 3847.
4260(90) 0.0001235 3293. 3960.
4164(89) 0.0001262 3293. 3982.
3965(86) 0.0001352 3292. 3888.
3821(85) 0.0001384 3292. 3722.
3637(83) 0.0001452 3292. 3551.
3389(80) 0.0001562 3292. 3424.
3251(78) 0.0001644 3292. 3351.
3432(80) 0.0001562 3292. 3317.
3330(79) 0.0001602 3292. 3303.
3229(78) 0.0001644 3292. 3298.
3183(77) 0.0001687 3291. 3297.
3215(78) 0.0001644 3291. 3295.
3265(78) 0.0001644 3291. 3295.
3494(81) 0.0001524 3291. 3294.
3374(80) 0.0001562 3291. 3294.
3301(79) 0.0001602 3291. 3291.
3274(78) 0.0001644 3291. 3291.
3277(78) 0.0001644 3291. 3291.
3364(79) 0.0001602 3291. 3291.
3256(78) 0.0001644 3291. 3291.
3432(80) 0.0001562 3291. 3291.
3356(79) 0.0001602 3291. 3291.
3297(79) 0.0001602 3291. 3291.
3233(78) 0.0001644 3292. 3292.
3351(79) 0.0001602 3292. 3292.
3152(77) 0.0001687 3292. 3292.
3257(78) 0.0001644 3292. 3292.
3355(79) 0.0001602 3292. 3292.
3341(79) 0.0001602 3292. 3292.
3236(78) 0.0001644 3292. 3292.
3126(77) 0.0001687 3292. 3292.
3348(79) 0.0001602 3292. 3292.
3295(79) 0.0001602 3293. 3293.
3283(78) 0.0001644 3293. 3293.
3378(80) 0.0001562 3293. 3293.
3331(79) 0.0001602 3293. 3293.
3327(79) 0.0001602 3293. 3294.
3327(79) 0.0001602 3293. 3294.
3256(78) 0.0001644 3294. 3294.
3400(80) 0.0001562 3294. 3295.
3406(80) 0.0001562 3294. 3295.
3281(78) 0.0001644 3294. 3296.
3258(78) 0.0001644 3294. 3297.
3269(78) 0.0001644 3295. 3301.
3260(78) 0.0001644 3295. 3307.
3359(79) 0.0001602 3295. 3318.
3312(79) 0.0001602 3295. 3334.
3299(79) 0.0001602 3296. 3354.
3308(79) 0.0001602 3296. 3374.
3381(80) 0.0001562 3296. 3386.
3405(87) 0.0001321 3296. 3385.
3330(86) 0.0001352 3297. 3369.
3197(84) 0.0001417 3297. 3346.
3383(86) 0.0001352 3297. 3325.
3476(88) 0.0001291 3298. 3311.
3239(85) 0.0001384 3298. 3304.
3289(85) 0.0001384 3298. 3301.
3185(84) 0.0001417 3299. 3300.
3349(86) 0.0001352 3299. 3300.
3218(84) 0.0001417 3299. 3300.
3374(86) 0.0001352 3299. 3300.
3211(84) 0.0001417 3300. 3300.
3226(84) 0.0001417 3300. 3301.
3050(82) 0.0001487 3300. 3301.
3321(86) 0.0001352 3301. 3301.
3294(85) 0.0001384 3301. 3301.
3303(85) 0.0001384 3301. 3301.
3232(84) 0.0001417 3302. 3302.
3160(83) 0.0001452 3302. 3302.
3278(85) 0.0001384 3303. 3303.
3200(84) 0.0001417 3303. 3303.
3211(84) 0.0001417 3303. 3303.
3392(87) 0.0001321 3304. 3304.
3253(85) 0.0001384 3304. 3304.
3327(86) 0.0001352 3304. 3304.
3178(84) 0.0001417 3305. 3305.
3241(85) 0.0001384 3305. 3305.
3193(84) 0.0001417 3305. 3305.
3160(83) 0.0001452 3306. 3306.
3287(85) 0.0001384 3306. 3306.
3347(86) 0.0001352 3307. 3307.
3415(87) 0.0001321 3307. 3307.
3326(86) 0.0001352 3307. 3307.
3263(85) 0.0001384 3308. 3308.
3277(85) 0.0001384 3308. 3308.
3297(85) 0.0001384 3308. 3309.
3247(85) 0.0001384 3309. 3310.
3305(85) 0.0001384 3309. 3311.
3357(86) 0.0001352 3310. 3311.
3241(85) 0.0001384 3310. 3312.
3286(85) 0.0001384 3310. 3312.
3318(86) 0.0001352 3311. 3312.
3311(86) 0.0001352 3311. 3312.
3179(84) 0.0001417 3311. 3312.
3196(84) 0.0001417 3312. 3312.
3188(84) 0.0001417 3312. 3313.
3200(84) 0.0001417 3313. 3314.
3333(86) 0.0001352 3313. 3314.
3378(86) 0.0001352 3313. 3315.
3279(75) 0.0001778 3314. 3317.
3288(75) 0.0001778 3314. 3318.
3347(76) 0.0001731 3315. 3319.
3392(76) 0.0001731 3315. 3322.
3341(76) 0.0001731 3315. 3329.
3381(76) 0.0001731 3316. 3343.
3327(75) 0.0001778 3316. 3370.
3355(76) 0.0001731 3316. 3415.
3388(76) 0.0001731 3317. 3480.
3481(77) 0.0001687 3317. 3556.
3575(78) 0.0001644 3317. 3627.
3603(79) 0.0001602 3318. 3671.
3519(78) 0.0001644 3318. 3678.
3631(79) 0.0001602 3318. 3656.
3671(79) 0.0001602 3319. 3618.
3522(78) 0.0001644 3319. 3566.
3508(78) 0.0001644 3320. 3503.
3335(76) 0.0001731 3320. 3440.
3361(76) 0.0001731 3320. 3389.
3316(75) 0.0001778 3320. 3356.
3339(76) 0.0001731 3321. 3342.
3226(74) 0.0001826 3321. 3334.
3228(74) 0.0001826 3321. 3332.
3260(75) 0.0001778 3322. 3332.
3373(76) 0.0001731 3322. 3333.
3371(76) 0.0001731 3322. 3334.
3326(75) 0.0001778 3323. 3340.
3326(75) 0.0001778 3323. 3354.
3391(76) 0.0001731 3323. 3386.
3372(76) 0.0001731 3324. 3451.
3416(76) 0.0001731 3324. 3569.
3753(80) 0.0001562 3324. 3745.
4066(83) 0.0001452 3324. 3958.
4132(84) 0.0001417 3325. 4147.
4239(85) 0.0001384 3325. 4232.
4319(86) 0.0001352 3325. 4165.
4021(83) 0.0001452 3325. 3970.
3783(81) 0.0001524 3326. 3741.
3586(78) 0.0001644 3326. 3556.
3544(78) 0.0001644 3326. 3440.
3481(77) 0.0001687 3326. 3384.
3354(76) 0.0001731 3326. 3364.
3361(76) 0.0001731 3327. 3365.
3407(76) 0.0001731 3327. 3386.
3541(78) 0.0001644 3327. 3438.
3677(79) 0.0001602 3327. 3541.
3838(81) 0.0001524 3327. 3710.
4287(86) 0.0001352 3327. 3937.
4419(87) 0.0001321 3328. 4170.
4693(90) 0.0001235 3328. 4322.
4607(89) 0.0001262 3328. 4317.
4360(86) 0.0001352 3328. 4144.
4051(91) 0.0001208 3328. 3890.
3762(88) 0.0001291 3328. 3658.
3585(86) 0.0001352 3328. 3496.
3491(85) 0.0001384 3328. 3407.
3396(84) 0.0001417 3328. 3368.
3371(83) 0.0001452 3329. 3353.
3469(84) 0.0001417 3329. 3348.
3483(85) 0.0001384 3329. 3348.
3371(83) 0.0001452 3329. 3351.
3286(82) 0.0001487 3329. 3362.
3510(85) 0.0001384 3329. 3389.
3488(85) 0.0001384 3329. 3445.
3447(84) 0.0001417 3329. 3541.
3712(87) 0.0001321 3329. 3689.
3735(88) 0.0001291 3329. 3860.
3859(89) 0.0001262 3329. 3999.
3892(89) 0.0001262 3329. 4042.
3891(89) 0.0001262 3329. 3960.
3746(88) 0.0001291 3329. 3793.
3627(86) 0.0001352 3328. 3615.
3581(86) 0.0001352 3328. 3480.
3378(83) 0.0001452 3328. 3399.
3400(84) 0.0001417 3328. 3361.
3329(83) 0.0001452 3328. 3345.
3399(84) 0.0001417 3328. 3338.
3473(84) 0.0001417 3328. 3336.
3249(82) 0.0001487 3328. 3334.
3297(82) 0.0001487 3327. 3333.
3304(82) 0.0001487 3327. 3333.
3402(84) 0.0001417 3327. 3334.
3337(83) 0.0001452 3327. 3336.
3419(84) 0.0001417 3327. 3351.
3558(85) 0.0001384 3326. 3379.
3614(86) 0.0001352 3326. 3425.
3518(85) 0.0001384 3326. 3484.
3593(86) 0.0001352 3326. 3541.
3608(86) 0.0001352 3325. 3573.
3528(85) 0.0001384 3325. 3565.
3580(86) 0.0001352 3325. 3521.
3520(85) 0.0001384 3324. 3459.
3460(84) 0.0001417 3324. 3402.
3316(82) 0.0001487 3324. 3362.
3434(84) 0.0001417 3323. 3339.
3313(83) 0.0001452 3323. 3329.
3250(82) 0.0001487 3322. 3324.
3250(82) 0.0001487 3322. 3323.
3322(83) 0.0001452 3322. 3322.
3267(82) 0.0001487 3321. 3321.
3232(81) 0.0001524 3321. 3321.
3317(75) 0.0001778 3320. 3321.
3391(76) 0.0001731 3320. 3321.
3344(75) 0.0001778 3319. 3320.
3347(75) 0.0001778 3319. 3320.
3344(75) 0.0001778 3318. 3320.
3319(75) 0.0001778 3318. 3319.
3383(76) 0.0001731 3317. 3319.
3466(77) 0.0001687 3316. 3319.
3452(77) 0.0001687 3316. 3319.
3370(76) 0.0001731 3315. 3319.
3384(76) 0.0001731 3315. 3319.
3319(75) 0.0001778 3314. 3321.
3293(75) 0.0001778 3313. 3326.
3256(74) 0.0001826 3313. 3337.
3294(75) 0.0001778 3312. 3363.
3432(76) 0.0001731 3311. 3408.
3556(78) 0.0001644 3311. 3474.
3633(79) 0.0001602 3310. 3547.
3646(79) 0.0001602 3309. 3603.
3639(79) 0.0001602 3308. 3614.
3548(78) 0.0001644 3308. 3571.
3402(76) 0.0001731 3307. 3496.
3401(76) 0.0001731 3306. 3421.
3192(74) 0.0001826 3305. 3366.
3306(75) 0.0001778 3304. 3333.
3383(76) 0.0001731 3303. 3318.
3307(75) 0.0001778 3303. 3311.
3389(76) 0.0001731 3302. 3308.
3371(76) 0.0001731 3301. 3306.
3341(75) 0.0001778 3300. 3305.
3337(75) 0.0001778 3299. 3305.
3264(75) 0.0001778 3298. 3306.
3327(75) 0.0001778 3297. 3319.
3280(75) 0.0001778 3296. 3333.
3308(75) 0.0001778 3295. 3358.
3376(76) 0.0001731 3294. 3399.
3473(77) 0.0001687 3293. 3449.
3462(77) 0.0001687 3292. 3494.
3567(78) 0.0001644 3291. 3516.
3520(77) 0.0001687 3290. 3502.
3552(78) 0.0001644 3289. 3459.
3522(77) 0.0001687 3288. 3410.
3616(78) 0.0001644 3287. 3374.
3504(77) 0.0001687 3285. 3361.
3526(77) 0.0001687 3284. 3380.
3612(78) 0.0001644 3283. 3454.
3663(79) 0.0001602 3282. 3625.
3835(81) 0.0001524 3281. 3952.
4361(86) 0.0001352 3280. 4460.
4953(92) 0.0001181 3278. 5087.
5440(110) 0.0000907 3277. 5642.
5680(110) 0.0000857 3276. 5895.
5480(110) 0.0000890 3275. 5671.
5010(100) 0.0000980 3273. 5098.
4366(94) 0.0001132 3272. 4448.
3869(89) 0.0001262 3271. 3928.
3576(85) 0.0001384 3269. 3606.
3492(84) 0.0001417 3268. 3444.
3331(82) 0.0001487 3267. 3378.
3411(83) 0.0001452 3265. 3355.
3275(82) 0.0001487 3264. 3352.
3258(82) 0.0001487 3263. 3363.
3381(83) 0.0001452 3261. 3396.
3401(83) 0.0001452 3260. 3483.
3650(86) 0.0001352 3258. 3690.
4109(92) 0.0001181 3257. 4114.
4713(98) 0.0001041 3256. 4841.
5640(110) 0.0000873 3254. 5848.
6940(120) 0.0000706 3253. 6908.
7510(120) 0.0000650 3251. 7617.
7520(120) 0.0000650 3250. 7594.
6780(120) 0.0000718 3248. 6834.
5770(110) 0.0000842 3247. 5726.
4709(98) 0.0001041 3245. 4704.
3972(90) 0.0001235 3244. 3992.
3561(85) 0.0001384 3242. 3597.
3264(82) 0.0001487 3240. 3413.
3226(81) 0.0001524 3239. 3337.
3204(81) 0.0001524 3237. 3312.
3267(82) 0.0001487 3236. 3296.
3180(81) 0.0001524 3234. 3286.
3099(79) 0.0001602 3233. 3279.
3188(81) 0.0001524 3231. 3273.
3286(82) 0.0001487 3229. 3269.
3342(83) 0.0001452 3228. 3266.
3168(80) 0.0001562 3226. 3265.
3210(81) 0.0001524 3224. 3264.
3196(81) 0.0001524 3223. 3265.
3245(81) 0.0001524 3221. 3255.
3173(80) 0.0001562 3219. 3269.
3217(81) 0.0001524 3218. 3302.
3324(82) 0.0001487 3216. 3383.
3506(85) 0.0001384 3214. 3556.
3866(89) 0.0001262 3213. 3880.
4203(93) 0.0001156 3211. 4349.
4745(98) 0.0001041 3209. 4893.
5130(100) 0.0000961 3207. 5328.
5210(100) 0.0000943 3206. 5446.
4890(100) 0.0001000 3204. 5167.
4416(84) 0.0001417 3202. 4643.
3880(78) 0.0001644 3201. 4104.
3569(75) 0.0001778 3199. 3701.
3417(73) 0.0001877 3197. 3464.
3486(74) 0.0001826 3195. 3356.
3335(73) 0.0001877 3194. 3330.
3467(74) 0.0001826 3192. 3371.
3636(76) 0.0001731 3190. 3501.
3963(79) 0.0001602 3188. 3780.
4415(84) 0.0001417 3187. 4258.
5160(90) 0.0001235 3185. 4916.
5689(95) 0.0001108 3183. 5597.
6077(98) 0.0001041 3181. 6033.
5959(97) 0.0001063 3179. 5990.
5418(93) 0.0001156 3178. 5475.
4741(87) 0.0001321 3176. 4755.
3966(79) 0.0001602 3174. 4096.
3526(75) 0.0001778 3172. 3648.
3382(73) 0.0001877 3171. 3399.
3167(71) 0.0001984 3169. 3284.
3191(71) 0.0001984 3167. 3235.
3181(71) 0.0001984 3165. 3214.
3216(71) 0.0001984 3164. 3203.
3176(71) 0.0001984 3162. 3198.
3202(71) 0.0001984 3160. 3198.
3225(71) 0.0001984 3158. 3207.
3241(71) 0.0001984 3156. 3226.
3301(72) 0.0001929 3155. 3254.
3308(72) 0.0001929 3153. 3283.
3337(73) 0.0001877 3151. 3301.
3328(72) 0.0001929 3150. 3297.
3250(72) 0.0001929 3148. 3259.
3221(71) 0.0001984 3146. 3223.
3275(72) 0.0001929 3144. 3189.
3151(70) 0.0002041 3143. 3166.
3032(69) 0.0002100 3141. 3152.
3068(70) 0.0002041 3139. 3146.
3170(71) 0.0001984 3137. 3142.
3137(70) 0.0002041 3136. 3140.
3199(71) 0.0001984 3134. 3139.
3284(72) 0.0001929 3132. 3138.
3141(70) 0.0002041 3131. 3136.
3184(71) 0.0001984 3129. 3135.
3120(70) 0.0002041 3127. 3134.
3117(70) 0.0002041 3126. 3133.
3141(70) 0.0002041 3124. 3133.
3067(70) 0.0002041 3123. 3133.
3086(70) 0.0002041 3121. 3135.
3153(71) 0.0001984 3119. 3141.
3022(69) 0.0002100 3118. 3156.
3180(71) 0.0001984 3116. 3190.
3245(72) 0.0001929 3115. 3253.
3403(80) 0.0001562 3113. 3354.
3412(80) 0.0001562 3112. 3486.
3532(81) 0.0001524 3110. 3623.
3793(84) 0.0001417 3108. 3724.
3811(84) 0.0001417 3107. 3756.
3601(82) 0.0001487 3105. 3712.
3520(81) 0.0001524 3104. 3604.
3467(81) 0.0001524 3103. 3463.
3372(79) 0.0001602 3101. 3330.
3223(78) 0.0001644 3100. 3229.
3189(77) 0.0001687 3098. 3166.
3223(78) 0.0001644 3097. 3132.
3140(77) 0.0001687 3095. 3116.
3096(76) 0.0001731 3094. 3108.
3099(76) 0.0001731 3093. 3105.
3047(75) 0.0001778 3091. 3104.
3055(76) 0.0001731 3090. 3105.
3113(76) 0.0001731 3089. 3107.
3163(77) 0.0001687 3087. 3109.
3120(76) 0.0001731 3086. 3108.
3073(76) 0.0001731 3085. 3104.
3106(76) 0.0001731 3084. 3097.
3062(76) 0.0001731 3082. 3091.
3065(76) 0.0001731 3081. 3087.
3142(77) 0.0001687 3080. 3084.
3158(77) 0.0001687 3079. 3082.
3058(76) 0.0001731 3078. 3081.
3000(75) 0.0001778 3077. 3080.
3121(76) 0.0001731 3075. 3079.
3127(76) 0.0001731 3074. 3078.
3044(75) 0.0001778 3073. 3078.
2986(75) 0.0001778 3072. 3077.
3082(76) 0.0001731 3071. 3077.
3048(75) 0.0001778 3070. 3077.
3105(76) 0.0001731 3069. 3078.
3132(76) 0.0001731 3068. 3081.
3052(75) 0.0001778 3067. 3087.
3145(77) 0.0001687 3066. 3104.
3173(77) 0.0001687 3065. 3141.
3297(78) 0.0001644 3065. 3210.
3466(81) 0.0001524 3064. 3317.
3572(82) 0.0001487 3063. 3446.
3630(82) 0.0001487 3062. 3558.
3664(83) 0.0001452 3061. 3600.
3675(83) 0.0001452 3061. 3547.
3530(81) 0.0001524 3060. 3428.
3341(79) 0.0001602 3059. 3298.
3310(79) 0.0001602 3058. 3194.
3162(58) 0.0002973 3058. 3129.
3150(65) 0.0002367 3057. 3096.
3161(65) 0.0002367 3056. 3082.
3119(65) 0.0002367 3056. 3079.
3182(66) 0.0002296 3055. 3084.
3160(65) 0.0002367 3055. 3100.
3161(65) 0.0002367 3054. 3136.
3154(65) 0.0002367 3054. 3196.
3237(66) 0.0002296 3053. 3277.
3342(67) 0.0002228 3053. 3359.
3369(67) 0.0002228 3052. 3410.
3292(67) 0.0002228 3052. 3400.
3244(66) 0.0002296 3052. 3335.
3237(66) 0.0002296 3051. 3245.
3065(64) 0.0002441 3051. 3168.
3149(65) 0.0002367 3051. 3116.
3126(65) 0.0002367 3050. 3091.
3111(65) 0.0002367 3050. 3086.
3160(65) 0.0002367 3050. 3094.
3188(66) 0.0002296 3050. 3108.
3222(66) 0.0002296 3050. 3119.
3163(65) 0.0002367 3049. 3122.
3118(65) 0.0002367 3049. 3112.
3039(64) 0.0002441 3049. 3096.
3163(65) 0.0002367 3049. 3079.
3071(64) 0.0002441 3049. 3067.
3075(64) 0.0002441 3049. 3059.
3002(64) 0.0002441 3049. 3055.
3102(65) 0.0002367 3049. 3053.
3150(65) 0.0002367 3049. 3051.
3111(65) 0.0002367 3049. 3050.
3075(64) 0.0002441 3049. 3050.
3130(65) 0.0002367 3049. 3050.
3090(65) 0.0002367 3050. 3050.
3043(64) 0.0002441 3050. 3050.
3076(64) 0.0002441 3050. 3051.
3091(65) 0.0002367 3050. 3051.
3059(64) 0.0002441 3051. 3051.
3116(65) 0.0002367 3051. 3051.
3140(65) 0.0002367 3051. 3051.
3099(65) 0.0002367 3052. 3052.
3166(65) 0.0002367 3052. 3052.
3133(65) 0.0002367 3052. 3052.
3047(64) 0.0002441 3053. 3053.
3078(65) 0.0002367 3053. 3053.
3047(64) 0.0002441 3054. 3054.
3027(64) 0.0002441 3054. 3054.
3109(65) 0.0002367 3055. 3055.
3082(65) 0.0002367 3055. 3055.
3060(64) 0.0002441 3056. 3056.
3035(64) 0.0002441 3056. 3056.
3089(70) 0.0002041 3057. 3057.
3120(71) 0.0001984 3058. 3058.
3058(70) 0.0002041 3058. 3059.
3025(69) 0.0002100 3059. 3060.
3015(69) 0.0002100 3060. 3061.
2989(69) 0.0002100 3060. 3062.
2939(68) 0.0002163 3061. 3062.
2922(68) 0.0002163 3062. 3063.
3077(70) 0.0002041 3063. 3065.
3012(69) 0.0002100 3063. 3066.
3190(71) 0.0001984 3064. 3067.
3192(71) 0.0001984 3065. 3069.
3088(70) 0.0002041 3066. 3071.
2992(69) 0.0002100 3067. 3076.
3062(70) 0.0002041 3068. 3084.
3001(69) 0.0002100 3069. 3100.
3051(70) 0.0002041 3070. 3126.
3153(71) 0.0001984 3071. 3162.
3164(71) 0.0001984 3072. 3200.
3191(71) 0.0001984 3073. 3228.
3245(72) 0.0001929 3074. 3234.
3220(72) 0.0001929 3075. 3217.
3182(71) 0.0001984 3076. 3185.
3075(70) 0.0002041 3077. 3151.
3120(71) 0.0001984 3078. 3124.
3125(71) 0.0001984 3079. 3106.
3084(70) 0.0002041 3081. 3096.
3025(69) 0.0002100 3082. 3092.
3155(71) 0.0001984 3083. 3092.
3158(71) 0.0001984 3084. 3096.
3140(71) 0.0001984 3085. 3102.
3160(71) 0.0001984 3087. 3111.
3261(72) 0.0001929 3088. 3121.
3210(72) 0.0001929 3089. 3129.
3258(72) 0.0001929 3091. 3132.
3372(73) 0.0001877 3092. 3129.
3378(73) 0.0001877 3093. 3124.
3163(71) 0.0001984 3095. 3125.
3224(72) 0.0001929 3096. 3132.
3088(70) 0.0002041 3097. 3158.
3279(72) 0.0001929 3099. 3195.
3398(74) 0.0001826 3100. 3243.
3398(74) 0.0001826 3101. 3291.
3376(73) 0.0001877 3103. 3321.
3382(73) 0.0001877 3104. 3317.
3429(74) 0.0001826 3106. 3285.
3293(72) 0.0001929 3107. 3243.
3145(71) 0.0001984 3109. 3210.
3125(71) 0.0001984 3110. 3197.
3107(62) 0.0002601 3112. 3211.
3225(63) 0.0002520 3113. 3266.
3317(64) 0.0002441 3115. 3384.
3701(67) 0.0002228 3116. 3590.
4010(70) 0.0002041 3118. 3899.
4324(73) 0.0001877 3119. 4283.
4633(75) 0.0001778 3121. 4663.
4967(78) 0.0001644 3122. 4920.
4932(77) 0.0001687 3124. 4955.
4700(76) 0.0001731 3125. 4736.
4267(72) 0.0001929 3127. 4349.
3816(68) 0.0002163 3129. 3937.
3635(66) 0.0002296 3130. 3606.
3341(64) 0.0002441 3132. 3388.
3235(63) 0.0002520 3133. 3268.
3133(62) 0.0002601 3135. 3211.
3192(62) 0.0002601 3136. 3186.
3093(61) 0.0002687 3138. 3177.
3050(61) 0.0002687 3140. 3171.
3059(61) 0.0002687 3141. 3168.
3139(62) 0.0002601 3143. 3167.
3186(62) 0.0002601 3144. 3166.
3105(62) 0.0002601 3146. 3165.
3085(61) 0.0002687 3148. 3165.
3094(61) 0.0002687 3149. 3166.
3128(62) 0.0002601 3151. 3164.
3116(62) 0.0002601 3152. 3166.
3037(61) 0.0002687 3154. 3161.
3115(62) 0.0002601 3156. 3164.
3163(62) 0.0002601 3157. 3167.
3061(61) 0.0002687 3159. 3170.
3066(61) 0.0002687 3160. 3175.
3154(62) 0.0002601 3162. 3181.
3128(62) 0.0002601 3164. 3191.
3165(62) 0.0002601 3165. 3218.
3140(62) 0.0002601 3167. 3258.
3231(63) 0.0002520 3168. 3335.
3348(64) 0.0002441 3170. 3460.
3551(66) 0.0002296 3172. 3630.
3709(67) 0.0002228 3173. 3810.
3805(68) 0.0002163 3175. 3937.
3741(67) 0.0002228 3176. 3946.
3618(66) 0.0002296 3178. 3834.
3596(66) 0.0002296 3179. 3662.
3454(65) 0.0002367 3181. 3497.
3373(64) 0.0002441 3182. 3378.
3398(64) 0.0002441 3184. 3311.
3588(66) 0.0002296 3185. 3285.
3509(65) 0.0002367 3187. 3293.
3586(66) 0.0002296 3188. 3333.
3733(67) 0.0002228 3190. 3422.
3770(74) 0.0001826 3191. 3582.
4002(76) 0.0001731 3193. 3842.
4435(80) 0.0001562 3194. 4213.
4798(83) 0.0001452 3195. 4663.
5167(87) 0.0001321 3197. 5103.
5383(88) 0.0001291 3198. 5396.
5265(87) 0.0001321 3200. 5398.
5015(85) 0.0001384 3201. 5081.
4497(81) 0.0001524 3202. 4589.
4082(77) 0.0001687 3204. 4105.
3708(73) 0.0001877 3205. 3740.
3623(73) 0.0001877 3206. 3526.
3416(70) 0.0002041 3208. 3442.
3417(71) 0.0001984 3209. 3452.
3516(72) 0.0001929 3210. 3528.
3573(72) 0.0001929 3211. 3633.
3564(72) 0.0001929 3212. 3723.
3582(72) 0.0001929 3214. 3749.
3571(72) 0.0001929 3215. 3693.
3526(72) 0.0001929 3216. 3582.
3335(70) 0.0002041 3217. 3463.
3207(68) 0.0002163 3218. 3368.
3196(68) 0.0002163 3219. 3314.
3195(68) 0.0002163 3221. 3281.
3160(68) 0.0002163 3222. 3265.
3215(68) 0.0002163 3223. 3259.
3239(69) 0.0002100 3224. 3255.
3220(68) 0.0002163 3225. 3255.
3123(67) 0.0002228 3226. 3256.
3133(68) 0.0002163 3227. 3251.
3233(69) 0.0002100 3228. 3254.
3171(68) 0.0002163 3228. 3257.
3231(69) 0.0002100 3229. 3263.
3315(69) 0.0002100 3230. 3274.
3207(68) 0.0002163 3231. 3287.
3198(68) 0.0002163 3232. 3309.
3171(68) 0.0002163 3233. 3339.
3284(69) 0.0002100 3234. 3381.
3409(70) 0.0002041 3234. 3442.
3392(70) 0.0002041 3235. 3543.
3577(72) 0.0001929 3236. 3721.
4051(77) 0.0001687 3236. 4026.
4435(80) 0.0001562 3237. 4468.
4958(85) 0.0001384 3238. 4981.
5479(89) 0.0001262 3238. 5406.
5642(90) 0.0001235 3239. 5543.
5395(88) 0.0001291 3239. 5311.
4862(84) 0.0001417 3240. 4841.
4224(78) 0.0001644 3241. 4335.
3907(65) 0.0002367 3241. 3937.
3632(62) 0.0002601 3241. 3698.
3682(63) 0.0002520 3242. 3616.
3797(64) 0.0002441 3242. 3662.
3918(65) 0.0002367 3243. 3806.
4129(66) 0.0002296 3243. 4021.
4343(68) 0.0002163 3243. 4204.
4297(68) 0.0002163 3244. 4294.
4227(67) 0.0002228 3244. 4252.
4103(66) 0.0002296 3244. 4101.
3782(64) 0.0002441 3244. 3895.
3573(62) 0.0002601 3245. 3696.
3457(61) 0.0002687 3245. 3543.
3367(60) 0.0002778 3245. 3448.
3364(60) 0.0002778 3245. 3403.
3318(60) 0.0002778 3245. 3395.
3393(60) 0.0002778 3245. 3414.
3424(61) 0.0002687 3245. 3449.
3390(60) 0.0002778 3245. 3491.
3400(60) 0.0002778 3245. 3524.
3461(61) 0.0002687 3245. 3567.
3531(61) 0.0002687 3245. 3644.
3854(64) 0.0002441 3245. 3829.
4303(68) 0.0002163 3244. 4222.
5061(74) 0.0001826 3244. 4920.
6144(81) 0.0001524 3244. 5932.
7326(88) 0.0001291 3244. 7105.
8246(94) 0.0001132 3244. 8086.
8456(95) 0.0001108 3243. 8437.
7873(92) 0.0001181 3243. 7961.
6859(86) 0.0001352 3243. 6927.
5694(78) 0.0001644 3242. 5786.
4776(71) 0.0001984 3242. 4836.
4056(66) 0.0002296 3241. 4185.
3813(64) 0.0002441 3241. 3794.
3654(63) 0.0002520 3240. 3577.
3430(61) 0.0002687 3240. 3460.
3328(60) 0.0002778 3239. 3395.
3339(60) 0.0002778 3239. 3356.
3337(60) 0.0002778 3238. 3333.
3378(60) 0.0002778 3237. 3318.
3523(61) 0.0002687 3237. 3308.
3671(63) 0.0002520 3236. 3301.
3725(63) 0.0002520 3235. 3299.
3780(64) 0.0002441 3234. 3304.
3759(63) 0.0002520 3234. 3322.
3671(63) 0.0002520 3233. 3364.
3533(62) 0.0002601 3232. 3432.
3595(62) 0.0002601 3231. 3530.
3705(63) 0.0002520 3230. 3641.
3745(63) 0.0002520 3229. 3731.
3700(68) 0.0002163 3228. 3740.
3738(69) 0.0002100 3227. 3694.
3584(67) 0.0002228 3226. 3598.
3410(66) 0.0002296 3225. 3489.
3283(64) 0.0002441 3224. 3394.
3368(65) 0.0002367 3223. 3325.
3313(65) 0.0002367 3222. 3283.
3291(64) 0.0002441 3221. 3260.
3251(64) 0.0002441 3220. 3248.
3266(64) 0.0002441 3218. 3243.
3226(64) 0.0002441 3217. 3242.
3183(63) 0.0002520 3216. 3246.
3353(65) 0.0002367 3215. 3257.
3426(66) 0.0002296 3213. 3284.
3540(67) 0.0002228 3212. 3333.
3613(67) 0.0002228 3211. 3412.
3665(68) 0.0002163 3209. 3513.
3631(68) 0.0002163 3208. 3615.
3688(68) 0.0002163 3207. 3681.
3647(68) 0.0002163 3205. 3676.
3606(67) 0.0002228 3204. 3604.
3478(66) 0.0002296 3202. 3497.
3431(66) 0.0002296 3201. 3393.
3442(66) 0.0002296 3199. 3313.
3403(65) 0.0002367 3197. 3262.
3243(64) 0.0002441 3196. 3234.
3167(63) 0.0002520 3194. 3221.
3178(63) 0.0002520 3193. 3217.
3161(63) 0.0002520 3191. 3221.
3175(63) 0.0002520 3189. 3229.
3181(63) 0.0002520 3188. 3242.
3201(63) 0.0002520 3186. 3258.
3267(64) 0.0002441 3184. 3273.
3279(64) 0.0002441 3182. 3280.
3224(64) 0.0002441 3180. 3276.
3311(65) 0.0002367 3179. 3263.
3274(64) 0.0002441 3177. 3251.
3260(64) 0.0002441 3175. 3250.
3272(64) 0.0002441 3173. 3268.
3327(65) 0.0002367 3171. 3313.
3392(65) 0.0002367 3169. 3386.
3471(66) 0.0002296 3167. 3476.
3527(67) 0.0002228 3165. 3565.
3671(68) 0.0002163 3164. 3619.
3646(68) 0.0002163 3162. 3617.
3547(67) 0.0002228 3160. 3579.
3456(66) 0.0002296 3158. 3552.
3433(66) 0.0002296 3156. 3574.
3674(68) 0.0002163 3153. 3656.
3864(60) 0.0002778 3151. 3775.
3827(60) 0.0002778 3149. 3872.
3890(60) 0.0002778 3147. 3885.
3762(59) 0.0002873 3145. 3794.
3610(58) 0.0002973 3143. 3639.
3489(57) 0.0003078 3141. 3476.
3364(56) 0.0003189 3139. 3344.
3161(54) 0.0003429 3137. 3258.
3190(54) 0.0003429 3134. 3206.
3210(55) 0.0003306 3132. 3181.
3237(55) 0.0003306 3130. 3171.
3209(55) 0.0003306 3128. 3173.
3268(55) 0.0003306 3126. 3186.
3182(54) 0.0003429 3123. 3209.
3256(55) 0.0003306 3121. 3239.
3378(56) 0.0003189 3119. 3270.
3359(56) 0.0003189 3117. 3290.
3239(55) 0.0003306 3114. 3292.
3258(55) 0.0003306 3112. 3279.
3294(55) 0.0003306 3110. 3251.
3235(55) 0.0003306 3107. 3220.
3188(54) 0.0003429 3105. 3195.
3286(55) 0.0003306 3103. 3183.
3279(55) 0.0003306 3100. 3192.
3251(55) 0.0003306 3098. 3231.
3372(56) 0.0003189 3096. 3307.
3565(58) 0.0002973 3093. 3436.
3769(59) 0.0002873 3091. 3607.
3880(60) 0.0002778 3089. 3786.
3990(61) 0.0002687 3086. 3915.
3965(61) 0.0002687 3084. 3933.
3794(59) 0.0002873 3081. 3825.
3590(58) 0.0002973 3079. 3647.
3417(56) 0.0003189 3077. 3464.
3264(55) 0.0003306 3074. 3318.
3234(55) 0.0003306 3072. 3224.
3122(54) 0.0003429 3069. 3184.
3189(54) 0.0003429 3067. 3180.
3238(55) 0.0003306 3065. 3204.
3203(55) 0.0003306 3062. 3242.
3210(55) 0.0003306 3060. 3281.
3294(55) 0.0003306 3057. 3302.
3267(55) 0.0003306 3055. 3291.
3103(54) 0.0003429 3053. 3252.
3144(54) 0.0003429 3050. 3202.
3077(53) 0.000356 3048. 3156.
3077(53) 0.000356 3045. 3123.
2993(53) 0.000356 3043. 3106.
3077(53) 0.000356 3040. 3104.
3099(54) 0.0003429 3038. 3117.
3053(53) 0.000356 3036. 3154.
3065(58) 0.0002973 3033. 3195.
3245(60) 0.0002778 3031. 3247.
3290(60) 0.0002778 3028. 3307.
3406(61) 0.0002687 3026. 3385.
3515(62) 0.0002601 3023. 3491.
3660(64) 0.0002441 3021. 3638.
3760(65) 0.0002367 3019. 3813.
4049(67) 0.0002228 3016. 3972.
4088(67) 0.0002228 3014. 4048.
4068(67) 0.0002228 3011. 4002.
3792(65) 0.0002367 3009. 3854.
3543(63) 0.0002520 3007. 3664.
3449(62) 0.0002601 3004. 3493.
3294(60) 0.0002778 3002. 3377.
3178(59) 0.0002873 3000. 3337.
3308(60) 0.0002778 2997. 3375.
3430(62) 0.0002601 2995. 3499.
3723(64) 0.0002441 2992. 3721.
3992(66) 0.0002296 2990. 4051.
4614(72) 0.0001929 2988. 4468.
4928(74) 0.0001826 2985. 4900.
5002(75) 0.0001778 2983. 5212.
5148(76) 0.0001731 2981. 5254.
4924(74) 0.0001826 2978. 4987.
4502(71) 0.0001984 2976. 4530.
4116(68) 0.0002163 2974. 4047.
3632(63) 0.0002520 2972. 3643.
3387(61) 0.0002687 2969. 3362.
3201(59) 0.0002873 2967. 3192.
3011(58) 0.0002973 2965. 3100.
3005(58) 0.0002973 2963. 3053.
3063(58) 0.0002973 2960. 3024.
2946(57) 0.0003078 2958. 3009.
2993(57) 0.0003078 2956. 2998.
3034(58) 0.0002973 2954. 2990.
2942(57) 0.0003078 2951. 2983.
2890(56) 0.0003189 2949. 2977.
2895(57) 0.0003078 2947. 2972.
2930(57) 0.0003078 2945. 2968.
2952(57) 0.0003078 2943. 2965.
2911(57) 0.0003078 2941. 2962.
2890(56) 0.0003189 2939. 2961.
2838(56) 0.0003189 2936. 2962.
2910(57) 0.0003078 2934. 2968.
2959(57) 0.0003078 2932. 2978.
2935(57) 0.0003078 2930. 2983.
2905(57) 0.0003078 2928. 3001.
3092(58) 0.0002973 2926. 3015.
2976(57) 0.0003078 2924. 3020.
3042(52) 0.000370 2922. 3014.
2982(51) 0.000384 2920. 3002.
2916(51) 0.000384 2918. 2993.
2968(51) 0.000384 2916. 2992.
2963(51) 0.000384 2914. 3001.
2974(51) 0.000384 2912. 3015.
3098(52) 0.000370 2910. 3028.
2938(51) 0.000384 2908. 3031.
3084(52) 0.000370 2906. 3023.
2971(51) 0.000384 2904. 3009.
3050(52) 0.000370 2903. 2992.
2985(51) 0.000384 2901. 2974.
3023(52) 0.000370 2899. 2955.
2945(51) 0.000384 2897. 2938.
3010(51) 0.000384 2895. 2924.
2937(51) 0.000384 2893. 2913.
2960(51) 0.000384 2892. 2905.
2849(50) 0.000400 2890. 2900.
2887(50) 0.000400 2888. 2897.
2842(50) 0.000400 2886. 2894.
2859(50) 0.000400 2885. 2893.
2870(50) 0.000400 2883. 2893.
2895(50) 0.000400 2881. 2894.
2906(50) 0.000400 2880. 2899.
2861(50) 0.000400 2878. 2909.
2951(51) 0.000384 2876. 2928.
3040(52) 0.000370 2875. 2955.
2925(51) 0.000384 2873. 2988.
3037(52) 0.000370 2871. 3018.
3025(52) 0.000370 2870. 3036.
3068(52) 0.000370 2868. 3031.
3092(52) 0.000370 2867. 3006.
2952(51) 0.000384 2865. 2971.
2998(51) 0.000384 2864. 2937.
2920(51) 0.000384 2862. 2912.
2909(51) 0.000384 2861. 2895.
2864(50) 0.000400 2859. 2886.
2909(51) 0.000384 2858. 2882.
2896(50) 0.000400 2856. 2883.
2934(51) 0.000384 2855. 2884.
2815(50) 0.000400 2854. 2887.
2832(50) 0.000400 2852. 2892.
2828(50) 0.000400 2851. 2897.
2858(50) 0.000400 2849. 2901.
2933(51) 0.000384 2848. 2901.
2927(51) 0.000384 2847. 2896.
2909(51) 0.000384 2846. 2888.
3011(51) 0.000384 2844. 2882.
2819(50) 0.000400 2843. 2879.
2798(50) 0.000400 2842. 2883.
2907(51) 0.000384 2841. 2896.
2914(55) 0.0003306 2839. 2919.
2991(56) 0.0003189 2838. 2949.
3068(57) 0.0003078 2837. 2982.
2993(56) 0.0003189 2836. 3011.
3105(57) 0.0003078 2835. 3026.
3089(57) 0.0003078 2834. 3030.
3012(56) 0.0003189 2832. 3038.
2988(56) 0.0003189 2831. 3065.
3034(56) 0.0003189 2830. 3120.
3270(59) 0.0002873 2829. 3196.
3296(59) 0.0002873 2828. 3275.
3355(59) 0.0002873 2827. 3328.
3394(60) 0.0002778 2826. 3334.
3234(58) 0.0002973 2825. 3299.
3238(58) 0.0002973 2824. 3241.
3188(58) 0.0002973 2823. 3173.
3056(57) 0.0003078 2822. 3102.
3005(56) 0.0003189 2821. 3034.
3074(57) 0.0003078 2820. 2979.
2902(55) 0.0003306 2819. 2940.
2851(55) 0.0003306 2819. 2915.
2845(55) 0.0003306 2818. 2900.
2908(55) 0.0003306 2817. 2890.
2952(56) 0.0003189 2816. 2881.
2820(54) 0.0003429 2815. 2874.
2837(55) 0.0003306 2814. 2871.
2982(56) 0.0003189 2814. 2876.
2921(55) 0.0003306 2813. 2891.
2946(56) 0.0003189 2812. 2915.
2947(56) 0.0003189 2811. 2944.
2895(55) 0.0003306 2811. 2969.
2949(56) 0.0003189 2810. 2979.
2991(56) 0.0003189 2809. 2968.
2973(56) 0.0003189 2809. 2941.
2826(54) 0.0003429 2808. 2908.
2950(56) 0.0003189 2807. 2877.
2849(55) 0.0003306 2807. 2854.
2874(55) 0.0003306 2806. 2838.
2921(55) 0.0003306 2805. 2830.
2895(55) 0.0003306 2805. 2825.
2949(56) 0.0003189 2804. 2828.
2920(55) 0.0003306 2804. 2836.
2808(54) 0.0003429 2803. 2852.
2887(55) 0.0003306 2802. 2877.
2938(56) 0.0003189 2802. 2914.
3070(57) 0.0003078 2801. 2958.
3000(56) 0.0003189 2801. 2999.
3119(57) 0.0003078 2800. 3024.
3115(57) 0.0003078 2800. 3022.
3047(50) 0.000400 2799. 2993.
2958(49) 0.000416 2799. 2951.
2862(48) 0.000434 2799. 2910.
2845(48) 0.000434 2798. 2879.
2854(48) 0.000434 2798. 2862.
2890(49) 0.000416 2797. 2860.
2887(49) 0.000416 2797. 2870.
2911(49) 0.000416 2797. 2889.
2928(49) 0.000416 2796. 2909.
2962(49) 0.000416 2796. 2924.
2986(50) 0.000400 2795. 2932.
2948(49) 0.000416 2795. 2924.
2876(49) 0.000416 2795. 2906.
2918(49) 0.000416 2795. 2884.
2892(49) 0.000416 2794. 2863.
2871(49) 0.000416 2794. 2846.
2833(48) 0.000434 2794. 2836.
2859(48) 0.000434 2793. 2832.
2846(48) 0.000434 2793. 2832.
2870(49) 0.000416 2793. 2836.
2865(49) 0.000416 2793. 2844.
2823(48) 0.000434 2792. 2856.
2850(48) 0.000434 2792. 2874.
2876(49) 0.000416 2792. 2901.
2931(49) 0.000416 2792. 2936.
3055(50) 0.000400 2792. 2974.
3005(50) 0.000400 2791. 3004.
3041(50) 0.000400 2791. 3016.
2976(49) 0.000416 2791. 3007.
2929(49) 0.000416 2791. 2986.
2954(49) 0.000416 2791. 2968.
3071(50) 0.000400 2791. 2974.
3115(51) 0.000384 2791. 3019.
3167(51) 0.000384 2790. 3118.
3353(53) 0.000356 2790. 3279.
3545(54) 0.0003429 2790. 3491.
3857(56) 0.0003189 2790. 3718.
3955(57) 0.0003078 2790. 3902.
4004(57) 0.0003078 2790. 3972.
3945(57) 0.0003078 2790. 3894.
3754(56) 0.0003189 2790. 3703.
3497(54) 0.0003429 2790. 3472.
3215(51) 0.000384 2790. 3257.
3048(50) 0.000400 2790. 3089.
3036(50) 0.000400 2790. 2976.
2954(49) 0.000416 2790. 2910.
2827(48) 0.000434 2790. 2877.
2854(48) 0.000434 2790. 2867.
2901(49) 0.000416 2790. 2872.
2901(49) 0.000416 2790. 2889.
2877(49) 0.000416 2790. 2914.
2791(52) 0.000370 2790. 2941.
2927(53) 0.000356 2790. 2963.
2970(54) 0.0003429 2790. 2973.
2849(53) 0.000356 2790. 2965.
2951(54) 0.0003429 2790. 2944.
2928(53) 0.000356 2790. 2918.
2801(52) 0.000370 2790. 2897.
2836(53) 0.000356 2790. 2883.
2853(53) 0.000356 2790. 2878.
2855(53) 0.000356 2790. 2879.
2837(53) 0.000356 2790. 2885.
2873(53) 0.000356 2790. 2891.
2861(53) 0.000356 2790. 2896.
2855(53) 0.000356 2790. 2900.
2871(53) 0.000356 2790. 2905.
2841(53) 0.000356 2790. 2910.
2837(53) 0.000356 2791. 2926.
2983(54) 0.0003429 2791. 2949.
3071(55) 0.0003306 2791. 2978.
3042(54) 0.0003429 2791. 3009.
3071(55) 0.0003306 2791. 3037.
3052(55) 0.0003306 2791. 3057.
3036(54) 0.0003429 2791. 3057.
3044(55) 0.0003306 2791. 3033.
3001(54) 0.0003429 2791. 2991.
3024(54) 0.0003429 2792. 2943.
2885(53) 0.000356 2792. 2899.
2845(53) 0.000356 2792. 2864.
2890(53) 0.000356 2792. 2839.
2829(53) 0.000356 2792. 2823.
2874(53) 0.000356 2792. 2812.
2822(52) 0.000370 2792. 2807.
2795(52) 0.000370 2792. 2804.
2703(51) 0.000384 2793. 2802.
2772(52) 0.000370 2793. 2801.
2762(52) 0.000370 2793. 2801.
2738(52) 0.000370 2793. 2801.
2814(52) 0.000370 2793. 2802.
2882(53) 0.000356 2793. 2802.
2790(52) 0.000370 2794. 2803.
2816(52) 0.000370 2794. 2803.
2802(52) 0.000370 2794. 2804.
2761(52) 0.000370 2794. 2806.
2750(52) 0.000370 2794. 2808.
2846(53) 0.000356 2794. 2811.
2798(52) 0.000370 2795. 2815.
2747(52) 0.000370 2795. 2823.
2740(52) 0.000370 2795. 2836.
2808(52) 0.000370 2795. 2855.
2892(67) 0.0002228 2795. 2883.
2945(47) 0.000453 2795. 2915.
2982(47) 0.000453 2796. 2949.
2990(47) 0.000453 2796. 2980.
2929(47) 0.000453 2796. 2992.
2943(47) 0.000453 2796. 2985.
2978(47) 0.000453 2796. 2966.
2959(47) 0.000453 2797. 2948.
2943(47) 0.000453 2797. 2941.
2943(47) 0.000453 2797. 2956.
2974(47) 0.000453 2797. 2997.
3057(48) 0.000434 2797. 3064.
3181(49) 0.000416 2797. 3151.
3270(50) 0.000400 2798. 3244.
3328(50) 0.000400 2798. 3322.
3364(50) 0.000400 2798. 3369.
3343(50) 0.000400 2798. 3379.
3313(50) 0.000400 2798. 3359.
3297(50) 0.000400 2799. 3326.
3252(49) 0.000416 2799. 3295.
3316(50) 0.000400 2799. 3270.
3292(50) 0.000400 2799. 3245.
3204(49) 0.000416 2799. 3217.
3171(49) 0.000416 2799. 3182.
3114(48) 0.000434 2800. 3153.
3082(48) 0.000434 2800. 3140.
3130(48) 0.000434 2800. 3152.
3152(49) 0.000416 2800. 3197.
3283(50) 0.000400 2800. 3274.
3428(51) 0.000384 2800. 3370.
3502(51) 0.000384 2801. 3457.
3526(51) 0.000384 2801. 3499.
3538(52) 0.000370 2801. 3471.
3436(51) 0.000384 2801. 3380.
3284(50) 0.000400 2801. 3257.
3109(48) 0.000434 2802. 3134.
3086(48) 0.000434 2802. 3031.
2992(47) 0.000453 2802. 2955.
2971(47) 0.000453 2802. 2905.
2895(47) 0.000453 2802. 2876.
2837(46) 0.000473 2802. 2863.
2935(47) 0.000453 2802. 2859.
2900(47) 0.000453 2803. 2863.
2873(46) 0.000473 2803. 2878.
2940(47) 0.000453 2803. 2904.
2955(47) 0.000453 2803. 2947.
2996(47) 0.000453 2803. 3006.
3024(48) 0.000434 2803. 3079.
3142(49) 0.000416 2803. 3158.
3162(49) 0.000416 2804. 3226.
3227(49) 0.000416 2804. 3264.
3186(53) 0.000356 2804. 3256.
3105(53) 0.000356 2804. 3202.
3060(52) 0.000370 2804. 3123.
3011(52) 0.000370 2804. 3040.
2935(51) 0.000384 2804. 2968.
2909(51) 0.000384 2805. 2913.
2894(51) 0.000384 2805. 2877.
2898(51) 0.000384 2805. 2857.
2859(50) 0.000400 2805. 2848.
2880(51) 0.000384 2805. 2849.
2848(50) 0.000400 2805. 2856.
2861(50) 0.000400 2805. 2868.
2931(51) 0.000384 2805. 2881.
2878(51) 0.000384 2805. 2893.
2916(51) 0.000384 2805. 2899.
2955(51) 0.000384 2806. 2896.
2863(51) 0.000384 2806. 2886.
2849(50) 0.000400 2806. 2872.
2863(51) 0.000384 2806. 2858.
2862(51) 0.000384 2806. 2845.
2830(50) 0.000400 2806. 2836.
2767(50) 0.000400 2806. 2831.
2699(49) 0.000416 2806. 2828.
2753(50) 0.000400 2806. 2827.
2752(50) 0.000400 2806. 2826.
2784(50) 0.000400 2806. 2827.
2763(50) 0.000400 2806. 2828.
2773(50) 0.000400 2806. 2827.
2751(50) 0.000400 2806. 2828.
2741(49) 0.000416 2807. 2830.
2821(50) 0.000400 2807. 2834.
2866(51) 0.000384 2807. 2839.
2827(50) 0.000400 2807. 2847.
2828(50) 0.000400 2807. 2862.
2904(51) 0.000384 2807. 2888.
2904(51) 0.000384 2807. 2931.
2954(51) 0.000384 2807. 3000.
3129(53) 0.000356 2807. 3099.
3292(54) 0.0003429 2807. 3230.
3408(55) 0.0003306 2807. 3377.
3531(56) 0.0003189 2807. 3519.
3632(57) 0.0003078 2807. 3622.
3691(57) 0.0003078 2807. 3648.
3551(56) 0.0003189 2807. 3593.
3464(56) 0.0003189 2807. 3480.
3328(54) 0.0003429 2807. 3350.
3205(53) 0.000356 2807. 3230.
3085(52) 0.000370 2807. 3142.
3052(52) 0.000370 2807. 3092.
3102(48) 0.000434 2807. 3080.
3205(49) 0.000416 2807. 3100.
3116(48) 0.000434 2807. 3144.
3227(49) 0.000416 2806. 3201.
3199(49) 0.000416 2806. 3255.
3258(50) 0.000400 2806. 3287.
3286(50) 0.000400 2806. 3281.
3292(50) 0.000400 2806. 3235.
3167(49) 0.000416 2806. 3164.
3058(48) 0.000434 2806. 3089.
2953(47) 0.000453 2806. 3023.
3020(48) 0.000434 2806. 2975.
2929(47) 0.000453 2806. 2947.
2969(47) 0.000453 2806. 2937.
2908(47) 0.000453 2806. 2941.
2976(47) 0.000453 2805. 2955.
2939(47) 0.000453 2805. 2978.
2940(47) 0.000453 2805. 3013.
3037(48) 0.000434 2805. 3062.
3155(49) 0.000416 2805. 3127.
3205(49) 0.000416 2805. 3206.
3268(50) 0.000400 2805. 3286.
3357(50) 0.000400 2805. 3352.
3420(51) 0.000384 2804. 3387.
3391(51) 0.000384 2804. 3387.
3304(50) 0.000400 2804. 3357.
3322(50) 0.000400 2804. 3300.
3321(50) 0.000400 2804. 3225.
3188(49) 0.000416 2804. 3141.
3165(49) 0.000416 2803. 3061.
3093(48) 0.000434 2803. 2993.
3059(48) 0.000434 2803. 2940.
2981(47) 0.000453 2803. 2905.
2962(47) 0.000453 2803. 2883.
2996(47) 0.000453 2802. 2876.
2882(47) 0.000453 2802. 2879.
2919(47) 0.000453 2802. 2896.
2922(47) 0.000453 2802. 2926.
2927(47) 0.000453 2801. 2973.
3012(48) 0.000434 2801. 3033.
3195(49) 0.000416 2801. 3105.
3177(49) 0.000416 2801. 3174.
3237(49) 0.000416 2800. 3228.
3317(50) 0.000400 2800. 3245.
3236(49) 0.000416 2800. 3223.
3110(48) 0.000434 2800. 3170.
3073(48) 0.000434 2799. 3107.
3026(48) 0.000434 2799. 3049.
2968(47) 0.000453 2799. 3010.
2948(47) 0.000453 2798. 2996.
2959(47) 0.000453 2798. 3010.
3019(48) 0.000434 2798. 3053.
3120(53) 0.000356 2797. 3120.
3158(54) 0.0003429 2797. 3204.
3331(55) 0.0003306 2797. 3290.
3357(55) 0.0003306 2796. 3359.
3432(56) 0.0003189 2796. 3391.
3417(56) 0.0003189 2796. 3378.
3531(57) 0.0003078 2795. 3325.
3354(55) 0.0003306 2795. 3252.
3227(54) 0.0003429 2795. 3183.
3227(54) 0.0003429 2794. 3134.
3205(54) 0.0003429 2794. 3115.
3185(54) 0.0003429 2793. 3127.
3151(54) 0.0003429 2793. 3161.
3220(54) 0.0003429 2793. 3203.
3260(55) 0.0003306 2792. 3241.
3284(55) 0.0003306 2792. 3261.
3185(54) 0.0003429 2791. 3259.
3155(54) 0.0003429 2791. 3237.
3205(54) 0.0003429 2791. 3210.
3210(54) 0.0003429 2790. 3194.
3229(54) 0.0003429 2790. 3199.
3274(55) 0.0003306 2789. 3227.
3313(55) 0.0003306 2789. 3268.
3292(55) 0.0003306 2788. 3306.
3357(55) 0.0003306 2788. 3321.
3414(56) 0.0003189 2787. 3302.
3421(56) 0.0003189 2787. 3258.
3160(54) 0.0003429 2786. 3200.
3232(54) 0.0003429 2786. 3138.
3211(54) 0.0003429 2785. 3078.
3055(53) 0.000356 2785. 3025.
2952(52) 0.000370 2784. 2981.
2986(52) 0.000370 2784. 2949.
2943(52) 0.000370 2783. 2931.
2924(52) 0.000370 2783. 2925.
2959(52) 0.000370 2782. 2928.
2972(52) 0.000370 2782. 2936.
2891(51) 0.000384 2781. 2941.
2910(51) 0.000384 2780. 2938.
2928(52) 0.000370 2780. 2926.
2968(52) 0.000370 2779. 2906.
2853(51) 0.000384 2779. 2883.
2834(51) 0.000384 2778. 2861.
2748(50) 0.000400 2777. 2845.
2721(50) 0.000400 2777. 2834.
2813(51) 0.000384 2776. 2833.
2851(51) 0.000384 2776. 2834.
2796(50) 0.000400 2775. 2838.
2812(40) 0.000625 2774. 2843.
2889(47) 0.000453 2774. 2846.
2820(46) 0.000473 2773. 2849.
2819(46) 0.000473 2772. 2849.
2860(46) 0.000473 2772. 2846.
2853(46) 0.000473 2771. 2840.
2811(46) 0.000473 2770. 2832.
2824(46) 0.000473 2770. 2822.
2808(46) 0.000473 2769. 2812.
2768(46) 0.000473 2768. 2804.
2772(46) 0.000473 2768. 2796.
2814(46) 0.000473 2767. 2791.
2779(46) 0.000473 2766. 2790.
2699(45) 0.000494 2765. 2789.
2719(45) 0.000494 2765. 2789.
2770(46) 0.000473 2764. 2792.
2794(46) 0.000473 2763. 2797.
2857(46) 0.000473 2763. 2805.
2831(46) 0.000473 2762. 2818.
2868(46) 0.000473 2761. 2837.
2825(46) 0.000473 2760. 2865.
2892(47) 0.000453 2760. 2900.
2848(46) 0.000473 2759. 2945.
3004(47) 0.000453 2758. 2996.
3084(48) 0.000434 2757. 3055.
3106(48) 0.000434 2756. 3118.
3227(49) 0.000416 2756. 3186.
3247(49) 0.000416 2755. 3259.
3363(50) 0.000400 2754. 3334.
3464(51) 0.000384 2753. 3399.
3481(51) 0.000384 2752. 3434.
3522(51) 0.000384 2751. 3423.
3393(50) 0.000400 2751. 3363.
3230(49) 0.000416 2750. 3270.
3169(49) 0.000416 2749. 3166.
3071(48) 0.000434 2748. 3069.
2977(47) 0.000453 2747. 2995.
2920(47) 0.000453 2746. 2943.
2844(46) 0.000473 2746. 2915.
2893(47) 0.000453 2745. 2909.
2832(46) 0.000473 2744. 2920.
2910(47) 0.000453 2743. 2942.
2956(47) 0.000453 2742. 2972.
3012(47) 0.000453 2741. 3005.
2964(47) 0.000453 2740. 3037.
3054(48) 0.000434 2739. 3059.
3070(48) 0.000434 2738. 3067.
3132(48) 0.000434 2737. 3060.
3021(48) 0.000434 2737. 3040.
2943(47) 0.000453 2736. 3010.
2989(47) 0.000453 2735. 2974.
2939(51) 0.000384 2734. 2937.
2872(51) 0.000384 2733. 2901.
2909(51) 0.000384 2732. 2871.
2896(51) 0.000384 2731. 2846.
2835(50) 0.000400 2730. 2827.
2779(50) 0.000400 2729. 2814.
2786(50) 0.000400 2728. 2806.
2790(50) 0.000400 2727. 2805.
2808(50) 0.000400 2726. 2809.
2780(50) 0.000400 2725. 2821.
2903(51) 0.000384 2724. 2841.
2835(50) 0.000400 2723. 2872.
2896(51) 0.000384 2722. 2916.
2994(52) 0.000370 2721. 2973.
3045(52) 0.000370 2720. 3050.
3050(52) 0.000370 2719. 3142.
3187(53) 0.000356 2718. 3241.
3356(55) 0.0003306 2717. 3334.
3369(55) 0.0003306 2716. 3401.
3480(56) 0.0003189 2715. 3426.
3457(55) 0.0003306 2714. 3404.
3309(54) 0.0003429 2713. 3351.
3271(54) 0.0003429 2712. 3283.
3207(53) 0.000356 2711. 3216.
3128(53) 0.000356 2710. 3157.
3074(52) 0.000370 2709. 3108.
3030(52) 0.000370 2708. 3067.
3034(52) 0.000370 2707. 3031.
3028(52) 0.000370 2706. 2993.
2921(51) 0.000384 2705. 2958.
2866(50) 0.000400 2704. 2931.
2767(50) 0.000400 2703. 2916.
2942(51) 0.000384 2702. 2919.
2972(51) 0.000384 2701. 2938.
2966(51) 0.000384 2700. 2970.
2918(51) 0.000384 2698. 3010.
3053(52) 0.000370 2697. 3047.
3109(53) 0.000356 2696. 3073.
3063(52) 0.000370 2695. 3079.
3114(53) 0.000356 2694. 3064.
3046(52) 0.000370 2693. 3032.
3023(52) 0.000370 2692. 2994.
2945(51) 0.000384 2691. 2959.
2875(51) 0.000384 2690. 2933.
2918(51) 0.000384 2689. 2919.
2863(50) 0.000400 2688. 2912.
2911(51) 0.000384 2686. 2908.
2888(51) 0.000384 2685. 2900.
2896(51) 0.000384 2684. 2883.
2901(64) 0.0002441 2683. 2860.
2827(45) 0.000494 2682. 2834.
2862(45) 0.000494 2681. 2809.
2810(45) 0.000494 2680. 2785.
2755(44) 0.000517 2679. 2772.
2719(44) 0.000517 2678. 2767.
2767(44) 0.000517 2676. 2773.
2776(44) 0.000517 2675. 2790.
2801(44) 0.000517 2674. 2819.
2787(44) 0.000517 2673. 2862.
2904(45) 0.000494 2672. 2918.
2894(45) 0.000494 2671. 2985.
3116(47) 0.000453 2670. 3063.
3210(48) 0.000434 2669. 3144.
3295(48) 0.000434 2667. 3223.
3400(49) 0.000416 2666. 3296.
3507(50) 0.000400 2665. 3359.
3550(50) 0.000400 2664. 3404.
3539(50) 0.000400 2663. 3422.
3477(50) 0.000400 2662. 3406.
3351(49) 0.000416 2661. 3365.
3215(48) 0.000434 2659. 3305.
3147(47) 0.000453 2658. 3238.
3164(47) 0.000453 2657. 3170.
3086(47) 0.000453 2656. 3105.
3058(46) 0.000473 2655. 3049.
3014(46) 0.000473 2654. 3002.
3015(46) 0.000473 2653. 2960.
2973(46) 0.000473 2651. 2919.
2882(45) 0.000494 2650. 2878.
2879(45) 0.000494 2649. 2837.
2707(44) 0.000517 2648. 2798.
2771(44) 0.000517 2647. 2764.
2706(44) 0.000517 2646. 2736.
2719(44) 0.000517 2644. 2714.
2650(43) 0.000541 2643. 2697.
2687(44) 0.000517 2642. 2686.
2664(43) 0.000541 2641. 2678.
2692(44) 0.000517 2640. 2672.
2620(43) 0.000541 2639. 2668.
2692(44) 0.000517 2637. 2666.
2673(43) 0.000541 2636. 2664.
2622(43) 0.000541 2635. 2663.
2709(44) 0.000517 2634. 2662.
2659(43) 0.000541 2633. 2662.
2648(43) 0.000541 2632. 2663.
2636(43) 0.000541 2630. 2668.
2645(43) 0.000541 2629. 2675.
2693(44) 0.000517 2628. 2678.
2724(44) 0.000517 2627. 2683.
2674(43) 0.000541 2626. 2688.
2616(47) 0.000453 2625. 2695.
2666(47) 0.000453 2623. 2707.
2701(48) 0.000434 2622. 2724.
2680(48) 0.000434 2621. 2752.
2801(49) 0.000416 2620. 2792.
2895(49) 0.000416 2619. 2847.
2950(50) 0.000400 2618. 2916.
2908(50) 0.000400 2616. 2994.
3070(51) 0.000384 2615. 3080.
3309(53) 0.000356 2614. 3161.
3273(53) 0.000356 2613. 3226.
3305(53) 0.000356 2612. 3265.
3246(52) 0.000370 2611. 3275.
3385(53) 0.000356 2609. 3264.
3228(52) 0.000370 2608. 3245.
3261(52) 0.000370 2607. 3230.
3294(53) 0.000356 2606. 3224.
3292(53) 0.000356 2605. 3225.
3235(52) 0.000370 2604. 3224.
3253(52) 0.000370 2602. 3209.
3274(53) 0.000356 2601. 3176.
3247(52) 0.000370 2600. 3127.
3224(52) 0.000370 2599. 3071.
3058(51) 0.000384 2598. 3019.
2989(50) 0.000400 2596. 2982.
2957(50) 0.000400 2595. 2966.
2950(50) 0.000400 2594. 2986.
3048(51) 0.000384 2593. 3052.
3215(52) 0.000370 2592. 3175.
3351(53) 0.000356 2591. 3358.
3505(54) 0.0003429 2589. 3600.
3844(57) 0.0003078 2588. 3889.
4198(60) 0.0002778 2587. 4197.
4380(61) 0.0002687 2586. 4480.
4590(62) 0.0002601 2585. 4683.
4716(63) 0.0002520 2583. 4753.
4655(63) 0.0002520 2582. 4669.
4400(61) 0.0002687 2581. 4454.
4197(60) 0.0002778 2580. 4162.
3844(57) 0.0003078 2579. 3847.
3649(56) 0.0003189 2578. 3550.
3451(54) 0.0003429 2576. 3297.
3164(52) 0.000370 2575. 3099.
3036(51) 0.000384 2574. 2954.
2934(50) 0.000400 2573. 2856.
2876(49) 0.000416 2572. 2794.
2733(48) 0.000434 2570. 2756.
2745(48) 0.000434 2569. 2733.
2674(47) 0.000453 2568. 2720.
2704(44) 0.000517 2567. 2715.
2655(43) 0.000541 2566. 2715.
2616(43) 0.000541 2565. 2721.
2633(43) 0.000541 2563. 2735.
2733(44) 0.000517 2562. 2757.
2777(44) 0.000517 2561. 2784.
2789(45) 0.000494 2560. 2817.
2760(44) 0.000517 2559. 2853.
2837(45) 0.000494 2557. 2889.
2913(46) 0.000473 2556. 2924.
2898(45) 0.000494 2555. 2962.
2914(46) 0.000473 2554. 3003.
2985(46) 0.000473 2553. 3043.
3111(47) 0.000453 2551. 3076.
3024(46) 0.000473 2550. 3093.
3096(47) 0.000453 2549. 3088.
3027(46) 0.000473 2548. 3061.
3047(47) 0.000453 2547. 3017.
2970(46) 0.000473 2545. 2960.
2864(45) 0.000494 2544. 2897.
2744(44) 0.000517 2543. 2832.
2776(44) 0.000517 2542. 2771.
2645(43) 0.000541 2541. 2718.
2661(44) 0.000517 2539. 2675.
2629(43) 0.000541 2538. 2641.
2675(44) 0.000517 2537. 2613.
2558(43) 0.000541 2536. 2590.
2567(43) 0.000541 2535. 2579.
2559(43) 0.000541 2533. 2571.
2542(43) 0.000541 2532. 2566.
2488(42) 0.000567 2531. 2563.
2587(43) 0.000541 2530. 2561.
2552(43) 0.000541 2529. 2563.
2631(43) 0.000541 2527. 2564.
2620(43) 0.000541 2526. 2567.
2603(43) 0.000541 2525. 2571.
2650(43) 0.000541 2524. 2577.
2758(44) 0.000517 2523. 2587.
2711(44) 0.000517 2521. 2601.
2632(43) 0.000541 2520. 2620.
2741(44) 0.000517 2519. 2644.
2713(44) 0.000517 2518. 2674.
2703(44) 0.000517 2516. 2708.
2848(45) 0.000494 2515. 2742.
2841(45) 0.000494 2514. 2774.
2841(45) 0.000494 2513. 2797.
2849(45) 0.000494 2512. 2806.
2704(44) 0.000517 2510. 2797.
2819(45) 0.000494 2509. 2774.
2757(44) 0.000517 2508. 2741.
2692(44) 0.000517 2507. 2704.
2736(44) 0.000517 2505. 2669.
2630(48) 0.000434 2504. 2637.
2558(47) 0.000453 2503. 2610.
2623(47) 0.000453 2502. 2590.
2555(47) 0.000453 2500. 2578.
2603(47) 0.000453 2499. 2573.
2622(47) 0.000453 2498. 2575.
2685(48) 0.000434 2497. 2585.
2631(48) 0.000434 2495. 2602.
2578(47) 0.000453 2494. 2630.
2657(48) 0.000434 2493. 2666.
2645(48) 0.000434 2492. 2710.
2701(48) 0.000434 2490. 2762.
2746(49) 0.000416 2489. 2819.
2867(50) 0.000400 2488. 2877.
2957(50) 0.000400 2487. 2931.
2919(50) 0.000400 2485. 2977.
2993(51) 0.000384 2484. 3016.
3023(51) 0.000384 2483. 3044.
3084(51) 0.000384 2482. 3059.
3026(51) 0.000384 2480. 3056.
3018(51) 0.000384 2479. 3031.
2979(51) 0.000384 2478. 2985.
2927(50) 0.000400 2477. 2924.
2944(50) 0.000400 2475. 2859.
2800(49) 0.000416 2474. 2797.
2691(48) 0.000434 2473. 2742.
2720(48) 0.000434 2472. 2696.
2630(48) 0.000434 2470. 2660.
2677(48) 0.000434 2469. 2632.
2595(47) 0.000453 2468. 2612.
2689(48) 0.000434 2467. 2598.
2608(47) 0.000453 2465. 2592.
2603(47) 0.000453 2464. 2592.
2605(47) 0.000453 2463. 2598.
2548(47) 0.000453 2461. 2609.
2618(47) 0.000453 2460. 2625.
2666(48) 0.000434 2459. 2642.
2674(48) 0.000434 2458. 2656.
2654(48) 0.000434 2456. 2664.
2717(48) 0.000434 2455. 2664.
2609(47) 0.000453 2454. 2657.
2589(47) 0.000453 2452. 2643.
2658(48) 0.000434 2451. 2627.
2719(48) 0.000434 2450. 2611.
2634(48) 0.000434 2449. 2599.
2628(47) 0.000453 2447. 2593.
2639(48) 0.000434 2446. 2596.
2547(47) 0.000453 2445. 2608.
2569(47) 0.000453 2443. 2631.
2713(46) 0.000473 2442. 2662.
2663(45) 0.000494 2441. 2697.
2715(46) 0.000473 2440. 2734.
2713(46) 0.000473 2438. 2766.
2842(47) 0.000453 2437. 2787.
2842(47) 0.000453 2436. 2792.
2789(46) 0.000473 2434. 2785.
2740(46) 0.000473 2433. 2766.
2791(46) 0.000473 2432. 2744.
2732(46) 0.000473 2431. 2721.
2639(45) 0.000494 2429. 2698.
2652(45) 0.000494 2428. 2681.
2628(45) 0.000494 2427. 2662.
2502(44) 0.000517 2425. 2640.
2604(45) 0.000494 2424. 2616.
2579(44) 0.000517 2423. 2590.
2478(44) 0.000517 2422. 2563.
2471(43) 0.000541 2420. 2538.
2472(43) 0.000541 2419. 2517.
2482(44) 0.000517 2418. 2500.
2429(43) 0.000541 2416. 2488.
2434(43) 0.000541 2415. 2482.
2438(43) 0.000541 2414. 2480.
2460(43) 0.000541 2413. 2483.
2490(44) 0.000517 2411. 2490.
2560(44) 0.000517 2410. 2500.
2510(44) 0.000517 2409. 2512.
2653(45) 0.000494 2408. 2524.
2600(45) 0.000494 2406. 2534.
2546(44) 0.000517 2405. 2542.
2506(44) 0.000517 2404. 2548.
2652(45) 0.000494 2402. 2556.
2600(45) 0.000494 2401. 2561.
2608(45) 0.000494 2400. 2566.
2560(44) 0.000517 2399. 2573.
2551(44) 0.000517 2397. 2579.
2549(44) 0.000517 2396. 2585.
2577(44) 0.000517 2395. 2587.
2560(44) 0.000517 2394. 2587.
2568(44) 0.000517 2392. 2585.
2573(44) 0.000517 2391. 2581.
2591(44) 0.000517 2390. 2575.
2594(45) 0.000494 2389. 2569.
2536(44) 0.000517 2387. 2561.
2512(44) 0.000517 2386. 2553.
2499(44) 0.000517 2385. 2546.
2501(44) 0.000517 2384. 2543.
2551(44) 0.000517 2382. 2545.
2521(44) 0.000517 2381. 2553.
2539(44) 0.000517 2380. 2570.
2543(49) 0.000416 2379. 2594.
2552(49) 0.000416 2377. 2624.
2682(50) 0.000400 2376. 2661.
2595(49) 0.000416 2375. 2702.
2738(50) 0.000400 2374. 2744.
2752(50) 0.000400 2373. 2781.
2796(51) 0.000384 2371. 2807.
2818(51) 0.000384 2370. 2816.
2777(51) 0.000384 2369. 2805.
2817(51) 0.000384 2368. 2774.
2705(50) 0.000400 2367. 2731.
2639(49) 0.000416 2365. 2683.
2571(49) 0.000416 2364. 2635.
2602(49) 0.000416 2363. 2592.
2530(48) 0.000434 2362. 2558.
2515(48) 0.000434 2361. 2534.
2549(49) 0.000416 2359. 2524.
2400(47) 0.000453 2358. 2528.
2499(48) 0.000434 2357. 2547.
2597(49) 0.000416 2356. 2584.
2607(49) 0.000416 2355. 2637.
2633(49) 0.000416 2354. 2706.
2677(50) 0.000400 2352. 2787.
2895(52) 0.000370 2351. 2876.
3022(53) 0.000356 2350. 2962.
3012(53) 0.000356 2349. 3035.
3094(54) 0.0003429 2348. 3083.
3147(54) 0.0003429 2347. 3094.
3174(54) 0.0003429 2346. 3065.
3079(53) 0.000356 2345. 3003.
3070(53) 0.000356 2343. 2920.
2808(51) 0.000384 2342. 2828.
2791(51) 0.000384 2341. 2736.
2548(49) 0.000416 2340. 2653.
2687(50) 0.000400 2339. 2585.
2626(49) 0.000416 2338. 2529.
2431(47) 0.000453 2337. 2487.
2412(47) 0.000453 2336. 2457.
2521(48) 0.000434 2335. 2435.
2429(47) 0.000453 2334. 2419.
2427(47) 0.000453 2333. 2407.
2452(48) 0.000434 2332. 2398.
2351(47) 0.000453 2331. 2390.
2447(48) 0.000434 2330. 2383.
2416(47) 0.000453 2329. 2377.
2324(46) 0.000473 2328. 2372.
2351(47) 0.000453 2327. 2368.
2418(47) 0.000453 2326. 2365.
2346(47) 0.000453 2325. 2364.
2311(42) 0.000567 2324. 2364.
2339(43) 0.000541 2323. 2367.
2352(43) 0.000541 2322. 2371.
2303(42) 0.000567 2321. 2378.
2483(44) 0.000517 2320. 2385.
2445(44) 0.000517 2319. 2396.
2417(43) 0.000541 2318. 2408.
2454(44) 0.000517 2317. 2421.
2559(45) 0.000494 2316. 2432.
2412(43) 0.000541 2315. 2441.
2481(44) 0.000517 2314. 2445.
2435(44) 0.000517 2313. 2444.
2515(44) 0.000517 2312. 2437.
2444(44) 0.000517 2311. 2427.
2406(43) 0.000541 2310. 2415.
2448(44) 0.000517 2310. 2402.
2415(43) 0.000541 2309. 2391.
2443(44) 0.000517 2308. 2382.
2437(44) 0.000517 2307. 2378.
2380(43) 0.000541 2306. 2378.
2376(43) 0.000541 2305. 2385.
2429(43) 0.000541 2304. 2399.
2492(44) 0.000517 2304. 2421.
2461(44) 0.000517 2303. 2452.
2517(44) 0.000517 2302. 2490.
2532(44) 0.000517 2301. 2540.
2594(45) 0.000494 2300. 2599.
2582(45) 0.000494 2300. 2662.
2630(45) 0.000494 2299. 2726.
2720(46) 0.000473 2298. 2784.
2839(47) 0.000453 2297. 2829.
2784(47) 0.000453 2297. 2853.
2872(47) 0.000453 2296. 2855.
2896(47) 0.000453 2295. 2836.
2818(47) 0.000453 2294. 2798.
2760(46) 0.000473 2294. 2749.
2724(46) 0.000473 2293. 2690.
2682(46) 0.000473 2292. 2630.
2618(45) 0.000494 2291. 2571.
2516(44) 0.000517 2291. 2519.
2463(44) 0.000517 2290. 2475.
2452(44) 0.000517 2289. 2439.
2512(44) 0.000517 2289. 2412.
2453(44) 0.000517 2288. 2392.
2486(44) 0.000517 2287. 2379.
2338(43) 0.000541 2287. 2370.
2362(43) 0.000541 2286. 2365.
2341(43) 0.000541 2286. 2363.
2322(43) 0.000541 2285. 2362.
2359(43) 0.000541 2284. 2362.
2348(43) 0.000541 2284. 2362.
2331(43) 0.000541 2283. 2362.
2370(47) 0.000453 2283. 2364.
2373(47) 0.000453 2282. 2366.
2373(47) 0.000453 2281. 2368.
2335(47) 0.000453 2281. 2373.
2368(47) 0.000453 2280. 2377.
2384(47) 0.000453 2280. 2382.
2432(48) 0.000434 2279. 2387.
2387(47) 0.000453 2279. 2393.
2310(46) 0.000473 2278. 2399.
2361(47) 0.000453 2278. 2404.
2365(47) 0.000453 2277. 2410.
2417(47) 0.000453 2277. 2416.
2340(47) 0.000453 2276. 2422.
2480(48) 0.000434 2276. 2428.
2466(48) 0.000434 2275. 2436.
2488(48) 0.000434 2275. 2447.
2516(48) 0.000434 2274. 2461.
2506(48) 0.000434 2274. 2481.
2541(49) 0.000416 2273. 2505.
2583(49) 0.000416 2273. 2535.
2650(50) 0.000400 2272. 2567.
2648(50) 0.000400 2272. 2600.
2607(49) 0.000416 2272. 2631.
2666(50) 0.000400 2271. 2658.
2712(50) 0.000400 2271. 2678.
2666(50) 0.000400 2270. 2690.
2695(50) 0.000400 2270. 2699.
2705(50) 0.000400 2270. 2704.
2683(50) 0.000400 2269. 2703.
2716(50) 0.000400 2269. 2699.
2682(50) 0.000400 2268. 2691.
2675(50) 0.000400 2268. 2678.
2698(50) 0.000400 2268. 2664.
2628(49) 0.000416 2267. 2649.
2624(49) 0.000416 2267. 2632.
2682(50) 0.000400 2267. 2614.
2495(48) 0.000434 2266. 2593.
2559(49) 0.000416 2266. 2568.
2583(49) 0.000416 2266. 2540.
2508(48) 0.000434 2265. 2509.
2514(48) 0.000434 2265. 2479.
2508(48) 0.000434 2265. 2450.
2561(49) 0.000416 2264. 2425.
2511(48) 0.000434 2264. 2404.
2363(47) 0.000453 2264. 2387.
2417(47) 0.000453 2264. 2376.
2337(47) 0.000453 2263. 2370.
2349(47) 0.000453 2263. 2369.
2381(47) 0.000453 2263. 2374.
2334(41) 0.000595 2262. 2383.
2400(42) 0.000567 2262. 2396.
2438(42) 0.000567 2262. 2411.
2461(42) 0.000567 2262. 2429.
2446(42) 0.000567 2261. 2445.
2400(42) 0.000567 2261. 2457.
2431(42) 0.000567 2261. 2465.
2485(42) 0.000567 2261. 2466.
2406(42) 0.000567 2261. 2460.
2455(42) 0.000567 2260. 2448.
2415(42) 0.000567 2260. 2431.
2428(42) 0.000567 2260. 2412.
2435(42) 0.000567 2260. 2394.
2344(41) 0.000595 2259. 2377.
2312(41) 0.000595 2259. 2362.
2354(41) 0.000595 2259. 2351.
2334(41) 0.000595 2259. 2344.
2352(41) 0.000595 2259. 2340.
2310(41) 0.000595 2258. 2339.
2349(41) 0.000595 2258. 2342.
2359(41) 0.000595 2258. 2345.
2299(41) 0.000595 2258. 2350.
2359(41) 0.000595 2258. 2356.
2366(41) 0.000595 2257. 2362.
2366(41) 0.000595 2257. 2367.
2375(41) 0.000595 2257. 2372.
2393(42) 0.000567 2257. 2378.
2342(41) 0.000595 2257. 2386.
2459(42) 0.000567 2257. 2396.
2340(41) 0.000595 2256. 2411.
2325(41) 0.000595 2256. 2429.
2407(42) 0.000567 2256. 2450.
2426(42) 0.000567 2256. 2473.
2435(42) 0.000567 2256. 2496.
2480(42) 0.000567 2256. 2516.
2554(43) 0.000541 2255. 2531.
2554(43) 0.000541 2255. 2537.
2500(42) 0.000567 2255. 2535.
2495(42) 0.000567 2255. 2525.
2534(43) 0.000541 2255. 2509.
2457(42) 0.000567 2255. 2489.
2474(42) 0.000567 2254. 2472.
2402(42) 0.000567 2254. 2458.
2479(42) 0.000567 2254. 2451.
2484(42) 0.000567 2254. 2451.
2484(42) 0.000567 2254. 2461.
2468(42) 0.000567 2254. 2479.
2434(42) 0.000567 2253. 2506.
2481(42) 0.000567 2253. 2540.
2572(43) 0.000541 2253. 2580.
2574(47) 0.000453 2253. 2623.
2584(47) 0.000453 2253. 2666.
2612(47) 0.000453 2253. 2705.
2669(48) 0.000434 2252. 2736.
2773(49) 0.000416 2252. 2757.
2716(48) 0.000434 2252. 2765.
2721(48) 0.000434 2252. 2762.
2627(47) 0.000453 2252. 2746.
2673(48) 0.000434 2252. 2720.
2650(48) 0.000434 2251. 2686.
2614(47) 0.000453 2251. 2646.
2556(47) 0.000453 2251. 2603.
2559(47) 0.000453 2251. 2560.
2464(46) 0.000473 2251. 2517.
2422(46) 0.000473 2250. 2476.
2439(46) 0.000473 2250. 2440.
2364(45) 0.000494 2250. 2408.
2364(45) 0.000494 2250. 2381.
2280(44) 0.000517 2250. 2360.
2370(45) 0.000494 2249. 2343.
2408(45) 0.000494 2249. 2334.
2354(45) 0.000494 2249. 2327.
2363(45) 0.000494 2249. 2323.
2287(44) 0.000517 2249. 2323.
2332(45) 0.000494 2248. 2325.
2298(44) 0.000517 2248. 2331.
2402(45) 0.000494 2248. 2340.
2375(45) 0.000494 2248. 2351.
2299(44) 0.000517 2247. 2365.
2343(45) 0.000494 2247. 2382.
2428(46) 0.000473 2247. 2400.
2487(46) 0.000473 2247. 2419.
2531(47) 0.000453 2246. 2439.
2441(46) 0.000473 2246. 2458.
2549(47) 0.000453 2246. 2474.
2603(47) 0.000453 2246. 2487.
2546(47) 0.000453 2245. 2494.
2617(47) 0.000453 2245. 2494.
2554(47) 0.000453 2245. 2488.
2576(47) 0.000453 2245. 2475.
2518(46) 0.000473 2244. 2460.
2496(46) 0.000473 2244. 2442.
2423(46) 0.000473 2244. 2425.
2451(46) 0.000473 2243. 2410.
2370(45) 0.000494 2243. 2396.
2311(45) 0.000494 2243. 2387.
2378(45) 0.000494 2243. 2381.
2352(45) 0.000494 2242. 2378.
2315(45) 0.000494 2242. 2379.
2368(57) 0.0003078 2242. 2383.
2379(41) 0.000595 2241. 2390.
2419(42) 0.000567 2241. 2399.
2443(42) 0.000567 2241. 2411.
2442(42) 0.000567 2240. 2423.
2446(42) 0.000567 2240. 2436.
2497(42) 0.000567 2240. 2446.
2504(42) 0.000567 2239. 2455.
2523(42) 0.000567 2239. 2461.
2524(42) 0.000567 2239. 2464.
2457(42) 0.000567 2238. 2464.
2425(42) 0.000567 2238. 2466.
2429(42) 0.000567 2237. 2470.
2443(42) 0.000567 2237. 2479.
2449(42) 0.000567 2237. 2495.
2496(42) 0.000567 2236. 2519.
2519(42) 0.000567 2236. 2553.
2515(42) 0.000567 2235. 2596.
2585(43) 0.000541 2235. 2649.
2669(44) 0.000517 2235. 2707.
2698(44) 0.000517 2234. 2769.
2861(45) 0.000494 2234. 2830.
2944(46) 0.000473 2233. 2884.
2896(46) 0.000473 2233. 2924.
2969(46) 0.000473 2232. 2947.
2982(46) 0.000473 2232. 2949.
2961(46) 0.000473 2232. 2932.
2899(46) 0.000473 2231. 2899.
2897(46) 0.000473 2231. 2856.
2936(46) 0.000473 2230. 2809.
2829(45) 0.000494 2230. 2762.
2764(44) 0.000517 2229. 2719.
2662(44) 0.000517 2229. 2681.
2647(44) 0.000517 2228. 2648.
2613(43) 0.000541 2228. 2622.
2562(43) 0.000541 2227. 2600.
2599(43) 0.000541 2227. 2582.
2608(43) 0.000541 2226. 2566.
2619(43) 0.000541 2226. 2552.
2535(43) 0.000541 2225. 2537.
2540(43) 0.000541 2225. 2524.
2511(42) 0.000567 2224. 2513.
2479(42) 0.000567 2224. 2505.
2461(42) 0.000567 2223. 2503.
2501(42) 0.000567 2223. 2508.
2556(43) 0.000541 2222. 2522.
2582(43) 0.000541 2222. 2545.
2575(43) 0.000541 2221. 2577.
2673(44) 0.000517 2221. 2618.
2705(44) 0.000517 2220. 2668.
2675(44) 0.000517 2220. 2722.
2676(44) 0.000517 2219. 2780.
2810(49) 0.000416 2218. 2836.
2876(50) 0.000400 2218. 2885.
2955(51) 0.000384 2217. 2923.
2962(51) 0.000384 2217. 2944.
2920(50) 0.000400 2216. 2946.
2948(50) 0.000400 2216. 2928.
2931(50) 0.000400 2215. 2891.
2956(51) 0.000384 2215. 2840.
2839(50) 0.000400 2214. 2779.
2719(48) 0.000434 2213. 2712.
2660(48) 0.000434 2213. 2645.
2538(47) 0.000453 2212. 2582.
2573(47) 0.000453 2212. 2524.
2553(47) 0.000453 2211. 2474.
2418(46) 0.000473 2210. 2432.
2403(46) 0.000473 2210. 2398.
2442(46) 0.000473 2209. 2371.
2436(46) 0.000473 2209. 2352.
2419(46) 0.000473 2208. 2337.
2399(46) 0.000473 2207. 2327.
2408(46) 0.000473 2207. 2319.
2371(45) 0.000494 2206. 2313.
2410(46) 0.000473 2206. 2307.
2366(45) 0.000494 2205. 2302.
2369(45) 0.000494 2204. 2296.
2339(45) 0.000494 2204. 2289.
2303(45) 0.000494 2203. 2284.
2265(44) 0.000517 2203. 2280.
2257(44) 0.000517 2202. 2277.
2280(44) 0.000517 2201. 2275.
2337(45) 0.000494 2201. 2273.
2269(44) 0.000517 2200. 2271.
2224(44) 0.000517 2199. 2269.
2275(44) 0.000517 2199. 2268.
2233(44) 0.000517 2198. 2267.
2257(44) 0.000517 2198. 2266.
2342(45) 0.000494 2197. 2266.
2262(44) 0.000517 2196. 2267.
2246(44) 0.000517 2196. 2268.
2274(44) 0.000517 2195. 2272.
2278(44) 0.000517 2194. 2277.
2204(44) 0.000517 2194. 2285.
2230(44) 0.000517 2193. 2295.
2245(44) 0.000517 2193. 2306.
2268(44) 0.000517 2192. 2319.
2325(45) 0.000494 2191. 2333.
2291(44) 0.000517 2191. 2348.
2292(45) 0.000494 2190. 2362.
2321(45) 0.000494 2189. 2375.
2372(41) 0.000595 2189. 2386.
2416(41) 0.000595 2188. 2395.
2339(41) 0.000595 2188. 2402.
2386(41) 0.000595 2187. 2406.
2421(41) 0.000595 2186. 2408.
2359(41) 0.000595 2186. 2409.
2412(41) 0.000595 2185. 2408.
2404(41) 0.000595 2185. 2406.
2375(41) 0.000595 2184. 2401.
2388(41) 0.000595 2183. 2395.
2378(41) 0.000595 2183. 2386.
2326(40) 0.000625 2182. 2376.
2338(41) 0.000595 2182. 2365.
2404(41) 0.000595 2181. 2354.
2339(41) 0.000595 2180. 2340.
2325(40) 0.000625 2180. 2328.
2296(40) 0.000625 2179. 2314.
2278(40) 0.000625 2179. 2301.
2255(40) 0.000625 2178. 2289.
2258(40) 0.000625 2178. 2279.
2264(40) 0.000625 2177. 2270.
2230(40) 0.000625 2176. 2263.
2232(40) 0.000625 2176. 2257.
2252(40) 0.000625 2175. 2253.
2272(40) 0.000625 2175. 2252.
2286(40) 0.000625 2174. 2252.
2237(40) 0.000625 2174. 2254.
2222(39) 0.000657 2173. 2258.
2264(40) 0.000625 2173. 2263.
2252(40) 0.000625 2172. 2268.
2236(40) 0.000625 2171. 2273.
2240(40) 0.000625 2171. 2279.
2223(39) 0.000657 2170. 2283.
2303(40) 0.000625 2170. 2287.
2351(41) 0.000595 2169. 2291.
2300(40) 0.000625 2169. 2294.
2308(40) 0.000625 2168. 2297.
2295(40) 0.000625 2168. 2299.
2299(40) 0.000625 2167. 2301.
2317(40) 0.000625 2167. 2302.
2300(40) 0.000625 2166. 2301.
2302(40) 0.000625 2166. 2299.
2322(40) 0.000625 2165. 2296.
2343(41) 0.000595 2165. 2293.
2286(40) 0.000625 2164. 2288.
2320(40) 0.000625 2164. 2285.
2259(40) 0.000625 2164. 2282.
2265(40) 0.000625 2163. 2279.
2254(40) 0.000625 2163. 2278.
2253(40) 0.000625 2162. 2278.
2308(40) 0.000625 2162. 2278.
2253(43) 0.000541 2161. 2279.
2220(43) 0.000541 2161. 2281.
2248(43) 0.000541 2160. 2282.
2264(43) 0.000541 2160. 2283.
2326(44) 0.000517 2160. 2284.
2302(44) 0.000517 2159. 2285.
2257(43) 0.000541 2159. 2286.
2264(43) 0.000541 2158. 2287.
2237(43) 0.000541 2158. 2289.
2273(44) 0.000517 2158. 2291.
2258(43) 0.000541 2157. 2294.
2253(43) 0.000541 2157. 2297.
2292(44) 0.000517 2157. 2301.
2294(44) 0.000517 2156. 2304.
2263(43) 0.000541 2156. 2308.
2288(44) 0.000517 2155. 2313.
2263(43) 0.000541 2155. 2317.
2257(43) 0.000541 2155. 2322.
2289(44) 0.000517 2154. 2328.
2352(44) 0.000517 2154. 2335.
2382(45) 0.000494 2154. 2345.
2374(44) 0.000517 2153. 2358.
2369(44) 0.000517 2153. 2373.
2381(45) 0.000494 2153. 2390.
2377(45) 0.000494 2153. 2408.
2441(45) 0.000494 2152. 2427.
2489(46) 0.000473 2152. 2445.
2468(45) 0.000494 2152. 2461.
2484(46) 0.000473 2151. 2473.
2517(46) 0.000473 2151. 2480.
2501(46) 0.000473 2151. 2481.
2444(45) 0.000494 2151. 2477.
2544(46) 0.000473 2150. 2469.
2493(46) 0.000473 2150. 2456.
2455(45) 0.000494 2150. 2441.
2463(45) 0.000494 2150. 2424.
2435(45) 0.000494 2149. 2407.
2380(45) 0.000494 2149. 2388.
2379(45) 0.000494 2149. 2370.
2413(45) 0.000494 2149. 2352.
2327(44) 0.000517 2149. 2334.
2254(43) 0.000541 2148. 2317.
2319(44) 0.000517 2148. 2302.
2311(44) 0.000517 2148. 2288.
2239(43) 0.000541 2148. 2276.
2270(43) 0.000541 2148. 2267.
2291(44) 0.000517 2147. 2261.
2285(44) 0.000517 2147. 2257.
2276(44) 0.000517 2147. 2256.
2233(41) 0.000595 2147. 2259.
2270(41) 0.000595 2147. 2265.
2299(41) 0.000595 2147. 2275.
2300(41) 0.000595 2146. 2289.
2279(41) 0.000595 2146. 2306.
2297(41) 0.000595 2146. 2326.
2344(42) 0.000567 2146. 2348.
2306(41) 0.000595 2146. 2372.
2332(42) 0.000567 2146. 2397.
2399(42) 0.000567 2146. 2421.
2500(43) 0.000541 2145. 2442.
2468(43) 0.000541 2145. 2459.
2439(43) 0.000541 2145. 2471.
2487(43) 0.000541 2145. 2476.
2509(43) 0.000541 2145. 2474.
2461(43) 0.000541 2145. 2466.
2486(43) 0.000541 2145. 2452.
2548(44) 0.000517 2145. 2434.
2450(43) 0.000541 2145. 2413.
2429(42) 0.000567 2144. 2392.
2454(43) 0.000541 2144. 2373.
2389(42) 0.000567 2144. 2355.
2405(42) 0.000567 2144. 2341.
2370(42) 0.000567 2144. 2331.
2353(42) 0.000567 2144. 2326.
2339(42) 0.000567 2144. 2325.
2346(42) 0.000567 2144. 2329.
2288(41) 0.000595 2144. 2336.
2356(42) 0.000567 2144. 2346.
2352(42) 0.000567 2144. 2359.
2368(42) 0.000567 2144. 2373.
2438(43) 0.000541 2144. 2386.
2397(42) 0.000567 2143. 2397.
2355(42) 0.000567 2143. 2405.
2425(42) 0.000567 2143. 2408.
2423(42) 0.000567 2143. 2406.
2406(42) 0.000567 2143. 2400.
2380(42) 0.000567 2143. 2389.
2404(42) 0.000567 2143. 2375.
2376(42) 0.000567 2143. 2358.
2384(42) 0.000567 2143. 2341.
2334(42) 0.000567 2143. 2324.
2295(41) 0.000595 2143. 2307.
2336(42) 0.000567 2143. 2292.
2273(41) 0.000595 2143. 2279.
2233(41) 0.000595 2143. 2268.
2271(41) 0.000595 2143. 2259.
2279(41) 0.000595 2143. 2251.
2291(41) 0.000595 2143. 2246.
2239(41) 0.000595 2143. 2241.
2282(41) 0.000595 2143. 2238.
2279(46) 0.000473 2143. 2235.
2264(45) 0.000494 2143. 2233.
2188(45) 0.000494 2142. 2231.
2263(45) 0.000494 2142. 2229.
2249(45) 0.000494 2142. 2227.
2213(45) 0.000494 2142. 2225.
2216(45) 0.000494 2142. 2224.
2197(45) 0.000494 2142. 2223.
2284(46) 0.000473 2142. 2222.
2206(45) 0.000494 2142. 2221.
2256(45) 0.000494 2142. 2220.
2207(45) 0.000494 2142. 2219.
2146(44) 0.000517 2142. 2219.
2167(44) 0.000517 2142. 2219.
2201(45) 0.000494 2142. 2220.
2177(45) 0.000494 2142. 2222.
2133(44) 0.000517 2142. 2225.
2162(44) 0.000517 2142. 2228.
2219(45) 0.000494 2142. 2232.
2188(45) 0.000494 2141. 2236.
2167(44) 0.000517 2141. 2240.
2230(45) 0.000494 2141. 2244.
2177(45) 0.000494 2141. 2247.
2168(44) 0.000517 2141. 2249.
2222(45) 0.000494 2141. 2249.
2251(45) 0.000494 2141. 2249.
2282(46) 0.000473 2141. 2247.
2213(45) 0.000494 2141. 2243.
2259(45) 0.000494 2141. 2239.
2245(45) 0.000494 2141. 2233.
2234(45) 0.000494 2140. 2227.
2173(44) 0.000517 2140. 2221.
2148(44) 0.000517 2140. 2215.
2163(44) 0.000517 2140. 2211.
2231(45) 0.000494 2140. 2207.
2270(45) 0.000494 2140. 2205.
2152(44) 0.000517 2140. 2204.
2161(44) 0.000517 2140. 2204.
2172(44) 0.000517 2139. 2206.
2140(44) 0.000517 2139. 2208.
2227(45) 0.000494 2139. 2212.
2111(44) 0.000517 2139. 2216.
2196(45) 0.000494 2139. 2221.
2205(45) 0.000494 2139. 2226.
2253(45) 0.000494 2139. 2232.
2191(45) 0.000494 2138. 2237.
2215(45) 0.000494 2138. 2241.
2286(46) 0.000473 2138. 2244.
2303(36) 0.000772 2138. 2246.
2270(42) 0.000567 2138. 2247.
2232(42) 0.000567 2137. 2247.
2208(42) 0.000567 2137. 2246.
2239(42) 0.000567 2137. 2243.
2236(42) 0.000567 2137. 2240.
2234(42) 0.000567 2137. 2236.
2370(43) 0.000541 2136. 2231.
2249(42) 0.000567 2136. 2226.
2192(41) 0.000595 2136. 2220.
2214(42) 0.000567 2136. 2215.
2232(42) 0.000567 2135. 2209.
2207(42) 0.000567 2135. 2204.
2262(42) 0.000567 2135. 2199.
2214(42) 0.000567 2135. 2195.
2241(42) 0.000567 2134. 2191.
2166(41) 0.000595 2134. 2189.
2212(42) 0.000567 2134. 2187.
2221(42) 0.000567 2133. 2187.
2196(41) 0.000595 2133. 2188.
2262(42) 0.000567 2133. 2190.
2190(41) 0.000595 2132. 2193.
2160(41) 0.000595 2132. 2197.
2236(42) 0.000567 2132. 2203.
2201(41) 0.000595 2132. 2210.
2215(42) 0.000567 2131. 2218.
2160(41) 0.000595 2131. 2227.
2285(42) 0.000567 2130. 2236.
2222(42) 0.000567 2130. 2247.
2284(42) 0.000567 2130. 2257.
2241(42) 0.000567 2129. 2268.
2261(42) 0.000567 2129. 2279.
2300(42) 0.000567 2129. 2289.
2339(43) 0.000541 2128. 2299.
2363(43) 0.000541 2128. 2309.
2308(42) 0.000567 2127. 2317.
2376(43) 0.000541 2127. 2324.
2288(42) 0.000567 2127. 2330.
2364(43) 0.000541 2126. 2334.
2325(43) 0.000541 2126. 2338.
2274(42) 0.000567 2125. 2342.
2246(42) 0.000567 2125. 2345.
2299(42) 0.000567 2124. 2348.
2385(43) 0.000541 2124. 2351.
2360(43) 0.000541 2123. 2354.
2385(43) 0.000541 2123. 2357.
2353(43) 0.000541 2123. 2360.
2367(43) 0.000541 2122. 2362.
2310(42) 0.000567 2122. 2363.
2343(43) 0.000541 2121. 2364.
2347(43) 0.000541 2121. 2363.
2323(43) 0.000541 2120. 2361.
2343(47) 0.000453 2120. 2358.
2370(47) 0.000453 2119. 2355.
2413(47) 0.000453 2119. 2352.
2342(47) 0.000453 2118. 2350.
2330(46) 0.000473 2117. 2349.
2341(47) 0.000453 2117. 2349.
2315(46) 0.000473 2116. 2349.
2359(47) 0.000453 2116. 2351.
2374(47) 0.000453 2115. 2353.
2310(46) 0.000473 2115. 2355.
2420(47) 0.000453 2114. 2356.
2352(47) 0.000453 2114. 2357.
2353(47) 0.000453 2113. 2357.
2459(48) 0.000434 2112. 2355.
2439(48) 0.000434 2112. 2351.
2379(47) 0.000453 2111. 2345.
2311(46) 0.000473 2111. 2339.
2377(47) 0.000453 2110. 2333.
2375(47) 0.000453 2109. 2326.
2376(47) 0.000453 2109. 2321.
2391(47) 0.000453 2108. 2317.
2338(47) 0.000453 2107. 2315.
2411(47) 0.000453 2107. 2314.
2342(47) 0.000453 2106. 2316.
2398(47) 0.000453 2106. 2320.
2348(47) 0.000453 2105. 2326.
2366(47) 0.000453 2104. 2333.
2379(47) 0.000453 2104. 2343.
2367(47) 0.000453 2103. 2353.
2362(47) 0.000453 2102. 2363.
2343(47) 0.000453 2102. 2373.
2405(47) 0.000453 2101. 2381.
2477(48) 0.000434 2100. 2388.
2350(47) 0.000453 2100. 2391.
2349(47) 0.000453 2099. 2392.
2424(47) 0.000453 2098. 2388.
2427(47) 0.000453 2097. 2381.
2438(47) 0.000453 2097. 2371.
2334(46) 0.000473 2096. 2358.
2335(46) 0.000473 2095. 2344.
2325(46) 0.000473 2095. 2327.
2351(47) 0.000453 2094. 2309.
2388(47) 0.000453 2093. 2291.
2336(46) 0.000473 2093. 2273.
2230(45) 0.000494 2092. 2256.
2293(46) 0.000473 2091. 2241.
2237(45) 0.000494 2090. 2226.
2226(45) 0.000494 2090. 2213.
2274(46) 0.000473 2089. 2202.
2203(40) 0.000625 2088. 2193.
2181(40) 0.000625 2088. 2185.
2168(40) 0.000625 2087. 2179.
2189(40) 0.000625 2086. 2174.
2200(40) 0.000625 2085. 2171.
2175(40) 0.000625 2085. 2168.
2202(40) 0.000625 2084. 2167.
2097(39) 0.000657 2083. 2166.
2176(40) 0.000625 2082. 2166.
2145(40) 0.000625 2082. 2167.
2117(39) 0.000657 2081. 2168.
2196(40) 0.000625 2080. 2170.
2169(40) 0.000625 2079. 2172.
2110(39) 0.000657 2079. 2176.
2167(40) 0.000625 2078. 2180.
2248(41) 0.000595 2077. 2184.
2174(40) 0.000625 2076. 2189.
2144(40) 0.000625 2076. 2194.
2189(40) 0.000625 2075. 2199.
2200(40) 0.000625 2074. 2205.
2192(40) 0.000625 2074. 2210.
2208(40) 0.000625 2073. 2215.
2137(40) 0.000625 2072. 2220.
2176(40) 0.000625 2071. 2225.
2161(40) 0.000625 2071. 2228.
2285(41) 0.000595 2070. 2231.
2188(40) 0.000625 2069. 2233.
2125(40) 0.000625 2068. 2234.
2223(40) 0.000625 2068. 2235.
2208(40) 0.000625 2067. 2236.
2174(40) 0.000625 2066. 2236.
2289(41) 0.000595 2066. 2237.
2219(40) 0.000625 2065. 2238.
2226(40) 0.000625 2064. 2239.
2227(40) 0.000625 2063. 2240.
2213(40) 0.000625 2063. 2243.
2257(41) 0.000595 2062. 2245.
2278(41) 0.000595 2061. 2248.
2223(40) 0.000625 2061. 2251.
2212(40) 0.000625 2060. 2254.
2226(40) 0.000625 2059. 2258.
2195(40) 0.000625 2059. 2261.
2214(40) 0.000625 2058. 2264.
2201(40) 0.000625 2057. 2267.
2241(41) 0.000595 2057. 2270.
2284(41) 0.000595 2056. 2272.
2249(41) 0.000595 2055. 2274.
2262(41) 0.000595 2055. 2275.
2246(41) 0.000595 2054. 2275.
2287(41) 0.000595 2053. 2274.
2268(45) 0.000494 2053. 2272.
2295(45) 0.000494 2052. 2269.
2204(44) 0.000517 2051. 2266.
2233(44) 0.000517 2051. 2261.
2305(45) 0.000494 2050. 2257.
2291(45) 0.000494 2049. 2251.
2223(44) 0.000517 2049. 2246.
2223(44) 0.000517 2048. 2241.
2302(45) 0.000494 2047. 2235.
2214(44) 0.000517 2047. 2230.
2250(45) 0.000494 2046. 2226.
2270(45) 0.000494 2046. 2223.
2228(44) 0.000517 2045. 2221.
2216(44) 0.000517 2045. 2220.
2245(44) 0.000517 2044. 2222.
2214(44) 0.000517 2043. 2224.
2094(43) 0.000541 2043. 2229.
2194(44) 0.000517 2042. 2235.
2265(45) 0.000494 2042. 2243.
2243(44) 0.000517 2041. 2252.
2276(45) 0.000494 2041. 2262.
2238(44) 0.000517 2040. 2272.
2285(45) 0.000494 2040. 2282.
2220(44) 0.000517 2039. 2292.
2355(46) 0.000473 2039. 2300.
2337(45) 0.000494 2038. 2307.
2316(45) 0.000494 2038. 2312.
2346(45) 0.000494 2037. 2315.
2256(45) 0.000494 2037. 2316.
2303(45) 0.000494 2036. 2314.
2296(45) 0.000494 2036. 2311.
2278(45) 0.000494 2035. 2305.
2218(44) 0.000517 2035. 2297.
2323(45) 0.000494 2034. 2288.
2220(44) 0.000517 2034. 2278.
2213(44) 0.000517 2033. 2266.
2342(45) 0.000494 2033. 2254.
2308(45) 0.000494 2033. 2241.
2284(45) 0.000494 2032. 2229.
2234(44) 0.000517 2032. 2216.
2261(45) 0.000494 2031. 2203.
2141(43) 0.000541 2031. 2191.
2167(44) 0.000517 2031. 2180.
2153(44) 0.000517 2030. 2169.
2154(44) 0.000517 2030. 2159.
2132(43) 0.000541 2029. 2150.
2142(43) 0.000541 2029. 2142.
2249(45) 0.000494 2029. 2134.
2160(44) 0.000517 2028. 2128.
2137(56) 0.0003189 2028. 2122.
2126(39) 0.000657 2028. 2117.
2137(39) 0.000657 2027. 2113.
2115(39) 0.000657 2027. 2109.
2072(39) 0.000657 2027. 2106.
2110(39) 0.000657 2027. 2104.
2132(39) 0.000657 2026. 2102.
2181(40) 0.000625 2026. 2102.
2121(39) 0.000657 2026. 2101.
2101(39) 0.000657 2026. 2102.
2126(39) 0.000657 2025. 2102.
2068(38) 0.000693 2025. 2104.
2130(39) 0.000657 2025. 2106.
2077(39) 0.000657 2025. 2109.
2158(39) 0.000657 2024. 2113.
2155(39) 0.000657 2024. 2117.
2153(39) 0.000657 2024. 2122.
2149(39) 0.000657 2024. 2128.
2128(39) 0.000657 2024. 2134.
2122(39) 0.000657 2024. 2142.
2099(39) 0.000657 2023. 2150.
2176(39) 0.000657 2023. 2159.
2204(40) 0.000625 2023. 2169.
2168(39) 0.000657 2023. 2180.
2166(39) 0.000657 2023. 2191.
2187(40) 0.000625 2023. 2203.
2193(40) 0.000625 2023. 2216.
2192(40) 0.000625 2022. 2230.
2252(40) 0.000625 2022. 2243.
2255(40) 0.000625 2022. 2257.
2242(40) 0.000625 2022. 2270.
2189(40) 0.000625 2022. 2283.
2276(40) 0.000625 2022. 2295.
2269(40) 0.000625 2022. 2305.
2229(40) 0.000625 2022. 2314.
2283(40) 0.000625 2022. 2320.
2321(41) 0.000595 2022. 2324.
2294(41) 0.000595 2022. 2325.
2326(41) 0.000595 2022. 2324.
2305(41) 0.000595 2022. 2319.
2311(41) 0.000595 2022. 2312.
2299(41) 0.000595 2022. 2303.
2312(41) 0.000595 2022. 2293.
2344(41) 0.000595 2022. 2282.
2310(41) 0.000595 2022. 2271.
2264(40) 0.000625 2022. 2259.
2301(41) 0.000595 2022. 2248.
2253(40) 0.000625 2022. 2237.
2243(40) 0.000625 2022. 2227.
2321(41) 0.000595 2022. 2218.
2217(40) 0.000625 2022. 2211.
2189(40) 0.000625 2022. 2205.
2224(44) 0.000517 2022. 2200.
2219(44) 0.000517 2023. 2198.
2242(44) 0.000517 2023. 2196.
2277(44) 0.000517 2023. 2197.
2237(44) 0.000517 2023. 2200.
2202(43) 0.000541 2023. 2204.
2176(43) 0.000541 2023. 2209.
2257(44) 0.000517 2023. 2216.
2203(43) 0.000541 2023. 2224.
2284(44) 0.000517 2024. 2234.
2247(44) 0.000517 2024. 2245.
2224(44) 0.000517 2024. 2256.
2316(44) 0.000517 2024. 2269.
2276(44) 0.000517 2024. 2282.
2290(44) 0.000517 2024. 2296.
2329(45) 0.000494 2025. 2309.
2323(45) 0.000494 2025. 2322.
2355(45) 0.000494 2025. 2335.
2423(45) 0.000494 2025. 2347.
2382(45) 0.000494 2025. 2358.
2407(45) 0.000494 2025. 2368.
2436(46) 0.000473 2026. 2376.
2380(45) 0.000494 2026. 2382.
2388(45) 0.000494 2026. 2385.
2377(45) 0.000494 2026. 2386.
2467(46) 0.000473 2027. 2384.
2375(45) 0.000494 2027. 2380.
2422(45) 0.000494 2027. 2373.
2389(45) 0.000494 2027. 2363.
2356(45) 0.000494 2028. 2352.
2418(45) 0.000494 2028. 2338.
2342(45) 0.000494 2028. 2323.
2297(44) 0.000517 2028. 2308.
2274(44) 0.000517 2029. 2292.
2246(44) 0.000517 2029. 2275.
2283(44) 0.000517 2029. 2259.
2289(44) 0.000517 2029. 2243.
2251(44) 0.000517 2030. 2227.
2227(44) 0.000517 2030. 2212.
2176(43) 0.000541 2030. 2198.
2188(43) 0.000541 2031. 2185.
2156(43) 0.000541 2031. 2173.
2140(43) 0.000541 2031. 2161.
2125(43) 0.000541 2031. 2151.
2198(43) 0.000541 2032. 2142.
2118(43) 0.000541 2032. 2134.
2111(42) 0.000567 2032. 2126.
2104(42) 0.000567 2033. 2120.
2100(34) 0.000865 2033.0 2114.9
2113(39) 0.000657 2033. 2111.
2178(39) 0.000657 2034. 2107.
2131(39) 0.000657 2034. 2105.
2117(39) 0.000657 2034. 2103.
2104(39) 0.000657 2035. 2102.
2134(39) 0.000657 2035. 2102.
2166(39) 0.000657 2035. 2103.
2076(39) 0.000657 2036. 2104.
2093(39) 0.000657 2036. 2106.
2097(39) 0.000657 2036. 2108.
2139(39) 0.000657 2037. 2111.
2129(39) 0.000657 2037. 2115.
2074(39) 0.000657 2037. 2120.
2145(39) 0.000657 2038. 2125.
2180(39) 0.000657 2038. 2130.
2156(39) 0.000657 2038. 2137.
2094(39) 0.000657 2039. 2144.
2182(40) 0.000625 2039. 2151.
2194(40) 0.000625 2039. 2159.
2168(39) 0.000657 2040. 2168.
2181(39) 0.000657 2040. 2178.
2169(39) 0.000657 2040. 2189.
2151(39) 0.000657 2041. 2200.
2209(40) 0.000625 2041. 2212.
2232(40) 0.000625 2041. 2226.
2205(40) 0.000625 2042. 2240.
2248(40) 0.000625 2042. 2255.
2243(40) 0.000625 2042. 2271.
2253(40) 0.000625 2043. 2289.
2304(41) 0.000595 2043. 2307.
2256(40) 0.000625 2044. 2327.
2265(40) 0.000625 2044. 2348.
2342(41) 0.000595 2044. 2370.
2384(41) 0.000595 2045. 2393.
2365(41) 0.000595 2045. 2418.
2428(42) 0.000567 2045. 2443.
2455(42) 0.000567 2046. 2469.
2395(41) 0.000595 2046. 2495.
2432(42) 0.000567 2046. 2521.
2523(42) 0.000567 2047. 2546.
2583(43) 0.000541 2047. 2570.
2606(43) 0.000541 2047. 2593.
2585(43) 0.000541 2048. 2613.
2578(43) 0.000541 2048. 2631.
2603(43) 0.000541 2048. 2646.
2624(43) 0.000541 2049. 2658.
2652(44) 0.000517 2049. 2666.
2585(43) 0.000541 2049. 2670.
2683(44) 0.000517 2050. 2670.
2698(44) 0.000517 2050. 2667.
2638(43) 0.000541 2050. 2660.
2676(48) 0.000434 2051. 2649.
2649(48) 0.000434 2051. 2636.
2584(47) 0.000453 2051. 2619.
2590(47) 0.000453 2052. 2600.
2595(47) 0.000453 2052. 2579.
2557(47) 0.000453 2052. 2557.
2520(47) 0.000453 2053. 2534.
2488(46) 0.000473 2053. 2510.
2490(46) 0.000473 2053. 2486.
2489(46) 0.000473 2053. 2461.
2352(45) 0.000494 2054. 2437.
2347(45) 0.000494 2054. 2413.
2410(46) 0.000473 2054. 2390.
2401(45) 0.000494 2055. 2367.
2274(44) 0.000517 2055. 2346.
2313(45) 0.000494 2055. 2325.
2304(45) 0.000494 2056. 2306.
2312(45) 0.000494 2056. 2289.
2364(45) 0.000494 2056. 2273.
2256(44) 0.000517 2056. 2258.
2267(44) 0.000517 2057. 2245.
2292(44) 0.000517 2057. 2232.
2274(44) 0.000517 2057. 2222.
2276(44) 0.000517 2058. 2214.
2221(44) 0.000517 2058. 2206.
2147(43) 0.000541 2058. 2200.
2170(43) 0.000541 2058. 2196.
2233(44) 0.000517 2059. 2193.
2221(44) 0.000517 2059. 2190.
2201(44) 0.000517 2059. 2188.
2202(44) 0.000517 2059. 2187.
2228(44) 0.000517 2060. 2187.
2150(43) 0.000541 2060. 2187.
2160(43) 0.000541 2060. 2187.
2189(43) 0.000541 2060. 2188.
2183(43) 0.000541 2061. 2189.
2137(43) 0.000541 2061. 2189.
2215(44) 0.000517 2061. 2190.
2171(43) 0.000541 2061. 2191.
2137(43) 0.000541 2062. 2191.
2164(43) 0.000541 2062. 2191.
2187(43) 0.000541 2062. 2191.
2151(43) 0.000541 2062. 2190.
2185(43) 0.000541 2062. 2190.
2229(44) 0.000517 2063. 2189.
2168(43) 0.000541 2063. 2188.
2150(43) 0.000541 2063. 2187.
2142(43) 0.000541 2063. 2186.
2156(43) 0.000541 2063. 2184.
2216(40) 0.000625 2064. 2183.
2180(40) 0.000625 2064. 2182.
2188(40) 0.000625 2064. 2181.
2156(40) 0.000625 2064. 2180.
2175(40) 0.000625 2064. 2179.
2198(40) 0.000625 2065. 2178.
2182(40) 0.000625 2065. 2177.
2125(39) 0.000657 2065. 2177.
2166(40) 0.000625 2065. 2177.
2194(40) 0.000625 2065. 2177.
2159(40) 0.000625 2065. 2177.
2141(40) 0.000625 2066. 2178.
2195(40) 0.000625 2066. 2179.
2133(39) 0.000657 2066. 2180.
2152(40) 0.000625 2066. 2181.
2230(40) 0.000625 2066. 2182.
2208(40) 0.000625 2066. 2183.
2179(40) 0.000625 2067. 2185.
2203(40) 0.000625 2067. 2186.
2218(40) 0.000625 2067. 2188.
2199(40) 0.000625 2067. 2189.
2175(40) 0.000625 2067. 2191.
2177(40) 0.000625 2067. 2192.
2222(40) 0.000625 2067. 2194.
2250(41) 0.000595 2067. 2195.
2241(40) 0.000625 2068. 2197.
2201(40) 0.000625 2068. 2198.
2235(40) 0.000625 2068. 2199.
2235(40) 0.000625 2068. 2200.
2217(40) 0.000625 2068. 2201.
2220(40) 0.000625 2068. 2201.
2210(40) 0.000625 2068. 2200.
2275(41) 0.000595 2068. 2200.
2200(40) 0.000625 2068. 2199.
2189(40) 0.000625 2069. 2197.
2208(40) 0.000625 2069. 2195.
2182(40) 0.000625 2069. 2193.
2226(40) 0.000625 2069. 2190.
2202(40) 0.000625 2069. 2187.
2183(40) 0.000625 2069. 2184.
2234(40) 0.000625 2069. 2180.
2154(40) 0.000625 2069. 2176.
2099(39) 0.000657 2069. 2173.
2186(40) 0.000625 2069. 2169.
2197(40) 0.000625 2069. 2165.
2186(40) 0.000625 2069. 2162.
2194(40) 0.000625 2069. 2159.
2107(39) 0.000657 2070. 2156.
2101(39) 0.000657 2070. 2152.
2151(40) 0.000625 2070. 2149.
2165(43) 0.000541 2070. 2147.
2196(44) 0.000517 2070. 2145.
2214(44) 0.000517 2070. 2144.
2161(43) 0.000541 2070. 2143.
2197(44) 0.000517 2070. 2140.
2162(43) 0.000541 2070. 2140.
2095(43) 0.000541 2070. 2139.
2061(42) 0.000567 2070. 2139.
2093(43) 0.000541 2070. 2141.
2153(43) 0.000541 2070. 2141.
2119(43) 0.000541 2070. 2142.
2175(44) 0.000517 2070. 2143.
2122(43) 0.000541 2070. 2145.
2094(43) 0.000541 2070. 2146.
2094(43) 0.000541 2070. 2148.
2177(44) 0.000517 2070. 2150.
2101(43) 0.000541 2070. 2152.
2138(43) 0.000541 2071. 2154.
2168(44) 0.000517 2071. 2157.
2214(44) 0.000517 2071. 2159.
2251(44) 0.000517 2071. 2162.
2176(44) 0.000517 2071. 2164.
2198(44) 0.000517 2071. 2167.
2202(44) 0.000517 2071. 2170.
2167(44) 0.000517 2071. 2173.
2171(44) 0.000517 2071. 2176.
2177(44) 0.000517 2071. 2180.
2167(44) 0.000517 2071. 2183.
2210(44) 0.000517 2071. 2186.
2256(44) 0.000517 2071. 2190.
2237(44) 0.000517 2071. 2193.
2215(44) 0.000517 2071. 2197.
2276(45) 0.000494 2071. 2200.
2236(44) 0.000517 2071. 2204.
2227(44) 0.000517 2071. 2208.
2230(44) 0.000517 2071. 2211.
2247(44) 0.000517 2071. 2215.
2220(44) 0.000517 2071. 2219.
2256(44) 0.000517 2071. 2223.
2252(44) 0.000517 2071. 2227.
2233(44) 0.000517 2071. 2232.
2219(44) 0.000517 2071. 2236.
2260(44) 0.000517 2071. 2241.
2215(44) 0.000517 2071. 2247.
2202(44) 0.000517 2071. 2253.
2225(44) 0.000517 2071. 2259.
2309(45) 0.000494 2071. 2266.
2306(45) 0.000494 2071. 2274.
2227(44) 0.000517 2071. 2282.
2272(41) 0.000595 2071. 2290.
2324(41) 0.000595 2071. 2299.
2326(41) 0.000595 2071. 2309.
2293(41) 0.000595 2071. 2319.
2313(41) 0.000595 2071. 2330.
2317(41) 0.000595 2071. 2341.
2354(41) 0.000595 2072. 2352.
2395(42) 0.000567 2072. 2363.
2393(42) 0.000567 2072. 2375.
2394(42) 0.000567 2072. 2386.
2406(42) 0.000567 2072. 2397.
2371(42) 0.000567 2072. 2408.
2431(42) 0.000567 2072. 2418.
2392(42) 0.000567 2072. 2427.
2390(42) 0.000567 2072. 2436.
2403(42) 0.000567 2072. 2443.
2372(42) 0.000567 2072. 2449.
2436(42) 0.000567 2072. 2454.
2483(43) 0.000541 2072. 2457.
2478(42) 0.000567 2072. 2459.
2444(42) 0.000567 2072. 2460.
2406(42) 0.000567 2072. 2459.
2416(42) 0.000567 2072. 2457.
2422(42) 0.000567 2072. 2454.
2447(42) 0.000567 2072. 2450.
2426(42) 0.000567 2073. 2445.
2414(42) 0.000567 2073. 2439.
2427(42) 0.000567 2073. 2432.
2437(42) 0.000567 2073. 2425.
2446(42) 0.000567 2073. 2418.
2456(42) 0.000567 2073. 2410.
2407(42) 0.000567 2073. 2402.
2397(42) 0.000567 2073. 2395.
2352(41) 0.000595 2073. 2387.
2362(41) 0.000595 2073. 2380.
2405(42) 0.000567 2073. 2374.
2432(42) 0.000567 2074. 2367.
2430(42) 0.000567 2074. 2362.
2410(42) 0.000567 2074. 2356.
2345(41) 0.000595 2074. 2352.
2345(41) 0.000595 2074. 2348.
2326(41) 0.000595 2074. 2344.
2343(41) 0.000595 2074. 2341.
2303(41) 0.000595 2074. 2339.
2254(41) 0.000595 2075. 2337.
2247(40) 0.000625 2075. 2336.
2334(41) 0.000595 2075. 2335.
2345(41) 0.000595 2075. 2335.
2361(41) 0.000595 2075. 2335.
2282(41) 0.000595 2075. 2334.
2311(41) 0.000595 2075. 2334.
2370(42) 0.000567 2076. 2334.
2339(45) 0.000494 2076. 2334.
2409(46) 0.000473 2076. 2334.
2316(45) 0.000494 2076. 2334.
2319(45) 0.000494 2076. 2333.
2360(45) 0.000494 2077. 2333.
2322(45) 0.000494 2077. 2333.
2332(45) 0.000494 2077. 2332.
2320(45) 0.000494 2077. 2331.
2306(45) 0.000494 2077. 2330.
2324(45) 0.000494 2078. 2329.
2345(45) 0.000494 2078. 2328.
2384(46) 0.000473 2078. 2327.
2362(45) 0.000494 2078. 2326.
2333(45) 0.000494 2079. 2325.
2290(45) 0.000494 2079. 2323.
2327(45) 0.000494 2079. 2322.
2287(45) 0.000494 2079. 2321.
2251(44) 0.000517 2080. 2320.
2320(45) 0.000494 2080. 2319.
2337(45) 0.000494 2080. 2318.
2321(45) 0.000494 2081. 2318.
2323(45) 0.000494 2081. 2317.
2321(45) 0.000494 2081. 2316.
2311(45) 0.000494 2082. 2315.
2305(45) 0.000494 2082. 2315.
2295(45) 0.000494 2082. 2314.
2304(45) 0.000494 2083. 2314.
2319(45) 0.000494 2083. 2314.
2302(45) 0.000494 2083. 2313.
2249(44) 0.000517 2084. 2313.
2273(45) 0.000494 2084. 2313.
2294(45) 0.000494 2084. 2313.
2291(45) 0.000494 2085. 2314.
2317(45) 0.000494 2085. 2314.
2386(46) 0.000473 2086. 2315.
2368(46) 0.000473 2086. 2316.
2378(46) 0.000473 2086. 2317.
2366(45) 0.000494 2087. 2318.
2317(45) 0.000494 2087. 2319.
2308(45) 0.000494 2088. 2321.
2311(45) 0.000494 2088. 2322.
2277(45) 0.000494 2089. 2324.
2302(45) 0.000494 2089. 2326.
2349(45) 0.000494 2090. 2328.
2377(46) 0.000473 2090. 2330.
2315(45) 0.000494 2091. 2332.
2358(45) 0.000494 2091. 2334.
2423(46) 0.000473 2092. 2336.
2332(36) 0.000772 2092. 2338.
2342(41) 0.000595 2093. 2340.
2347(41) 0.000595 2093. 2342.
2304(41) 0.000595 2094. 2344.
2336(41) 0.000595 2094. 2346.
2337(41) 0.000595 2095. 2347.
2341(41) 0.000595 2095. 2349.
2382(42) 0.000567 2096. 2350.
2391(42) 0.000567 2097. 2352.
2357(41) 0.000595 2097. 2353.
2368(42) 0.000567 2098. 2354.
2337(41) 0.000595 2098. 2355.
2303(41) 0.000595 2099. 2356.
2310(41) 0.000595 2100. 2357.
2366(42) 0.000567 2100. 2358.
2361(42) 0.000567 2101. 2359.
2344(41) 0.000595 2102. 2360.
2377(42) 0.000567 2102. 2361.
2372(42) 0.000567 2103. 2362.
2355(41) 0.000595 2104. 2363.
2357(41) 0.000595 2104. 2364.
2393(42) 0.000567 2105. 2364.
2352(41) 0.000595 2106. 2365.
2356(41) 0.000595 2107. 2365.
2421(42) 0.000567 2107. 2366.
2336(41) 0.000595 2108. 2366.
2322(41) 0.000595 2109. 2366.
2365(42) 0.000567 2110. 2366.
2406(42) 0.000567 2110. 2366.
2395(42) 0.000567 2111. 2365.
2333(41) 0.000595 2112. 2365.
2303(41) 0.000595 2113. 2364.
2335(41) 0.000595 2114. 2362.
2369(42) 0.000567 2114. 2361.
2348(41) 0.000595 2115. 2359.
2358(41) 0.000595 2116. 2357.
2377(42) 0.000567 2117. 2354.
2339(41) 0.000595 2118. 2351.
2365(42) 0.000567 2119. 2348.
2376(42) 0.000567 2119. 2344.
2311(41) 0.000595 2120. 2341.
2322(41) 0.000595 2121. 2337.
2340(41) 0.000595 2122. 2332.
2353(41) 0.000595 2123. 2328.
2331(41) 0.000595 2124. 2323.
2319(41) 0.000595 2125. 2318.
2308(41) 0.000595 2126. 2314.
2301(41) 0.000595 2127. 2309.
2278(41) 0.000595 2128. 2304.
2238(40) 0.000625 2129. 2299.
2230(40) 0.000625 2130. 2294.
2254(44) 0.000517 2131. 2289.
2303(45) 0.000494 2132. 2284.
2348(45) 0.000494 2133. 2279.
2311(45) 0.000494 2134. 2275.
2291(45) 0.000494 2135. 2270.
2298(45) 0.000494 2136. 2265.
2283(45) 0.000494 2137. 2261.
2271(45) 0.000494 2138. 2257.
2211(44) 0.000517 2139. 2253.
2264(45) 0.000494 2140. 2250.
2332(45) 0.000494 2141. 2246.
2287(45) 0.000494 2142. 2243.
2228(44) 0.000517 2143. 2240.
2205(44) 0.000517 2144. 2238.
2202(44) 0.000517 2145. 2235.
2185(44) 0.000517 2146. 2233.
2208(44) 0.000517 2147. 2231.
2273(45) 0.000494 2148. 2230.
2317(45) 0.000494 2149. 2228.
2239(44) 0.000517 2150. 2227.
2220(44) 0.000517 2151. 2226.
2285(45) 0.000494 2153. 2225.
2296(45) 0.000494 2154. 2225.
2243(44) 0.000517 2155. 2224.
2180(44) 0.000517 2156. 2224.
2216(44) 0.000517 2157. 2224.
2244(44) 0.000517 2158. 2224.
2226(44) 0.000517 2159. 2225.
2256(44) 0.000517 2160. 2225.
2271(45) 0.000494 2161. 2226.
2272(45) 0.000494 2162. 2227.
2241(44) 0.000517 2164. 2227.
2239(44) 0.000517 2165. 2228.
2218(44) 0.000517 2166. 2230.
2226(44) 0.000517 2167. 2231.
2252(44) 0.000517 2168. 2232.
2230(44) 0.000517 2169. 2233.
2275(45) 0.000494 2170. 2235.
2250(44) 0.000517 2171. 2236.
2196(44) 0.000517 2172. 2238.
2217(44) 0.000517 2173. 2239.
2252(44) 0.000517 2175. 2241.
2263(45) 0.000494 2176. 2243.
2281(45) 0.000494 2177. 2245.
2296(45) 0.000494 2178. 2246.
2249(44) 0.000517 2179. 2248.
2248(44) 0.000517 2180. 2250.
2260(44) 0.000517 2181. 2252.
2268(45) 0.000494 2182. 2254.
2221(41) 0.000595 2183. 2256.
2213(41) 0.000595 2184. 2258.
2231(41) 0.000595 2185. 2260.
2243(42) 0.000567 2186. 2262.
2280(42) 0.000567 2187. 2264.
2257(42) 0.000567 2188. 2267.
2305(42) 0.000567 2189. 2269.
2269(42) 0.000567 2190. 2272.
2247(42) 0.000567 2191. 2275.
2327(42) 0.000567 2192. 2277.
2291(42) 0.000567 2193. 2280.
2232(42) 0.000567 2194. 2283.
2289(42) 0.000567 2195. 2286.
2295(42) 0.000567 2196. 2290.
2241(42) 0.000567 2196. 2293.
2192(41) 0.000595 2197. 2297.
2253(42) 0.000567 2198. 2300.
2329(42) 0.000567 2199. 2304.
2308(42) 0.000567 2200. 2308.
2234(42) 0.000567 2201. 2312.
2227(41) 0.000595 2201. 2316.
2344(42) 0.000567 2202. 2320.
2325(42) 0.000567 2203. 2325.
2291(42) 0.000567 2203. 2330.
2322(42) 0.000567 2204. 2335.
2330(42) 0.000567 2205. 2339.
2370(43) 0.000541 2205. 2345.
2327(42) 0.000567 2206. 2350.
2305(42) 0.000567 2207. 2355.
2348(43) 0.000541 2207. 2361.
2378(43) 0.000541 2208. 2367.
2401(43) 0.000541 2208. 2372.
2427(43) 0.000541 2209. 2378.
2439(43) 0.000541 2209. 2384.
2403(43) 0.000541 2210. 2391.
2416(43) 0.000541 2210. 2397.
2426(43) 0.000541 2210. 2403.
2397(43) 0.000541 2211. 2410.
2441(43) 0.000541 2211. 2416.
2419(43) 0.000541 2211. 2423.
2444(43) 0.000541 2211. 2430.
2445(43) 0.000541 2212. 2436.
2465(44) 0.000517 2212. 2443.
2472(44) 0.000517 2212. 2450.
2490(44) . . .
2488(44) . . .
2498(44) . . .
2524(44) . . .
2478(44) . . .
2522(44) . . .
2606(45) . . .
2640(49) . . .
2659(50) . . .
2622(49) . . .
2630(49) . . .
2638(49) . . .
2552(49) . . .
2649(50) . . .
2619(49) . . .
2637(49) . . .
2680(50) . . .
2673(50) . . .
2685(50) . . .
2702(50) . . .
2708(50) . . .
2773(51) . . .
2753(50) . . .
2736(50) . . .
2743(50) . . .
2763(51) . . .
2784(51) . . .
2793(51) . . .
2702(50) . . .
2733(50) . . .
2742(50) . . .
2779(51) . . .
2809(51) . . .
2806(51) . . .
2791(51) . . .
2762(51) . . .
2778(51) . . .
2821(51) . . .
2846(51) . . .
2788(51) . . .
2791(51) . . .
2833(51) . . .
2820(51) . . .
2894(52) . . .
2891(52) . . .
2883(52) . . .
2843(51) . . .
2884(52) . . .
2798(51) . . .
2793(51) . . .
2854(51) . . .
2841(51) . . .
2871(51) . . .
2811(51) . . .
2841(51) . . .
2799(51) . . .
2886(68) . . .
2807(67) . . .
2876(68) . . .
2861(68) . . .
2789(67) . . .
2812(67) . . .
2882(68) . . .
2917(68) . . .
2747(66) . . .
2804(67) . . .
2777(67) . . .
2824(67) . . .
2812(67) . . .
2837(67) . . .
2865(68) . . .
2886(68) . . .
2872(68) . . .
2878(68) . . .
2867(68) . . .
2890(68) . . .
2822(67) . . .
2844(67) . . .
2739(66) . . .
2789(67) . . .
2702(66) . . .
2706(66) . . .
2819(67) . . .
2729(66) . . .
2784(67) . . .
2859(68) . . .
2816(67) . . .
2756(67) . . .
2747(66) . . .
2887(68) . . .
2901(68) . . .
2797(67) . . .
2782(67) . . .
2814(67) . . .
2867(68) . . .
2807(67) . . .
2891(68) . . .
2852(68) . . .
2848(68) . . .
2836(67) . . .
2821(67) . . .
2838(67) . . .
2804(67) . . .
2872(68) . . .
2834(67) . . .
2819(67) . . .
2818(67) . . .
2787(82) . . .
loop_
_refln_index_h
_refln_index_k
_refln_index_l
_pd_refln_phase_id
_refln_observed_status
_refln_F_squared_meas
_refln_F_squared_calc
_refln_phase_calc
_refln_d_spacing
_gsas_i100_meas
0 1 0 1 o 6.863 6.977 180.00 13.04586 100.00
1 1 0 1 o 0.982 0.509 180.00 7.53203 4.79
0 2 0 1 o 3.397 3.675 0.00 6.52293 12.45
1 2 0 1 o 8.579 7.279 0.00 4.93087 18.08
2 1 0 1 o 0.428 0.363 0.00 4.93087 0.90
0 3 0 1 o 0.241 1.266 180.00 4.34862 0.40
0 0 1 1 o 0.000 0.109 180.00 3.96727 0.00
0 1 1 1 o 1.742 2.617 0.00 3.79564 4.18
2 2 0 1 o 2.570 3.583 180.00 3.76601 3.19
1 3 0 1 o 10.152 9.763 0.00 3.61827 11.67
3 1 0 1 o 8.252 7.935 180.00 3.61827 9.48
1 1 1 1 o 15.259 10.938 180.00 3.51012 31.67
0 2 1 1 o 7.902 8.211 0.00 3.38958 15.37
0 4 0 1 o 0.437 0.876 180.00 3.26146 0.41
1 1 1 2 o 60.029 41.319 180.00 3.26636 6.69
2 1 1 1 o 4.353 3.444 180.00 3.09100 7.14
1 2 1 1 o 0.949 0.751 0.00 3.09100 1.56
2 3 0 1 o 6.437 4.929 0.00 2.99293 5.13
3 2 0 1 o 1.215 0.931 180.00 2.99293 0.97
0 3 1 1 o 37.476 39.199 0.00 2.93085 55.67
4 1 0 1 o 90.061 95.234 0.00 2.84684 65.22
1 4 0 1 o 40.259 42.572 180.00 2.84684 29.16
2 2 1 1 o 33.045 38.480 0.00 2.73135 43.09
3 1 1 1 o 52.978 51.883 180.00 2.67339 66.41
1 3 1 1 o 0.000 0.000 180.00 2.67339 0.00
0 5 0 1 o 5.720 5.163 180.00 2.60917 3.51
0 4 1 1 o 7.268 7.796 180.00 2.51940 8.17
3 3 0 1 o 14.618 14.661 180.00 2.51068 8.35
2 4 0 1 o 0.049 0.055 180.00 2.46544 0.03
4 2 0 1 o 0.604 0.676 180.00 2.46544 0.33
3 2 1 1 o 15.740 11.843 180.00 2.38928 16.06
2 3 1 1 o 0.260 0.196 180.00 2.38928 0.27
1 5 0 1 o 0.796 0.844 180.00 2.34311 0.40
5 1 0 1 o 14.634 15.520 180.00 2.34311 7.35
4 1 1 1 o 2.091 0.764 180.00 2.31296 2.01
1 4 1 1 o 2.399 0.877 180.00 2.31296 2.31
0 5 1 1 o 1.911 3.747 0.00 2.17997 1.65
0 6 0 1 o 1.098 1.761 0.00 2.17431 0.48
4 3 0 1 o 0.308 0.067 0.00 2.14473 0.13
3 4 0 1 o 8.931 1.957 180.00 2.14473 3.81
3 3 1 1 o 8.612 5.741 180.00 2.12153 7.09
2 4 1 1 o 4.053 4.178 180.00 2.09402 3.26
4 2 1 1 o 13.910 14.337 0.00 2.09402 11.18
2 5 0 1 o 26.714 28.849 0.00 2.08901 10.86
5 2 0 1 o 47.914 51.744 0.00 2.08901 19.48
1 5 1 1 o 0.518 0.726 0.00 2.01751 0.39
5 1 1 1 o 16.840 23.620 0.00 2.01751 12.67
6 1 0 1 o 27.442 22.093 180.00 1.98947 10.22
1 6 0 1 o 1.549 1.247 180.00 1.98947 0.58
0 0 2 1 o 432.913 418.665 0.00 1.98363 50.59
2 2 0 2 o 0.000 0.000 180.00 2.00023 0.00
0 1 2 1 o 11.929 17.778 180.00 1.96109 8.20
1 1 2 1 o 1.603 3.127 180.00 1.91823 1.06
0 6 1 1 o 78.115 81.672 180.00 1.90672 53.24
0 2 2 1 o 1.214 1.198 0.00 1.89782 0.79
4 3 1 1 o 14.253 13.821 0.00 1.88668 9.54
3 4 1 1 o 12.754 12.367 180.00 1.88668 8.53
4 4 0 1 o 24.083 25.812 180.00 1.88301 8.13
5 3 0 1 o 5.910 7.711 180.00 1.86369 1.96
3 5 0 1 o 0.141 0.184 180.00 1.86369 0.05
0 7 0 1 o 1.885 2.459 180.00 1.86369 0.62
2 5 1 1 o 148.849 143.153 0.00 1.84842 96.12
5 2 1 1 o 56.625 54.458 180.00 1.84842 36.56
1 2 2 1 o 5.781 5.538 0.00 1.84030 3.58
2 1 2 1 o 0.040 0.038 0.00 1.84030 0.02
2 6 0 1 o 0.000 0.000 180.00 1.80914 0.00
6 2 0 1 o 50.422 38.363 180.00 1.80914 15.87
0 3 2 1 o 1.975 1.803 180.00 1.80474 1.18
6 1 1 1 o 23.313 18.381 0.00 1.77839 14.09
1 6 1 1 o 2.022 1.594 180.00 1.77839 1.22
2 2 2 1 o 2.589 3.542 180.00 1.75506 1.48
1 3 2 1 o 10.673 10.944 0.00 1.73939 6.02
3 1 2 1 o 8.090 8.295 180.00 1.73939 4.56
7 1 0 1 o 40.341 41.201 0.00 1.72797 11.73
1 7 0 1 o 22.080 22.551 180.00 1.72797 6.42
4 4 1 1 o 0.581 0.456 0.00 1.70112 0.33
0 4 2 1 o 0.649 0.466 180.00 1.69479 0.35
3 1 1 2 o 45.941 37.436 0.00 1.70580 4.63
0 7 1 1 o 5.772 5.385 0.00 1.68684 3.19
5 3 1 1 o 0.030 0.028 180.00 1.68684 0.02
3 5 1 1 o 37.014 34.528 180.00 1.68684 20.45
5 4 0 1 o 6.067 8.465 0.00 1.67035 1.67
4 5 0 1 o 9.038 12.610 0.00 1.67035 2.48
2 3 2 1 o 6.107 7.343 0.00 1.65345 3.17
3 2 2 1 o 0.518 0.622 180.00 1.65345 0.27
6 2 1 1 o 5.534 5.736 180.00 1.64606 2.94
2 6 1 1 o 33.453 34.675 180.00 1.64606 17.75
3 6 0 1 o 9.840 10.641 180.00 1.64362 2.63
6 3 0 1 o 9.057 9.795 0.00 1.64362 2.42
0 8 0 1 o 1.563 1.659 0.00 1.63073 0.41
4 1 2 1 o 80.283 84.872 0.00 1.62751 40.66
1 4 2 1 o 28.751 30.395 180.00 1.62751 14.56
2 2 2 2 o 136.086 147.910 0.00 1.63318 4.25
7 2 0 1 o 0.148 0.282 180.00 1.59381 0.04
2 7 0 1 o 4.820 9.175 0.00 1.59381 1.22
1 7 1 1 o 0.278 0.307 180.00 1.58422 0.14
7 1 1 1 o 4.738 5.241 0.00 1.58422 2.36
0 5 2 1 o 3.315 2.366 180.00 1.57910 1.60
3 3 2 1 o 10.539 9.553 180.00 1.55646 4.98
2 4 2 1 o 0.408 0.451 0.00 1.54550 0.19
4 2 2 1 o 0.146 0.162 180.00 1.54550 0.07
5 4 1 1 o 1.349 1.515 0.00 1.53947 0.64
4 5 1 1 o 0.746 0.838 0.00 1.53947 0.36
1 8 0 1 o 3.814 3.477 0.00 1.52690 0.90
8 1 0 1 o 16.001 14.590 0.00 1.52690 3.79
3 6 1 1 o 0.002 0.002 180.00 1.51847 0.00
6 3 1 1 o 25.767 25.707 0.00 1.51847 12.00
1 5 2 1 o 0.000 0.000 0.00 1.51396 0.00
5 1 2 1 o 10.354 10.525 180.00 1.51396 4.68
0 8 1 1 o 0.054 0.058 0.00 1.50828 0.02
5 5 0 1 o 4.794 4.800 180.00 1.50641 1.11
6 4 0 1 o 17.177 14.982 0.00 1.49646 3.94
4 6 0 1 o 5.230 4.561 180.00 1.49646 1.20
7 2 1 1 o 18.183 14.040 180.00 1.47892 8.12
2 7 1 1 o 0.045 0.035 180.00 1.47892 0.02
3 7 0 1 o 0.037 0.030 180.00 1.46777 0.01
7 3 0 1 o 12.846 10.491 0.00 1.46777 2.86
0 6 2 1 o 4.351 3.524 0.00 1.46542 1.87
3 4 2 1 o 0.441 0.383 180.00 1.45627 0.19
4 3 2 1 o 0.827 0.719 0.00 1.45627 0.35
0 9 0 1 o 26.395 25.457 180.00 1.44954 5.76
5 2 2 1 o 53.297 50.236 0.00 1.43845 22.32
2 5 2 1 o 33.168 31.263 0.00 1.43845 13.89
8 1 1 1 o 0.420 0.564 0.00 1.42500 0.18
1 8 1 1 o 1.415 1.898 180.00 1.42500 0.60
8 2 0 1 o 11.005 15.265 180.00 1.42342 2.33
2 8 0 1 o 1.960 2.719 0.00 1.42342 0.42
5 5 1 1 o 4.948 5.185 0.00 1.40830 2.05
6 1 2 1 o 17.069 16.544 180.00 1.40470 6.90
1 6 2 1 o 0.234 0.227 180.00 1.40470 0.09
4 0 0 2 o 96.605 140.790 0.00 1.41438 1.80
6 4 1 1 o 0.319 0.295 180.00 1.40017 0.13
4 6 1 1 o 0.051 0.047 0.00 1.40017 0.02
7 3 1 1 o 5.449 6.432 180.00 1.37658 2.18
3 7 1 1 o 5.616 6.629 0.00 1.37658 2.25
1 9 0 1 o 5.766 5.909 180.00 1.36758 1.15
5 6 0 1 o 28.317 29.019 180.00 1.36758 5.66
9 1 0 1 o 9.368 9.601 0.00 1.36758 1.87
6 5 0 1 o 0.148 0.152 0.00 1.36758 0.03
4 4 2 1 o 19.380 19.831 180.00 1.36568 7.53
0 9 1 1 o 20.240 20.744 0.00 1.36151 7.98
5 3 2 1 o 5.815 6.035 180.00 1.35825 2.24
3 5 2 1 o 0.001 0.001 180.00 1.35825 0.00
0 7 2 1 o 1.056 1.096 180.00 1.35825 0.41
7 4 0 1 o 46.348 43.589 180.00 1.35279 9.11
4 7 0 1 o 63.996 60.187 0.00 1.35279 12.58
8 2 1 1 o 0.196 0.193 0.00 1.33979 0.08
2 8 1 1 o 1.808 1.781 0.00 1.33979 0.70
2 6 2 1 o 0.059 0.066 0.00 1.33669 0.02
6 2 2 1 o 33.026 36.526 180.00 1.33669 12.45
0 0 3 1 o 0.819 1.513 180.00 1.32242 0.05
3 8 0 1 o 2.613 2.773 180.00 1.32461 0.50
8 3 0 1 o 9.821 10.422 0.00 1.32461 1.87
0 1 3 1 o 0.000 0.191 0.00 1.31568 0.00
0 10 0 1 o 0.017 0.018 0.00 1.30459 0.00
7 1 2 1 o 32.315 34.209 0.00 1.30293 11.76
1 7 2 1 o 17.430 18.452 180.00 1.30293 6.35
1 1 3 1 o 18.015 19.073 180.00 1.30250 6.37
0 2 3 1 o 2.107 2.135 0.00 1.29606 0.74
5 6 1 1 o 3.346 3.415 180.00 1.29292 1.23
6 5 1 1 o 2.293 2.341 180.00 1.29292 0.84
9 1 1 1 o 0.876 0.894 0.00 1.29292 0.32
1 9 1 1 o 29.886 30.507 180.00 1.29292 10.96
3 3 1 2 o 33.661 33.919 0.00 1.29792 2.21
9 2 0 1 o 1.500 1.577 180.00 1.28545 0.27
2 9 0 1 o 9.343 9.823 180.00 1.28545 1.71
4 7 1 1 o 35.722 34.695 180.00 1.28040 12.93
7 4 1 1 o 0.840 0.816 0.00 1.28040 0.30
5 4 2 1 o 8.918 7.653 0.00 1.27769 3.16
4 5 2 1 o 15.468 13.274 0.00 1.27769 5.49
1 2 3 1 o 0.000 0.000 180.00 1.27728 0.00
2 1 3 1 o 5.811 4.847 180.00 1.27728 2.00
3 6 2 1 o 8.913 8.692 180.00 1.26561 3.12
6 3 2 1 o 5.444 5.309 0.00 1.26561 1.91
0 3 3 1 o 26.598 26.252 0.00 1.26521 9.06
0 8 2 1 o 1.628 1.750 0.00 1.25970 0.57
3 8 1 1 o 27.935 26.344 0.00 1.25642 9.86
8 3 1 1 o 0.677 0.639 0.00 1.25642 0.24
6 6 0 1 o 59.712 54.083 0.00 1.25534 10.58
7 5 0 1 o 0.636 0.602 0.00 1.24957 0.11
5 7 0 1 o 27.352 25.879 180.00 1.24957 4.82
2 2 3 1 o 30.707 30.319 0.00 1.24773 10.28
7 2 2 1 o 1.839 1.685 180.00 1.24244 0.63
2 7 2 1 o 10.574 9.685 0.00 1.24244 3.62
1 3 3 1 o 0.009 0.008 180.00 1.24207 0.00
3 1 3 1 o 36.738 33.410 180.00 1.24207 12.24
0 10 1 1 o 7.161 6.354 180.00 1.23930 2.48
1 10 0 1 o 12.667 11.364 0.00 1.23826 2.21
10 1 0 1 o 0.329 0.295 180.00 1.23826 0.06
8 4 0 1 o 6.879 7.666 0.00 1.23272 1.19
4 8 0 1 o 16.785 18.705 180.00 1.23272 2.91
0 4 3 1 o 2.737 3.745 180.00 1.22551 0.90
2 9 1 1 o 3.298 4.174 180.00 1.22286 1.12
9 2 1 1 o 0.001 0.001 180.00 1.22286 0.00
8 1 2 1 o 9.523 9.924 0.00 1.20996 3.16
1 8 2 1 o 3.732 3.890 0.00 1.20996 1.24
2 3 3 1 o 0.001 0.001 180.00 1.20961 0.00
3 2 3 1 o 4.407 4.555 180.00 1.20961 1.42
9 3 0 1 o 130.678 130.074 0.00 1.20609 22.01
3 9 0 1 o 1.054 1.049 0.00 1.20609 0.18
5 5 2 1 o 4.086 4.746 180.00 1.19968 1.34
1 4 3 1 o 0.490 0.564 180.00 1.19934 0.16
4 1 3 1 o 0.010 0.012 0.00 1.19934 0.00
6 6 1 1 o 20.885 22.229 0.00 1.19685 6.94
6 4 2 1 o 9.582 9.747 0.00 1.19464 3.13
4 6 2 1 o 3.008 3.059 180.00 1.19464 0.98
5 7 1 1 o 0.654 0.660 0.00 1.19185 0.22
7 5 1 1 o 2.293 2.313 180.00 1.19185 0.76
0 11 0 1 o 8.163 8.610 0.00 1.18599 1.35
10 1 1 1 o 6.984 7.182 180.00 1.18202 2.29
1 10 1 1 o 59.358 61.038 0.00 1.18202 19.42
7 3 2 1 o 4.088 4.232 0.00 1.17989 1.32
3 7 2 1 o 0.045 0.047 0.00 1.17989 0.01
0 5 3 1 o 5.276 5.482 0.00 1.17957 1.66
4 8 1 1 o 18.226 19.693 0.00 1.17720 5.94
8 4 1 1 o 1.863 2.013 0.00 1.17720 0.61
10 2 0 1 o 25.684 26.578 180.00 1.17155 4.18
2 10 0 1 o 0.185 0.192 180.00 1.17155 0.03
0 9 2 1 o 24.214 24.614 180.00 1.17036 7.72
3 3 3 1 o 3.069 3.115 180.00 1.17004 0.96
4 2 3 1 o 17.361 17.367 0.00 1.16536 5.38
2 4 3 1 o 1.894 1.895 180.00 1.16536 0.59
7 6 0 1 o 2.508 2.578 0.00 1.15763 0.40
6 7 0 1 o 1.564 1.608 0.00 1.15763 0.25
2 8 2 1 o 3.330 3.242 0.00 1.15648 1.05
8 2 2 1 o 22.979 22.371 180.00 1.15648 7.23
9 3 1 1 o 15.450 14.684 0.00 1.15394 4.92
3 9 1 1 o 49.072 46.637 180.00 1.15394 15.63
5 1 3 1 o 24.193 24.087 0.00 1.15166 7.41
1 5 3 1 o 1.541 1.535 0.00 1.15166 0.47
8 5 0 1 o 28.858 29.221 180.00 1.14862 4.59
5 8 0 1 o 9.402 9.520 0.00 1.14862 1.50
4 2 2 2 o 0.000 0.000 0.00 1.15483 0.00
0 11 1 1 o 1.076 1.352 0.00 1.13630 0.34
11 1 0 1 o 0.064 0.064 0.00 1.13122 0.01
1 11 0 1 o 4.481 4.459 0.00 1.13122 0.70
9 4 0 1 o 6.393 6.361 180.00 1.13122 1.00
4 9 0 1 o 6.508 6.475 180.00 1.13122 1.02
0 6 3 1 o 66.666 64.169 180.00 1.12986 20.03
5 6 2 1 o 28.224 26.007 180.00 1.12593 8.64
1 9 2 1 o 5.359 4.938 180.00 1.12593 1.64
9 1 2 1 o 6.425 5.920 0.00 1.12593 1.97
6 5 2 1 o 0.000 0.000 180.00 1.12593 0.00
3 4 3 1 o 7.524 6.921 180.00 1.12564 2.25
4 3 3 1 o 13.917 12.803 0.00 1.12564 4.17
10 2 1 1 o 2.351 2.203 0.00 1.12359 0.73
2 10 1 1 o 5.382 5.043 180.00 1.12359 1.67
4 7 2 1 o 57.698 57.856 0.00 1.11763 17.54
7 4 2 1 o 50.758 50.897 180.00 1.11763 15.43
5 2 3 1 o 44.063 43.965 180.00 1.11736 13.10
2 5 3 1 o 130.152 129.863 0.00 1.11736 38.70
6 7 1 1 o 3.053 3.275 0.00 1.11129 0.94
7 6 1 1 o 1.245 1.336 180.00 1.11129 0.38
10 3 0 1 o 31.966 37.743 180.00 1.10654 4.90
3 10 0 1 o 3.636 4.294 0.00 1.10654 0.56
8 5 1 1 o 0.000 0.000 0.00 1.10331 0.00
5 8 1 1 o 47.521 51.101 180.00 1.10331 14.45
3 8 2 1 o 1.102 1.179 180.00 1.10158 0.33
8 3 2 1 o 4.031 4.314 0.00 1.10158 1.21
1 6 3 1 o 0.234 0.251 180.00 1.10132 0.07
6 1 3 1 o 14.091 15.117 0.00 1.10132 4.14
0 10 2 1 o 0.011 0.008 180.00 1.08998 0.00
11 1 1 1 o 28.432 23.989 0.00 1.08786 8.54
9 4 1 1 o 0.177 0.150 180.00 1.08786 0.05
1 11 1 1 o 4.579 3.863 180.00 1.08786 1.38
4 9 1 1 o 4.940 4.168 0.00 1.08786 1.48
0 12 0 1 o 4.428 3.890 180.00 1.08715 0.67
3 3 3 2 o 41.820 30.732 180.00 1.08879 0.75
5 1 1 2 o 41.820 30.732 180.00 1.08879 2.24
4 4 3 1 o 0.331 0.290 0.00 1.08220 0.10
9 2 2 1 o 3.701 3.815 180.00 1.07875 1.09
2 9 2 1 o 6.994 7.210 180.00 1.07875 2.06
0 7 3 1 o 4.496 4.636 0.00 1.07850 1.30
5 3 3 1 o 0.062 0.064 180.00 1.07850 0.02
3 5 3 1 o 19.531 20.139 180.00 1.07850 5.63
11 2 0 1 o 53.717 53.563 0.00 1.07600 8.02
2 11 0 1 o 52.078 51.928 180.00 1.07600 7.78
7 7 0 1 o 19.654 19.598 180.00 1.07600 2.94
6 8 0 1 o 6.779 6.395 0.00 1.07236 1.01
8 6 0 1 o 11.413 10.767 0.00 1.07236 1.70
6 2 3 1 o 4.903 4.715 180.00 1.06761 1.40
2 6 3 1 o 18.709 17.995 180.00 1.06761 5.36
10 3 1 1 o 0.193 0.180 0.00 1.06585 0.06
3 10 1 1 o 6.431 6.011 0.00 1.06585 1.90
6 6 2 1 o 42.520 43.599 0.00 1.06077 12.36
5 9 0 1 o 3.223 3.266 180.00 1.06166 0.48
9 5 0 1 o 2.443 2.476 0.00 1.06166 0.36
5 7 2 1 o 18.117 22.772 180.00 1.05728 5.25
7 5 2 1 o 0.044 0.055 0.00 1.05728 0.01
1 10 2 1 o 10.494 9.336 0.00 1.05040 3.03
10 1 2 1 o 1.152 1.025 180.00 1.05040 0.33
7 1 3 1 o 3.379 2.998 0.00 1.05017 0.96
1 7 3 1 o 0.043 0.038 180.00 1.05017 0.01
0 12 1 1 o 1.317 1.233 180.00 1.04850 0.38
4 8 2 1 o 13.312 13.526 180.00 1.04701 3.83
8 4 2 1 o 3.544 3.601 0.00 1.04701 1.02
4 10 0 1 o 16.367 18.023 0.00 1.04450 2.39
10 4 0 1 o 8.992 9.902 0.00 1.04450 1.31
12 1 0 1 o 8.182 9.341 180.00 1.04117 1.19
1 12 0 1 o 6.697 7.646 0.00 1.04117 0.98
7 7 1 1 o 1.069 1.159 0.00 1.03849 0.31
11 2 1 1 o 55.609 60.319 180.00 1.03849 16.11
2 11 1 1 o 0.009 0.010 180.00 1.03849 0.00
4 5 3 1 o 0.837 0.917 0.00 1.03682 0.24
5 4 3 1 o 0.613 0.671 0.00 1.03682 0.17
6 8 1 1 o 1.761 1.986 0.00 1.03521 0.51
8 6 1 1 o 0.001 0.001 180.00 1.03521 0.00
9 3 2 1 o 101.488 98.671 0.00 1.03055 28.93
3 9 2 1 o 1.978 1.923 0.00 1.03055 0.56
3 6 3 1 o 0.267 0.257 0.00 1.03033 0.07
6 3 3 1 o 18.379 17.726 0.00 1.03033 5.14
0 8 3 1 o 0.001 0.001 0.00 1.02714 0.00
5 9 1 1 o 4.769 4.110 180.00 1.02557 1.37
9 5 1 1 o 0.083 0.072 0.00 1.02557 0.02
3 11 0 1 o 0.664 0.696 0.00 1.02183 0.10
11 3 0 1 o 0.223 0.234 180.00 1.02183 0.03
0 11 2 1 o 8.138 6.554 0.00 1.01792 2.30
2 7 3 1 o 0.331 0.265 0.00 1.01772 0.09
7 2 3 1 o 15.273 12.239 180.00 1.01772 4.25
4 10 1 1 o 55.831 54.646 0.00 1.01008 15.92
10 4 1 1 o 15.388 15.061 180.00 1.01008 4.39
2 10 2 1 o 0.035 0.033 180.00 1.00875 0.01
10 2 2 1 o 31.318 29.526 180.00 1.00875 8.83
1 12 1 1 o 1.795 1.588 180.00 1.00707 0.51
12 1 1 1 o 0.281 0.249 0.00 1.00707 0.08
0 13 0 1 o 3.121 3.174 180.00 1.00353 0.45
7 8 0 1 o 0.015 0.015 0.00 1.00353 0.00
8 7 0 1 o 3.783 3.846 180.00 1.00353 0.54
6 7 2 1 o 1.078 1.184 0.00 0.99983 0.30
7 6 2 1 o 1.476 1.621 0.00 0.99983 0.41
1 8 3 1 o 1.133 1.243 180.00 0.99963 0.31
8 1 3 1 o 0.057 0.062 0.00 0.99963 0.02
6 9 0 1 o 18.772 18.960 180.00 0.99764 2.67
9 6 0 1 o 0.312 0.315 180.00 0.99764 0.04
4 4 0 2 o 110.707 115.575 0.00 1.00012 2.79
12 2 0 1 o 0.039 0.036 0.00 0.99474 0.01
2 12 0 1 o 0.585 0.544 0.00 0.99474 0.08
8 5 2 1 o 32.957 31.130 180.00 0.99400 9.23
5 8 2 1 o 9.746 9.205 0.00 0.99400 2.73
5 5 3 1 o 2.517 2.389 0.00 0.99381 0.69
11 3 1 1 o 20.979 19.770 0.00 0.98953 5.93
3 11 1 1 o 1.597 1.505 180.00 0.98953 0.45
0 0 4 1 o 264.259 259.086 0.00 0.99182 11.83
0 1 4 1 o 18.210 16.781 180.00 0.98896 4.89
6 4 3 1 o 0.927 0.905 180.00 0.99094 0.26
4 6 3 1 o 0.091 0.089 0.00 0.99094 0.03
10 5 0 1 o 4.237 3.918 0.00 0.98617 0.60
5 10 0 1 o 1.684 1.557 180.00 0.98617 0.24
1 1 4 1 o 2.821 2.912 180.00 0.98333 0.76
1 11 2 1 o 3.774 3.938 0.00 0.98266 1.05
4 9 2 1 o 3.633 3.790 180.00 0.98266 1.01
11 1 2 1 o 0.000 0.000 180.00 0.98266 0.00
9 4 2 1 o 8.503 8.872 180.00 0.98266 2.37
7 3 3 1 o 6.737 7.045 180.00 0.98247 1.85
3 7 3 1 o 6.918 7.235 0.00 0.98247 1.90
0 2 4 1 o 1.139 1.216 0.00 0.98055 0.31
0 9 3 1 o 11.504 12.489 0.00 0.97695 3.15
8 7 1 1 o 19.376 21.283 180.00 0.97289 5.45
0 13 1 1 o 13.050 14.334 180.00 0.97289 3.67
7 8 1 1 o 5.446 5.982 180.00 0.97289 1.53
1 2 4 1 o 5.083 5.496 0.00 0.97234 1.36
2 1 4 1 o 0.073 0.079 0.00 0.97234 0.02
4 11 0 1 o 2.736 2.935 180.00 0.96969 0.39
11 4 0 1 o 0.000 0.000 180.00 0.96969 0.00
8 2 3 1 o 0.083 0.090 180.00 0.96883 0.02
2 8 3 1 o 1.678 1.834 0.00 0.96883 0.46
9 6 1 1 o 33.827 37.607 0.00 0.96752 9.51
6 9 1 1 o 2.092 2.325 0.00 0.96752 0.59
0 3 4 1 o 1.426 1.587 180.00 0.96699 0.38
10 3 2 1 o 36.830 40.981 180.00 0.96635 10.25
3 10 2 1 o 5.287 5.883 0.00 0.96635 1.47
12 2 1 1 o 15.083 16.585 0.00 0.96487 4.24
2 12 1 1 o 3.353 3.686 180.00 0.96487 0.94
1 13 0 1 o 4.000 4.351 0.00 0.96438 0.56
13 1 0 1 o 0.801 0.871 0.00 0.96438 0.11
2 2 4 1 o 3.641 3.267 180.00 0.95911 0.97
5 10 1 1 o 24.306 20.535 180.00 0.95705 6.83
10 5 1 1 o 0.035 0.030 180.00 0.95705 0.01
1 3 4 1 o 11.753 10.008 0.00 0.95653 3.15
3 1 4 1 o 9.399 8.004 180.00 0.95653 2.52
0 12 2 1 o 3.943 3.961 180.00 0.95336 1.10
5 3 1 2 o 30.748 27.844 0.00 0.95629 3.07
5 6 3 1 o 3.144 3.058 180.00 0.95066 0.86
6 5 3 1 o 3.505 3.410 180.00 0.95066 0.96
9 1 3 1 o 0.025 0.025 0.00 0.95066 0.01
1 9 3 1 o 24.611 23.940 180.00 0.95066 6.74
3 12 0 1 o 5.706 5.905 180.00 0.94895 0.80
12 3 0 1 o 0.069 0.072 0.00 0.94895 0.01
0 4 4 1 o 0.396 0.410 180.00 0.94891 0.11
7 7 2 1 o 18.243 18.097 180.00 0.94582 5.08
2 11 2 1 o 44.168 43.813 180.00 0.94582 12.30
11 2 2 1 o 43.635 43.284 0.00 0.94582 12.15
7 4 3 1 o 0.000 0.000 180.00 0.94565 0.00
4 7 3 1 o 28.247 27.890 180.00 0.94565 7.74
8 6 2 1 o 9.577 9.228 0.00 0.94334 2.67
6 8 2 1 o 6.579 6.339 0.00 0.94334 1.83
4 11 1 1 o 20.665 20.036 180.00 0.94196 5.81
11 4 1 1 o 0.001 0.001 0.00 0.94196 0.00
8 8 0 1 o 16.907 16.439 0.00 0.94150 2.38
3 2 4 1 o 0.969 0.942 180.00 0.94147 0.26
2 3 4 1 o 6.966 6.775 0.00 0.94147 1.87
7 9 0 1 o 7.253 7.118 0.00 0.93906 1.02
9 7 0 1 o 7.566 7.424 180.00 0.93906 1.07
13 1 1 1 o 7.539 7.279 0.00 0.93709 2.12
1 13 1 1 o 49.094 47.397 0.00 0.93709 13.82
4 4 2 2 o 0.000 0.000 0.00 0.94292 0.00
1 4 4 1 o 20.963 19.980 180.00 0.93660 5.64
4 1 4 1 o 54.335 51.788 0.00 0.93660 14.61
5 9 2 1 o 2.148 2.005 180.00 0.93603 0.60
9 5 2 1 o 1.650 1.540 0.00 0.93603 0.46
3 8 3 1 o 25.148 23.314 0.00 0.93587 6.91
8 3 3 1 o 0.001 0.001 180.00 0.93587 0.00
0 14 0 1 o 2.489 1.811 180.00 0.93185 0.35
6 10 0 1 o 16.047 11.676 0.00 0.93185 2.27
10 6 0 1 o 10.661 7.757 0.00 0.93185 1.51
0 10 3 1 o 6.871 6.552 180.00 0.92872 1.89
0 5 4 1 o 1.118 1.261 180.00 0.92710 0.30
13 2 0 1 o 2.971 3.661 0.00 0.92480 0.42
2 13 0 1 o 0.481 0.592 180.00 0.92480 0.07
10 4 2 1 o 5.255 6.297 0.00 0.92421 1.47
4 10 2 1 o 15.759 18.885 0.00 0.92421 4.41
3 12 1 1 o 1.310 1.472 180.00 0.92291 0.37
12 3 1 1 o 1.320 1.484 180.00 0.92291 0.37
3 3 4 1 o 6.279 6.953 180.00 0.92245 1.70
12 1 2 1 o 7.642 8.378 180.00 0.92190 2.14
1 12 2 1 o 6.927 7.593 0.00 0.92190 1.94
9 2 3 1 o 0.655 0.717 180.00 0.92174 0.18
2 9 3 1 o 2.096 2.295 180.00 0.92174 0.58
5 11 0 1 o 5.799 6.394 180.00 0.92018 0.82
11 5 0 1 o 15.426 17.009 180.00 0.92018 2.19
2 4 4 1 o 0.919 1.014 0.00 0.92015 0.25
4 2 4 1 o 0.141 0.155 180.00 0.92015 0.04
8 8 1 1 o 12.495 13.363 0.00 0.91606 3.55
7 9 1 1 o 3.033 3.015 0.00 0.91381 0.86
9 7 1 1 o 10.762 10.698 180.00 0.91381 3.06
5 1 4 1 o 6.938 6.911 180.00 0.91336 1.89
1 5 4 1 o 0.180 0.179 0.00 0.91336 0.05
6 6 3 1 o 14.449 16.114 0.00 0.91045 4.02
11 3 2 1 o 0.464 0.539 180.00 0.90839 0.13
3 11 2 1 o 1.157 1.344 0.00 0.90839 0.33
5 7 3 1 o 0.863 1.002 0.00 0.90824 0.24
7 5 3 1 o 3.295 3.823 180.00 0.90824 0.92
0 14 1 1 o 13.977 15.775 180.00 0.90716 3.99
6 10 1 1 o 0.059 0.066 0.00 0.90716 0.02
10 6 1 1 o 0.993 1.120 0.00 0.90716 0.28
12 4 0 1 o 1.110 1.100 180.00 0.90457 0.16
4 12 0 1 o 1.536 1.522 0.00 0.90457 0.22
0 6 4 1 o 3.330 3.192 0.00 0.90237 0.92
10 1 3 1 o 10.336 10.036 180.00 0.90387 2.89
1 10 3 1 o 52.713 51.183 0.00 0.90387 14.76
8 4 3 1 o 0.234 0.225 0.00 0.90171 0.07
4 8 3 1 o 18.689 17.979 0.00 0.90171 5.24
13 2 1 1 o 1.471 1.427 0.00 0.90065 0.42
2 13 1 1 o 1.034 1.003 0.00 0.90065 0.30
4 3 4 1 o 1.175 1.144 0.00 0.90022 0.32
3 4 4 1 o 0.063 0.061 180.00 0.90022 0.02
14 1 0 1 o 0.578 0.579 0.00 0.89811 0.08
1 14 0 1 o 1.573 1.575 0.00 0.89811 0.23
11 5 1 1 o 3.178 3.078 0.00 0.89639 0.92
5 11 1 1 o 10.061 9.745 0.00 0.89639 2.90
2 5 4 1 o 22.165 21.079 0.00 0.89596 6.14
5 2 4 1 o 38.429 36.546 0.00 0.89596 10.64
0 13 2 1 o 2.630 2.451 180.00 0.89546 0.75
7 8 2 1 o 0.108 0.101 0.00 0.89546 0.03
8 7 2 1 o 3.169 2.953 180.00 0.89546 0.91
6 9 2 1 o 16.245 15.547 180.00 0.89127 4.68
9 6 2 1 o 0.313 0.300 180.00 0.89127 0.09
3 9 3 1 o 37.588 35.960 180.00 0.89113 10.67
9 3 3 1 o 6.852 6.555 0.00 0.89113 1.95
6 2 0 2 o 0.000 0.000 180.00 0.89453 0.00
12 2 2 1 o 0.044 0.041 0.00 0.88920 0.01
2 12 2 1 o 1.049 0.976 0.00 0.88920 0.30
1 6 4 1 o 0.074 0.069 180.00 0.88763 0.02
6 1 4 1 o 10.686 9.924 180.00 0.88763 2.99
13 3 0 1 o 0.626 0.703 180.00 0.88561 0.09
8 9 0 1 o 1.790 2.011 180.00 0.88561 0.26
3 13 0 1 o 1.029 1.156 180.00 0.88561 0.15
9 8 0 1 o 12.448 13.980 180.00 0.88561 1.83
10 5 2 1 o 2.179 3.183 0.00 0.88306 0.63
5 10 2 1 o 0.634 0.926 180.00 0.88306 0.18
0 11 3 1 o 0.684 0.995 0.00 0.88293 0.20
12 4 1 1 o 10.698 14.552 180.00 0.88193 3.15
4 12 1 1 o 1.392 1.893 0.00 0.88193 0.41
10 7 0 1 o 0.046 0.061 0.00 0.88156 0.01
7 10 0 1 o 3.706 4.934 180.00 0.88156 0.55
4 4 4 1 o 12.301 13.484 180.00 0.87753 3.50
0 7 4 1 o 0.365 0.320 180.00 0.87555 0.10
3 5 4 1 o 0.010 0.009 180.00 0.87555 0.00
5 3 4 1 o 3.906 3.419 180.00 0.87555 1.12
10 2 3 1 o 0.466 0.471 0.00 0.87692 0.14
2 10 3 1 o 2.545 2.569 180.00 0.87692 0.74
14 1 1 1 o 8.387 7.590 180.00 0.87595 2.49
1 14 1 1 o 1.695 1.534 0.00 0.87595 0.50
6 11 0 1 o 0.192 0.160 0.00 0.87362 0.03
11 6 0 1 o 1.864 1.556 0.00 0.87362 0.28
4 11 2 1 o 2.163 2.066 180.00 0.87117 0.64
11 4 2 1 o 0.017 0.016 180.00 0.87117 0.01
7 6 3 1 o 1.610 1.546 180.00 0.87104 0.47
6 7 3 1 o 3.825 3.673 0.00 0.87104 1.12
0 15 0 1 o 11.310 11.314 180.00 0.86972 1.70
2 6 4 1 o 0.002 0.002 180.00 0.86970 0.00
6 2 4 1 o 26.625 26.655 180.00 0.86970 7.69
13 1 2 1 o 0.976 0.995 0.00 0.86731 0.29
1 13 2 1 o 4.410 4.493 0.00 0.86731 1.32
8 5 3 1 o 0.478 0.486 180.00 0.86718 0.14
5 8 3 1 o 36.844 37.463 180.00 0.86718 10.90
8 9 1 1 o 5.165 4.727 0.00 0.86434 1.57
13 3 1 1 o 9.369 8.574 180.00 0.86434 2.85
9 8 1 1 o 0.409 0.374 0.00 0.86434 0.12
3 13 1 1 o 13.668 12.509 0.00 0.86434 4.16
14 2 0 1 o 36.697 33.107 180.00 0.86398 5.60
2 14 0 1 o 9.706 8.756 0.00 0.86398 1.48
12 5 0 1 o 0.949 0.837 0.00 0.86209 0.15
5 12 0 1 o 4.327 3.816 0.00 0.86209 0.66
10 7 1 1 o 11.008 9.993 180.00 0.86057 3.38
7 10 1 1 o 1.399 1.270 180.00 0.86057 0.43
7 1 4 1 o 25.635 23.347 0.00 0.86019 7.58
1 7 4 1 o 15.976 14.550 180.00 0.86019 4.72
5 3 3 2 o 27.590 25.228 0.00 0.86276 1.50
11 1 3 1 o 17.891 16.288 0.00 0.85962 5.39
4 9 3 1 o 4.938 4.496 0.00 0.85962 1.49
9 4 3 1 o 0.849 0.773 180.00 0.85962 0.26
1 11 3 1 o 2.099 1.911 180.00 0.85962 0.63
3 12 2 1 o 4.552 4.650 180.00 0.85603 1.40
12 3 2 1 o 0.057 0.059 0.00 0.85603 0.02
11 6 1 1 o 0.356 0.412 180.00 0.85317 0.11
6 11 1 1 o 5.455 6.306 180.00 0.85317 1.71
5 4 4 1 o 5.709 6.601 0.00 0.85281 1.72
4 5 4 1 o 9.312 10.767 0.00 0.85281 2.81
8 8 2 1 o 14.332 15.943 0.00 0.85056 4.49
0 15 1 1 o 0.920 0.999 0.00 0.84955 0.29
3 6 4 1 o 7.449 7.988 180.00 0.84919 2.28
6 3 4 1 o 2.254 2.417 0.00 0.84919 0.69
7 9 2 1 o 7.278 7.682 0.00 0.84876 2.29
9 7 2 1 o 5.505 5.811 180.00 0.84876 1.74
3 10 3 1 o 5.782 6.077 0.00 0.84864 1.80
10 3 3 1 o 0.000 0.000 0.00 0.84864 0.00
6 2 2 2 o 90.933 99.675 0.00 0.85290 5.07
13 4 0 1 o 11.256 11.453 0.00 0.84742 1.80
4 13 0 1 o 27.682 28.167 0.00 0.84742 4.43
0 8 4 1 o 1.796 1.827 0.00 0.84739 0.55
2 14 1 1 o 44.518 45.242 180.00 0.84420 14.38
14 2 1 1 o 0.325 0.330 0.00 0.84420 0.10
10 6 2 1 o 7.745 7.725 0.00 0.84342 2.49
0 14 2 1 o 1.231 1.228 180.00 0.84342 0.40
6 10 2 1 o 11.622 11.593 0.00 0.84342 3.74
5 12 1 1 o 1.348 1.296 0.00 0.84243 0.44
12 5 1 1 o 7.408 7.121 180.00 0.84243 2.41
2 7 4 1 o 6.791 6.432 0.00 0.84208 2.13
7 2 4 1 o 2.307 2.185 180.00 0.84208 0.72
1 15 0 1 o 0.118 0.105 0.00 0.84036 0.02
15 1 0 1 o 11.145 9.941 0.00 0.84036 1.83
0 12 3 1 o 1.173 1.040 180.00 0.83980 0.38
2 13 2 1 o 0.291 0.269 180.00 0.83818 0.10
13 2 2 1 o 4.451 4.114 0.00 0.83818 1.46
9 9 0 1 o 17.909 17.734 0.00 0.83689 2.99
10 8 0 1 o 0.033 0.034 180.00 0.83518 0.01
8 10 0 1 o 4.220 4.298 180.00 0.83518 0.71
11 5 2 1 o 14.909 14.976 180.00 0.83474 4.97
5 11 2 1 o 5.887 5.913 180.00 0.83474 1.96
2 11 3 1 o 0.016 0.016 0.00 0.83463 0.01
11 2 3 1 o 54.739 54.728 180.00 0.83463 18.04
7 7 3 1 o 0.884 0.884 0.00 0.83463 0.29
6 8 3 1 o 2.812 2.616 0.00 0.83292 0.93
8 6 3 1 o 0.090 0.084 180.00 0.83292 0.03
8 1 4 1 o 7.632 7.031 0.00 0.83175 2.51
1 8 4 1 o 3.586 3.304 0.00 0.83175 1.18
14 3 0 1 o 2.751 2.572 180.00 0.83009 0.47
11 7 0 1 o 2.248 2.102 180.00 0.83009 0.39
7 11 0 1 o 1.716 1.604 180.00 0.83009 0.30
3 14 0 1 o 41.203 38.525 180.00 0.83009 7.10
4 13 1 1 o 13.486 12.723 180.00 0.82872 4.67
13 4 1 1 o 69.318 65.396 0.00 0.82872 24.00
5 5 4 1 o 3.460 3.273 180.00 0.82839 1.16
9 5 3 1 o 0.004 0.004 180.00 0.82788 0.00
5 9 3 1 o 2.248 2.135 180.00 0.82788 0.77
6 4 4 1 o 7.097 6.745 0.00 0.82672 2.40
4 6 4 1 o 1.758 1.671 180.00 0.82672 0.59
12 4 2 1 o 0.812 0.794 180.00 0.82303 0.29
4 12 2 1 o 1.309 1.280 0.00 0.82303 0.47
1 15 1 1 o 3.420 3.498 0.00 0.82212 1.23
15 1 1 1 o 0.261 0.267 180.00 0.82212 0.09
6 12 0 1 o 6.177 6.396 180.00 0.82181 1.12
12 6 0 1 o 17.688 18.313 180.00 0.82181 3.20
7 3 4 1 o 1.755 1.819 0.00 0.82179 0.61
3 7 4 1 o 0.092 0.096 0.00 0.82179 0.03
4 10 3 1 o 43.965 46.018 0.00 0.81967 15.79
10 4 3 1 o 13.122 13.735 180.00 0.81967 4.71
9 9 1 1 o 95.993 98.877 180.00 0.81887 35.34
0 9 4 1 o 17.200 17.590 180.00 0.81855 6.13
1 14 2 1 o 1.804 1.830 0.00 0.81816 0.66
14 1 2 1 o 0.848 0.860 0.00 0.81816 0.31
12 1 3 1 o 0.103 0.104 0.00 0.81805 0.04
1 12 3 1 o 0.692 0.700 180.00 0.81805 0.25
8 10 1 1 o 2.007 1.994 0.00 0.81726 0.75
10 8 1 1 o 28.031 27.849 0.00 0.81726 10.44
0 16 0 1 o 0.182 0.178 180.00 0.81537 0.03
8 2 4 1 o 19.242 19.996 180.00 0.81376 7.12
2 8 4 1 o 2.098 2.180 0.00 0.81376 0.78
4 4 4 2 o 93.698 94.876 0.00 0.81659 2.08
11 7 1 1 o 0.076 0.080 180.00 0.81249 0.03
14 3 1 1 o 4.099 4.294 180.00 0.81249 1.59
7 11 1 1 o 2.776 2.908 180.00 0.81249 1.07
3 14 1 1 o 0.927 0.972 0.00 0.81249 0.36
15 2 0 1 o 10.177 9.912 0.00 0.81063 2.01
2 15 0 1 o 9.532 9.284 180.00 0.81063 1.88
5 13 0 1 o 5.274 5.137 0.00 0.81063 1.04
13 5 0 1 o 4.050 3.945 0.00 0.81063 0.80
8 9 2 1 o 1.465 1.356 180.00 0.80868 0.58
13 3 2 1 o 0.375 0.347 180.00 0.80868 0.15
9 8 2 1 o 12.309 11.393 180.00 0.80868 4.90
3 13 2 1 o 1.049 0.970 180.00 0.80868 0.42
3 11 3 1 o 0.880 0.815 180.00 0.80857 0.35
11 3 3 1 o 16.690 15.460 0.00 0.80857 6.58
10 7 2 1 o 0.154 0.150 0.00 0.80559 0.06
7 10 2 1 o 4.122 4.013 180.00 0.80559 1.69
12 6 1 1 o 1.066 1.013 0.00 0.80473 0.45
6 12 1 1 o 5.130 4.874 0.00 0.80473 2.14
1 9 4 1 o 3.478 3.253 180.00 0.80290 1.44
9 1 4 1 o 4.924 4.605 0.00 0.80290 2.03
6 5 4 1 o 0.001 0.001 0.00 0.80290 0.00
5 6 4 1 o 19.072 17.838 180.00 0.80290 7.87
4 7 4 1 o 41.788 42.287 0.00 0.79987 17.93
7 4 4 1 o 39.818 40.294 180.00 0.79987 17.09
11 6 2 1 o 1.936 1.959 0.00 0.79951 0.86
6 11 2 1 o 0.143 0.144 0.00 0.79951 0.06
0 13 3 1 o 10.304 10.424 180.00 0.79941 4.52
7 8 3 1 o 4.031 4.078 180.00 0.79941 1.77
8 7 3 1 o 16.642 16.836 180.00 0.79941 7.30
0 16 1 1 o 5.285 5.327 180.00 0.79867 2.39
4 14 0 1 o 20.288 20.384 180.00 0.79690 4.71
14 4 0 1 o 1.757 1.765 180.00 0.79690 0.41
0 15 2 1 o 9.543 9.587 180.00 0.79653 4.42
6 9 3 1 o 2.256 2.267 0.00 0.79643 1.03
9 6 3 1 o 28.273 28.404 0.00 0.79643 12.96
2 12 3 1 o 2.377 2.386 180.00 0.79495 1.12
12 2 3 1 o 12.642 12.689 0.00 0.79495 5.94
0 0 5 1 o 0.006 0.006 180.00 0.79345 0.00
15 2 1 1 o 7.721 7.720 0.00 0.79422 3.74
2 15 1 1 o 6.326 6.325 0.00 0.79422 3.06
5 13 1 1 o 5.982 5.981 0.00 0.79422 2.90
13 5 1 1 o 0.056 0.056 0.00 0.79422 0.03
8 3 4 1 o 2.429 2.424 0.00 0.79392 1.14
3 8 4 1 o 0.429 0.428 180.00 0.79392 0.20
9 10 0 1 o 13.727 13.615 180.00 0.79248 3.44
10 9 0 1 o 1.117 1.108 180.00 0.79248 0.28
2 14 2 1 o 8.223 8.165 0.00 0.79211 4.11
14 2 2 1 o 27.760 27.566 180.00 0.79211 13.89
0 1 5 1 o 1.243 1.235 0.00 0.79199 0.60
5 12 2 1 o 2.872 2.867 0.00 0.79065 1.48
12 5 2 1 o 1.062 1.059 0.00 0.79065 0.55
16 1 0 1 o 4.453 4.399 0.00 0.78957 1.19
1 16 0 1 o 1.261 1.245 180.00 0.78957 0.34
11 8 0 1 o 40.810 40.317 0.00 0.78957 10.86
8 11 0 1 o 34.280 33.866 0.00 0.78957 9.12
0 10 4 1 o 0.000 0.000 180.00 0.78955 0.00
10 5 3 1 o 0.021 0.021 180.00 0.79056 0.01
5 10 3 1 o 14.424 14.392 180.00 0.79056 7.37
5 5 1 2 o 23.080 22.857 180.00 0.79221 2.06
7 1 1 2 o 23.080 22.857 0.00 0.79221 2.06
1 1 5 1 o 12.205 11.915 180.00 0.78909 6.22
0 2 5 1 o 2.005 1.856 0.00 0.78765 1.06
9 2 4 1 o 2.976 2.862 180.00 0.78525 1.71
2 9 4 1 o 5.008 4.817 180.00 0.78525 2.88
12 7 0 1 o 0.911 0.940 180.00 0.78385 0.28
7 12 0 1 o 0.009 0.009 0.00 0.78385 0.00
1 2 5 1 o 0.000 0.000 180.00 0.78338 0.00
2 1 5 1 o 2.545 2.641 180.00 0.78338 1.52
