#------------------------------------------------------------------------------
#$Date: 2021-07-05 11:24:16 +0300 (Mon, 05 Jul 2021) $
#$Revision: 266982 $
#$URL: file:///home/coder/svn-repositories/cod/cif/1/56/39/1563913.cif $
#------------------------------------------------------------------------------
#
# This file is available in the Crystallography Open Database (COD),
# http://www.crystallography.net/
#
# All data on this site have been placed in the public domain by the
# contributors.
#
data_1563913
loop_
_publ_author_name
'Singh, Puspendra'
'Gupta, Anand K.'
'Sharma, Sagar'
'Singh, Harkesh B.'
'Butcher, Ray J.'
_publ_section_title
;
 Synthesis and characterization of N,N&#x2032;,C-bound organotellurium(IV)
 and organomercury(II) derivatives
;
_journal_name_full               'Inorganica Chimica Acta'
_journal_page_first              218
_journal_page_last               228
_journal_paper_doi               10.1016/j.ica.2018.08.016
_journal_volume                  483
_journal_year                    2018
_chemical_formula_moiety         'C12 H19 Hg N5'
_chemical_formula_sum            'C12 H19 Hg N5'
_chemical_formula_weight         433.91
_space_group_crystal_system      triclinic
_space_group_IT_number           2
_space_group_name_Hall           '-P 1'
_space_group_name_H-M_alt        'P -1'
_atom_sites_solution_hydrogens   geom
_audit_creation_method           SHELXL-2017/1
_cell_angle_alpha                89.764(7)
_cell_angle_beta                 69.016(7)
_cell_angle_gamma                79.020(7)
_cell_formula_units_Z            2
_cell_length_a                   9.2245(7)
_cell_length_b                   9.4152(8)
_cell_length_c                   9.4569(7)
_cell_measurement_reflns_used    2822
_cell_measurement_temperature    296(2)
_cell_measurement_theta_max      75.3560
_cell_measurement_theta_min      4.7580
_cell_volume                     750.98(11)
_computing_cell_refinement       'CrysAlisPro 1.171.38.46 (Rigaku OD, 2015)'
_computing_data_collection       'CrysAlisPro 1.171.38.46 (Rigaku OD, 2015)'
_computing_data_reduction        'CrysAlisPro 1.171.38.46 (Rigaku OD, 2015)'
_computing_molecular_graphics    'SHELXTL (Sheldrick, 2008)'
_computing_publication_material  'SHELXTL (Sheldrick, 2008)'
_computing_structure_refinement  'SHELXL-2017/1 (Sheldrick, 2015)'
_computing_structure_solution    'SHELXT (Sheldrick, 2015)'
_diffrn_ambient_temperature      296(2)
_diffrn_detector_area_resol_mean 10.5081
_diffrn_measured_fraction_theta_full 1.000
_diffrn_measured_fraction_theta_max 0.964
_diffrn_measurement_device_type  'Xcalibur, Ruby, Gemini'
_diffrn_measurement_method       '\w scans'
_diffrn_radiation_type           CuK\a
_diffrn_radiation_wavelength     1.54184
_diffrn_reflns_av_R_equivalents  0.0358
_diffrn_reflns_av_unetI/netI     0.0505
_diffrn_reflns_Laue_measured_fraction_full 1.000
_diffrn_reflns_Laue_measured_fraction_max 0.964
_diffrn_reflns_limit_h_max       6
_diffrn_reflns_limit_h_min       -11
_diffrn_reflns_limit_k_max       11
_diffrn_reflns_limit_k_min       -11
_diffrn_reflns_limit_l_max       11
_diffrn_reflns_limit_l_min       -11
_diffrn_reflns_number            4926
_diffrn_reflns_point_group_measured_fraction_full 1.000
_diffrn_reflns_point_group_measured_fraction_max 0.964
_diffrn_reflns_theta_full        67.684
_diffrn_reflns_theta_max         75.573
_diffrn_reflns_theta_min         4.796
_diffrn_source                   'fine-focus sealed X-ray tube'
_exptl_absorpt_coefficient_mu    18.311
_exptl_absorpt_correction_T_max  0.510
_exptl_absorpt_correction_T_min  0.062
_exptl_absorpt_correction_type   analytical
_exptl_absorpt_process_details
;
CrysAlisPro 1.171.38.46 (Rigaku Oxford Diffraction, 2015)
Analytical numeric absorption correction using a multifaceted crystal
model based on expressions derived by R.C. Clark & J.S. Reid.
(Clark, R. C. & Reid, J. S. (1995). Acta Cryst. A51, 887-897)
Empirical absorption correction using spherical harmonics,
 implemented in SCALE3 ABSPACK scaling algorithm.
;
_exptl_crystal_colour            colorless
_exptl_crystal_density_diffrn    1.919
_exptl_crystal_description       plate
_exptl_crystal_F_000             412
_exptl_crystal_size_max          0.638
_exptl_crystal_size_mid          0.129
_exptl_crystal_size_min          0.044
_refine_diff_density_max         0.898
_refine_diff_density_min         -0.802
_refine_diff_density_rms         0.116
_refine_ls_extinction_coef       .
_refine_ls_extinction_method     none
_refine_ls_goodness_of_fit_ref   1.030
_refine_ls_hydrogen_treatment    constr
_refine_ls_matrix_type           full
_refine_ls_number_parameters     166
_refine_ls_number_reflns         3012
_refine_ls_number_restraints     0
_refine_ls_restrained_S_all      1.030
_refine_ls_R_factor_all          0.0415
_refine_ls_R_factor_gt           0.0333
_refine_ls_shift/su_max          0.000
_refine_ls_shift/su_mean         0.000
_refine_ls_structure_factor_coef Fsqd
_refine_ls_weighting_details
'w=1/[\s^2^(Fo^2^)+(0.0256P)^2^] where P=(Fo^2^+2Fc^2^)/3'
_refine_ls_weighting_scheme      calc
_refine_ls_wR_factor_gt          0.0729
_refine_ls_wR_factor_ref         0.0782
_reflns_Friedel_coverage         0.000
_reflns_Friedel_fraction_full    .
_reflns_Friedel_fraction_max     .
_reflns_number_gt                2615
_reflns_number_total             3012
_reflns_threshold_expression     'I > 2\s(I)'
_cod_data_source_file            ICA-2018-483-218.cif
_cod_data_source_block           33
_cod_original_cell_volume        750.99(11)
_cod_database_code               1563913
_shelx_shelxl_version_number     2017/1
_shelx_space_group_comment
;
The symmetry employed for this shelxl refinement is uniquely defined
by the following loop, which should always be used as a source of
symmetry information in preference to the above space-group names.
They are only intended as comments.
;
_shelx_res_file
;
TITL shelxt_a.res in P-1
    shelx.res
    created by SHELXL-2017/1 at 17:07:27 on 22-Dec-2017
CELL  1.54184   9.2245   9.4152   9.4569   89.764   69.016   79.020
ZERR     2.00   0.0007   0.0008   0.0007    0.007    0.007    0.007
LATT   1
SFAC  C    H    N    HG
UNIT  24 38 10 2
temp 23
L.S.  15
acta
conf
bond $h
htab
WGHT    0.025600
FVAR       0.99901
HG    4    0.660039    0.551223    0.572362    11.00000    0.06433    0.05365 =
         0.06714   -0.00150   -0.02292   -0.01546
N1    3    0.739010    0.673324    0.779618    11.00000    0.06317    0.06525 =
         0.06438    0.00226   -0.02925   -0.00014
N2    3    0.421820    0.767246    0.738437    11.00000    0.05964    0.06377 =
         0.06000    0.00870   -0.02126   -0.00864
N3    3    0.509600    0.407380    0.675171    11.00000    0.08144    0.06199 =
         0.13864    0.01424   -0.03099   -0.03953
N4    3    0.548137    0.300056    0.710137    11.00000    0.07635    0.06933 =
         0.07240    0.00436   -0.02848   -0.02792
N5    3    0.572599    0.184549    0.754087    11.00000    0.12446    0.08880 =
         0.11898    0.03260   -0.05690   -0.04046
C1    1    0.823084    0.670638    0.449975    11.00000    0.05574    0.05115 =
         0.07225    0.00081   -0.01385   -0.00707
C2    1    0.842157    0.700646    0.299939    11.00000    0.05760    0.08803 =
         0.07131    0.00096   -0.01262   -0.01268
AFIX  43
H2A   2    0.782254    0.665135    0.252717    11.00000   -1.20000
AFIX   0
C3    1    0.951329    0.783955    0.221895    11.00000    0.07346    0.10335 =
         0.08272    0.02308    0.00218   -0.00050
AFIX  43
H3A   2    0.965027    0.804052    0.122086    11.00000   -1.20000
AFIX   0
C4    1    1.038973    0.836494    0.293121    11.00000    0.07065    0.09191 =
         0.13036    0.02895   -0.01449   -0.02641
AFIX  43
H4A   2    1.112235    0.891895    0.241089    11.00000   -1.20000
AFIX   0
C5    1    1.018525    0.807280    0.441256    11.00000    0.06510    0.08116 =
         0.12927    0.00952   -0.03356   -0.01911
AFIX  43
H5A   2    1.077977    0.843629    0.488431    11.00000   -1.20000
AFIX   0
C6    1    0.910607    0.724515    0.520703    11.00000    0.05832    0.05701 =
         0.08948    0.00237   -0.02679   -0.01285
C7    1    0.895996    0.688134    0.680777    11.00000    0.06523    0.07561 =
         0.10355   -0.00756   -0.04309   -0.00440
AFIX  23
H7A   2    0.969703    0.598034    0.675545    11.00000   -1.20000
H7B   2    0.927553    0.763538    0.725887    11.00000   -1.20000
AFIX   0
C8    1    0.744345    0.587571    0.909765    11.00000    0.12192    0.10308 =
         0.09126    0.02044   -0.04940    0.00614
AFIX 137
H8A   2    0.809555    0.623021    0.955279    11.00000   -1.50000
H8B   2    0.787976    0.487468    0.875014    11.00000   -1.50000
H8C   2    0.638965    0.596585    0.983446    11.00000   -1.50000
AFIX   0
C9    1    0.632107    0.814966    0.828023    11.00000    0.07944    0.06364 =
         0.07546   -0.01315   -0.03538   -0.00201
AFIX  23
H9A   2    0.660282    0.879575    0.746807    11.00000   -1.20000
H9B   2    0.645483    0.856156    0.915314    11.00000   -1.20000
AFIX   0
C10   1    0.459284    0.805058    0.869313    11.00000    0.07452    0.07397 =
         0.06663   -0.01066   -0.02409   -0.00215
AFIX  23
H10A  2    0.434605    0.732639    0.942739    11.00000   -1.20000
H10B  2    0.392636    0.897574    0.917032    11.00000   -1.20000
AFIX   0
C11   1    0.423413    0.887619    0.638939    11.00000    0.10001    0.07358 =
         0.08220    0.02039   -0.04204   -0.00182
AFIX 137
H11A  2    0.351856    0.972842    0.696714    11.00000   -1.50000
H11B  2    0.390732    0.862193    0.558409    11.00000   -1.50000
H11C  2    0.528691    0.906493    0.596666    11.00000   -1.50000
AFIX   0
C12   1    0.268303    0.726106    0.790363    11.00000    0.05994    0.09946 =
         0.09628    0.01047   -0.01830   -0.02022
AFIX 137
H12A  2    0.187944    0.807224    0.846727    11.00000   -1.50000
H12B  2    0.269470    0.646784    0.854322    11.00000   -1.50000
H12C  2    0.245937    0.697096    0.704392    11.00000   -1.50000
 
AFIX   0
HKLF    4
 
 
 
 
REM  shelxt_a.res in P-1
REM R1 =  0.0333 for    2615 Fo > 4sig(Fo)  and  0.0415 for all    3012 data
REM    166 parameters refined using      0 restraints
 
END
 
WGHT      0.0255      0.0000
 
REM No hydrogen bonds found for HTAB generation
 
REM Highest difference peak  0.898,  deepest hole -0.802,  1-sigma level  0.116
Q1    1   0.7079  0.5581  0.4865  11.00000  0.05    0.90
Q2    1   0.5707  0.3739  0.5804  11.00000  0.05    0.59
Q3    1   1.1772  0.5577  0.6213  11.00000  0.05    0.51
Q4    1   0.7096  0.5284  0.6163  11.00000  0.05    0.49
Q5    1   0.6575  0.4818  0.5420  11.00000  0.05    0.46
Q6    1   0.6542  0.6420  0.5403  11.00000  0.05    0.45
Q7    1   0.4865  0.6478  0.7683  11.00000  0.05    0.44
Q8    1   0.4955  0.4611  0.6472  11.00000  0.05    0.41
Q9    1   0.5540  0.4038  0.7328  11.00000  0.05    0.41
Q10   1   0.9837  0.5182  0.5701  11.00000  0.05    0.41
Q11   1   1.1672  0.6523  0.4261  11.00000  0.05    0.37
Q12   1   0.7055  0.5818  0.7424  11.00000  0.05    0.36
Q13   1   0.3891  0.8026  0.7199  11.00000  0.05    0.35
Q14   1   0.4500  1.1305  0.6448  11.00000  0.05    0.35
Q15   1   0.4527  0.3874  0.7055  11.00000  0.05    0.35
Q16   1   0.6766  0.4217  0.6342  11.00000  0.05    0.35
Q17   1   0.6797  0.3272  0.5915  11.00000  0.05    0.34
Q18   1   0.4181  0.5245  0.6560  11.00000  0.05    0.34
Q19   1   1.1615  0.7329  0.3428  11.00000  0.05    0.34
Q20   1   0.3850  0.5958  0.5764  11.00000  0.05    0.33
;
_shelx_res_checksum              79175
_shelx_hkl_file
;
   0   0  -124831.00  163.52   2
   0   0   123380.23  214.00   3
   0   0  -2  285.31   22.97   2
   0   0   2  236.10   29.82   3
   0   0  -3  646.24   35.66   2
   0   0   3  655.53   50.59   3
   0   0   4   39.88   18.56   3
   0   0   5 1356.43   79.31   3
   0   0   6 2916.75  132.47   1
   0   0  -7 1904.32   83.77  13
   0   0   7 2036.26  118.23   1
   0   0  -8  670.45   52.43  13
   0   0  -9  169.10   27.14  13
   0   0   9  194.66   34.71  19
   0   0  10  -12.96   10.41  19
   0   0 -10    4.75   10.43  13
   0   0 -11   16.05    5.60  13
   0  -1  11   -6.20    2.73  19
   0   1 -11   -7.00    4.82  13
   0  -1  10   40.57   15.18  19
   0   1 -10   26.99   12.33  13
   0   1  -9  250.35   30.81  13
   0   1  -8  858.87   58.14  13
   0  -1   7 1867.00   93.86  20
   0  -1   7 1902.75  117.96   1
   0  -1   6 2331.04  120.93   1
   0  -1   5  903.95   72.92   1
   0  -1   4  254.71   40.51   1
   0  -1   3 3380.55  118.35   1
   0  -1   2 5111.58  109.67   1
   0  -1   118945.44  135.95   1
   0   1   021544.13  107.53   4
   0  -1   022381.63  122.95   1
   0  -1  -1 6962.21   80.87   2
   0  -1  -2 6315.40   96.17   2
   0  -1  -3  759.91   43.81   2
   0   1   3  742.25   57.43   3
   0  -1  -4 3028.90   89.45   2
   0   1   4 2972.85  122.68   3
   0   1   5 2532.59  118.76   3
   0   1   6 2858.58  130.69   3
   0   1   7 1308.65  101.56   1
   0  -1  -7 1306.01   73.08  13
   0   1   8  566.19   55.51  19
   0  -1  -8  608.27   49.62  13
   0  -1  -9   80.09   18.16  13
   0   1   9   64.30   21.95  19
   0   1  10    6.63   11.56  19
   0  -1 -10   24.05   11.15  13
   0   2 -11   14.37    5.53  13
   0  -2  10  128.37   24.39  19
   0   2 -10  137.01   20.58  13
   0   2  -9  396.20   38.31  13
   0  -2   8  686.19   61.78  20
   0   2  -8  638.58   50.42  13
   0  -2   7 1139.07   97.43   1
   0  -2   7 1227.88   77.39  20
   0  -2   6  815.52   80.26   1
   0  -2   5   32.86   18.20   1
   0  -2   4  173.31   37.91   1
   0  -2   3 2891.50  106.05   1
   0  -2   217914.97  196.48   1
   0   2  -111960.16  116.32   4
   0  -2   111945.87  128.19   1
   0  -2   0  259.08   18.42   1
   0   2   0  239.81   15.81   4
   0  -2  -1 2203.32   61.01   2
   0  -2  -2 2763.62   74.66   2
   0  -2  -3 2312.79   79.15   2
   0  -2  -4 9121.00  181.99   2
   0   2   4 8108.62  218.88   3
   0   2   5 6584.53  214.25   3
   0   2   6 2185.43  128.34   3
   0  -2  -7  645.07   54.72  13
   0   2   7  645.29   60.99  19
   0   2   8  201.38   35.54  19
   0  -2  -8  203.20   30.40  13
   0   2   9   -9.98   14.42  19
   0  -2  -9   15.60   13.47  13
   0  -2 -10   78.23   16.12  13
   0   3 -10  197.15   22.36  13
   0   3  -9  399.48   37.86  13
   0  -3   8  380.42   47.69  20
   0  -3   7  662.36   75.65   1
   0   3  -7  606.64   65.04   4
   0  -3   7  590.40   61.76  20
   0   3  -6  194.20   36.64   4
   0  -3   6  142.27   43.31   1
   0  -3   5  168.92   36.29   1
   0   3  -4 1612.82   96.27   4
   0  -3   4 1611.69  100.57   1
   0  -3   311430.30  210.53   1
   0   3  -311013.50  195.45   4
   0  -3   211393.76  171.88   1
   0   3  -210985.34  154.95   4
   0  -3   1 7316.52  123.98   1
   0   3  -1 7535.61  111.13   4
   0   3   0 5037.85   86.62   4
   0  -3   0 5238.66  119.72   2
   0  -3  -1  109.71   19.48   2
   0  -3  -2 1178.08   58.56   2
   0  -3  -3 4153.00  117.71   2
   0  -3  -4 6638.33  171.09   2
   0   3   5 4533.13  195.83   3
   0   3   6 1808.57  101.04  19
   0  -3  -6 1619.51   93.66  13
   0   3   6 1781.16  130.53   3
   0  -3  -7  371.39   45.84  13
   0   3   7  369.21   47.23  19
   0  -3  -8  -11.93   16.11  13
   0   3   8   -6.21    9.07  19
   0  -3  -9   92.05   19.86  13
   0   3   9   89.25   23.34  19
   0  -3 -10   73.03   14.10  13
   0   4 -10  110.77   17.34  13
   0   4  -9  281.33   32.25  13
   0  -4   8  363.21   48.23  20
   0  -4   7  107.86   35.73  20
   0  -4   6  126.36   37.29  20
   0   4  -6  118.47   32.28   4
   0  -4   6  141.15   36.76   1
   0  -4   5  795.37   85.50   1
   0   4  -5  804.63   79.89   4
   0   4  -4 4355.44  156.16   4
   0  -4   4 4319.51  166.53   1
   0  -4   310227.70  212.79   1
   0   4  -310327.86  196.53   4
   0  -4   2 4777.39  128.88   1
   0   4  -2 5018.88  118.15   4
   0   4  -1 3380.95   86.61   4
   0  -4   1 3131.10   95.65   1
   0  -4   1 3394.05  128.33   2
   0   4   0  747.15   41.31   4
   0  -4   0  760.74   56.41   2
   0  -4  -1  121.30   22.98   2
   0  -4  -2 2351.90   95.16   2
   0  -4  -3 5443.71  153.21   2
   0  -4  -4 3758.24  147.00   2
   0   4   5 2115.46  143.41   3
   0  -4  -6 1207.29   86.01  13
   0   4   6 1230.07  126.79   3
   0   4   6 1154.25   88.44  19
   0   4   7   82.47   21.33  19
   0  -4  -7   85.82   24.77  13
   0  -4  -8  100.39   21.12  13
   0  -4  -9  138.98   21.43  13
   0  -4 -10  105.23   13.40  13
   0   5 -10   82.83   13.13  13
   0  -5   9  116.09   23.97  20
   0  -5   8  150.18   28.83  20
   0  -5   7   -9.31    9.62  20
   0  -5   6  567.78   92.98   1
   0  -5   6  502.96   67.38  20
   0   5  -6  608.45   93.54   4
   0  -5   5 1959.43  146.42   1
   0   5  -5 2163.87  142.05   4
   0  -5   5 2169.01  124.23  20
   0  -5   4 3655.61  165.74   1
   0   5  -4 3876.43  156.17   4
   0  -5   4 3921.94  155.75   2
   0  -5   3 3762.92  142.88   1
   0   5  -3 3970.27  132.55   4
   0  -5   2 4226.31  135.45   1
   0  -5   2 4553.67  187.95   2
   0   5  -1 2545.79   86.92   4
   0  -5   1 2489.12  126.78   2
   0  -5   0   27.65   15.62   2
   0   5   0   35.71   10.79   4
   0  -5  -1  990.97   71.07   2
   0  -5  -2 4455.28  151.04   2
   0  -5  -3 5628.49  178.35   2
   0  -5  -4 2891.32  147.39   2
   0  -5  -5 1534.74  101.98  14
   0  -5  -5 1585.95   98.17  13
   0   5   5 1546.09  137.33   3
   0  -5  -6  210.53   38.37  13
   0  -5  -7    8.45   13.29  13
   0  -5  -8  102.52   20.58  13
   0  -5  -9  136.72   18.41  13
   0  -6   9   46.85   14.38  20
   0  -6   8   18.19    8.98  20
   0  -6   7   37.23   21.28  20
   0  -6   6  312.48   52.94  20
   0  -6   5 1415.23  103.07  20
   0  -6   5 1463.10  138.44   1
   0  -6   4 3270.59  159.33   2
   0  -6   4 3036.24  122.23  16
   0  -6   4 2946.57  161.85   1
   0  -6   4 3353.56  139.49  20
   0  -6   3 2845.41  169.99   2
   0  -6   3 3017.33  144.12   1
   0  -6   2 1204.37  109.28   2
   0  -6   1   70.78   23.67   2
   0  -6   0  298.33   49.37   2
   0  -6  -1 2218.84  120.04   2
   0  -6  -2 4547.40  174.20   2
   0  -6  -3 2964.22  148.44   2
   0  -6  -3 2998.50  111.11  13
   0  -6  -4 1848.39  117.34  14
   0  -6  -4 1784.05   94.43  13
   0  -6  -5  463.15   56.64  13
   0  -6  -5  512.99   62.69  14
   0  -6  -6   -8.46   13.14  13
   0  -6  -6   11.40   15.95  14
   0  -6  -7   56.27   20.25  13
   0  -6  -8  107.82   19.39  13
   0   7  -9   23.24    7.58  13
   0  -7   8    4.33    3.93  11
   0  -7   8   -4.73    7.92  20
   0  -7   7  142.73   32.22  20
   0  -7   6  290.50   47.14  20
   0  -7   5  497.29   68.02  20
   0  -7   4 1241.32   92.78  20
   0  -7   4 1242.08   85.52  16
   0  -7   3  857.77  100.07   2
   0  -7   3 1043.68   70.26  16
   0  -7   2   47.45   20.03  16
   0  -7   2   48.97   48.64   2
   0  -7   1  312.74   32.68  16
   0  -7   1  346.42   55.73   2
   0  -7   0 1367.08   75.86  13
   0  -7   0 1451.24  115.65   2
   0  -7  -1 2509.68   98.15  13
   0  -7  -1 2446.30  140.06   2
   0  -7  -2 1927.97   90.21  13
   0  -7  -2 1999.08  129.12   2
   0  -7  -3 1213.25   77.14  13
   0  -7  -4  606.96   59.19  13
   0  -7  -5    7.04   19.25  13
   0  -7  -6   41.00   17.47  13
   0  -7  -7  153.88   24.55  13
   0  -7  -8  203.16   19.67  13
   0  -8   8   34.08    8.36  20
   0  -8   7  165.78   28.86  20
   0  -8   6  373.11   58.01  17
   0  -8   6  388.76   52.53  20
   0  -8   5  428.76   57.19  20
   0  -8   4  245.56   42.23  20
   0  -8   4  232.32   38.30  16
   0  -8   3   25.46   13.84  16
   0  -8   2   17.22   16.17  16
   0  -8   1  259.18   36.87  16
   0  -8   0 1906.86   92.47  13
   0  -8   0 1792.25   88.05  16
   0  -8  -1 2065.53   96.30  13
   0  -8  -2 1269.27   78.36  13
   0  -8  -3  503.71   54.65  13
   0  -8  -4   10.61   18.10  13
   0  -8  -5   11.71    9.57  13
   0  -8  -6  121.09   21.16  13
   0  -8  -7  255.13   24.16  13
   0  -9   7  110.59   17.00  11
   0  -9   7   83.91   14.16  20
   0  -9   6  262.99   39.45  17
   0  -9   6  303.10   40.59  20
   0  -9   5  411.15   53.83  20
   0  -9   4  185.22   33.02  20
   0  -9   4  100.70   24.08  16
   0  -9   3   12.39   15.11  16
   0  -9   3  -15.95   14.09  20
   0  -9   2   63.44   18.09  16
   0  -9   1  511.79   50.64  16
   0  -9   0  965.29   66.57  16
   0  -9  -1 1060.08   70.25  16
   0  -9  -2  687.93   58.12  13
   0  -9  -3   91.70   25.33  13
   0  -9  -4  -22.71   19.64  13
   0  -9  -5   56.00   18.34  13
   0  -9  -6  171.71   21.12  13
   0 -10   6   96.90   17.32  11
   0 -10   5  102.30   20.60  11
   0 -10   5   78.80   18.16  17
   0 -10   5   86.08   19.63  20
   0 -10   4   13.71   21.38  20
   0 -10   3    9.15   17.36  20
   0 -10   3   -3.24   11.42  16
   0 -10   2  246.00   37.19  16
   0 -10   1  545.64   51.90  16
   0 -10   0  455.39   45.86  16
   0 -10  -1  360.11   42.07  16
   0 -10  -2  206.15   33.28  16
   0 -10  -3    9.03   16.85  16
   0 -10  -4   31.51    9.17  16
   0  10   4   24.90   12.14  15
   0 -11   3   53.48   14.20  20
   0 -11   2  195.61   30.11  16
   0  11  -2  184.68   27.29  15
   0 -11   2  173.66   29.39  20
   0 -11   1  349.65   41.02  20
   0 -11   1  360.73   35.27  16
   0  11  -1  280.95   38.41  15
   0 -11   0  277.87   33.42  16
   0 -11  -1  130.02   22.68  16
   0 -11  -2   39.45   11.61  16
   0  11   2   13.19   15.63  15
  -1  11   1  225.48   28.98  15
   1 -11   0  185.98   22.86  16
  -1  11   0  153.76   25.50  15
   1 -11   1   64.49   14.91  20
  -1  11  -1   53.19   16.21  15
   1 -11   1   53.40   13.03  16
  -1  11  -2   13.68    7.56  15
   1 -11   2   18.45   13.40  20
   1 -11   3   39.00   12.65  20
  -1  10   3  280.91   34.34  15
   1 -10  -3  225.34   32.67  16
   1 -10  -2  413.77   41.29  16
   1 -10  -1  361.87   37.65  16
   1 -10   0  189.08   29.91  16
   1 -10   1   35.01   14.29  16
  -1  10  -2   25.87   23.22  15
   1 -10   2   26.12    9.71  16
   1 -10   3  183.77   36.75  20
   1 -10   3  153.96   29.46  16
  -1  10  -3  124.68   22.14  15
   1 -10   4  190.09   32.76  20
   1 -10   5  165.56   28.19  20
   1 -10   6   88.14   18.58  11
   1  -9  -5   85.14   18.19  13
   1  -9  -5   50.29   14.73  16
   1  -9  -4  249.95   37.58  13
   1  -9  -3  416.73   49.62  13
   1  -9  -2  647.14   57.20  13
   1  -9  -2  649.12   58.28  16
   1  -9  -1  459.80   47.45  16
   1  -9   0  120.24   27.15  16
   1  -9   1   46.45   15.84  16
   1  -9   2  275.75   36.64  16
   1  -9   3  323.94   44.02  16
   1  -9   4  341.91   45.78  16
   1  -9   4  420.62   53.64  20
   1  -9   5  269.34   45.23  20
   1  -9   6   57.78   16.29  20
   1  -9   7  -12.08   11.40  11
   1  -9   7    0.53    5.90  20
   1  -8  -6   44.58   16.89  13
   1  -8  -5  342.41   43.00  13
   1  -8  -4  594.84   62.77  13
   1  -8  -3  856.09   69.54  13
   1  -8  -2  774.45   63.86  13
   1  -8  -1  391.36   44.16  13
   1  -8   0    2.95    5.30  13
   1  -8   0  -36.82   18.92  16
   1  -8   1  757.89   55.82  16
   1  -8   2  827.89   65.33  16
   1  -8   3  817.43   64.65  16
   1  -8   4  835.04   73.65  16
   1  -8   4  876.76   75.92  20
   1  -8   5  289.64   49.62  20
   1  -8   6   22.92   16.86  20
   1  -8   7   -6.71   15.63  20
   1  -8   8   15.97   15.37  11
   1  -8   8   40.57   13.89  20
   1  -7  -7   33.67   13.49  13
   1  -7  -6  230.93   35.45  13
   1  -7  -5  640.38   65.01  13
   1  -7  -4 1143.88   84.01  13
   1  -7  -3 1195.32   79.90  13
   1  -7  -2  563.09   51.86  13
   1  -7  -1   21.01    8.65  13
   1  -7  -1   15.53   19.41   2
   1  -7   0  532.67   47.92  13
   1  -7   0  549.15   66.00   2
   1  -7   1 1288.73   69.24  16
   1  -7   1 1294.64  112.56   2
   1  -7   1 1289.69   72.09  13
   1  -7   2 1687.09  137.25   2
   1  -7   2 1606.79   82.56  16
   1  -7   3 2387.11  172.46   2
   1  -7   3 2555.93  108.91  16
   1  -7   4 1239.49   83.87  16
   1  -7   5  204.93   47.53  20
   1  -7   5  257.92   47.18  16
   1  -7   6   53.55   31.09  20
   1  -7   7   51.23   22.32  20
   1  -7   8  114.13   24.61  20
   1  -7   9   97.94   19.35  20
   1  -6  -8  -18.29   11.65  13
   1  -6  -7  139.72   25.59  13
   1  -6  -6  504.21   52.96  13
   1  -6  -5  949.63   82.85  13
   1  -6  -4 1122.38   81.04  13
  -1   6   4 1202.53   90.93  17
   1  -6  -3 1209.54   75.97  13
  -1   6   3 1237.84   93.20  17
   1  -6  -2  297.18   43.62   2
   1  -6  -2  300.32   33.39  13
   1  -6  -1  392.43   52.12   2
   1  -6   0 1178.05   89.77   2
   1  -6   1 1736.19  113.76   2
  -1   6  -1 2067.70  100.43   4
  -1   6  -2 4748.38  152.25   4
   1  -6   2 4168.19  192.58   2
   1  -6   3 3834.33  201.42   2
  -1   6  -3 4627.05  163.65   4
   1  -6   4  834.29   86.93   2
  -1   6  -4  933.74   84.35   4
   1  -6   4  878.71   69.01  16
   1  -6   4  846.65   87.73   1
   1  -6   5    3.48   26.32  16
   1  -6   5   52.81   19.39  20
  -1   6  -5   18.11   29.30   4
   1  -6   5   47.91   43.27   1
   1  -6   6   86.22   33.07  20
   1  -6   7  209.57   44.38  20
   1  -6   8  205.99   36.23  20
   1  -6   9  203.27   28.01  20
  -1   6 -10   37.65    9.24  13
   1  -5  -9    4.90    5.59  13
   1  -5  -8   28.80   14.57  13
   1  -5  -7  305.59   38.29  13
   1  -5  -6  923.69   76.40  13
  -1   5   5 1838.15  105.35  17
   1  -5  -5 1667.02  106.31  13
  -1   5   4 1446.38  129.56   3
  -1   5   4 1533.31  102.98  17
   1  -5  -4 1468.85   91.01  13
   1  -5  -3  720.03   66.93   2
   1  -5  -2  185.80   33.77   2
   1  -5  -1 1341.60   82.18   2
  -1   5   0 2791.02  104.40   4
   1  -5   0 2555.57  115.36   2
  -1   5  -1 6799.13  154.34   4
   1  -5   1 6611.27  197.43   2
  -1   5  -2 5982.48  154.16   4
   1  -5   3 1848.78   96.80   1
  -1   5  -3 1974.30   99.17   4
   1  -5   4  234.73   42.40   1
  -1   5  -4  215.64   37.63   4
   1  -5   5   -0.26   12.37   1
  -1   5  -5    6.65   11.63   4
   1  -5   5   -1.80   19.52  16
   1  -5   6  371.82   77.86   1
   1  -5   6  490.60   66.88  20
   1  -5   7  567.47   70.22  20
   1  -5   8  439.64   54.59  20
   1  -5   9  216.96   34.16  20
  -1   5 -10   41.03   11.08  13
   1  -4  -9    1.73    7.42  13
   1  -4  -8  170.81   26.05  13
   1  -4  -7  665.22   57.01  13
   1  -4  -6 1489.92   93.77  13
  -1   4   5 1908.05  107.31  17
  -1   4   5 1795.41  112.85  19
   1  -4  -5 1807.93  105.08  13
  -1   4   5 1721.47  149.05   3
  -1   4   4 1116.55  101.23   3
   1  -4  -3    2.91    5.75   2
   1  -4  -2 1644.06   79.83   2
   1  -4  -1 1083.93   66.47   2
   1  -4   0 5687.32  149.38   2
  -1   4   0 5540.83  124.74   4
  -1   4  -1 9449.25  159.67   4
  -1   4  -2 4010.64  115.35   4
   1  -4   2 3677.80  108.69   1
   1  -4   3  992.73   65.33   1
  -1   4  -3 1010.24   66.18   4
   1  -4   4  -16.05    9.66   1
  -1   4  -4   26.25   21.15   4
  -1   4  -5  329.05   52.82   4
   1  -4   5  367.39   54.72   1
   1  -4   6 1097.69   95.35  20
  -1   4  -6 1246.01  116.91   4
   1  -4   6 1090.89  112.41   1
   1  -4   7 1277.68   89.20  20
   1  -4   8  696.67   62.94  20
   1  -4   9  161.33   29.74  20
  -1   4 -10   29.67   11.66  13
   1  -3 -10   -1.96    6.35  13
   1  -3  -9  101.50   19.56  13
   1  -3  -8  415.41   40.18  13
  -1   3   8  412.31   47.30  19
  -1   3   7  982.64   75.11  19
   1  -3  -7  940.32   67.44  13
   1  -3  -6 1216.35   81.07  13
  -1   3   6 1259.89  117.52   3
  -1   3   6 1228.70   87.11  19
  -1   3   5 1097.11  106.98   3
  -1   3   4  191.08   43.69   3
   1  -3  -3  694.68   46.53   2
   1  -3  -2 3334.14   95.67   2
   1  -3  -1 9405.26  158.15   2
  -1   3   015156.23  176.97   4
   1  -3   1 4765.74   96.76   1
  -1   3  -1 4853.26  102.50   4
  -1   3  -2 4080.76  103.39   4
   1  -3   2 4011.47   98.62   1
   1  -3   3  715.80   49.77   1
  -1   3  -3  682.98   49.72   4
  -1   3  -4  848.05   67.74   4
   1  -3   4  794.30   65.63   1
  -1   3  -5 1959.75  122.65   4
   1  -3   5 2189.65  129.75   1
  -1   3  -6 3053.33  160.82   4
   1  -3   6 3034.59  163.60   1
  -1   3  -7 1493.77  109.40   4
   1  -3   7 1532.67  125.63   1
   1  -3   7 1562.99   92.97  20
   1  -3   8  345.13   46.68  20
   1  -3   9  101.77   25.37  20
  -1   3  -9  125.23   21.56  13
  -1   3 -10   10.79    6.91  13
  -1   3 -11   22.47    6.51  13
   1  -3  11    9.12    9.10  19
   1  -2 -10   32.64    8.69  13
   1  -2  -9  279.09   29.84  13
  -1   2   9  272.28   35.69  19
  -1   2   8  762.53   62.04  19
   1  -2  -8  707.61   54.21  13
  -1   2   7  858.10   66.91  19
   1  -2  -7  851.40   62.59  13
  -1   2   6  917.43   73.60  19
  -1   2   6  848.35   93.13   3
   1  -2  -6  803.27   62.35  13
  -1   2   5  392.24   60.01   3
  -1   2   4   74.35   27.43   3
  -1   2   3 2394.27  115.80   3
   1  -2  -3 2599.05   76.43   2
   1  -2  -212924.88  152.44   2
   1  -2  -132633.94  239.36   2
  -1   2   023584.85  188.13   4
  -1   2  -1 5322.99   92.19   4
   1  -2   1 5252.26   81.54   1
   1  -2   2 1609.15   53.06   1
  -1   2  -2 1635.72   57.43   4
  -1   2  -3  714.79   48.39   4
   1  -2   3  711.26   46.54   1
   1  -2   4 1393.35   84.30   1
   1  -2   5 2930.42  141.73   1
   1  -2   6 3793.97  161.85   1
  -1   2  -7 1092.46   87.37   4
   1  -2   7 1213.09  101.20   1
   1  -2   7 1250.81   82.26  20
   1  -2   8  442.76   51.24  20
  -1   2  -9   66.78   18.91  13
  -1   2 -10    2.44    7.62  13
  -1   2 -11   53.75   10.66  13
   1  -2  11   36.49   12.43  19
   1  -1 -10   64.48   13.53  13
   1  -1  -9  399.60   36.56  13
  -1   1   9  439.72   43.84  19
  -1   1   8  750.04   62.51  19
   1  -1  -8  705.02   53.55  13
  -1   1   7  858.22   69.28  19
   1  -1  -7  765.51   56.83  13
  -1   1   6  545.88   65.34   3
   1  -1  -6  510.06   46.51  13
  -1   1   5   12.16   15.42   3
  -1   1   4  717.59   70.02   3
  -1   1   3 6261.56  184.29   3
   1  -1  -3 6523.33  102.04   2
   1  -1  -215343.75  125.04   2
  -1   1   214948.69  237.76   3
   1  -1  -113771.67  113.58   2
  -1   1   013361.06   78.80   6
  -1   1   013248.00  113.11   4
   1  -1   1 6485.65   65.49   1
  -1   1  -1 6457.97   82.96   4
   1  -1   2   38.39   10.08   1
   1  -1   3 2190.12   84.72   1
   1  -1   4 2242.96  104.84   1
   1  -1   5 4610.05  155.53   1
   1  -1   6 2991.62  132.91   1
   1  -1   7 1178.70   94.06   1
   1  -1   7 1280.73   78.66  20
   1  -1   8  341.71   42.10  20
  -1   1  -8  338.46   36.44  13
  -1   1  -9   11.23   10.33  13
  -1   1 -10  114.46   20.88  13
   1  -1  11   87.28   17.40  19
  -1   1 -11  107.76   13.86  13
  -1   0  10  151.52   24.28  19
   1   0 -10  160.21   20.74  13
   1   0  -9  346.02   33.70  13
  -1   0   9  338.80   42.29  19
  -1   0   8  399.86   47.19  19
   1   0  -8  388.56   40.68  13
   1   0  -7  513.76   44.87  13
  -1   0   6  144.08   34.10   1
  -1   0   5  362.14   49.93   3
  -1   0   5  397.10   49.87   1
  -1   0   4 2555.40  112.73   3
  -1   0   3 8030.57  190.81   3
  -1   0   2 6910.75  166.01   3
  -1   0   1 9279.48  173.41   3
  -1   0   1 8747.95   79.26   5
  -1   0   0 9937.89  150.81   3
  -1   0   0 9578.83  101.55   2
  -1   0   0 9342.73   74.70   4
  -1   0  -1  335.51   30.95   2
  -1   0  -1  324.41   15.22   4
   1   0   2 3685.39   74.03   3
  -1   0  -2 3882.14  106.52   2
  -1   0  -3 9680.13  172.31   2
   1   0   3 9108.09  151.52   3
  -1   0  -4 9959.30  177.40   2
   1   0   410207.87  179.56   3
   1   0   5 6838.67  158.34   3
   1   0   6 2588.29  121.55   1
   1   0   7  669.55   68.93   1
   1   0   7  583.31   52.56  20
  -1   0  -7  579.09   46.56  13
  -1   0  -8    0.70   11.80  13
  -1   0  -9  147.53   25.16  13
   1   0  10  136.46   25.59  19
  -1   0 -10  144.79   21.71  13
  -1   0 -11  108.48   15.27  13
   1   0  11  108.65   19.04  19
   1   1 -10  195.32   22.12  13
  -1  -1  10  182.61   25.79  19
   1   1  -9  256.20   30.47  13
  -1  -1   9  242.49   36.98  19
   1   1  -8  245.64   31.71  13
   1   1  -7  261.69   33.78  13
  -1  -1   6   17.86   19.95   1
  -1  -1   5 1544.30   96.59   1
  -1  -1   4 6573.62  185.67   1
  -1  -1   310147.85  214.77   3
  -1  -1   3 9854.49  216.71   1
  -1  -1   2 5926.79   82.11   2
  -1  -1   2 6124.85  140.57   1
  -1  -1   111856.33  105.79   2
  -1  -1   112105.10  133.91   1
  -1  -1   0  144.21   14.89   2
  -1  -1   0  118.26    9.62   1
  -1  -1  -1 3952.69   81.75   2
  -1  -1  -2 6238.03  110.61   5
  -1  -1  -2 5637.85  118.69   2
  -1  -1  -317250.65  236.38   2
   1   1   316680.70  210.39   3
   1   1   411096.55  209.34   3
  -1  -1  -410623.92  196.14   2
  -1  -1  -5 5358.84  144.03   2
   1   1   5 5680.76  156.46   3
   1   1   6 1595.64   86.76   3
   1   1   7   64.43   21.89   1
  -1  -1  -7   65.79   18.11  13
  -1  -1  -8   87.57   22.59  13
  -1  -1  -9  282.84   33.92  13
   1   1   9  239.27   36.67  19
  -1  -1 -10  283.41   29.24  13
   1   1  10  280.18   34.90  19
   1   1  11  128.68   20.47  19
  -1  -1 -11  151.71   16.12  13
   1   2 -10  173.26   19.93  13
  -1  -2  10  137.94   20.76  19
   1   2  -9  248.19   29.19  13
   1   2  -8  165.38   25.99  13
  -1  -2   7   -2.55    9.97  20
  -1  -2   6  719.52   76.43   1
  -1  -2   5 2841.34  140.68   1
  -1  -2   4 6270.25  204.07   1
  -1  -2   3 9882.58  161.50   2
  -1  -2   3 8824.70  207.27   1
  -1  -2   2 8017.08  203.88   2
  -1  -2   2 6563.10  137.61   1
  -1  -2   1 1001.17   52.11   2
  -1  -2   1  884.14   38.93   1
  -1  -2   0 1650.01   57.40   2
   1   2   0 1647.44   26.19   4
  -1  -2   0 1595.53   44.98   1
  -1  -2  -1  276.75   25.84   2
  -1  -2  -2 4330.75  105.31   2
  -1  -2  -311968.07  203.53   2
  -1  -2  -410070.33  211.65   2
   1   2   4 9818.09  206.44   3
  -1  -2  -5 4914.66  152.69   2
   1   2   5 4798.90  169.25   3
   1   2   6  122.83   29.48   3
  -1  -2  -7  122.15   28.29  14
  -1  -2  -7  123.31   23.14  13
   1   2   7  124.60   23.87  19
  -1  -2  -8  219.39   30.94  14
  -1  -2  -8  210.95   33.75  13
   1   2   8  187.38   35.15  19
   1   2   9  434.67   46.27  19
  -1  -2  -9  459.23   41.62  13
   1   2  10  284.51   34.56  19
  -1  -2 -10  312.59   30.12  13
  -1  -3  10   91.02   17.50  19
   1   3 -10  116.16   15.40  13
   1   3  -9  116.97   20.98  13
   1   3  -8    7.32   11.78  13
  -1  -3   7  205.39   37.10  20
  -1  -3   6 1521.79  117.38   1
  -1  -3   6 1814.35  100.14  20
  -1  -3   5 2854.45  156.80   1
  -1  -3   4 4812.01  183.01   1
  -1  -3   3 7341.51  172.76   2
  -1  -3   3 7103.13  184.14   1
   1   3  -2 3449.26   87.75   4
  -1  -3   2 3470.15  104.08   1
   1   3  -1   51.42   10.38   4
  -1  -3   1   50.62   23.10   2
  -1  -3   1   51.08   12.97   1
   1   3   0 1903.41   41.44   4
  -1  -3   0 1706.77   43.21   6
  -1  -3   0 1747.86   75.07   2
  -1  -3   0 1692.66   57.38   1
  -1  -3  -1 4923.31  118.41   2
  -1  -3  -211662.11  192.15   2
  -1  -3  -310931.55  207.98   2
  -1  -3  -4 6020.09  174.17   2
   1   3   5  973.78   85.66   3
  -1  -3  -5 1100.02   83.10   2
   1   3   6  -15.61   27.02   3
  -1  -3  -7  207.37   33.25  14
  -1  -3  -7  196.67   32.83  13
   1   3   7  279.50   41.87  19
  -1  -3  -8  691.81   52.14  14
  -1  -3  -8  608.42   53.43  13
   1   3   8  574.01   57.47  19
  -1  -3  -9  506.45   43.79  13
   1   3   9  472.92   49.16  19
  -1  -3 -10  168.91   20.94  13
  -1  -4  10   29.43   10.80  19
   1   4 -10   57.18   10.98  13
   1   4  -9    8.77    9.06  13
  -1  -4   8   13.44    8.99  20
  -1  -4   7  277.84   41.16  20
  -1  -4   6 1345.42  123.80   1
  -1  -4   6 1592.05   95.18  20
   1   4  -6 1473.51  113.85   4
  -1  -4   6 1533.27  101.99  17
   1   4  -5 3087.38  157.72   4
  -1  -4   5 2661.35  163.02   1
  -1  -4   4 4898.61  191.15   1
   1   4  -4 5174.82  175.22   4
  -1  -4   3 3013.67  126.74   2
  -1  -4   3 2962.70  126.02   1
   1   4  -3 3046.29  108.43   4
   1   4  -2   87.33   15.46   4
  -1  -4   2  106.49   34.03   2
  -1  -4   2   81.03   23.83   1
   1   4  -1  461.07   29.95   4
  -1  -4   1  497.08   56.52   2
  -1  -4   1  402.77   37.04   1
   1   4   0 4516.24   80.93   4
  -1  -4   0 4562.47   73.16   6
  -1  -4  -1 7483.02  170.45   2
  -1  -4  -210613.78  207.85   2
  -1  -4  -3 7095.98  184.94   2
  -1  -4  -4 1306.34   89.94   2
  -1  -4  -5   -4.31   24.61   2
   1   4   5    6.87    9.70   3
   1   4   6  -12.23   52.81   3
  -1  -4  -6   73.76   20.45  14
  -1  -4  -6   32.20   15.02  13
   1   4   6   60.56   30.00  19
  -1  -4  -7  434.59   44.70  14
  -1  -4  -7  400.00   48.84  13
   1   4   7  392.41   52.57  19
  -1  -4  -8  807.53   60.13  13
   1   4   8  764.70   66.17  19
  -1  -4  -8  829.99   54.96  14
  -1  -4  -9  308.37   33.11  13
  -1  -4 -10  105.33   13.97  13
   1   5  -9   -1.91    9.74  13
  -1  -5   8   68.45   21.31  20
  -1  -5   7  411.03   50.54  20
  -1  -5   6  906.99   89.71  17
  -1  -5   6  873.43   80.18  20
  -1  -5   5 1518.14  135.34   1
  -1  -5   5 1593.90  112.37  20
  -1  -5   4 1690.95  124.37   1
  -1  -5   3  166.29   39.10   2
  -1  -5   3  171.52   35.62   1
   1   5  -3  155.89   30.80   4
  -1  -5   2  243.46   50.06   2
  -1  -5   2  245.71   37.02   1
  -1  -5   1 2664.32  145.09   2
  -1  -5   1 2296.14   95.52   1
  -1  -5   0 6023.41  188.99   2
  -1  -5  -1 6543.27  184.98   2
  -1  -5  -2 5511.61  171.04   2
  -1  -5  -3 1500.86   97.24   2
  -1  -5  -4  130.95   38.13   2
  -1  -5  -5   15.85   18.55  13
  -1  -5  -5   23.83   20.36  14
  -1  -5  -6  525.86   59.03  14
  -1  -5  -6  572.17   58.48  13
  -1  -5  -7 1101.51   71.39  14
  -1  -5  -7 1037.35   73.88  13
  -1  -5  -8  586.57   42.81  14
  -1  -5  -8  518.81   46.36  13
  -1  -5  -9  204.76   24.87  13
   1   6  -9   23.86    6.33  13
  -1  -6   8  155.00   25.49  20
  -1  -6   7  550.07   60.32  17
  -1  -6   7  530.20   52.37  11
  -1  -6   7  530.73   55.42  20
  -1  -6   6  584.35   64.67  20
  -1  -6   6  501.45   73.96  17
  -1  -6   5  544.69   72.22  20
  -1  -6   4  344.69   45.97  20
  -1  -6   4  327.81   57.09   1
  -1  -6   4  334.90   42.49  16
  -1  -6   3  -12.85   16.45   2
  -1  -6   3    5.43    9.58   1
  -1  -6   2  561.94   59.74   1
  -1  -6   2  487.33   83.61   2
  -1  -6   1 4138.55  197.23   2
  -1  -6   0 6634.66  226.47   2
  -1  -6  -1 6058.95  203.63   2
  -1  -6  -2 2353.63  130.47   2
  -1  -6  -3   97.82   33.09   2
  -1  -6  -4  -33.04   21.90   2
  -1  -6  -4   13.42   14.19  14
  -1  -6  -4  -17.06   10.37  13
  -1  -6  -5  354.61   50.90  14
  -1  -6  -5  317.37   47.42  13
  -1  -6  -6 1336.78   87.67  14
  -1  -6  -6 1367.90   94.07  13
  -1  -6  -7  799.70   65.86  13
  -1  -6  -7  909.73   61.32  14
  -1  -6  -8  372.80   37.87  13
  -1  -6  -9  132.40   16.55  13
  -1  -7   8  175.11   23.52  20
  -1  -7   7  404.62   44.07  11
  -1  -7   7  396.88   46.08  17
  -1  -7   7  423.39   44.60  20
  -1  -7   6  481.43   58.01  20
  -1  -7   6  429.83   65.98  17
  -1  -7   5  288.87   56.81  20
  -1  -7   4   49.66   17.81  16
  -1  -7   4   99.51   26.00  20
  -1  -7   3  121.33   25.64  16
  -1  -7   3   80.76   27.15   1
  -1  -7   2 1082.58  116.15   2
  -1  -7   2 1079.14   67.55  16
  -1  -7   1 3084.06  104.41  16
  -1  -7   1 3302.96  196.57   2
  -1  -7   0 4177.65  201.94   2
  -1  -7  -1 2378.46  145.91   2
  -1  -7  -2  485.78   66.00   2
  -1  -7  -2  467.04   45.62  13
  -1  -7  -3   60.02   18.41  14
  -1  -7  -3    7.73   36.20   2
  -1  -7  -3   62.71   18.37  13
  -1  -7  -4   80.81   21.22  13
  -1  -7  -4  107.25   33.30  14
  -1  -7  -5 1010.96   82.92  14
  -1  -7  -5 1040.38   80.37  13
  -1  -7  -6  792.55   68.93  13
  -1  -7  -7  436.70   43.45  13
  -1  -7  -8  231.12   27.68  13
  -1  -8   7  221.03   26.64  20
  -1  -8   7  214.37   29.55  11
  -1  -8   7  133.06   27.55  17
  -1  -8   6  186.64   40.55  17
  -1  -8   6  234.34   36.40  20
  -1  -8   5  107.18   29.74  20
  -1  -8   4   13.89   17.60  20
  -1  -8   4   61.52   18.80  16
  -1  -8   3  497.24   51.18  16
  -1  -8   3  537.59   58.82  20
  -1  -8   2  825.51   63.45  16
  -1  -8   1 1538.30   82.22  16
  -1  -8   0 1644.85   83.45  16
  -1  -8  -1  662.95   55.70  13
  -1  -8  -2   83.86   24.12  13
  -1  -8  -3    4.46   18.22  13
  -1  -8  -4  484.79   54.15  13
  -1  -8  -4  556.98   53.71  18
  -1  -8  -5  717.11   67.30  13
  -1  -8  -6  430.42   44.84  13
  -1  -8  -7  269.03   29.29  13
  -1  -8  -7  239.76   29.19  18
  -1  -9   7   75.97   14.35  11
  -1  -9   6   44.05   13.40  20
  -1  -9   6   56.75   19.46  11
  -1  -9   6   51.65   15.17  17
  -1  -9   5   30.99   12.81  20
  -1  -9   4  196.89   37.22  20
  -1  -9   4  162.43   34.14  16
  -1  -9   3  619.70   66.47  20
  -1  -9   3  465.35   52.96  16
  -1  -9   2  805.79   64.60  16
  -1  -9   1  909.12   65.99  16
  -1  -9   0  515.23   49.04  16
  -1  -9  -1  243.56   34.74  16
  -1  -9  -2   10.82   15.46  13
  -1  -9  -3  325.89   44.99  13
  -1  -9  -4  690.17   63.35  13
  -1  -9  -5  462.69   47.86  13
  -1  -9  -6  279.72   28.06  13
  -1 -10   6   -3.87    3.38  11
  -1 -10   5   31.22   17.17  17
  -1 -10   5   34.38   14.45  11
  -1 -10   4  186.15   32.08  11
  -1 -10   4  175.23   28.34  20
  -1 -10   3  408.37   50.22  20
  -1 -10   3  354.00   44.28  16
  -1 -10   2  672.21   57.65  16
  -1 -10   2  783.52   67.93  20
  -1 -10   1  413.45   46.21  16
  -1 -10   0   53.59   21.30  16
  -1 -10  -1    6.50   12.36  16
  -1 -10  -2   76.73   23.94  16
  -1 -10  -3  293.48   37.57  16
  -1 -10  -4  426.28   42.41  16
  -1 -10  -5  307.06   28.50  16
  -1 -11   4   88.77   20.41  17
  -1 -11   3  170.11   26.09  11
  -1 -11   2  238.90   31.43  16
  -1 -11   1  107.95   22.47  16
  -1 -11   0   12.22   10.03  16
  -1 -11  -1   63.77   14.31  16
  -1 -11  -2  187.24   28.54  16
  -1 -11  -3  273.57   30.75  16
   2 -11   1   38.65   15.57  20
  -2  10   2   81.39   16.66  15
  -2  10   1   -0.76    6.14  15
   2 -10   0   97.65   25.47  16
  -2  10   0   63.28   29.58  15
   2 -10   1  219.58   32.12  16
  -2  10  -1  160.91   34.34  15
  -2  10  -2  242.98   39.61  15
   2 -10   2  304.31   32.64  16
  -2  10  -3  303.47   38.40  15
   2 -10   3  311.47   41.80  20
   2 -10   4  121.04   26.83  20
   2 -10   5    8.86   10.34  20
   2  -9  -4  249.45   29.20  13
  -2   9   3  190.35   27.51  15
   2  -9  -3  162.83   32.04  16
   2  -9  -3  175.71   30.66  13
  -2   9   2   10.85   21.77  15
   2  -9  -2   54.03   16.99  16
   2  -9  -2   28.22   17.04  13
   2  -9  -1   20.91   20.07  16
   2  -9   0  397.49   43.08  16
   2  -9   1  634.81   54.07  16
   2  -9   2  637.46   57.10  16
   2  -9   3  396.87   47.46  16
  -2   9  -3  387.45   55.33  15
   2  -9   4  211.10   41.67  20
   2  -9   5   32.87   18.26  20
   2  -9   6   31.58   16.53  20
   2  -9   7   57.11   16.23  20
   2  -8  -6  175.37   19.49  13
   2  -8  -5  292.55   34.67  13
  -2   8   5  270.08   33.18  10
  -2   8   4  156.66   38.50  10
   2  -8  -4  234.12   38.94  13
  -2   8   3   81.28   24.59  15
   2  -8  -3   41.31   25.26  13
  -2   8   3   36.72   21.77  10
   2  -8  -2   24.68   13.88  13
  -2   8   2  -33.09   22.34  10
   2  -8  -1  176.97   31.29  13
  -2   8   1  177.10   26.99  10
   2  -8   0  807.44   59.91  16
  -2   8   0  810.68   62.19  10
   2  -8   0  742.86   60.02  13
  -2   8  -1 1812.54   86.15  10
   2  -8   1 1786.53   89.13  16
   2  -8   2 1172.70   74.93  16
   2  -8   3  498.88   51.67  16
   2  -8   4   71.67   21.90  16
   2  -8   5    3.58   18.88  20
   2  -8   6   64.46   27.75  20
   2  -8   7  166.49   31.88  20
   2  -8   8  160.10   23.74  20
   2  -7  -7  112.47   15.90  13
   2  -7  -6  391.51   37.37  13
   2  -7  -5  344.05   44.69  13
   2  -7  -4  129.24   33.77  13
   2  -7  -3   -1.70   11.91  13
   2  -7  -2  205.58   34.52  13
   2  -7  -1  893.94   64.43  13
  -2   7   1  862.23   66.67  10
   2  -7   0 1899.91  125.94   2
   2  -7   0 1796.62   87.15  13
  -2   7   0 2008.58   90.57  10
   2  -7   1 1291.03   76.77  13
   2  -7   1 1374.17   77.43  16
   2  -7   1 1436.72  112.21   2
  -2   7  -1 1493.84   77.11  10
   2  -7   2  844.77   96.52   2
   2  -7   2  955.96   67.61  16
  -2   7  -2  960.37   64.03  10
   2  -7   3  558.79   54.84  16
   2  -7   4   10.55    9.78  16
   2  -7   5  365.46   52.70  20
   2  -7   6  313.51   54.68  20
   2  -7   7  285.02   49.18  20
   2  -7   8  183.59   31.37  20
   2  -7   9   88.54   15.99  20
   2  -6  -7  302.78   30.06  13
   2  -6  -6  381.92   44.18  13
   2  -6  -5  221.18   40.49  13
  -2   6   4   22.03   17.15  17
   2  -6  -4   61.48   17.77  13
  -2   6   3  148.73   29.44  17
   2  -6  -3  112.77   22.34  13
  -2   6   2  794.29   72.88  17
   2  -6  -2  866.73   80.77   2
   2  -6  -2  853.89   60.43  13
   2  -6  -1 2173.81   91.52  13
   2  -6  -1 2180.70  120.60   2
   2  -6   0 2235.11  127.72   2
   2  -6   1 1106.00   93.96   2
  -2   6  -1 1386.55   92.75   4
   2  -6   2 1090.24  101.19   2
  -2   6  -2 1148.50   82.04   4
  -2   6  -3  207.36   36.79   4
   2  -6   3  163.03   45.35   2
   2  -6   4  346.94   69.88   2
   2  -6   4  318.01   43.88  16
  -2   6  -4  274.56   47.45   4
   2  -6   5  808.97   78.57  16
  -2   6  -5  868.46   89.69   4
   2  -6   5  823.40   92.52   2
   2  -6   5  826.40   76.73  20
   2  -6   6 1128.26   96.46  20
   2  -6   7  456.60   61.93  20
   2  -6   8  134.87   32.24  20
   2  -6   9   42.17   17.79  20
  -2   6 -10    0.59    5.13  13
   2  -5  -8  250.30   22.63  13
   2  -5  -7  326.78   35.85  13
   2  -5  -6  161.99   32.67  13
  -2   5   6  227.64   33.53  17
  -2   5   5   78.42   22.58  17
   2  -5  -5   86.97   25.04  13
  -2   5   4   -2.98   11.04  17
   2  -5  -4    5.20   17.27  13
  -2   5   3  659.86   68.47  17
   2  -5  -3  681.48   58.10  13
   2  -5  -2 4067.90  147.88   2
   2  -5  -1 3809.00  141.24   2
  -2   5   0 2377.96  108.60   4
   2  -5   0 2338.39  113.02   2
   2  -5   1 2514.79  123.52   2
  -2   5  -1 2548.19  106.21   4
  -2   5  -2  871.52   64.09   4
  -2   5  -3  541.79   55.74   4
  -2   5  -4 1663.96  109.03   4
   2  -5   4 1758.61  106.18   1
  -2   5  -5 1532.70  124.66   4
   2  -5   5 1528.07   99.17  20
   2  -5   5 1586.70  123.27   1
   2  -5   5 1635.51  101.23  16
  -2   5  -6 1596.37  140.42   4
   2  -5   6 1541.54  110.19  20
   2  -5   7  602.40   73.09  20
   2  -5   8  165.71   36.14  20
   2  -5   9   26.92   12.06  20
  -2   5 -10    2.33    5.38  13
   2  -4  -9  111.87   14.80  13
   2  -4  -8  337.39   30.01  13
   2  -4  -7  314.54   38.77  13
   2  -4  -6  118.48   29.19  13
  -2   4   6  150.51   29.72  17
   2  -4  -5    6.74   14.87  13
  -2   4   5  -27.99   19.09  17
   2  -4  -4  507.44   55.69  13
  -2   4   4  440.48   75.68   3
  -2   4   4  544.77   61.92  17
  -2   4   3 3000.75  170.09   3
   2  -4  -2 7393.05  170.60   2
   2  -4  -1 6782.61  164.45   2
  -2   4   0 6575.93  156.40   4
  -2   4  -1 1262.75   67.39   4
  -2   4  -2  171.48   28.74   4
   2  -4   3 1879.34   83.41   1
  -2   4  -3 1920.79   95.24   4
  -2   4  -4 2089.30  111.97   4
   2  -4   4 2262.50  107.83   1
   2  -4   5 2236.11  134.42   1
  -2   4  -5 2204.53  137.35   4
   2  -4   6 1531.99  142.59   1
  -2   4  -6 1610.15  143.99   4
   2  -4   6 1601.15  110.07  20
   2  -4   7  816.15   79.74  20
   2  -4   8  186.06   37.75  20
   2  -4   9   15.11   16.76  20
  -2   4 -10   69.78   13.85  13
   2  -3  -9  214.45   20.70  13
   2  -3  -8  252.96   29.71  13
   2  -3  -7  189.06   29.78  13
   2  -3  -6   53.55   20.50  13
  -2   3   6   80.95   21.56  19
  -2   3   6   57.83   23.60  17
  -2   3   5  178.65   36.33  17
  -2   3   5  189.41   35.20  19
  -2   3   5  190.49   40.16   3
   2  -3  -5  186.69   36.58  13
  -2   3   4 2297.70  155.65   3
  -2   3   3 5382.33  213.44   3
   2  -3  -2 3909.08  106.36   2
   2  -3  -1 7010.84  143.74   2
  -2   3   0 9297.92  165.20   4
  -2   3  -1  103.76   20.50   4
  -2   3  -2 2001.66   80.96   4
   2  -3   2 1922.06   64.24   1
  -2   3  -3 3319.25  113.07   4
   2  -3   3 3342.25   98.32   1
   2  -3   4 2379.08  100.19   1
  -2   3  -4 2196.53  107.64   4
  -2   3  -5 3172.12  157.46   4
   2  -3   5 3688.75  157.31   1
   2  -3   6 2486.39  156.21   1
  -2   3  -6 2503.51  160.31   4
  -2   3  -7  310.85   55.69   4
   2  -3   7  315.19   73.66   1
   2  -3   7  317.34   47.98  20
   2  -3   8    1.03   11.85  20
   2  -3   9   43.85   19.60  20
  -2   3 -10  114.15   21.48  13
   2  -3  11  128.10   21.33  19
  -2   3 -11  112.38   16.01  13
   2  -2  -9  189.25   22.57  13
  -2   2   8  158.64   29.56  19
   2  -2  -8  137.64   24.05  13
   2  -2  -7   24.35   15.26  13
  -2   2   7   44.48   20.60  19
   2  -2  -6   30.91   19.48  13
  -2   2   6   36.43   28.85  19
  -2   2   6   42.64   16.40  17
  -2   2   5  478.50   69.48   3
  -2   2   4 2378.52  143.86   3
  -2   2   3 6299.86  221.13   3
   2  -2  -2 6976.05  112.89   2
  -2   2   2 6226.99  190.35   3
  -2   2   1 3970.44   80.46   6
  -2   2   0  109.61   17.51   4
  -2   2   0  135.61   12.90   6
  -2   2  -1 2058.67   67.42   4
  -2   2  -2 4400.99  104.95   4
   2  -2   2 4430.24   79.74   1
   2  -2   310462.41  149.89   1
  -2   2  -3 9766.20  174.72   4
  -2   2  -4 6664.20  175.71   4
   2  -2   4 7405.18  168.50   1
  -2   2  -5 4974.90  188.03   4
   2  -2   5 5772.93  188.63   1
  -2   2  -6  980.92   98.53   4
   2  -2   6  962.91   86.41   1
  -2   2  -7   14.59   14.23   4
   2  -2   7   58.23   21.89  20
   2  -2   8   93.30   21.10  20
  -2   2  -8   96.89   22.19   8
   2  -2   9  151.86   29.92  20
  -2   2  -9  169.98   27.27  13
  -2   2 -10  227.11   26.66  13
  -2   2 -11  127.81   16.72  13
   2  -2  11  120.46   21.71  19
   2  -1  -9  160.56   22.38  13
  -2   1   8   80.71   23.18  19
   2  -1  -8   83.03   19.54  13
  -2   1   7    8.37    8.12  19
   2  -1  -7   -4.34   10.37  13
  -2   1   6  468.53   67.19   3
   2  -1  -6  432.78   45.81  13
  -2   1   6  477.99   63.88   1
  -2   1   6  529.35   52.58  17
  -2   1   6  449.35   57.00  19
  -2   1   5 2004.47  127.08   3
  -2   1   4 3864.96  163.51   3
  -2   1   3 4926.58  177.83   3
  -2   1   2 8342.71  101.98   5
   2  -1  -2 7995.97   83.90   2
  -2   1   1 3533.18  124.40   3
  -2   1   0 7573.29  111.59   4
  -2   1   0 7486.23   94.61   6
  -2   1  -114846.88  154.02   4
  -2   1  -2 8401.25  126.01   4
   2  -1   2 8722.81   87.28   1
  -2   1  -3 8210.93  147.77   4
   2  -1   3 9035.26  140.25   1
   2  -1   410521.82  209.56   1
  -2   1  -4 9840.12  211.89   4
   2  -1   5 4896.47  166.97   1
   2  -1   6    9.26   17.80   1
   2  -1   7   49.07   25.50   1
  -2   1  -7   74.57   20.97   4
   2  -1   8  180.16   33.34  20
  -2   1  -8  178.85   29.87   8
  -2   1  -9  659.57   49.65  13
  -2   1 -10  411.22   36.05  14
  -2   1 -10  366.23   33.21  13
  -2   1 -11   92.46   15.40  13
   2  -1  11  111.00   19.82  19
   2   0 -10  110.35   14.01  13
  -2   0   9   99.39   22.24  19
   2   0  -9   94.32   18.32  13
  -2   0   8   29.51   10.07  19
   2   0  -8  -13.86   11.16  13
  -2   0   7   98.53   25.27  19
   2   0  -7   77.19   21.90  13
  -2   0   6 1078.50   96.03   1
   2   0  -6 1002.38   65.25  13
  -2   0   6 1158.91   78.98  17
  -2   0   5 4252.86  168.14   3
  -2   0   5 4261.03  162.86   1
  -2   0   4 6149.50  191.47   3
  -2   0   3 2690.88  122.50   3
  -2   0   2  831.99   68.77   3
  -2   0   1  893.04   67.79   3
  -2   0   1  813.76   36.44   5
  -2   0   0  457.55   46.08   3
  -2   0   0  444.51   24.09   4
  -2   0   0  454.55   25.99   6
  -2   0  -1 6185.67   81.83   4
  -2   0  -1 6033.77  137.81   2
  -2   0  -1 6422.23   82.21   3
  -2   0  -1 5953.41   89.06   6
  -2   0  -214426.69  141.21   4
  -2   0  -215873.61  276.30   2
  -2   0  -315629.32  268.07   2
  -2   0  -4 7575.75  185.01   2
   2   0   5  654.13   57.05   1
   2   0   6   15.25   14.50   1
   2   0   7  158.83   41.42   1
  -2   0  -8 1079.33   64.15   8
  -2   0  -8 1033.30   63.17  13
  -2   0  -9  883.93   56.57  13
  -2   0 -10  315.04   30.19  14
  -2   0 -10  287.30   28.88  13
   2   0  10  254.41   35.49  19
   2   0  11   92.62   16.89  19
  -2   0 -11   75.97   15.01  13
   2   1 -10   44.88    8.80  13
   2   1  -9    5.69    6.84  13
  -2  -1   9    4.35    4.00  19
  -2  -1   8   -5.49    8.45  19
   2   1  -8   26.03   13.69  13
   2   1  -7  318.53   35.31  13
  -2  -1   6 2289.94  130.30   1
  -2  -1   6 2360.86  109.21  17
   2   1  -6 2000.23   88.53  13
  -2  -1   5 3749.55  158.90   1
  -2  -1   4 4567.39  164.35   1
  -2  -1   3 2539.55  119.44   1
  -2  -1   3 2906.83  126.14   3
  -2  -1   2  132.03   35.94   3
  -2  -1   2  133.64   27.61   1
  -2  -1   1 1589.49   43.47   2
  -2  -1   1 1585.98   58.95   1
  -2  -1   1 1542.49   75.30   3
  -2  -1   0 3674.42  112.42   2
  -2  -1   0 3689.86   57.12   1
  -2  -1  -1 4140.41   49.69   4
  -2  -1  -1 4729.45  149.50   2
  -2  -1  -225154.99  276.76   5
  -2  -1  -225677.95  331.96   2
  -2  -1  -321004.67  301.86   2
   2   1   321156.26  183.76   3
  -2  -1  -321389.59  259.35   5
  -2  -1  -4 1028.12   53.49   5
   2   1   4 1101.21   54.81   3
  -2  -1  -5  210.24   34.03   2
  -2  -1  -6  263.38   41.91   2
   2   1   7  922.31   82.92   1
  -2  -1  -8 1295.87   70.48  13
   2   1   9  556.85   55.06  19
  -2  -1  -9  530.25   44.64  13
  -2  -1  -9  587.70   44.68  14
  -2  -1 -10  226.91   25.91  13
   2   1  10  203.85   32.03  19
  -2  -1 -10  259.22   24.50  14
  -2  -1 -11   45.32    9.66  13
   2   1  11   46.24   13.19  19
   2   2 -10    3.85    6.10  13
  -2  -2   9    5.70    6.05  19
   2   2  -8   48.61   15.49  13
  -2  -2   7  659.91   61.47  17
   2   2  -7  606.36   49.95  13
  -2  -2   6 2595.92  143.92   1
  -2  -2   6 2704.10  109.10  20
  -2  -2   6 2611.97  116.03  17
  -2  -2   5 2981.32  149.77   1
  -2  -2   4 2494.88  135.12   1
  -2  -2   3  737.16   69.51   1
  -2  -2   2  104.61   12.11   2
  -2  -2   2  114.27   23.28   1
  -2  -2   1 6560.23  147.40   2
  -2  -2   1 6082.56  113.21   1
  -2  -2   012579.52  131.08   1
  -2  -2   012969.91  215.47   2
  -2  -2  -1 9408.34  182.04   2
  -2  -2  -215187.60  243.61   2
  -2  -2  -3 5712.10  163.71   2
  -2  -2  -4  725.93   65.16   2
  -2  -2  -5   38.42   14.32   2
   2   2   5   17.53    9.61   3
  -2  -2  -6 1907.45  109.29   2
  -2  -2  -7 1872.81   90.07  14
  -2  -2  -7 1770.46   91.35  13
  -2  -2  -8  880.51   59.70  14
  -2  -2  -8  799.41   59.37  13
   2   2   8  804.15   68.99  19
  -2  -2  -9  443.02   40.46  14
  -2  -2  -9  394.15   40.56  13
   2   2   9  403.18   47.59  19
   2   2  10  125.05   25.25  19
  -2  -2 -10  129.03   19.30  13
  -2  -2 -11  -10.95    5.63  13
  -2  -3   9   -3.34   10.87  19
   2   3  -9   16.57    9.96  13
   2   3  -8  289.12   33.72  13
  -2  -3   7  937.24   70.46  17
  -2  -3   6  943.60   79.11  17
  -2  -3   6  869.02   72.23  20
  -2  -3   6  832.97   95.79   1
  -2  -3   5  955.91   94.74   1
  -2  -3   4 1012.26   96.55   1
  -2  -3   3   35.03   22.90   1
  -2  -3   2 3119.66  109.04   2
  -2  -3   2 3156.02  108.69   1
  -2  -3   1 8291.70  236.99   2
  -2  -3   1 7722.36  140.45   1
   2   3  -1 7742.21   96.17   4
  -2  -3   0 9680.19  211.98   2
  -2  -3   0 9403.67  133.45   6
  -2  -3   0 9390.31  138.56   1
  -2  -3  -1 9200.73  129.39   6
  -2  -3  -111108.12  210.52   2
  -2  -3  -2 4724.83  143.69   2
  -2  -3  -3  272.71   41.66   2
  -2  -3  -4  297.47   44.67   2
  -2  -3  -5  773.66   74.08   2
   2   3   5  858.26   72.53   3
  -2  -3  -6 3500.11  159.54   2
  -2  -3  -7 1940.19   95.04  14
  -2  -3  -7 2013.33   99.41  13
   2   3   7 2095.86  107.55  19
  -2  -3  -8  893.37   61.20  14
  -2  -3  -8  891.69   66.72  13
   2   3   8  963.43   73.41  19
  -2  -3  -9  236.24   29.35  14
  -2  -3  -9  191.54   28.98  13
   2   3   9  230.74   35.94  19
   2   3  10   14.07   14.12  19
  -2  -3 -10   22.46    8.11  13
  -2  -4   9   54.25   14.48  19
   2   4  -9   62.70   13.15  13
   2   4  -8  400.13   35.62  13
  -2  -4   7  776.39   71.21  17
  -2  -4   7  791.95   63.41  20
  -2  -4   6  405.46   57.44  17
  -2  -4   6  470.18   51.22  20
  -2  -4   5  290.18   60.69   1
  -2  -4   5  254.84   40.78  17
   2   4  -4  131.16   28.77   4
  -2  -4   4   81.51   34.68   1
   2   4  -3  519.62   47.46   4
  -2  -4   3  450.82   57.93   1
  -2  -4   2 5040.36  147.25   1
  -2  -4   2 5229.26  193.51   2
  -2  -4   112369.29  367.48   2
  -2  -4   112073.20  200.61   1
  -2  -4   012507.27  282.91   2
  -2  -4   012784.56  162.31   6
  -2  -4   012248.06  183.95   1
  -2  -4  -1 7890.13  199.67   2
  -2  -4  -2 1258.59   81.37   2
  -2  -4  -3  185.97   36.41   2
  -2  -4  -4 1531.30  104.43   2
  -2  -4  -5 3083.48  163.27   2
  -2  -4  -6 2088.62  105.92  14
  -2  -4  -6 2131.76  112.56  13
   2   4   6 1861.14  122.98  19
  -2  -4  -7 1785.08   91.84  14
   2   4   7 1804.05  103.82  19
  -2  -4  -7 1782.53   99.41  13
   2   4   8  917.64   72.86  19
  -2  -4  -8  817.16   63.88  13
  -2  -4  -8  942.85   61.86  14
  -2  -4  -9   76.86   19.72  14
  -2  -4  -9   75.90   16.27  13
  -2  -4 -10    8.42    4.47  13
   2   5  -9  140.33   15.22  13
   2   5  -8  223.96   25.66  13
  -2  -5   7  516.75   48.75  20
  -2  -5   7  469.04   57.14  17
  -2  -5   6  697.52   73.06  17
  -2  -5   6  709.07   65.25  20
  -2  -5   6  711.19   63.62  11
  -2  -5   5  282.24   62.50   1
  -2  -5   5  304.71   40.89  20
  -2  -5   5  201.03   44.97  17
  -2  -5   4  218.29   45.65   1
  -2  -5   3 2223.60  128.19   1
  -2  -5   2 3276.87  171.32   2
  -2  -5   2 3465.90  135.76   1
  -2  -5   1 7544.23  148.86   6
  -2  -5   1 7818.82  327.86   2
  -2  -5   0 8141.47  263.80   2
  -2  -5  -1 2962.12  141.58   2
  -2  -5  -2  145.39   32.76   2
  -2  -5  -3  674.73   69.84   2
  -2  -5  -4 2310.51  141.33   2
  -2  -5  -5 2558.22  160.80   2
  -2  -5  -5 2504.18  124.62  14
  -2  -5  -6 1787.97  109.95  13
  -2  -5  -6 1752.09  102.57  14
  -2  -5  -7 1126.96   74.43  14
  -2  -5  -7 1104.24   80.53  13
  -2  -5  -8  292.14   35.81  14
  -2  -5  -8  277.78   36.65  13
  -2  -5  -9   29.39   12.30  14
  -2  -5  -9   21.93   10.30  13
   2   6  -8  183.14   20.66  13
  -2  -6   7  216.88   38.44  17
  -2  -6   7  223.13   33.38  20
  -2  -6   6  106.32   37.32  17
  -2  -6   6  126.83   30.68  20
  -2  -6   6  173.19   32.17  11
  -2  -6   5   -9.75   16.83  17
  -2  -6   4  441.43   53.18  16
  -2  -6   4  426.19   69.84   1
  -2  -6   3 2037.70  130.09   1
  -2  -6   2 2746.27  133.26   1
  -2  -6   2 2695.37  164.08   2
  -2  -6   1 3061.13  203.39   2
  -2  -6   0 2281.43  156.57   2
  -2  -6  -1  589.58   71.77   2
  -2  -6  -2   85.08   26.11   2
  -2  -6  -3  945.67   89.48   2
  -2  -6  -4 1588.80  129.81   2
  -2  -6  -4 1705.66   93.23  14
  -2  -6  -5 2277.14  123.52  14
  -2  -6  -5 2451.72  114.65  13
  -2  -6  -5 2333.80  171.88   2
  -2  -6  -6 1677.30  106.15  13
  -2  -6  -6 1393.03   94.54  14
  -2  -6  -7  298.46   39.42  14
  -2  -6  -7  279.95   39.47  13
  -2  -6  -8   10.78    7.89  13
  -2  -6  -8   32.18   10.17  14
  -2  -6  -9    6.50    5.48  13
   2   7  -8  120.71   14.67  13
  -2  -7   7   93.83   23.81  17
  -2  -7   7  108.61   20.03  11
  -2  -7   6  -19.24   16.98  17
  -2  -7   6   -7.66   15.63  11
  -2  -7   5  172.02   44.90  17
  -2  -7   4  477.45   56.68  16
  -2  -7   3 1253.84   82.96  18
  -2  -7   3 1279.78  113.83   1
  -2  -7   3 1174.22   79.15  16
  -2  -7   2 2530.89  103.45  18
  -2  -7   2 2384.61  167.16   2
  -2  -7   2 2515.14  103.88  16
  -2  -7   1 2326.22   94.57  16
  -2  -7   1 2302.36  188.35   2
  -2  -7   0  591.57   91.47   2
  -2  -7  -1   48.45   39.54   2
  -2  -7  -2  738.14   55.27  13
  -2  -7  -2  624.45   86.18   2
  -2  -7  -2  681.00   54.71  18
  -2  -7  -3 1264.59   78.58  14
  -2  -7  -3 1414.77   78.36  13
  -2  -7  -3 1174.67  116.05   2
  -2  -7  -4 1696.23  102.37  14
  -2  -7  -4 1963.81   99.70  13
  -2  -7  -5 1900.84  103.47  13
  -2  -7  -5 1735.71  111.06  14
  -2  -7  -6  439.15   50.57  14
  -2  -7  -6  491.78   54.97  13
  -2  -7  -7   41.33   17.64  14
  -2  -7  -7   12.32   12.40  13
  -2  -7  -8    9.99    6.82  13
  -2  -8   7   28.76   10.82  17
  -2  -8   7   21.53    7.05  11
  -2  -8   6    3.64   13.15  17
  -2  -8   6   13.67   15.02  11
  -2  -8   5  322.52   54.67  17
  -2  -8   5  333.60   45.45  11
  -2  -8   4  872.79   75.68  16
  -2  -8   3  957.87   75.24  16
  -2  -8   2 1007.72   70.65  16
  -2  -8   1  560.06   52.25  16
  -2  -8   1  661.04   51.53  18
  -2  -8   0  107.17   22.61  16
  -2  -8   0   45.11   21.49  18
  -2  -8  -1  208.80   29.57  18
  -2  -8  -2  932.76   64.39  13
  -2  -8  -2  901.81   64.81  18
  -2  -8  -3 1522.17   84.19  18
  -2  -8  -3 1561.04   88.72  13
  -2  -8  -4 1700.12   94.67  18
  -2  -8  -4 1765.64   98.21  13
  -2  -8  -5  672.43   63.81  13
  -2  -8  -6  112.09   28.65  13
  -2  -8  -7   35.74   17.45  18
  -2  -8  -7  -42.16   15.71  13
  -2  -8  -8   36.95    9.07  18
  -2  -9   6   99.94   18.53  17
  -2  -9   6   57.69   17.29  11
  -2  -9   5  183.98   42.17  17
  -2  -9   5  234.38   36.42  11
  -2  -9   4  587.16   59.88  11
  -2  -9   3  620.68   61.54  16
  -2  -9   2  280.25   41.00  16
  -2  -9   1    9.55   16.14  16
  -2  -9   0   52.59   22.93  16
  -2  -9  -1  316.93   38.86  16
  -2  -9  -2 1126.16   70.39  18
  -2  -9  -3 1580.65   83.49  18
  -2  -9  -3 1610.33   90.83  13
  -2  -9  -4  892.85   65.25  18
  -2  -9  -4  919.20   69.70  13
  -2  -9  -5  220.58   32.01  18
  -2  -9  -5  186.91   33.92  13
  -2  -9  -6   21.75   10.22  18
  -2  -9  -6  -12.08   10.27  13
  -2 -10   5  181.36   24.98  11
  -2 -10   5  163.94   27.47  17
  -2 -10   4  254.78   44.34  17
  -2 -10   4  290.40   36.46  11
  -2 -10   3  271.52   37.49  16
  -2 -10   3  289.63   44.47  11
  -2 -10   2  102.24   26.06  16
  -2 -10   2   62.44   36.74  11
  -2 -10   1   18.30   11.54  16
  -2 -10   1   -1.29   12.43  11
  -2 -10   0  203.74   33.02  16
  -2 -10  -1  491.39   49.86  16
  -2 -10  -2  829.05   61.74  16
  -2 -10  -3  638.05   53.27  16
  -2 -10  -4  280.14   38.23  16
  -2 -10  -5   78.34   14.32  16
  -2 -10  -6    9.15    6.03  16
  -2 -11   3   45.30   16.99  11
  -2 -11   3   63.56   24.59  17
  -2 -11   2    9.17   12.62  16
  -2 -11   2   23.47   11.13  11
  -2 -11   1   64.53   14.11  16
  -2 -11   0  215.64   32.34  16
  -2 -11  -1  428.35   40.84  16
  -2 -11  -2  343.38   37.64  16
  -2 -11  -3  147.87   23.40  16
  -2 -11  -4   54.78   13.25  16
  -3  10   1  124.76   24.79  15
  -3  10   0  304.49   37.63  15
  -3  10  -1  229.48   38.52  15
  -3  10  -2   87.16   20.93  15
   3 -10   3   75.07   15.69  20
  -3  10  -3   25.58   15.16  15
   3 -10   4   -6.24   11.21  20
   3 -10   5   20.69   12.69  20
  -3   9   2  126.30   25.59  10
  -3   9   2  162.44   29.36  15
  -3   9   1  433.57   43.38  10
  -3   9   1  423.43   52.26  15
  -3   9   0  366.67   58.85  15
  -3   9  -1  162.76   40.25  15
  -3   9  -2   91.50   33.93  15
  -3   9  -3   57.42   21.94  15
  -3   9  -4   83.21   20.69  15
   3  -9   4   61.23   26.87  20
   3  -9   5  132.62   32.35  20
   3  -9   6  143.04   26.17  20
   3  -9   7   52.89   15.97  20
   3  -8  -5   -4.41    4.31  13
  -3   8   4   26.39   12.55  10
   3  -8  -4   29.38   17.39  13
  -3   8   3  176.95   29.67  15
   3  -8  -3  183.62   36.55  13
  -3   8   3  186.93   33.69  10
  -3   8   2  415.48   52.62  15
   3  -8  -2  428.81   49.05  13
  -3   8   2  390.72   48.68  10
  -3   8   1  441.60   61.89  15
   3  -8  -1  488.21   49.96  13
  -3   8   1  459.56   49.53  10
  -3   8   0  394.19   69.09  15
  -3   8   0  474.91   50.61  10
  -3   8  -1  412.09   46.01  10
  -3   8  -2   58.05   24.88  15
  -3   8  -3   82.52   30.23  15
  -3   8  -4  405.81   53.42  15
   3  -8   5  406.67   53.73  20
   3  -8   6  310.31   48.97  20
   3  -8   7  158.39   29.81  20
   3  -8   8   48.79   13.97  20
   3  -7  -6   42.15    9.96  13
  -3   7   6   45.21   12.53  10
   3  -7  -5  -19.89   15.73  13
   3  -7  -4  103.08   26.38  13
  -3   7   3  640.24   61.07  15
   3  -7  -3  524.82   56.84  13
  -3   7   2 1100.33   94.03  15
   3  -7  -2 1052.01   73.64  13
   3  -7  -1  780.94   61.81  13
  -3   7   1  747.61   62.90  10
   3  -7   0  517.55   50.89  13
  -3   7   0  544.15   50.83  10
   3  -7   1  185.98   30.75  13
  -3   7  -1  221.69   33.30  10
  -3   7  -2   -4.60    9.42  10
  -3   7  -3  599.79   74.11  15
  -3   7  -4 1052.32   96.27  15
   3  -7   5  644.76   67.44  20
   3  -7   6  351.64   55.42  20
   3  -7   7  148.16   36.82  20
   3  -7   8    1.64    8.85  20
   3  -7   9    1.91   10.26  20
   3  -6  -7   41.98   10.65  13
   3  -6  -6    0.07    7.62  13
   3  -6  -5  121.95   24.38  13
   3  -6  -4  368.56   53.51  13
  -3   6   4  399.99   49.78  17
  -3   6   3 1021.76   89.15  17
   3  -6  -3 1124.14   81.68  13
   3  -6  -2 1681.64   88.32  13
  -3   6   2 1669.98  104.23  17
  -3   6   1 1691.08   95.61  17
   3  -6  -1 1640.52   82.72  13
   3  -6   0  468.93   47.11  13
   3  -6   0  523.37   65.49   2
  -3   6  -1   13.53    7.96  10
  -3   6  -1   49.39   26.66   4
   3  -6   1    8.83    6.42  13
   3  -6   1   42.59   19.51   2
  -3   6  -2  352.21   50.29   4
   3  -6   2  255.35   53.48   2
  -3   6  -2  306.03   38.15  10
  -3   6  -3  922.03   82.70   4
  -3   6  -4  942.94   88.79  15
  -3   6  -4 1140.50   98.58   4
   3  -6   5 1101.49   86.16  20
   3  -6   6  765.16   77.28  20
   3  -6   7  107.41   33.98  20
   3  -6   8    0.81   20.98  20
   3  -6   9   38.85   16.80  20
   3  -5  -7   10.82    7.89  13
  -3   5   6   57.91   19.57  17
   3  -5  -6   51.65   17.01  13
   3  -5  -5  268.94   44.26  13
  -3   5   5  277.24   40.02  17
  -3   5   4  886.64   79.75  17
   3  -5  -4  868.78   82.29  13
  -3   5   3 1637.99  110.60  17
   3  -5  -3 1675.89   95.87  13
  -3   5   2 1668.51  104.74  17
  -3   5   2 1666.40  141.76   3
   3  -5  -2 1642.28   84.04  13
   3  -5  -1 1678.51   97.87   2
   3  -5   0  432.93   57.65   2
  -3   5  -1  134.06   28.18   4
  -3   5  -2 1583.39   96.07   4
  -3   5  -3 2205.93  118.12   4
  -3   5  -4 1266.45   97.14   4
   3  -5   5 1542.12  103.03  20
  -3   5  -5 1609.88  123.72   4
   3  -5   6  532.43   65.02  20
  -3   5  -7  -44.97   26.31   8
   3  -5   7   12.71   17.23  20
   3  -5   8   11.33   19.66  20
   3  -5   9  128.28   28.85  20
  -3   5 -10  108.59   16.94  13
   3  -5  10  134.03   21.17  20
   3  -4  -8   19.21    8.72  13
  -3   4   7   20.30   10.65  17
   3  -4  -7    3.76   12.06  13
  -3   4   6  101.51   22.61  17
   3  -4  -6   99.43   26.60  13
   3  -4  -5  419.94   54.63  13
  -3   4   5  450.15   54.19  17
   3  -4  -4 1647.84  108.59  13
  -3   4   4 1650.85  103.43  17
  -3   4   3 2415.43  182.01   3
   3  -4  -3 2474.46  112.24  13
  -3   4   3 2236.07  128.21  17
  -3   4   2 1198.73  115.22   3
   3  -4  -1   79.50   19.10   2
  -3   4   0  324.53   42.22   4
  -3   4  -1 1685.33   87.69   4
  -3   4  -2 4052.55  138.32   4
  -3   4  -3 5381.19  169.18   4
  -3   4  -4 2978.44  140.27   4
  -3   4  -5  994.46   93.27   4
   3  -4   6  -38.62   24.41  20
  -3   4  -6  -39.60   30.29   4
  -3   4  -7   41.63   29.07   8
   3  -4   7   22.72   15.55  20
  -3   4  -8  131.24   28.67   8
   3  -4   8  141.66   34.13  20
   3  -4   9  305.41   42.47  20
  -3   4 -10  166.90   20.36  13
   3  -4  10  167.25   25.63  20
   3  -3  -8   -4.87   10.71  13
   3  -3  -7   57.38   17.65  13
  -3   3   7   55.70   20.18  17
  -3   3   6  297.37   43.30  17
   3  -3  -6  279.30   41.12  13
  -3   3   5 1459.75   89.67  17
   3  -3  -5 1118.83   87.31  13
  -3   3   4 2413.30  168.54   3
  -3   3   4 2290.14  119.29  17
   3  -3  -4 2272.82  123.02  13
  -3   3   3 1958.07  150.56   3
  -3   3   2  457.33   69.96   3
   3  -3  -1  207.94   25.93   2
  -3   3   0 4369.08  133.61   4
  -3   3  -1 7110.99  160.61   4
  -3   3  -2 6699.10  160.83   4
  -3   3  -3 5493.48  155.96   4
  -3   3  -4 3127.78  132.01   4
  -3   3  -5  948.28   85.01   4
  -3   3  -6  -13.51   26.80   4
  -3   3  -7  342.39   65.78   4
  -3   3  -7  315.97   44.27   8
   3  -3   7  257.28   53.67  20
  -3   3  -8  735.38   62.18   8
   3  -3   8  752.45   66.44  20
  -3   3  -9  577.19   44.61   8
   3  -3   9  441.44   50.50  20
  -3   3 -10  210.77   25.58  13
  -3   3 -11   62.92   12.08  14
   3  -2  -9   -6.43    4.79  13
   3  -2  -8   25.82   11.61  13
   3  -2  -7  193.72   30.89  13
  -3   2   7  241.92   37.21  17
  -3   2   6 1153.78   83.88  19
   3  -2  -6 1018.40   73.35  13
  -3   2   6 1008.09   77.15  17
  -3   2   5 1708.70  112.44  19
  -3   2   5 1682.32  130.98   3
   3  -2  -5 1590.03   99.66  13
  -3   2   5 1812.36   94.79  17
  -3   2   4 1868.47  133.27   3
  -3   2   3  986.36   98.27   3
  -3   2   2  126.91   38.78   3
  -3   2   2  133.73   24.44   6
  -3   2   1  247.60   26.14   6
  -3   2   1  182.08   40.89   3
  -3   2   0 4722.32   95.23   6
  -3   2   0 4313.94  118.28   4
  -3   2  -1 8736.34  158.98   4
  -3   2  -210783.42  183.10   4
  -3   2  -3 5503.78  141.16   4
   3  -2   3 5437.44   90.78   1
   3  -2   4 1873.39   72.66   1
  -3   2  -4 1737.83   92.28   4
  -3   2  -5  244.47   46.55   4
   3  -2   5  257.97   35.91   1
  -3   2  -6  428.26   68.57   4
   3  -2   7 1440.47   90.97  20
  -3   2  -7 1434.13   91.15   8
  -3   2  -7 1514.24  136.95   4
  -3   2  -8 1158.79   73.28   8
   3  -2   8 1150.83   76.00  20
  -3   2  -9  465.33   44.35   8
  -3   2  -9  447.27   40.20  13
   3  -2   9  473.65   49.20  20
  -3   2 -10  184.33   25.15  13
  -3   2 -11   11.57    8.81  13
  -3   2 -11   35.21    9.50  14
   3  -2  11   30.82   13.36  19
   3  -1  -9  -16.46    5.97  13
   3  -1  -8   44.05   14.18  13
  -3   1   7  642.11   59.53  17
   3  -1  -7  600.91   49.41  13
  -3   1   7  638.66   58.27  19
  -3   1   6 1834.97  100.54  19
   3  -1  -6 1565.18   87.20  13
  -3   1   6 1692.49   90.85  17
  -3   1   5 1679.19  106.03  19
  -3   1   5 1615.56  122.82   3
   3  -1  -5 1485.58   90.67  13
  -3   1   5 1543.89  118.00   1
  -3   1   5 1602.26   92.71  17
  -3   1   4 1113.60   97.79   3
  -3   1   3  242.92   48.42   3
  -3   1   2    3.70   24.42   3
  -3   1   1 1955.17  117.33   3
  -3   1   1 1925.21   75.86   6
  -3   1   1 1820.71   71.92   5
  -3   1   0 9101.94  152.04   4
  -3   1   0 9695.25  251.59   3
  -3   1   0 9139.87  138.19   6
  -3   1  -113612.34  280.49   3
  -3   1  -111316.43  158.26   4
  -3   1  -210899.70  163.60   4
  -3   1  -213320.42  201.96   3
  -3   1  -3 2412.88   84.85   4
   3  -1   3 2550.57   52.32   1
  -3   1  -4  274.65   36.97   4
   3  -1   4  293.05   30.79   1
   3  -1   5  531.32   53.63   1
  -3   1  -5  529.58   61.40   4
  -3   1  -6 2324.95  156.94   4
   3  -1   6 2416.95  136.21   1
  -3   1  -7 1243.13  118.63   4
  -3   1  -8  861.76   64.06   8
   3  -1   8  911.94   66.81  20
  -3   1  -9  481.30   41.78  13
   3  -1   9  515.47   50.67  20
  -3   1  -9  542.35   46.34   8
  -3   1 -10  113.36   20.90  13
  -3   1 -11   -6.54    7.30  14
   3  -1  11   -9.99    8.71  19
   3   0  -9   19.92    8.50  13
   3   0  -8  180.57   26.23  13
  -3   0   8  178.51   28.29  19
   3   0  -7  676.15   50.82  13
  -3   0   7  692.50   61.69  19
  -3   0   7  720.48   57.52  17
  -3   0   6 1683.73   96.66  19
   3   0  -6 1312.81   78.91  13
  -3   0   6 1542.20   86.60  17
  -3   0   5 1724.71  113.73   1
  -3   0   5 1767.43   92.56  17
  -3   0   5 1746.94  115.32   3
   3   0  -5 1756.27   91.26  13
  -3   0   4  459.05   57.34   3
  -3   0   4  412.43   55.33   1
  -3   0   3  360.05   51.76   1
  -3   0   3  319.20   50.99   3
  -3   0   2 1427.42   97.89   3
  -3   0   1 5590.30  187.06   3
  -3   0   1 5496.47  117.77   5
  -3   0   010596.62  146.28   4
  -3   0   0 9962.32  229.47   3
  -3   0   0 9955.44  168.64   5
  -3   0   010275.50  152.30   6
  -3   0  -110493.37  130.56   4
  -3   0  -110368.72  145.02   6
  -3   0  -210509.22  140.71   4
  -3   0  -210686.66  248.38   2
   3   0   3 1678.62   49.21   1
  -3   0  -3 1773.03  112.28   2
  -3   0  -3 1516.65   62.07   4
  -3   0  -4   41.48   17.84   4
   3   0   4   56.01   19.72   1
  -3   0  -4   89.02   29.24   2
  -3   0  -5 2774.54  139.80   4
   3   0   5 3107.98  122.58   1
  -3   0  -6 2389.60  163.62   4
   3   0   6 2468.85  119.50   1
  -3   0  -7 1148.85  103.52   4
  -3   0  -8 1364.86   75.77   8
  -3   0  -8 1349.07   71.17  13
   3   0   8 1480.05   82.95  20
  -3   0  -9  352.91   37.56  13
  -3   0  -9  413.49   41.28   8
  -3   0 -10   24.00   14.03  14
  -3   0 -10   33.17    9.42  13
  -3   0 -11  -10.66    6.28  14
   3   0  11    7.53    8.66  19
   3   1  -9  108.62   16.10  13
  -3  -1   8  290.15   37.08  19
   3   1  -8  337.15   32.18  13
  -3  -1   7  457.62   50.66  17
   3   1  -7  411.31   40.95  13
  -3  -1   7  434.17   50.44  19
  -3  -1   6  636.75   60.67  19
  -3  -1   6  624.10   59.44  17
   3   1  -6  552.89   48.59  13
  -3  -1   5  710.86   63.69  17
  -3  -1   5  625.94   70.39   1
  -3  -1   4   64.27   20.29   1
  -3  -1   3 1185.95   93.39   1
  -3  -1   3 1229.58   91.88   3
  -3  -1   2 6537.68  184.95   1
  -3  -1   2 6414.03  202.80   3
  -3  -1   111005.45  174.87   1
  -3  -1   110023.15  227.48   3
  -3  -1   0 5369.23  129.62   2
  -3  -1   0 5093.49   78.85   1
  -3  -1   0 5012.82  110.43   6
  -3  -1   0 5154.67  122.93   5
  -3  -1  -1 5406.02   77.33   4
  -3  -1  -1 5139.43  105.45   6
  -3  -1  -2 6612.19  168.83   5
  -3  -1  -2 6435.25   94.12   4
  -3  -1  -2 7166.84  225.85   2
  -3  -1  -3  936.54   70.60   5
  -3  -1  -3  883.73   77.97   2
  -3  -1  -3  824.87   42.37   4
  -3  -1  -4 2499.97  123.07   2
  -3  -1  -4 2497.95  107.99   5
  -3  -1  -4 2373.92   97.69   4
  -3  -1  -5 6715.46  158.59   5
  -3  -1  -5 6054.10  191.19   2
  -3  -1  -6 2882.23  135.50   2
  -3  -1  -7 1948.03   88.18   8
   3   1   7 2029.66  115.52   1
  -3  -1  -8  908.48   62.23   8
  -3  -1  -9  106.55   21.35  14
  -3  -1  -9   55.09   20.80  13
  -3  -1 -10   -5.19    6.26  14
   3   1  10   -2.26    8.79  19
  -3  -1 -11   81.86   10.37  14
   3   1  11   46.31   16.34  19
   3   2  -9  133.73   15.93  13
  -3  -2   8  326.41   35.52  19
   3   2  -8  300.22   30.41  13
  -3  -2   7  587.40   54.03  19
  -3  -2   7  502.13   52.67  17
   3   2  -7  484.03   42.93  13
  -3  -2   6  182.82   34.89  17
   3   2  -6  196.32   29.82  13
  -3  -2   5   39.71   21.01  17
  -3  -2   5   31.13   20.01   1
  -3  -2   4  173.54   44.58   1
  -3  -2   3 1900.35  119.95   1
  -3  -2   210063.20  215.11   1
  -3  -2   119315.27  239.51   2
  -3  -2   118463.88  217.28   1
  -3  -2   010878.26  134.77   1
  -3  -2   010826.30  167.55   6
  -3  -2  -1 2744.09  157.39   2
  -3  -2  -1 2288.62   73.51   6
  -3  -2  -2  101.58   10.08   4
  -3  -2  -2  112.40   34.16   2
  -3  -2  -3 2806.32   72.36   4
  -3  -2  -3 3521.56  152.26   2
  -3  -2  -4 3767.01  155.91   2
  -3  -2  -5 3764.94  160.44   2
  -3  -2  -6 4635.65  182.06   2
  -3  -2  -7 2574.41   99.87   8
  -3  -2  -8  298.06   37.07  14
   3   2   8  288.10   43.59  19
  -3  -2  -9   -3.62    5.38  14
  -3  -2  -9    3.73    7.23  13
   3   2   9   10.68    6.65  19
  -3  -2 -10    4.86    8.22  13
  -3  -2 -10   28.05   15.37  14
   3   2  10   43.55   13.11  19
   3   2  11   71.77   16.73  19
   3   3  -9  101.28   13.00  13
   3   3  -8  312.04   28.55  13
  -3  -3   8  313.89   38.56  17
   3   3  -7  480.39   40.99  13
  -3  -3   7  501.07   56.03  17
  -3  -3   6  146.85   32.36  17
   3   3  -6  174.44   26.20  13
  -3  -3   5  105.91   28.53  17
  -3  -3   5   73.39   34.49   1
  -3  -3   4 1251.91  113.01   1
  -3  -3   3 3538.36  158.53   1
  -3  -3   2 6931.96  177.77   1
  -3  -3   111039.02  233.56   2
  -3  -3   110771.80  180.60   1
  -3  -3   0 6510.34  123.28   1
  -3  -3   0 6283.72  134.22   6
  -3  -3  -1 1136.91   96.57   2
  -3  -3  -1 1007.69   52.44   6
  -3  -3  -2 1702.95  108.22   2
  -3  -3  -3 6168.54  209.00   2
  -3  -3  -4 3488.56  166.19   2
  -3  -3  -5 4051.03  178.89   2
  -3  -3  -6 4047.56  181.98   2
  -3  -3  -7 1432.54   85.65  14
   3   3   7 1603.30  100.01  19
  -3  -3  -8  106.83   25.37  14
   3   3   8  153.00   30.96  19
  -3  -3  -9   38.02   16.79  14
   3   3   9   29.80   16.35  19
  -3  -3 -10  132.50   22.71  14
   3   3  10  129.39   24.40  19
   3   4  -9   95.77   12.40  13
  -3  -4   8  247.46   30.31  17
   3   4  -8  216.97   22.54  13
  -3  -4   7  118.99   27.07  17
   3   4  -7   97.20   19.65  13
  -3  -4   6   48.19   20.44  17
  -3  -4   5   98.96   25.09  17
  -3  -4   5  151.28   57.38   1
  -3  -4   5  116.83   22.56  11
  -3  -4   4 1321.61  121.08   1
  -3  -4   3 3404.69  161.24   1
  -3  -4   2 4908.16  158.38   1
  -3  -4   1 3294.67  161.75   2
  -3  -4   1 3138.88  110.84   1
  -3  -4   1 3164.33  114.04   6
  -3  -4   0  850.59  109.23   2
  -3  -4   0  772.99   50.04   1
  -3  -4   0  762.08   50.26   6
  -3  -4  -1   11.69    7.37   6
  -3  -4  -1   -6.98   25.34   2
  -3  -4  -2 1776.43  117.25   2
  -3  -4  -3 3842.34  172.17   2
  -3  -4  -4 5210.31  211.02   2
  -3  -4  -5 4770.36  213.99   2
  -3  -4  -6 1143.40  109.32   2
  -3  -4  -6 1101.80   79.67  14
  -3  -4  -7  115.31   26.16  14
   3   4   7  168.76   33.80  19
  -3  -4  -8   25.09   14.81  14
   3   4   8   26.95   19.99  19
  -3  -4  -9  130.56   23.38  14
  -3  -4 -10  219.65   23.90  14
  -3  -5   8   77.06   13.52  17
   3   5  -8   72.87   11.31  13
  -3  -5   7  -38.62   18.37  17
   3   5  -7   28.91    9.91  13
  -3  -5   6   33.88   21.80  17
  -3  -5   6   25.63   12.85  11
  -3  -5   5  334.85   56.31  17
  -3  -5   5  371.34   50.84  11
  -3  -5   4 1679.18  142.17   1
  -3  -5   4 1698.58  101.87  11
  -3  -5   4 1683.74  118.98  17
  -3  -5   3 3255.58  164.40   1
  -3  -5   2 3303.82  142.05   1
  -3  -5   2 3535.03  145.99   6
  -3  -5   1 1176.79  127.22   2
  -3  -5   1 1259.08   74.69   6
  -3  -5   1 1169.88   75.24   1
  -3  -5   0  -26.17   55.05   2
  -3  -5   0   37.34   13.30   6
  -3  -5  -1  925.42  100.58   2
  -3  -5  -2 3752.34  180.02   2
  -3  -5  -3 3959.20  187.66   2
  -3  -5  -4 4039.81  201.95   2
  -3  -5  -5 2172.04  114.74  14
  -3  -5  -5 2210.92  160.08   2
  -3  -5  -6  335.14   59.68   2
  -3  -5  -6  228.51   42.05  14
  -3  -5  -7   15.48   11.85  14
  -3  -5  -8  188.86   31.90  14
  -3  -5  -9  194.36   26.94  14
  -3  -5 -10  229.36   21.25  14
   3   6  -8    8.02    4.37  13
  -3  -6   7    3.71   10.83  17
   3   6  -7   -4.61    8.91  13
  -3  -6   6  165.22   36.70  17
  -3  -6   6  159.86   31.60  11
  -3  -6   5  857.03   69.62  11
  -3  -6   5  843.09   80.03  17
  -3  -6   4 1810.42  128.60  17
  -3  -6   4 1869.34  109.85  11
  -3  -6   3 1904.67  102.35  16
  -3  -6   3 1862.95  139.81   1
  -3  -6   3 1988.39  101.88  18
  -3  -6   2  969.11   88.99   1
  -3  -6   1  218.08   39.54   1
  -3  -6   1  246.77   64.57   2
  -3  -6   0  -28.99   28.47   2
  -3  -6  -1 1671.74  149.75   2
  -3  -6  -2 3436.75  193.06   2
  -3  -6  -3 3576.70  190.10   2
  -3  -6  -4 2662.43  171.92   2
  -3  -6  -4 2942.00  119.31  14
  -3  -6  -5  927.61  105.24   2
  -3  -6  -5  781.61   72.56  14
  -3  -6  -6   75.16   20.27  14
  -3  -6  -7  110.56   26.54  14
  -3  -6  -8  265.38   34.11  14
  -3  -6  -9  323.83   28.61  14
  -3  -7   7   47.70   13.31  17
   3   7  -7   52.39    9.45  13
  -3  -7   6  305.68   39.53  11
  -3  -7   6  285.00   42.71  17
  -3  -7   5  772.53   78.05  17
  -3  -7   5  848.87   67.57  11
  -3  -7   4  872.77   76.42  11
  -3  -7   3  392.11   47.88  16
  -3  -7   3  392.90   50.20  18
  -3  -7   2  210.64   33.07  16
  -3  -7   2  230.59   34.34  18
  -3  -7   1    4.27    8.16  16
  -3  -7   1   29.81   25.77   2
  -3  -7   1  -25.04   14.60  18
  -3  -7   0  789.38   56.27  16
  -3  -7   0  865.34  134.75   2
  -3  -7   0  881.99   56.66  18
  -3  -7  -1 2755.92  101.16  18
  -3  -7  -1 2768.75  207.13   2
  -3  -7  -2 3054.74  199.43   2
  -3  -7  -2 3409.41  112.75  14
  -3  -7  -2 3203.69  110.91  18
  -3  -7  -3 2470.56  102.61  18
  -3  -7  -3 2469.93  177.50   2
  -3  -7  -3 2513.08  105.16  14
  -3  -7  -4 1382.99   85.61  14
  -3  -7  -5  188.58   32.15  14
  -3  -7  -6   49.04   22.95  14
  -3  -7  -7  201.49   29.41  14
  -3  -7  -8  295.92   31.38  14
  -3  -8   7   32.68   10.03  17
  -3  -8   6  250.87   36.64  17
  -3  -8   6  241.75   34.41  11
  -3  -8   5  536.48   53.99  11
  -3  -8   5  521.97   60.51  17
  -3  -8   4  377.93   60.29  17
  -3  -8   4  407.41   52.36  11
  -3  -8   3  141.43   27.28  16
  -3  -8   3  174.35   30.36  18
  -3  -8   3  129.47   36.86  11
  -3  -8   2   10.20   15.88  16
  -3  -8   2   24.80   18.78  18
  -3  -8   1  273.82   37.25  16
  -3  -8   1  270.59   38.61  18
  -3  -8   1  206.61   59.93  11
  -3  -8   0 1211.69   72.91  16
  -3  -8   0 1318.73  115.10  11
  -3  -8   0 1130.74   71.16  18
  -3  -8  -1 2156.09   94.33  16
  -3  -8  -1 2028.72   92.42  18
  -3  -8  -2 2246.57   97.37  18
  -3  -8  -3 1322.08   79.32  18
  -3  -8  -4  269.85   41.09  18
  -3  -8  -5   -3.80   11.49  18
  -3  -8  -5   11.53    9.19  14
  -3  -8  -7  230.73   32.85  18
  -3  -8  -8  292.19   27.73  18
  -3  -9   6  159.88   23.13  17
  -3  -9   6  116.24   22.42  11
  -3  -9   5  212.61   31.05  11
  -3  -9   5  178.17   31.87  17
  -3  -9   4  186.92   41.22  17
  -3  -9   4  171.92   33.68  11
  -3  -9   3   69.26   19.37  16
  -3  -9   3   95.73   30.11  11
  -3  -9   2   85.21   38.27  11
  -3  -9   2   77.43   26.20  16
  -3  -9   2   73.72   25.19  18
  -3  -9   1  803.58   61.55  18
  -3  -9   1  790.99   62.89  16
  -3  -9   1  772.57   92.38  11
  -3  -9   0  968.44   90.08  11
  -3  -9   0  862.09   67.16  16
  -3  -9   0  912.34   64.65  18
  -3  -9  -1  753.34   60.94  16
  -3  -9  -1  837.19   58.57  18
  -3  -9  -2  719.98   57.90  16
  -3  -9  -2  833.15   62.69  18
  -3  -9  -3  403.70   46.14  18
  -3  -9  -4    2.29   19.13  18
  -3  -9  -5   83.28   24.43  18
  -3  -9  -6  250.79   30.58  18
  -3  -9  -7  300.10   27.78  18
  -3 -10   5   39.80   12.80  11
  -3 -10   5   23.02   11.67  17
  -3 -10   4   42.03   16.95  17
  -3 -10   4   22.13   15.13  11
  -3 -10   3   15.77   14.91  17
  -3 -10   3    6.92   12.31  11
  -3 -10   2  142.49   29.04  16
  -3 -10   2  110.66   37.72  11
  -3 -10   1  512.24   52.79  16
  -3 -10   1  434.98   61.85  11
  -3 -10   0  664.89   57.06  16
  -3 -10  -1  562.99   50.61  16
  -3 -10  -1  631.54   51.03  18
  -3 -10  -2  190.84   31.44  16
  -3 -10  -2  221.66   34.07  18
  -3 -10  -3  -24.75   17.76  18
  -3 -10  -3   24.46   12.02  16
  -3 -10  -4   48.37   14.42  16
  -3 -10  -4   53.17   14.51  18
  -3 -10  -5  136.77   24.18  18
  -3 -10  -5  139.38   25.86  16
  -3 -10  -6  249.59   24.45  16
  -3 -11   3   55.62   16.54  17
  -3 -11   2  169.19   33.08  17
  -3 -11   2  104.34   26.29  11
  -3 -11   1  315.43   34.42  16
  -3 -11   0  443.70   43.06  16
  -3 -11  -1  375.64   38.00  16
  -3 -11  -2   78.51   16.41  16
  -3 -11  -3   27.51   11.96  16
  -3 -11  -4  101.77   16.47  16
  -4  10  -1    7.27    6.77  15
  -4  10  -2   -5.92    4.04  15
   4 -10   2    3.30    4.13  20
   4 -10   3   45.98   13.09  20
  -4   9   1  165.33   22.43  15
  -4   9   0   76.71   25.12  15
  -4   9  -1   -2.61   25.24  15
  -4   9  -2   77.67   24.40  15
  -4   9  -3  213.74   38.23  15
  -4   9  -4  235.78   36.96  15
   4  -9   4  250.61   37.09  20
   4  -9   5  159.06   29.03  20
   4  -9   6   49.46   15.90  20
  -4   8   3  277.38   34.61  10
  -4   8   2  232.40   39.09  10
  -4   8   2  291.54   37.19  15
  -4   8   1  124.07   28.74  10
  -4   8   1  121.42   32.24  15
  -4   8   0  -21.70    7.60  10
  -4   8   0    1.87   20.39  15
  -4   8  -1   29.85   16.19  10
  -4   8  -1   99.04   34.73  15
  -4   8  -2  131.83   41.80  15
  -4   8  -3  465.83   64.13  15
  -4   8  -4  502.79   58.20  15
   4  -8   4  436.95   51.80  20
   4  -8   5  215.63   36.35  20
   4  -8   6   67.59   24.35  20
   4  -8   7   -5.65   12.32  20
   4  -8   8   15.37    4.98  20
  -4   7   5   95.42   17.71  10
   4  -7  -4  259.17   33.52  13
  -4   7   4  286.80   35.56  10
   4  -7  -3  375.09   46.66  13
  -4   7   3  322.69   48.02  10
  -4   7   2  279.46   45.04  10
  -4   7   2  322.18   48.64  15
   4  -7  -2  332.78   45.92  13
  -4   7   1   83.96   27.63  10
   4  -7  -1  110.07   26.48  13
  -4   7   0   20.68   15.22  10
  -4   7   0    4.65   25.21  15
   4  -7   0   -9.86    8.02  13
  -4   7  -1  169.30   30.75  10
  -4   7  -1  196.39   65.70  15
  -4   7  -2  527.00   82.67  15
  -4   7  -2  574.17   53.17  10
  -4   7  -3  984.62   95.18  15
  -4   7  -4  551.28   66.55  15
   4  -7   5  167.02   37.77  20
   4  -7   6    0.08   19.97  20
   4  -7   7    8.80   11.64  20
   4  -7   8   59.05   18.66  20
   4  -7   9   72.88   16.69  20
  -4   6   6   71.60   14.76  10
   4  -6  -5  232.22   32.90  13
   4  -6  -4  369.61   51.51  13
  -4   6   4  386.18   47.44  17
   4  -6  -3  465.42   55.95  13
  -4   6   3  409.93   55.65  17
  -4   6   2   95.04   30.05  17
  -4   6   2  131.17   27.85  15
   4  -6  -2   87.76   24.55  13
  -4   6   1   50.14   25.40  17
  -4   6   1   74.49   33.03  15
   4  -6  -1   51.20   21.81  13
  -4   6   0  349.93   69.04  15
   4  -6   0  335.58   40.79  13
  -4   6   0  323.81   44.63  10
  -4   6  -1  967.86   70.31  10
  -4   6  -1  836.43  138.93  15
   4  -6   1 1032.75   67.06  13
  -4   6  -2 1761.81  147.09  15
  -4   6  -2 1739.95   86.43  10
  -4   6  -3 1015.70   99.03  15
  -4   6  -3 1015.38   67.44  10
  -4   6  -4  245.21   45.89  15
   4  -6   5  152.43   34.82  20
   4  -6   6    0.74   16.87  20
  -4   6  -7  173.78   26.80   8
   4  -6   7  128.54   37.71  20
   4  -6   8  209.26   38.60  20
   4  -6   9  122.70   20.58  20
   4  -5  -6  229.41   26.62  13
   4  -5  -5  294.41   41.58  13
  -4   5   5  306.24   38.23  17
   4  -5  -4  424.66   57.35  13
  -4   5   4  427.57   49.23  17
   4  -5  -3  301.65   41.90  13
  -4   5   3  254.59   45.39  17
  -4   5   2   -6.80   23.71  15
   4  -5  -2   -0.49    9.30  13
  -4   5   2   32.79   15.23  17
  -4   5   1  585.00   80.01  15
   4  -5  -1  533.28   52.70  13
  -4   5   1  556.86   92.56   3
  -4   5   1  570.85   59.24  17
  -4   5   0 2036.51  168.97  15
  -4   5   0 2008.68   97.71  17
   4  -5   0 1911.93   88.35  13
   4  -5   0 1802.77  119.34   2
  -4   5  -1 2858.50  106.92  10
  -4   5  -1 3054.51  149.97   4
   4  -5   1 2765.13  143.90   2
  -4   5  -1 2801.99  107.21  17
  -4   5  -2 2594.55  135.09   4
  -4   5  -2 2571.01  185.64  15
  -4   5  -2 2368.41   95.97  10
  -4   5  -3 1054.19   87.15   4
  -4   5  -3 1092.08  102.30  15
  -4   5  -3 1047.09   64.33  10
  -4   5  -4  424.63   58.53   4
  -4   5  -4  469.40   59.90  15
  -4   5  -5  166.58   59.42   4
   4  -5   5  155.38   35.36  20
   4  -5   6   93.59   27.44  20
  -4   5  -7  490.56   55.43   8
   4  -5   7  535.77   68.98  20
  -4   5  -8  532.33   50.43   8
   4  -5   8  487.08   58.18  20
   4  -5   9  218.29   34.07  20
   4  -5  10   69.42   16.37  20
   4  -4  -7  165.74   20.40  13
   4  -4  -6  328.87   36.37  13
  -4   4   6  306.12   36.02  17
   4  -4  -5  428.32   53.65  13
  -4   4   5  442.96   51.64  17
   4  -4  -4  430.60   61.90  13
  -4   4   4  423.18   56.70  17
  -4   4   3   43.10   24.01  17
   4  -4  -3    1.18   12.41  13
  -4   4   2  134.21   28.21  17
   4  -4  -2   96.55   21.27  13
  -4   4   1  637.64   96.92   3
  -4   4   0 3642.50  209.64   3
   4  -4   0 3827.18  144.33   2
  -4   4  -1 4507.90  165.22   4
  -4   4  -2 2384.93  118.85   4
  -4   4  -3 1022.98   80.45   4
  -4   4  -4  316.57   50.92   4
  -4   4  -5  140.70   37.70   4
   4  -4   5  124.59   25.48  20
  -4   4  -6 1128.35  122.58   4
   4  -4   6 1111.06  100.68  20
  -4   4  -7  653.21   66.42   8
   4  -4   7  620.95   76.56  20
  -4   4  -8  422.79   48.69   8
   4  -4   8  415.44   56.81  20
  -4   4  -9  274.01   33.82   8
   4  -4   9  281.52   40.68  20
   4  -4  10   73.72   21.35  20
   4  -3  -7  212.62   24.09  13
  -4   3   7  227.82   27.81  17
   4  -3  -6  378.08   39.60  13
  -4   3   6  343.51   43.09  17
   4  -3  -5  585.91   60.31  13
  -4   3   5  624.32   58.01  17
  -4   3   4  225.47   37.97  17
   4  -3  -4  220.72   50.78  13
  -4   3   3   75.19   25.51  17
  -4   3   3   78.21   40.16   3
   4  -3  -3  105.25   30.49  13
  -4   3   2  643.46   89.48   3
  -4   3   1 2185.85  161.15   3
  -4   3   0 3947.75  205.29   3
  -4   3  -1 3650.03  132.21   4
  -4   3  -2 2552.86  109.26   4
  -4   3  -3  254.46   37.18   4
  -4   3  -4  144.82   29.21   4
  -4   3  -5 1616.41  113.91   4
   4  -3   6 1824.54  118.47  20
  -4   3  -6 1546.45  135.77   4
  -4   3  -7  690.96   69.44   8
   4  -3   7  708.94   77.91  20
  -4   3  -8  521.67   53.15   8
   4  -3   8  557.61   63.81  20
  -4   3  -9  186.39   32.48   8
   4  -3   9  193.72   35.37  20
  -4   3 -10   39.53    9.43   8
   4  -3  10   41.84   10.71  20
  -4   3 -11   11.64    6.36  14
   4  -2  -8   67.76   14.34  13
   4  -2  -7  321.00   31.37  13
  -4   2   7  286.62   37.09  17
  -4   2   6  577.45   53.87  17
   4  -2  -6  624.95   53.29  13
   4  -2  -5  222.48   32.41  13
  -4   2   5  239.11   38.38  17
  -4   2   4   19.45   12.84  17
  -4   2   4  -25.21   29.46   3
  -4   2   3  410.96   64.50   3
  -4   2   3  337.80   51.06  17
  -4   2   2 1630.34  125.83   3
  -4   2   1 5434.29  152.29   5
  -4   2   1 5603.45  146.48   6
  -4   2   0 5094.93  226.62   3
  -4   2   0 5460.12  130.67   6
  -4   2  -1 3170.12  110.82   4
  -4   2  -1 3704.27  203.41   3
  -4   2  -2 1712.10   82.14   4
  -4   2  -3   -1.46   10.90   4
  -4   2  -4 1307.97   84.18   4
  -4   2  -5 3001.78  147.47   4
  -4   2  -6 1715.81  137.64   4
  -4   2  -7 1294.77  141.47   4
  -4   2  -7 1203.64   89.80   8
   4  -2   7 1315.07   93.63  20
  -4   2  -8  756.66   63.12   8
   4  -2   8  800.30   67.77  20
  -4   2  -9   39.98   16.09   8
   4  -2   9   69.07   18.51  20
  -4   2 -10   18.16    9.21   8
  -4   2 -11   51.94   12.27  14
   4  -1  -8   98.00   14.25  13
   4  -1  -7  291.03   32.30  13
  -4   1   7  292.97   39.39  17
  -4   1   6  284.74   38.90  17
   4  -1  -6  298.41   36.75  13
  -4   1   5   -4.14   13.86  17
   4  -1  -5  -15.48   18.43  13
  -4   1   4  488.35   56.63   1
  -4   1   4  356.25   58.67   3
   4  -1  -4  383.76   54.28  13
  -4   1   4  403.60   50.30  17
  -4   1   3 1469.02  118.62   3
  -4   1   3 1613.53  138.13   6
  -4   1   3 1648.94  110.85   1
  -4   1   2 2622.67  149.36   3
  -4   1   2 3003.27  137.01   6
  -4   1   1 5555.40  217.62   3
  -4   1   1 5932.33  157.22   6
  -4   1   1 5709.55  146.55   5
  -4   1   0 7386.95  260.40   3
  -4   1   0 7413.88  156.15   6
  -4   1  -1 2858.34   93.63   4
  -4   1  -1 3114.40  163.21   3
  -4   1  -2  138.30   23.59   4
  -4   1  -3  593.45   48.03   4
  -4   1  -4 2899.09  115.74   4
  -4   1  -5 4422.86  171.54   4
  -4   1  -6 2547.64  164.63   4
  -4   1  -7 1322.79  145.84   4
  -4   1  -7 1186.36   83.55   8
   4  -1   7 1288.99   87.31  20
  -4   1  -8  251.51   36.58   8
   4  -1   8  239.83   42.27  20
  -4   1  -9  -35.40   17.02   8
   4  -1   9   -9.69    8.15  20
  -4   1 -10   69.54   16.88   8
  -4   1 -11   81.13   16.28  14
   4  -1  11   77.96   16.92  19
   4   0  -8  176.19   19.77  13
   4   0  -7  173.22   27.37  13
  -4   0   7  219.72   34.25  17
  -4   0   6   12.17   14.30  17
   4   0  -6  -26.83   17.67  13
   4   0  -5   71.35   17.85  13
  -4   0   5   35.10   21.55  17
  -4   0   4  715.33   67.29  17
  -4   0   4  840.70   84.90   1
  -4   0   4  776.85   86.85   3
  -4   0   3 3494.96  161.69   1
  -4   0   3 3341.69  159.74   3
  -4   0   2 7203.25  232.31   1
  -4   0   2 7012.36  231.80   3
  -4   0   1 7807.35  249.65   3
  -4   0   1 8222.23  190.85   6
  -4   0   1 8330.23  172.83   5
  -4   0   0 2297.93   96.64   5
  -4   0   0 2339.70  128.47   3
  -4   0   0 2305.15   90.05   6
  -4   0  -1  229.74   35.06   5
  -4   0  -1  249.68   26.23   4
  -4   0  -1  272.52   32.33   3
  -4   0  -1  263.70   29.14   6
  -4   0  -2  549.02   37.64   4
  -4   0  -3 5552.41  130.28   4
  -4   0  -4 5347.43  147.17   4
  -4   0  -5 4632.07  170.49   4
  -4   0  -6 3143.41  131.20   5
  -4   0  -6 2770.45  176.19   4
  -4   0  -7 1102.72   73.90   8
  -4   0  -7 1250.03  140.41   4
  -4   0  -8  117.96   24.46   8
   4   0   8   52.34   21.17  20
  -4   0  -9   52.91   18.59   8
  -4   0 -10  111.59   21.28  14
   4   0  11  144.88   22.08  19
  -4   0 -11  140.34   19.01  14
   4   1  -8  180.27   19.38  13
  -4  -1   8  196.46   26.93  17
  -4  -1   7   80.93   23.06  17
   4   1  -7   88.30   20.08  13
  -4  -1   6   12.49   11.69  17
   4   1  -6   10.01    7.03  13
  -4  -1   5  352.81   46.28  17
  -4  -1   5  348.19   62.48   1
   4   1  -5  312.16   42.94  13
  -4  -1   4 1509.89   89.36  17
  -4  -1   4 1536.76  118.57   1
  -4  -1   3 3810.20  186.40   1
  -4  -1   2 9939.85  255.31   1
  -4  -1   1 5618.75  138.17   1
  -4  -1   1 4764.25  148.17   6
  -4  -1   0   29.63    8.22   1
  -4  -1   0   29.75   12.36   6
  -4  -1   0   10.70   14.64   5
  -4  -1  -1   16.41   14.70   5
  -4  -1  -1   10.61    5.29   4
  -4  -1  -1   10.59    6.80   6
  -4  -1  -1   27.58   14.35   2
  -4  -1  -2 1423.49   51.97   4
  -4  -1  -2 1380.46  111.65   2
  -4  -1  -2 1438.72   91.31   5
  -4  -1  -3 6775.86  130.05   4
  -4  -1  -3 7024.40  226.53   5
  -4  -1  -3 6892.45  253.52   2
  -4  -1  -4 8265.82  171.46   4
  -4  -1  -4 8308.28  255.98   2
  -4  -1  -4 7872.78  227.02   5
  -4  -1  -5 6328.13  187.28   5
  -4  -1  -5 6042.86  213.57   2
  -4  -1  -5 6243.54  192.44   4
  -4  -1  -6 1983.09  123.55   2
  -4  -1  -6 1925.54  156.14   4
  -4  -1  -7  607.89   52.94   8
  -4  -1  -7  613.97   96.43   4
  -4  -1  -8    0.21   12.05   8
  -4  -1  -9  185.31   29.72   8
   4   1  10  220.76   34.50  19
  -4  -1 -10  221.68   29.99  14
  -4  -1 -11  242.39   23.74  14
   4   1  11  194.79   25.56  19
  -4  -2   8   44.91   15.34  17
   4   2  -8   41.19   12.93  13
  -4  -2   7   -6.49   10.69  17
   4   2  -7   11.03   10.79  13
  -4  -2   6   13.51   15.55  17
   4   2  -6    2.55   12.58  13
  -4  -2   5  344.14   49.52  17
   4   2  -5  328.93   37.97  13
  -4  -2   4 1864.60  103.32  17
  -4  -2   4 1764.17  140.84   1
  -4  -2   3 4322.66  197.95   1
  -4  -2   2 3701.56  146.88   1
  -4  -2   1  502.74   50.54   6
  -4  -2   1  579.68   44.98   1
  -4  -2   0   84.23   13.24   1
  -4  -2   0   77.15   19.90   2
  -4  -2   0   84.75   20.50   6
  -4  -2  -1 1033.48   97.69   2
  -4  -2  -1 1036.72   60.85   6
  -4  -2  -2 7766.32  302.55   2
  -4  -2  -2 7169.76  208.58   5
  -4  -2  -3 5638.61  101.50   4
  -4  -2  -3 5205.90  218.36   2
  -4  -2  -3 5494.50  203.64   5
  -4  -2  -4 5937.83  135.00   4
  -4  -2  -4 5603.05  214.16   2
  -4  -2  -4 5646.15  191.06   5
  -4  -2  -5 3704.76  173.83   2
  -4  -2  -5 4190.69  156.97   4
  -4  -2  -6  841.61   85.88   2
  -4  -2  -7    0.26   12.84   8
  -4  -2  -7   27.10   30.59   2
  -4  -2  -8  346.05   38.98   8
  -4  -2  -8  337.22   41.98  14
  -4  -2  -9  297.45   35.78  14
   4   2   9  347.33   44.52  19
   4   2  10  310.91   38.05  19
  -4  -2 -10  355.09   35.14  14
  -4  -2 -11  177.69   20.64  14
  -4  -3   8   32.76    9.14  17
   4   3  -8   16.15    4.39  13
  -4  -3   7   37.34   12.39  17
   4   3  -7   26.06   11.94  13
   4   3  -6  216.15   27.69  13
  -4  -3   6  201.50   35.65  17
  -4  -3   5  588.95   64.69  17
  -4  -3   4 2441.41  119.88  17
  -4  -3   4 2232.77  163.89   1
  -4  -3   3 3072.55  167.21   1
  -4  -3   2 1067.03   81.01   1
  -4  -3   1  103.24   24.10   1
  -4  -3   1   93.56   25.47   6
  -4  -3   0  208.51   25.88   1
  -4  -3   0  183.00   28.76   6
  -4  -3   0  153.52   42.23   2
  -4  -3  -1 6442.08  308.12   2
  -4  -3  -1 6070.47  147.83   6
  -4  -3  -213841.84  419.83   2
  -4  -3  -3 6120.55  246.76   2
  -4  -3  -4 2323.84  148.58   2
  -4  -3  -5 1078.85  100.02   2
  -4  -3  -6  139.20   40.57   2
  -4  -3  -7  278.76   53.09   2
  -4  -3  -7  213.48   33.51   8
  -4  -3  -7  255.03   38.48  14
  -4  -3  -8  742.31   60.82  14
  -4  -3  -9  634.35   51.77  14
  -4  -3 -10  374.90   35.25  14
  -4  -3 -11  115.05   15.24  14
  -4  -4   8  -14.70    9.90  17
  -4  -4   7   65.59   22.88  17
   4   4  -7   85.25   13.36  13
  -4  -4   6  520.54   55.68  17
   4   4  -6  528.41   40.86  13
  -4  -4   5 1579.98  100.89  17
  -4  -4   4 1840.71  111.43  17
  -4  -4   4 1778.34  158.89   1
  -4  -4   4 1791.37  103.34  11
  -4  -4   3  659.74   83.52   1
  -4  -4   2  548.22   59.31   1
  -4  -4   2  434.85   62.80   6
  -4  -4   1   41.13   17.27   6
  -4  -4   1   16.99   15.43   1
  -4  -4   0 2244.86   89.05   1
  -4  -4   0 2211.75  158.53   2
  -4  -4   0 2148.71   97.63   6
  -4  -4  -1 6865.47  372.64   2
  -4  -4  -1 5686.94  149.13   6
  -4  -4  -2 7775.26  315.83   2
  -4  -4  -3 6164.31  260.30   2
  -4  -4  -4 2742.21  176.15   2
  -4  -4  -5  162.41   46.99   2
  -4  -4  -6  184.62   35.60  14
  -4  -4  -6  249.17   52.34   2
  -4  -4  -7  540.44   57.30  14
  -4  -4  -8  735.03   59.70  14
  -4  -4  -9  603.67   50.09  14
  -4  -4 -10  295.65   29.60  14
  -4  -5   7  163.16   27.02  17
  -4  -5   6  473.01   53.75  17
   4   5  -6  453.80   35.79  13
  -4  -5   5 1067.63   78.28  11
  -4  -5   5 1011.61   85.79  17
  -4  -5   4  665.83   76.85  17
  -4  -5   4  719.57   70.59  11
  -4  -5   3  249.98   41.56  17
  -4  -5   3  297.08   53.03   1
  -4  -5   3  269.45   39.59  18
  -4  -5   3  286.57   64.17   6
  -4  -5   3  240.10   43.95  11
  -4  -5   2   49.89   25.19   1
  -4  -5   2   20.29   16.37   6
  -4  -5   1  674.74   63.78   1
  -4  -5   1  671.19   65.26   6
  -4  -5   0 3084.07  230.48   2
  -4  -5   0 3071.94  121.46   6
  -4  -5  -1 5901.69  361.96   2
  -4  -5  -2 5377.97  272.02   2
  -4  -5  -3 3380.52  204.20   2
  -4  -5  -4 1172.67  121.79   2
  -4  -5  -5   88.83   23.07  14
  -4  -5  -5  -27.58   25.18   2
  -4  -5  -6  720.98   86.75   2
  -4  -5  -6  727.52   71.50  14
  -4  -5  -7  808.36   68.83  14
  -4  -5  -8  549.09   51.39  14
  -4  -5  -9  341.64   34.65  14
  -4  -5 -10  178.52   20.40  14
  -4  -6   7  172.51   28.85  17
  -4  -6   6  412.40   46.45  17
  -4  -6   5  411.66   54.63  17
  -4  -6   5  428.36   50.66  11
  -4  -6   4  272.25   52.46  17
  -4  -6   4  308.57   47.43  11
  -4  -6   3   78.35   24.30  18
  -4  -6   3   93.95   29.00  17
  -4  -6   3   95.44   23.62  11
  -4  -6   2  389.41   43.66  18
  -4  -6   2  404.73   55.85   1
  -4  -6   2  308.72   63.10  11
  -4  -6   1 2072.91   89.33  18
  -4  -6   1 1904.53  115.05   1
  -4  -6   1 1790.94  237.72  11
  -4  -6   0 2877.06  282.97   2
  -4  -6  -1 4327.19  338.81   2
  -4  -6  -2 3230.06  231.60   2
  -4  -6  -3 1176.66  123.81   2
  -4  -6  -4   29.26   25.38  14
  -4  -6  -4   61.51   23.05   7
  -4  -6  -4   48.14   31.05   2
  -4  -6  -5  390.05   48.06  14
  -4  -6  -5  347.14   71.71   2
  -4  -6  -6  747.25   74.74  14
  -4  -6  -7  753.10   65.76  14
  -4  -6  -8  529.66   50.11  14
  -4  -6  -9  261.58   29.71  14
  -4  -6 -10   58.93   10.89  14
  -4  -7   7  128.31   18.32  17
  -4  -7   6  237.31   36.53  17
  -4  -7   5  241.32   42.84  17
  -4  -7   5  225.33   38.70  11
  -4  -7   4   69.21   30.46  17
  -4  -7   4   58.74   24.09  11
  -4  -7   3   55.33   30.53  17
  -4  -7   3   68.96   28.23  18
  -4  -7   3   71.98   24.41  11
  -4  -7   2  704.45   62.44  16
  -4  -7   2  636.74   86.67  11
  -4  -7   2  642.12   57.23  18
  -4  -7   1 1549.16   84.73  16
  -4  -7   1 1444.77   78.77  18
  -4  -7   1 1430.13  164.66  11
  -4  -7   0 2378.15  100.93  16
  -4  -7   0 2442.10  164.72  11
  -4  -7   0 2046.19   92.13  18
  -4  -7  -1 1876.31   86.08  18
  -4  -7  -1 1912.35  259.54   2
  -4  -7  -1 2014.75   90.48  16
  -4  -7  -1 2111.22  132.15  11
  -4  -7  -2  859.41   62.20  18
  -4  -7  -2  804.05  128.92   2
  -4  -7  -2 1011.17   79.46   7
  -4  -7  -3  174.93   26.73  14
  -4  -7  -3  152.13   34.35   7
  -4  -7  -3  117.35   40.04   2
  -4  -7  -3  151.33   28.99  18
  -4  -7  -4  129.06   29.01  14
  -4  -7  -4  189.83   32.25   7
  -4  -7  -4  104.76   22.20  18
  -4  -7  -5  678.69   66.00  14
  -4  -7  -6  843.83   74.19  14
  -4  -7  -7  670.92   60.33  14
  -4  -7  -8  403.41   39.73  14
  -4  -7  -9  110.06   17.54  14
  -4  -7  -9  111.88   18.27  18
  -4  -8   6   88.87   20.90  17
  -4  -8   5   45.02   20.19  17
  -4  -8   5   79.15   22.75  11
  -4  -8   4    4.47   19.21  17
  -4  -8   4   14.86   13.47  11
  -4  -8   3  188.80   43.62  17
  -4  -8   3  228.77   38.69  18
  -4  -8   3  195.96   42.34  11
  -4  -8   2  614.51   62.47  16
  -4  -8   2  565.62   77.19  11
  -4  -8   2  616.08   59.86  18
  -4  -8   1 1299.66   80.30  16
  -4  -8   1 1234.32   75.93  18
  -4  -8   1 1057.88  120.61  11
  -4  -8   0 1563.17   84.89  16
  -4  -8   0 1432.34  128.59  11
  -4  -8   0 1312.95   75.55  18
  -4  -8  -1  652.39   57.67  16
  -4  -8  -1  619.83   55.04  18
  -4  -8  -2   79.07   21.38  18
  -4  -8  -3   70.45   23.90  18
  -4  -8  -4  520.84   54.35  18
  -4  -8  -5  717.63   68.56  14
  -4  -8  -5  773.84   67.76  18
  -4  -8  -6  752.87   67.70  14
  -4  -8  -6  733.39   69.15  18
  -4  -8  -7  489.88   46.27  14
  -4  -8  -7  500.11   51.22  18
  -4  -8  -8  173.61   25.58  18
  -4  -9   5    1.02   13.87  17
  -4  -9   4   36.79   17.85  17
  -4  -9   4   23.73   19.24  11
  -4  -9   3  211.70   45.19  17
  -4  -9   3  217.41   38.14  11
  -4  -9   2  832.78   72.41  16
  -4  -9   2  790.51   85.14  11
  -4  -9   2  804.90   68.73  18
  -4  -9   1 1202.58   79.92  16
  -4  -9   1 1023.73  109.16  11
  -4  -9   1 1146.00   74.19  18
  -4  -9   0  654.69   80.76  11
  -4  -9   0  590.05   56.81  16
  -4  -9   0  628.05   55.15  18
  -4  -9  -1  209.84   30.62  16
  -4  -9  -1  168.21   32.61  18
  -4  -9  -2    9.11    8.46  16
  -4  -9  -2  -14.62   12.13  18
  -4  -9  -3  204.91   34.79  18
  -4  -9  -3  225.24   35.09  16
  -4  -9  -4  538.91   51.69  18
  -4  -9  -5  673.98   60.92  18
  -4  -9  -6  550.91   52.16  18
  -4  -9  -7  248.50   27.29  18
  -4 -10   4   47.47   17.99  17
  -4 -10   3  216.37   35.72  11
  -4 -10   3  183.07   36.17  17
  -4 -10   2  520.78   64.40  17
  -4 -10   2  494.08   61.82  11
  -4 -10   1  539.52   53.00  16
  -4 -10   1  634.72   50.56  18
  -4 -10   1  467.18   60.14  11
  -4 -10   0  213.70   34.07  16
  -4 -10   0  243.81   33.95  18
  -4 -10  -1   14.91   15.18  16
  -4 -10  -1   23.19   14.82  18
  -4 -10  -2   72.42   17.89  16
  -4 -10  -2   56.16   20.18  18
  -4 -10  -3  236.19   33.85  16
  -4 -10  -3  228.85   32.09  18
  -4 -10  -4  410.80   43.11  16
  -4 -10  -4  382.29   42.13  18
  -4 -10  -5  455.63   42.75  16
  -4 -10  -5  490.89   42.05  18
  -4 -10  -6  178.28   23.51  18
  -4 -11   2  155.13   26.44  17
  -4 -11   1   81.57   23.93  17
  -4 -11   0   15.27   18.73  17
  -4 -11   0   62.65   14.57  16
  -4 -11  -1    0.42    6.23  16
  -4 -11  -2  143.31   24.39  16
  -4 -11  -3  286.59   32.10  16
  -5   9   0   26.25   11.71  15
  -5   9  -1  104.83   20.29  15
  -5   9  -2  141.98   30.83  15
   5  -9   2  184.70   32.61  20
  -5   9  -3  108.22   26.39  15
   5  -9   3  159.84   26.05  20
  -5   9  -4   72.12   14.52  15
   5  -9   4   65.39   15.53  20
  -5   8   2  -11.42    7.67  10
  -5   8   1   33.71   16.20  10
  -5   8   1   59.28   17.75  15
  -5   8   0  139.73   32.48  15
  -5   8   0  177.41   31.97  10
  -5   8  -1  238.62   45.13  15
  -5   8  -2  299.69   53.66  15
  -5   8  -3  182.76   35.32  15
  -5   8  -4   18.75   18.13  15
   5  -8   4   18.77    9.80  20
  -5   8  -5  -44.17   21.26  15
   5  -8   5  -20.23   14.94  20
  -5   8  -6   37.70   15.47   8
   5  -8   6   22.18   10.99  20
   5  -8   7   63.50   14.98  20
  -5   7   4   42.27   12.90  10
  -5   7   3  -24.51   18.18  10
  -5   7   2   25.57   18.07  15
  -5   7   2   28.24   20.25  10
  -5   7   1  367.70   48.11  10
  -5   7   1  403.75   52.36  15
  -5   7   0  581.54   76.21  15
  -5   7   0  613.70   58.12  10
  -5   7  -1  358.34   65.56  15
  -5   7  -1  405.79   45.53  10
  -5   7  -2  378.97   67.85  15
  -5   7  -2  364.97   44.02  10
  -5   7  -3  206.08   49.86  15
  -5   7  -4   27.05   20.91  15
  -5   7  -5   32.56   22.11  15
   5  -7   5   14.33   16.17  20
   5  -7   6  183.02   39.07  20
  -5   7  -7  242.23   29.66   8
   5  -7   7  206.85   34.87  20
   5  -7   8  123.15   22.14  20
  -5   6   5   75.30   16.46  10
  -5   6   4   12.91    9.75  10
   5  -6  -3   98.22   29.42  13
  -5   6   2   92.46   35.10  15
   5  -6  -2  172.41   30.99  13
  -5   6   2  156.55   34.21  10
  -5   6   2   98.05   34.32  17
  -5   6   1  610.76   71.09  15
  -5   6   1  611.92   61.89  10
   5  -6  -1  654.88   63.03  13
  -5   6   0  983.24  100.15  15
  -5   6   0  913.67   75.34  10
  -5   6  -1  744.64  118.46  15
  -5   6  -1 1023.85   74.76  10
  -5   6  -2  497.04   93.74  15
  -5   6  -2  566.06   52.28  10
  -5   6  -3   44.89   27.64  15
  -5   6  -4   23.38   21.20  15
  -5   6  -5  129.08   27.94  15
   5  -6   5  130.36   37.60  20
   5  -6   6  443.88   64.32  20
  -5   6  -7  351.86   42.26   8
   5  -6   7  328.19   50.47  20
  -5   6  -8  218.18   27.62   8
   5  -6   8  228.13   33.06  20
   5  -6   9   16.87   12.31  20
  -5   5   5   57.28   16.86  17
  -5   5   4   -6.75   10.40  17
   5  -5  -4   12.36   11.85  13
  -5   5   3  163.63   33.87  17
   5  -5  -3  176.08   30.55  13
   5  -5  -2  540.29   61.07  13
  -5   5   2  493.12   61.43  17
  -5   5   1  647.21   74.64  15
  -5   5   1  568.62   64.57  17
  -5   5   0  901.43   70.95  10
  -5   5   0  860.30  107.29  15
  -5   5   0  912.59   73.71  17
  -5   5  -1 1069.41  158.93  15
  -5   5  -1 1035.29   71.70  17
  -5   5  -1 1092.11   73.85  10
  -5   5  -2  224.53   76.06  15
  -5   5  -2  187.98   30.68  10
  -5   5  -3   94.32   23.74  10
  -5   5  -3  172.05   46.50  15
  -5   5  -4  361.41   58.11  15
  -5   5  -5  626.56   72.74  15
   5  -5   5  629.95   72.37  20
   5  -5   6  528.79   67.96  20
  -5   5  -7  353.09   48.30   8
   5  -5   7  323.18   59.45  20
  -5   5  -8  202.55   33.40   8
   5  -5   8  186.26   38.23  20
  -5   5  -9   41.60   12.63   8
   5  -5   9   50.07   12.07  20
  -5   4   6   70.26   17.06  17
  -5   4   5   11.05    9.13  17
   5  -4  -5    2.11    4.91  13
  -5   4   4   61.20   21.19  17
   5  -4  -4  117.55   25.95  13
  -5   4   3  449.36   60.69  17
  -5   4   2  577.37   73.37  17
  -5   4   1 1343.62  105.99  15
  -5   4   1 1300.74  137.33   3
  -5   4   1 1342.13   95.75  17
  -5   4   0 1357.82  126.03  15
  -5   4   0 1327.14   84.70  17
  -5   4  -1  332.54   40.67  10
  -5   4  -1  277.44   89.42  15
  -5   4  -1  388.24   40.69  17
  -5   4  -2  -21.77    8.88  10
  -5   4  -2   11.24   24.11   4
  -5   4  -3  183.22   36.33   4
  -5   4  -3  282.60   51.48  15
  -5   4  -3  188.13   27.44  10
  -5   4  -4 1006.09   90.48   4
  -5   4  -4 1009.22   95.04  15
  -5   4  -5 1958.43  134.68   4
  -5   4  -5 1803.44  117.91  15
   5  -4   5 2014.91  122.04  20
   5  -4   6 1151.17   96.21  20
  -5   4  -7  277.89   45.53   8
   5  -4   7  324.80   49.58  20
  -5   4  -8   61.70   28.60   8
   5  -4   8   47.24   25.46  20
  -5   4  -9  -14.24   15.34   8
   5  -4   9   28.44   11.65  20
  -5   4 -10   15.22    7.24   8
  -5   3   6    7.86   10.98  17
  -5   3   5   22.94   12.53  17
   5  -3  -5   15.76    7.87  13
  -5   3   4  338.35   48.88  17
  -5   3   3  778.39   77.97  17
  -5   3   2 1354.15  131.88   3
  -5   3   2 1206.32   99.62  17
  -5   3   1 2698.25  149.13  15
  -5   3   1 2548.34  191.35   3
  -5   3   1 2489.82  125.37  17
  -5   3   0 1232.69  139.01   3
  -5   3  -1   86.47   25.19   4
  -5   3  -2   77.60   22.39   4
  -5   3  -3 1014.37   79.12   4
  -5   3  -4 2209.99  124.98   4
  -5   3  -5 2591.52  151.41   4
  -5   3  -6 1008.34  110.63   4
  -5   3  -7  146.59   33.90   8
   5  -3   7  133.26   29.05  20
  -5   3  -8   37.50   13.49   8
   5  -3   8   22.26   10.23  20
  -5   3  -9   24.88   16.03   8
   5  -3   9    9.98   11.93  20
  -5   3 -10   85.97   15.20   8
  -5   3 -11   96.31   15.40  14
  -5   2   7   14.70    7.77  17
  -5   2   6   22.61   13.49  17
  -5   2   5  212.27   34.97  17
  -5   2   4  584.01   63.81  17
  -5   2   3 1379.41  102.39  17
  -5   2   2 2677.42  183.80   3
  -5   2   2 2761.45  147.56  17
  -5   2   1 1663.03  149.76   3
  -5   2   0  109.70   48.29   3
  -5   2   0  136.21   32.15   5
  -5   2  -1   60.27   20.34   4
  -5   2  -2 1545.55   88.31   4
  -5   2  -3 3149.70  127.22   4
  -5   2  -4 3156.53  137.68   4
  -5   2  -5 2488.55  140.41   4
  -5   2  -6  776.59   88.86   4
  -5   2  -7  251.27   41.30   8
  -5   2  -8   -4.00    4.77   8
   5  -2   8  -53.67   26.87  20
  -5   2  -9  163.93   28.27   8
   5  -2   9  150.69   28.57  20
  -5   2 -10  216.49   29.05   8
  -5   2 -11  129.09   18.04  14
  -5   1   7    8.64   10.28  17
  -5   1   6   78.51   21.81  17
  -5   1   5  534.81   55.85  17
  -5   1   4 1219.18   86.24  17
  -5   1   3 1793.24  110.10  17
  -5   1   3 1908.00  138.24   3
  -5   1   2 1705.47  131.54   3
  -5   1   2 1793.07  132.73   6
  -5   1   1  730.49   92.36   3
  -5   1   1  753.54   69.16   6
  -5   1   0  119.96   50.92   3
  -5   1   0   81.45   23.87   6
  -5   1   0   87.37   27.98   5
  -5   1  -1  730.76   58.77   4
  -5   1  -1  732.80   69.87   5
  -5   1  -2 4443.20  134.46   4
  -5   1  -3 4760.97  144.58   4
  -5   1  -4 4626.46  156.68   4
  -5   1  -5 2149.45  123.53   4
  -5   1  -6  631.54   87.07   4
  -5   1  -7  106.41   45.69   4
  -5   1  -7  133.87   31.70   8
  -5   1  -8  118.04   28.81   8
  -5   1  -9  403.61   44.03   8
  -5   1 -10  303.98   33.51   8
  -5   1 -11  118.61   17.02  14
  -5   0   7  -16.34   11.39  17
  -5   0   6   77.59   20.18  17
  -5   0   5  471.79   54.85  17
  -5   0   4 1694.41   97.30  17
  -5   0   3 1718.70  103.57  17
  -5   0   3 1583.32  177.08   6
  -5   0   2  450.65   62.34   3
  -5   0   2  575.86   73.40   6
  -5   0   1   81.45   36.11   3
  -5   0   1   25.66   17.51   6
  -5   0   0  495.65   67.79   3
  -5   0   0  405.97   45.49   6
  -5   0   0  429.17   49.79   5
  -5   0  -1 2536.91  108.69   6
  -5   0  -1 2381.11  120.31   5
  -5   0  -2 3728.46  111.72   4
  -5   0  -2 3789.50  166.09   5
  -5   0  -3 6110.58  148.84   4
  -5   0  -3 5950.14  246.64   5
  -5   0  -4 4678.57  147.12   4
  -5   0  -4 4363.96  219.29   5
  -5   0  -5  818.45   75.69   4
  -5   0  -5  811.37   88.79   5
  -5   0  -6  168.05   42.33   5
  -5   0  -6   30.77   17.97   4
  -5   0  -7  110.95   65.71   4
  -5   0  -7  126.07   28.08   8
  -5   0  -8  589.08   52.61   8
  -5   0  -9  436.51   43.73   8
  -5   0 -10  252.45   30.59   8
  -5   0 -10  255.62   30.94  14
  -5   0 -11  110.18   17.16  14
  -5  -1   7   91.02   23.03  17
  -5  -1   6  270.05   39.27  17
  -5  -1   5  542.35   56.71  17
  -5  -1   4 1023.72   76.74  17
  -5  -1   3 1280.23   90.33  17
  -5  -1   3 1181.49  150.26   6
  -5  -1   2  681.81   79.73   6
  -5  -1   1  776.70   73.63   6
  -5  -1   0 5597.15  167.53   6
  -5  -1  -1 4679.65  145.18   6
  -5  -1  -1 4362.47  158.42   5
  -5  -1  -2 4595.33  111.07   4
  -5  -1  -2 4330.30  196.14   2
  -5  -1  -2 4123.04  168.40   5
  -5  -1  -3 3724.75  104.99   4
  -5  -1  -3 3652.04  213.79   2
  -5  -1  -3 3326.02  175.48   5
  -5  -1  -4 1978.76   90.27   4
  -5  -1  -4 2016.59  153.32   2
  -5  -1  -4 1773.73  133.73   5
  -5  -1  -5  422.05   47.83   4
  -5  -1  -5  437.13   57.26   5
  -5  -1  -5  364.84   58.11   2
  -5  -1  -6  193.70   41.27   5
  -5  -1  -7 1120.08   75.54   8
  -5  -1  -8 1155.61   72.03   8
  -5  -1  -9  455.93   42.51   8
  -5  -1 -10  243.21   30.84  14
  -5  -1 -11  112.30   18.47  14
  -5  -2   7  189.18   30.29  17
  -5  -2   6  607.55   53.98  17
  -5  -2   5  760.65   68.23  17
  -5  -2   4  421.17   52.00  17
  -5  -2   3  449.07   55.69  17
  -5  -2   3  497.69  101.71   6
  -5  -2   2   15.44   19.48   6
  -5  -2   1 1514.13  102.38   6
  -5  -2   0 3305.11  130.96   6
  -5  -2  -1 7639.54  242.46   2
  -5  -2  -1 6526.53  174.40   6
  -5  -2  -2 7779.66  304.14   2
  -5  -2  -3 2435.03  190.14   2
  -5  -2  -3 2221.47  145.79   5
  -5  -2  -4  589.37   87.14   2
  -5  -2  -4  537.88   69.74   5
  -5  -2  -5   30.67   17.84   2
  -5  -2  -6  630.79   82.53   2
  -5  -2  -7 1685.39   87.42   8
  -5  -2  -8 1267.28   72.06   8
  -5  -2  -8 1226.79   77.93  14
  -5  -2  -9  463.99   46.25  14
  -5  -2 -10  209.28   28.09  14
  -5  -2 -11   26.81    9.86  14
  -5  -3   7  213.43   31.40  17
  -5  -3   6  465.59   49.77  17
  -5  -3   5  575.88   58.16  17
  -5  -3   4  473.86   56.70  17
  -5  -3   3   19.89   12.86  17
  -5  -3   3   11.06   43.22   6
  -5  -3   2  672.86   88.75   6
  -5  -3   1 1169.76   91.89   6
  -5  -3   0 2306.79  114.81   6
  -5  -3  -1 8987.22  309.60   2
  -5  -3  -1 8698.50  205.72   6
  -5  -3  -2 6505.19  343.44   2
  -5  -3  -3 1626.43  160.49   2
  -5  -3  -4   23.51   26.53   2
  -5  -3  -5  943.60  100.17   2
  -5  -3  -6 1277.96   82.74   8
  -5  -3  -6 1146.81   88.52  14
  -5  -3  -6 1085.22  111.32   2
  -5  -3  -7 1065.18   71.84   8
  -5  -3  -7 1017.09   77.42  14
  -5  -3  -7 1199.36  114.58   2
  -5  -3  -8  720.85   60.45  14
  -5  -3  -9  430.95   44.12  14
  -5  -3 -10   91.65   20.16  14
  -5  -3 -11    1.14    6.95  14
  -5  -4   7  197.26   29.24  17
  -5  -4   6  305.55   40.36  17
  -5  -4   5  375.63   48.11  17
  -5  -4   4   80.38   24.98  17
  -5  -4   3  265.24   49.13  17
  -5  -4   3  265.81   53.08  11
  -5  -4   3  234.34   71.17   6
  -5  -4   2 1388.11  102.97  17
  -5  -4   2 1322.83  123.78   6
  -5  -4   2 1364.42   88.46  18
  -5  -4   2 1281.96  109.78  11
  -5  -4   1 2012.18  123.98   6
  -5  -4   0 4537.66  164.61   6
  -5  -4  -1 5170.94  290.92   2
  -5  -4  -1 5707.35  174.59   6
  -5  -4  -2 2768.13  268.03   2
  -5  -4  -3  382.50   83.35   2
  -5  -4  -4  324.14   63.82   2
  -5  -4  -5 1738.07  149.09   2
  -5  -4  -6 1776.24  112.85  14
  -5  -4  -6 1775.46  153.01   2
  -5  -4  -6 1768.88  102.12   7
  -5  -4  -7 1013.29   81.24  14
  -5  -4  -7 1207.27   77.04   7
  -5  -4  -8  453.93   50.64  14
  -5  -4  -9  199.16   30.91  14
  -5  -4 -10   21.82   12.32  14
  -5  -4 -11   20.50    6.83  14
  -5  -5   7  136.01   23.14  17
  -5  -5   6  186.23   31.69  17
  -5  -5   5  149.37   32.31  17
  -5  -5   4   33.11   18.28  17
  -5  -5   4   26.37   17.93  11
  -5  -5   3  504.01   65.84  17
  -5  -5   3  416.13   55.43  11
  -5  -5   2 1125.73  104.85  17
  -5  -5   2 1016.20  102.39  11
  -5  -5   2 1126.13  117.29   6
  -5  -5   2 1171.72   80.14  18
  -5  -5   1 2686.05  149.07   6
  -5  -5   1 2839.77  108.81  18
  -5  -5   1 2628.26  237.26  11
  -5  -5   0 3405.60  148.86   6
  -5  -5  -1 1680.74  199.26   2
  -5  -5  -2  365.64  107.61   2
  -5  -5  -3  -21.57   26.51   2
  -5  -5  -4  801.43  115.75   2
  -5  -5  -5 1721.78  156.55   2
  -5  -5  -5 2009.74  104.87  14
  -5  -5  -5 2066.56  120.23   7
  -5  -5  -6 2224.82  121.87  14
  -5  -5  -6 2137.52  111.84   7
  -5  -5  -7 1009.56   81.69  14
  -5  -5  -8  293.10   40.01  14
  -5  -5  -9   32.60   15.75  14
  -5  -5 -10   12.32    8.50  14
  -5  -6   7   63.24   14.21  17
  -5  -6   6   49.20   15.87  17
  -5  -6   5    2.93   15.73  17
  -5  -6   4  153.27   33.31  17
  -5  -6   4  139.39   33.72  11
  -5  -6   3  293.57   50.24  17
  -5  -6   3  257.85   45.98  11
  -5  -6   2 1361.18  116.83  17
  -5  -6   2 1246.90  113.69  11
  -5  -6   2 1349.10   88.78  18
  -5  -6   1 2334.48  160.59  17
  -5  -6   1 2637.03  161.42   6
  -5  -6   1 2399.92  103.55  18
  -5  -6   0 1424.00   81.28   7
  -5  -6   0 1253.96   73.28  18
  -5  -6   0 1417.10  138.43  11
  -5  -6  -1  124.97   24.04  18
  -5  -6  -1  152.71   30.89   7
  -5  -6  -1  288.68  159.35   2
  -5  -6  -1  186.14   37.94  11
  -5  -6  -2  149.03   23.41  18
  -5  -6  -2  103.18   23.14   7
  -5  -6  -2  185.61   98.24   2
  -5  -6  -3  631.26   49.43  14
  -5  -6  -3  581.14  107.47   2
  -5  -6  -3  607.72   59.50   7
  -5  -6  -3  594.53   53.51  18
  -5  -6  -4 1489.20  154.32   2
  -5  -6  -4 1723.98   88.82  14
  -5  -6  -4 1541.01  102.83   7
  -5  -6  -4 1496.57   86.66  18
  -5  -6  -5 2142.98  110.96  14
  -5  -6  -5 2053.82  117.75   7
  -5  -6  -6 1333.93   98.83  14
  -5  -6  -6 1434.31   87.66   7
  -5  -6  -7  552.99   58.72  14
  -5  -6  -8  120.64   27.14  14
  -5  -6  -9  -13.11   12.52  14
  -5  -6 -10   50.61   10.65  18
  -5  -6 -10   67.71   11.66  14
  -5  -7   6    6.07   10.19  17
  -5  -7   5   28.92   16.44  17
  -5  -7   4  241.50   40.73  17
  -5  -7   4  230.61   39.70  11
  -5  -7   3  757.36   79.96  17
  -5  -7   3  744.40   70.56  11
  -5  -7   2 1237.54  112.23  17
  -5  -7   2 1237.86  110.73  11
  -5  -7   2 1403.17   89.69  18
  -5  -7   1 1011.78   68.99  18
  -5  -7   1  628.69  131.67  11
  -5  -7   0  418.44   42.32  18
  -5  -7   0  435.66   87.50  11
  -5  -7  -1    5.75    8.74  18
  -5  -7  -1    1.73   17.43  11
  -5  -7  -2  351.53   50.42   7
  -5  -7  -2  384.80   40.72  18
  -5  -7  -3 1154.90   72.65  14
  -5  -7  -3 1115.61   87.68   7
  -5  -7  -3 1077.28   72.21  18
  -5  -7  -4 1965.63   97.11  14
  -5  -7  -4 1894.36  119.46   7
  -5  -7  -4 1760.30   95.79  18
  -5  -7  -5 1392.17   90.80  14
  -5  -7  -5 1393.51   93.34   7
  -5  -7  -5 1382.42   90.11  18
  -5  -7  -6  643.30   66.26  14
  -5  -7  -6  548.47   60.77  18
  -5  -7  -7  241.92   41.13  14
  -5  -7  -8   19.21   15.68  14
  -5  -7  -8    5.68   14.96  18
  -5  -7  -9   55.69   10.52  14
  -5  -7  -9   53.08   13.49  18
  -5  -8   5   31.76   13.41  17
  -5  -8   4  261.63   42.14  17
  -5  -8   3  842.05   77.96  17
  -5  -8   3  783.17   72.07  11
  -5  -8   2  852.30   85.95  17
  -5  -8   2  865.69   89.58  11
  -5  -8   2  824.09   71.34  18
  -5  -8   1  318.10   42.68  18
  -5  -8   1  262.93   77.14  11
  -5  -8   0   53.42   17.80  18
  -5  -8   0  115.18   40.50  11
  -5  -8  -1   19.36   13.78  18
  -5  -8  -1   62.53   25.31  11
  -5  -8  -2  257.38   38.37  18
  -5  -8  -3 1050.31   72.17  18
  -5  -8  -4 1293.19   82.63  18
  -5  -8  -5  586.68   57.85  14
  -5  -8  -5  549.85   57.70  18
  -5  -8  -6  264.28   44.48  14
  -5  -8  -6  252.35   39.36  18
  -5  -8  -7   34.62   15.18  14
  -5  -8  -7   31.78   17.82  18
  -5  -8  -8   36.55   11.18  18
  -5  -9   5   53.64   14.78  17
  -5  -9   4  188.19   30.97  17
  -5  -9   3  277.85   43.57  17
  -5  -9   3  296.14   44.34  11
  -5  -9   2  357.34   53.74  17
  -5  -9   2  380.87   54.12  11
  -5  -9   2  363.78   48.60  18
  -5  -9   1  179.35   42.24  17
  -5  -9   1  159.73   31.91  18
  -5  -9   1  142.31   46.21  11
  -5  -9   0    2.61    5.30  16
  -5  -9   0    2.36   14.36  18
  -5  -9   0   15.95   18.42  11
  -5  -9  -1  277.82   38.28  16
  -5  -9  -1  217.98   34.73  18
  -5  -9  -2  728.24   60.91  16
  -5  -9  -2  597.01   53.66  18
  -5  -9  -3  920.62   65.79  16
  -5  -9  -3  804.50   63.50  18
  -5  -9  -4  645.37   54.30  16
  -5  -9  -4  570.97   53.34  18
  -5  -9  -5  280.44   43.59  16
  -5  -9  -5  281.01   41.17  18
  -5  -9  -6   57.09   14.59  16
  -5  -9  -6   65.07   27.01  18
  -5  -9  -7   31.91   10.71  18
  -5 -10   3  133.82   23.85  17
  -5 -10   2   58.36   17.32  17
  -5 -10   1  -16.99   17.57  17
  -5 -10   1  -23.72   17.57  18
  -5 -10   0   70.24   24.92  17
  -5 -10   0   28.84   10.28  16
  -5 -10   0   50.75   19.31  18
  -5 -10  -1  535.93   46.31  16
  -5 -10  -1  447.39   43.74  18
  -5 -10  -2  862.72   59.57  16
  -5 -10  -2  784.09   56.53  18
  -5 -10  -3  590.38   51.94  16
  -5 -10  -3  536.14   47.34  18
  -5 -10  -4  257.38   32.84  16
  -5 -10  -4  283.90   37.29  18
  -5 -10  -5  102.72   24.98  18
  -5 -10  -6   -8.57    5.08  18
  -5 -11  -1  273.97   33.51  18
  -5 -11  -2  360.53   35.39  18
  -6   8   0  167.85   24.94  15
  -6   8  -1  127.68   27.76  15
  -6   8  -2   26.20   15.50  15
  -6   8  -3   23.73   13.83  15
   6  -8   3   24.21   20.36  20
  -6   8  -4   30.00   15.13  15
   6  -8   4   40.93   17.17  20
  -6   7   2  130.66   22.83  10
  -6   7   1  183.20   28.45  15
  -6   7   1  161.48   31.38  10
  -6   7   0  177.53   32.18  15
  -6   7   0  164.34   31.70  10
  -6   7  -1   26.18   20.93  10
  -6   7  -1    9.75   19.18  15
  -6   7  -2   21.01   22.39  15
  -6   7  -3   57.75   22.92  15
  -6   7  -4  110.82   36.09  15
   6  -7   4  154.31   29.51  20
  -6   7  -5  244.22   39.02  15
   6  -7   5  228.97   39.23  20
   6  -7   6  198.59   33.31  20
  -6   7  -7   97.62   17.82   8
  -6   6   3  115.17   25.51  10
  -6   6   2  195.60   38.82  10
  -6   6   1  207.81   43.39  10
  -6   6   1  265.70   39.74  15
  -6   6   0   72.91   25.90  10
  -6   6   0   66.44   27.52  15
  -6   6  -1    5.89   22.34  10
  -6   6  -1  -29.91   21.50  15
  -6   6  -2   44.66   20.66  10
  -6   6  -2  -54.35   36.41  15
  -6   6  -3  367.13   65.31  15
  -6   6  -4  405.61   64.56  15
   6  -6   4  427.25   56.89  20
  -6   6  -5  481.33   58.11  15
   6  -6   5  427.21   62.08  20
   6  -6   6  245.02   44.76  20
  -6   6  -7   48.35   20.43   8
   6  -6   7   40.15   18.16  20
  -6   6  -8    7.68    6.38   8
  -6   5   4  123.15   25.81  10
  -6   5   3  269.65   43.60  10
  -6   5   3  262.92   40.90  17
  -6   5   2  356.02   52.22  10
  -6   5   2  350.93   50.62  17
  -6   5   1  232.14   42.25  10
  -6   5   1  205.66   42.14  17
  -6   5   1  235.77   43.43  15
  -6   5   0  103.75   31.06  10
  -6   5   0   99.08   28.08  17
  -6   5   0  105.64   34.94  15
  -6   5  -1   -0.13    7.46  10
  -6   5  -1  -55.96   34.17  15
  -6   5  -2  340.89   96.94  15
  -6   5  -2  413.51   50.12  10
  -6   5  -3  811.63   99.96  15
  -6   5  -3  794.65   66.75  10
  -6   5  -4  769.19   89.15  15
  -6   5  -5  561.15   66.47  15
  -6   5  -6  118.16   27.37  15
  -6   5  -7    9.39   13.18   8
  -6   5  -8   -0.40   16.86   8
  -6   5  -9   38.64   12.13   8
  -6   4   5   86.22   17.72  10
  -6   4   5   99.80   19.52  17
  -6   4   4  369.37   41.85  17
  -6   4   3  503.53   59.98  17
  -6   4   2  260.06   47.92  17
  -6   4   1  166.72   39.98  17
  -6   4   1  227.00   39.07  15
  -6   4   0   -0.07   14.36  10
  -6   4   0  -14.68   17.40  17
  -6   4   0    8.45   10.67  15
  -6   4  -1  470.79   53.71  10
  -6   4  -1  415.65   87.07  15
  -6   4  -1  437.54   53.30  17
  -6   4  -2  864.54  156.32  15
  -6   4  -2 1131.76   74.38  10
  -6   4  -3  848.51  111.62  15
  -6   4  -3  920.17   67.86  10
  -6   4  -4 1085.28  107.36  15
  -6   4  -5  588.40   70.92  15
  -6   4  -6   94.85   39.14  15
  -6   4  -7    8.61   15.07   8
  -6   4  -8   67.10   25.02   8
  -6   4  -9  119.42   23.09   8
  -6   4 -10  106.60   15.18   8
  -6   3   6   62.59   14.24  17
  -6   3   5  257.25   34.02  17
  -6   3   4  423.92   48.94  17
  -6   3   3  291.97   48.24  17
  -6   3   2  302.16   53.71  17
  -6   3   1  103.56   32.21  17
  -6   3   1  138.14   35.29  15
  -6   3   0  334.83   64.28  15
  -6   3   0  292.11   44.78  17
  -6   3  -1 1216.19   76.71  10
  -6   3  -1 1227.30  142.83  15
  -6   3  -1 1202.82  116.37   5
  -6   3  -1 1213.37   80.46  17
  -6   3  -2 1476.55  187.72  15
  -6   3  -2 1613.50  112.65   4
  -6   3  -2 1647.09   87.20  10
  -6   3  -3 2028.57  122.51   4
  -6   3  -3 2042.91  174.36  15
  -6   3  -3 2124.98   97.10  10
  -6   3  -4 1323.84  105.66   4
  -6   3  -4 1490.65  121.39  15
  -6   3  -5  398.55   68.32   4
  -6   3  -5  425.36   66.08  15
  -6   3  -6   95.87   27.42  15
  -6   3  -7   65.85   19.17   8
  -6   3  -8  312.94   46.74   8
  -6   3  -9  251.62   33.95   8
  -6   3 -10  126.42   20.78   8
  -6   3 -11   26.66    9.58  14
  -6   2   6  102.76   19.45  17
  -6   2   5  314.51   40.22  17
  -6   2   4  341.66   47.70  17
  -6   2   3  239.35   45.22  17
  -6   2   2  181.52   41.17  17
  -6   2   1  128.74   42.80  17
  -6   2   0 1320.40  121.52  15
  -6   2   0 1332.55   89.96  17
  -6   2  -1 1082.92  136.26  15
  -6   2  -1 1172.19  108.20   5
  -6   2  -2 2132.06  121.89   4
  -6   2  -3 2391.67  125.60   4
  -6   2  -4 1041.19   86.85   4
  -6   2  -4 1092.37  108.99  15
  -6   2  -5   61.18   29.15  15
  -6   2  -5   12.37   29.94   4
  -6   2  -6   43.39   37.67  15
  -6   2  -6   62.37   37.54   4
  -6   2  -7  259.50   45.17   8
  -6   2  -8  369.21   50.30   8
  -6   2  -9  331.32   41.14   8
  -6   2 -10  139.92   22.44   8
  -6   2 -11   46.80   10.65  14
  -6   1   6  142.97   24.26  17
  -6   1   5  247.56   37.01  17
  -6   1   4  359.65   51.63  17
  -6   1   3  272.24   47.19  17
  -6   1   2  162.39   33.00  17
  -6   1   2  156.50   49.72   3
  -6   1   1 1870.03  165.80   3
  -6   1   1 1628.32  116.32  17
  -6   1   0 1532.15  107.90   5
  -6   1  -1 2026.14  134.78   5
  -6   1  -2 2656.64  125.88   4
  -6   1  -2 2491.22  163.29   5
  -6   1  -3  979.41   76.00   4
  -6   1  -3  995.50  114.87   5
  -6   1  -4  248.95   44.74   4
  -6   1  -4  220.31   62.67   5
  -6   1  -5   19.01   23.23   4
  -6   1  -5   38.52   28.46   5
  -6   1  -6  546.35   77.78   4
  -6   1  -6  531.82   58.41   8
  -6   1  -6  591.36   84.28   5
  -6   1  -7  902.76   80.03   8
  -6   1  -8  853.43   70.16   8
  -6   1  -9  378.19   41.49   8
  -6   1 -10  129.09   23.31   8
  -6   1 -11   16.63    9.65  14
  -6   0   6  231.10   32.17  17
  -6   0   5  199.30   33.68  17
  -6   0   4  225.42   41.16  17
  -6   0   3   20.65   16.52  17
  -6   0   2  458.92   90.06   6
  -6   0   2  690.40   77.39  17
  -6   0   1 1704.95  127.41  17
  -6   0   1 1694.34  128.78   6
  -6   0   0 2206.16  132.46   6
  -6   0   0 2031.53  125.42   5
  -6   0  -1 3689.77  166.85   5
  -6   0  -2 3374.33  128.29   4
  -6   0  -2 2745.14  157.40   5
  -6   0  -3  909.60   66.43   4
  -6   0  -3  819.77   98.78   5
  -6   0  -4   -0.30   16.71   4
  -6   0  -4   -3.66   28.35   5
  -6   0  -5  744.51   73.30   4
  -6   0  -5  653.24   93.54   5
  -6   0  -6  853.15   78.48   8
  -6   0  -6  870.10   90.87   5
  -6   0  -7 1582.93   98.14   8
  -6   0  -8 1029.03   71.75   8
  -6   0  -9  255.53   34.93   8
  -6   0 -10   51.27   13.81   8
  -6   0 -10   42.78   18.68  14
  -6   0 -11  -12.44    9.19  14
  -6  -1   7  125.97   19.21  17
  -6  -1   6  238.40   31.60  17
  -6  -1   5  264.08   41.63  17
  -6  -1   4   30.79   18.75  17
  -6  -1   3  133.07   26.65  17
  -6  -1   2  468.72   64.37  17
  -6  -1   2  568.14   88.33   6
  -6  -1   2  412.19   65.16  12
  -6  -1   1 1670.54  126.17   6
  -6  -1   0 4376.87  175.34   6
  -6  -1  -1 4007.02  160.70   6
  -6  -1  -1 3654.78  164.46   5
  -6  -1  -2 1088.59  102.07   5
  -6  -1  -3   69.45   29.10   5
  -6  -1  -4  324.61   65.84   5
  -6  -1  -5 1019.21  108.21   5
  -6  -1  -6 1611.10  100.86   8
  -6  -1  -6 1650.94  123.95   5
  -6  -1  -7 1368.82   83.94   8
  -6  -1  -8  372.35   43.42   8
  -6  -1  -9  122.00   24.31   8
  -6  -1  -9  108.79   24.99  14
  -6  -1 -10   18.00   12.71  14
  -6  -1 -11    3.55    9.31  14
  -6  -2   7  114.16   18.96  17
  -6  -2   6  147.19   27.91  17
  -6  -2   5   52.43   23.12  17
  -6  -2   4   42.12   24.44  17
  -6  -2   3  456.59   55.96  17
  -6  -2   3  435.10   60.87  12
  -6  -2   2 1147.54   89.46  17
  -6  -2   2  978.91  124.59   6
  -6  -2   1 2430.93  152.45   6
  -6  -2   0 3952.11  168.85   6
  -6  -2  -1 3075.24  141.38   6
  -6  -2  -2  216.55   54.87   2
  -6  -2  -3  514.43   88.76   2
  -6  -2  -4  925.09  121.58   2
  -6  -2  -5 1727.05  151.27   2
  -6  -2  -6 2436.04  133.06   9
  -6  -2  -6 2256.47  111.51   8
  -6  -2  -7  988.07   70.07   8
  -6  -2  -8  215.06   33.02   8
  -6  -2  -8  213.24   35.07  14
  -6  -2  -9   42.53   16.74   8
  -6  -2  -9   50.07   18.20  14
  -6  -2 -10    5.27   15.03  14
  -6  -2 -11   65.76   14.61  14
  -6  -3   7   93.00   15.11  17
  -6  -3   6   59.15   19.49  17
  -6  -3   5   -8.71   13.30  17
  -6  -3   4  168.83   34.05  17
  -6  -3   3  661.02   68.28  17
  -6  -3   2 1989.96  121.08  17
  -6  -3   2 1884.76  184.38   6
  -6  -3   1 2294.16  143.35  17
  -6  -3   1 1985.94  143.65   6
  -6  -3   0 1647.59  113.19   6
  -6  -3  -1 1029.06   83.80   6
  -6  -3  -2   44.54   27.62   2
  -6  -3  -3  677.92  126.21   2
  -6  -3  -4 2993.20  228.51   2
  -6  -3  -5 3825.95  159.90   9
  -6  -3  -5 3619.98  216.59   2
  -6  -3  -6 1494.81  117.71   9
  -6  -3  -6 1373.07   87.93   8
  -6  -3  -6 1456.14  104.72  14
  -6  -3  -6 1470.69  141.16   2
  -6  -3  -7  492.21   50.76   8
  -6  -3  -7  483.21   58.20  14
  -6  -3  -8  176.29   28.62   8
  -6  -3  -8  146.61   29.37  14
  -6  -3  -9   -0.57   12.93  14
  -6  -3  -9   23.26   13.60   7
  -6  -3 -10   84.21   17.62  14
  -6  -3 -11  132.61   17.12  14
  -6  -4   6   -0.96   10.28  17
  -6  -4   5   30.83   15.74  17
  -6  -4   4  239.22   38.73  17
  -6  -4   3  831.77   78.30  17
  -6  -4   2 1667.59  116.62  17
  -6  -4   1 1463.10  118.19  17
  -6  -4   1 1486.56  125.06   6
  -6  -4   1 1482.98   90.03  18
  -6  -4   0  516.04   67.28   6
  -6  -4  -1   37.11   22.65   6
  -6  -4  -2  567.34  107.67   2
  -6  -4  -3 1675.38  208.91   2
  -6  -4  -4 3951.34  170.37   9
  -6  -4  -4 4226.50  275.49   2
  -6  -4  -4 3936.48  144.76   7
  -6  -4  -5 2980.72  161.82   9
  -6  -4  -5 3038.79  124.79  14
  -6  -4  -5 2687.59  201.82   2
  -6  -4  -5 2733.30  134.46   7
  -6  -4  -6  918.08   82.83  14
  -6  -4  -6  941.42   79.97   7
  -6  -4  -7  245.84   43.22  14
  -6  -4  -7  285.22   38.44   7
  -6  -4  -8  -35.47   21.10  14
  -6  -4  -8    4.05   18.38   7
  -6  -4  -9   64.93   18.85  14
  -6  -4 -10  158.80   22.86  14
  -6  -4 -11  137.83   15.17  14
  -6  -5   6  -11.66    8.99  17
  -6  -5   5  114.63   28.49  17
  -6  -5   4  536.03   58.05  17
  -6  -5   3  986.86   84.93  17
  -6  -5   2  952.84   87.80  17
  -6  -5   2  930.65   81.23  18
  -6  -5   1  662.38   82.39  17
  -6  -5   1  648.40   92.08   6
  -6  -5   1  604.00   58.11  18
  -6  -5   0  220.71   85.16  17
  -6  -5   0  162.77   35.37   7
  -6  -5   0  118.51   55.54   6
  -6  -5   0   46.07   20.74  18
  -6  -5  -1  320.26   62.32   9
  -6  -5  -1  340.72   38.95   7
  -6  -5  -1  338.61   37.80  18
  -6  -5  -2 1419.73  133.78   9
  -6  -5  -2 1601.65  217.87   2
  -6  -5  -2 1710.60   87.68   7
  -6  -5  -2 1578.45   82.20  18
  -6  -5  -3 2733.82  167.41   9
  -6  -5  -3 2769.57  110.13  18
  -6  -5  -3 3087.59  297.56   2
  -6  -5  -3 2934.70  118.68   7
  -6  -5  -4 2486.63  169.30   9
  -6  -5  -4 2427.98  222.59   2
  -6  -5  -4 2302.96  118.98   7
  -6  -5  -4 2347.64  106.59  18
  -6  -5  -5 1499.87   90.50  14
  -6  -5  -5 1401.01  101.37   7
  -6  -5  -5 1423.51   86.52  18
  -6  -5  -6  862.20   80.14  14
  -6  -5  -6  895.69   77.33   7
  -6  -5  -7   99.04   33.62  14
  -6  -5  -7  119.64   25.00   7
  -6  -5  -8   60.95   21.20  14
  -6  -5  -9  211.58   29.73  14
  -6  -5 -10  224.05   23.50  14
  -6  -5 -10  206.15   22.44  18
  -6  -6   6   12.98    9.88  17
  -6  -6   5  196.01   31.50  17
  -6  -6   4  485.42   55.52  17
  -6  -6   3  706.47   68.79  17
  -6  -6   2  670.31   75.97  17
  -6  -6   2  673.86   67.12  18
  -6  -6   1  134.64   39.06  17
  -6  -6   1  164.35   31.74  18
  -6  -6   0   23.66   27.67  17
  -6  -6   0   55.17   16.82  18
  -6  -6  -1  359.76   45.81   7
  -6  -6  -1  363.04   44.28  18
  -6  -6  -2 1244.34   83.21   7
  -6  -6  -2 1285.78   77.56  18
  -6  -6  -2 1546.15  289.81   2
  -6  -6  -3 2087.00  251.87   2
  -6  -6  -3 1878.38  102.47   7
  -6  -6  -3 1849.26   92.96  18
  -6  -6  -4 1383.77   97.25   7
  -6  -6  -4 1424.12   84.67  18
  -6  -6  -5  842.15   71.84  14
  -6  -6  -5  780.91   80.16   7
  -6  -6  -5  851.09   70.06  18
  -6  -6  -6  153.00   40.38  14
  -6  -6  -6  175.22   31.44   7
  -6  -6  -6  149.32   40.29  18
  -6  -6  -7   12.74   15.90  14
  -6  -6  -7  -14.30   16.84   7
  -6  -6  -7   20.14   13.46  18
  -6  -6  -8  170.10   28.14  14
  -6  -6  -8  207.04   40.24  18
  -6  -6  -9  288.43   32.26  14
  -6  -6  -9  308.74   32.81  18
  -6  -6 -10  194.77   18.03  14
  -6  -7   5  153.71   26.63  17
  -6  -7   4  284.84   41.29  17
  -6  -7   3  349.46   51.16  17
  -6  -7   2  227.83   45.01  17
  -6  -7   2  209.91   41.80  18
  -6  -7   1   17.70   22.73  17
  -6  -7   1   23.90   12.04  18
  -6  -7   0  224.92   49.89  17
  -6  -7   0  239.64   36.76  18
  -6  -7  -1  897.86   68.59  18
  -6  -7  -2 1174.41   81.05   7
  -6  -7  -2 1138.94   74.69  18
  -6  -7  -3  939.89   81.39   7
  -6  -7  -3  961.97   70.75  18
  -6  -7  -4  804.06   78.95   7
  -6  -7  -4  808.76   65.61  18
  -6  -7  -5  213.12   37.00  14
  -6  -7  -5  201.21   38.27   7
  -6  -7  -5  195.43   38.74  18
  -6  -7  -6   32.60   24.98  14
  -6  -7  -6   22.48   13.45   7
  -6  -7  -6   23.85   21.25  18
  -6  -7  -7  135.23   30.49  14
  -6  -7  -7  106.13   34.93  18
  -6  -7  -8  225.93   31.11  14
  -6  -7  -8  262.22   35.10  18
  -6  -7  -9  229.86   23.44  14
  -6  -7  -9  208.52   23.55  18
  -6  -8   5  115.52   18.61  17
  -6  -8   4  198.08   31.74  17
  -6  -8   3  170.95   32.80  17
  -6  -8   2   10.09   18.70  17
  -6  -8   1   59.22   27.40  17
  -6  -8   1  104.69   31.09  18
  -6  -8   0  441.51   72.39  17
  -6  -8   0  456.33   50.65  18
  -6  -8  -1  981.60   71.06  18
  -6  -8  -2 1077.73   73.08  18
  -6  -8  -3  915.08   68.76  18
  -6  -8  -4  287.57   41.74  18
  -6  -8  -5   17.54   12.69  18
  -6  -8  -6   73.72   30.77  18
  -6  -8  -7  186.12   35.66  18
  -6  -8  -8  286.06   29.41  18
  -6  -9   4   52.14   12.80  17
  -6  -9   3   18.87   14.99  17
  -6  -9   2   -1.11    8.32  17
  -6  -9   1  183.05   34.27  17
  -6  -9   1  204.85   35.53  18
  -6  -9   0  566.68   64.86  17
  -6  -9   0  528.97   50.96  18
  -6  -9  -1  727.27   61.60  18
  -6  -9  -2  797.31   61.32  18
  -6  -9  -3  411.11   43.72  18
  -6  -9  -4   17.32   15.98  18
  -6  -9  -5    0.34   13.58  18
  -6  -9  -6  136.15   29.71  18
  -6  -9  -7  290.24   28.55  18
  -6 -10   2   16.74   13.25  17
  -6 -10   1  126.30   21.48  17
  -6 -10   0  375.69   39.76  18
  -6 -10  -1  588.39   48.40  18
  -6 -10  -2  350.43   38.35  18
  -6 -10  -3   46.51   17.02  18
  -6 -10  -4   -0.43    9.97  18
  -6 -10  -5   51.66   17.27  18
  -7   7   0   26.71   15.41   9
  -7   7  -1   20.91   14.48   9
  -7   7  -1   85.86   22.43  15
  -7   7  -2  125.54   33.91  15
  -7   7  -3  101.15   37.25  15
  -7   7  -4  165.42   33.87  15
  -7   7  -5   83.23   23.69  15
  -7   7  -6   23.54   14.02   8
  -7   6   2   26.00    7.67  10
  -7   6   1   19.69    9.25  10
  -7   6   0   52.88   16.67  10
  -7   6   0   53.74   18.86  15
  -7   6  -1  162.95   42.42  15
  -7   6  -1  204.14   36.11  10
  -7   6  -2  194.89   64.59  15
  -7   6  -3  280.47   64.40  15
  -7   6  -4  140.35   31.18  15
  -7   6  -5   79.91   21.49  15
  -7   6  -6    7.35    9.95  15
  -7   6  -7   18.11    8.96   8
  -7   6  -8   54.88   11.89   8
  -7   5   3   38.36   13.59  10
  -7   5   2   15.50   12.87  10
  -7   5   1   16.78   14.51  10
  -7   5   1   68.51   25.58  15
  -7   5   0  164.27   36.80  10
  -7   5   0  139.40   35.84  15
  -7   5  -1  282.55   58.50  15
  -7   5  -1  309.21   44.32  10
  -7   5  -2  519.47  114.68  15
  -7   5  -2  636.06   60.09  10
  -7   5  -3  429.75   49.05   9
  -7   5  -3  420.27   85.78  15
  -7   5  -4  182.30   48.26  15
  -7   5  -5   17.87   22.40  15
  -7   5  -6   75.76   23.17  15
  -7   5  -7   54.81   25.73   8
  -7   5  -8   86.00   21.05   8
  -7   5  -9  106.54   15.59   8
  -7   4   3   55.26   16.26  10
  -7   4   3   13.01   13.05  17
  -7   4   2   -3.07   23.49  10
  -7   4   2   -1.96   22.66  17
  -7   4   1  175.35   46.58  10
  -7   4   1  147.97   36.81  17
  -7   4   1  180.85   40.03  15
  -7   4   0  385.53   56.96  15
  -7   4   0  368.52   48.73  17
  -7   4   0  389.63   55.52  10
  -7   4  -1  563.07   89.71  15
  -7   4  -1  743.46   64.39  17
  -7   4  -1  687.94   66.49  10
  -7   4  -2  351.45  133.07  15
  -7   4  -2  598.27   58.86  10
  -7   4  -3  321.09   74.39  15
  -7   4  -3  304.61   44.11  10
  -7   4  -4  143.78   53.86  15
  -7   4  -5   64.63   31.92  15
  -7   4  -6  194.98   34.76  15
  -7   4  -7  141.70   34.30   8
  -7   4  -8  189.37   34.72   8
  -7   4  -9  110.85   19.77   8
  -7   3   4   25.84   12.59  10
  -7   3   4   41.97   16.44  17
  -7   3   4   63.76   10.35   9
  -7   3   3  -13.34   10.37  10
  -7   3   3   -3.86   14.22  17
  -7   3   2  182.63   41.81  17
  -7   3   1  428.66   70.41  10
  -7   3   1  433.94   59.07  17
  -7   3   0  943.72   80.53  10
  -7   3   0  845.74   90.51  15
  -7   3   0  881.47   77.48  17
  -7   3  -1  689.85  106.49  15
  -7   3  -1  812.48   72.95  10
  -7   3  -2  404.54  132.07  15
  -7   3  -2  353.24   45.52  10
  -7   3  -3  122.64   34.92  10
  -7   3  -3  175.09   73.67  15
  -7   3  -4    6.20   12.26   9
  -7   3  -4  -61.54   31.05  15
  -7   3  -5  209.51   51.38  15
  -7   3  -6  427.30   55.85  15
  -7   3  -7  625.91   67.69   8
  -7   3  -8  492.63   54.50   8
  -7   3  -9   92.90   21.71   8
  -7   3 -10   18.64    9.15   8
  -7   2   5   38.99   13.07  17
  -7   2   4   14.63   10.39  17
  -7   2   3   44.41   21.49  17
  -7   2   2  199.67   45.05  17
  -7   2   1  804.89   93.23  17
  -7   2   0 1409.20   94.75  10
  -7   2   0 1185.80  118.35  15
  -7   2   0 1338.29   93.62  17
  -7   2  -1  838.22  109.41  15
  -7   2  -1  907.76   73.12  10
  -7   2  -2  324.68   61.34   5
  -7   2  -2  432.99   46.08  10
  -7   2  -3   32.09   15.09  10
  -7   2  -3   47.75   17.74   9
  -7   2  -3   -6.47   21.62  15
  -7   2  -4  185.76   30.14   9
  -7   2  -4  157.53   55.41  15
  -7   2  -5  597.66   86.88  15
  -7   2  -6  982.03   93.30  15
  -7   2  -7  922.61   82.18   8
  -7   2  -8  375.07   47.79   8
  -7   2  -9   72.96   21.77   8
  -7   2 -10    0.63    7.53   8
  -7   1   5   23.31   12.00  17
  -7   1   4   16.58   18.06  17
  -7   1   3  110.87   33.49  17
  -7   1   2  447.54   67.15  17
  -7   1   1 1065.05  107.72  17
  -7   1   0 1060.68  106.55  15
  -7   1   0  847.28  100.02  12
  -7   1   0  901.73   83.87  17
  -7   1  -1  783.94  100.55  15
  -7   1  -1  647.71   87.65  12
  -7   1  -1  700.48   88.41   5
  -7   1  -2   88.54   49.26  15
  -7   1  -2  239.69   58.14   5
  -7   1  -3   44.09   15.14   9
  -7   1  -3    8.68   30.85  15
  -7   1  -3   91.82   41.97   4
  -7   1  -3   98.28   74.57   5
  -7   1  -4  596.81   57.60   9
  -7   1  -4  715.56   98.87  15
  -7   1  -4  746.30  117.63   5
  -7   1  -5 1235.72   80.24   9
  -7   1  -5 1226.26  117.16  15
  -7   1  -5 1093.67  149.24   5
  -7   1  -6  924.70  100.30  15
  -7   1  -6  815.34   77.35   8
  -7   1  -7  447.68   58.64   8
  -7   1  -8  137.76   32.46   8
  -7   1  -9   45.15   18.97   8
  -7   1 -10    1.77    9.31   8
  -7   1 -10   -2.35   13.05  14
  -7   1 -11   30.35    7.06  14
  -7   0   6   10.15    6.13  17
  -7   0   5   24.24    8.38  17
  -7   0   4   33.00   19.35  17
  -7   0   3  378.73   54.33  17
  -7   0   2 1151.57   97.85  17
  -7   0   1  937.83   96.97  12
  -7   0   1  948.72  107.27  17
  -7   0   0  584.17   81.67  15
  -7   0   0  571.65   82.26  12
  -7   0   0  668.29   77.44  17
  -7   0  -1  321.61   81.52  15
  -7   0  -1  275.24   48.37  12
  -7   0  -1  300.09   62.03   5
  -7   0  -2   22.54   13.87   9
  -7   0  -2   -1.23   66.85  15
  -7   0  -2   31.12   13.68  12
  -7   0  -2  -20.60   14.69   5
  -7   0  -3  358.85   46.46   9
  -7   0  -3  439.30   93.32  15
  -7   0  -3  399.66   53.65  12
  -7   0  -3  402.34   75.35   5
  -7   0  -4 1395.60   82.17   9
  -7   0  -4 1386.89  132.87  15
  -7   0  -4 1307.19  177.06   5
  -7   0  -5 1743.64   99.09   9
  -7   0  -5 1652.82  132.40  15
  -7   0  -5 1632.53  107.92   8
  -7   0  -5 1545.22  172.67   5
  -7   0  -6  836.17   93.99  15
  -7   0  -6  731.91   78.36   8
  -7   0  -7  355.52   48.59   8
  -7   0  -8   61.82   21.05   8
  -7   0  -9    6.84   14.16   8
  -7   0 -10   33.77   14.76   8
  -7   0 -10   33.21   13.19  14
  -7   0 -11   85.53   15.02  14
  -7  -1   6   -0.08    6.17  17
  -7  -1   5   31.84   18.75  17
  -7  -1   4  158.56   31.58  17
  -7  -1   3  579.31   66.13  17
  -7  -1   2  965.89   80.54   9
  -7  -1   2  880.78   87.97  12
  -7  -1   2  943.26   94.29  17
  -7  -1   1  869.01   99.46  17
  -7  -1   1  794.39   79.82   9
  -7  -1   1  771.56   83.62  12
  -7  -1   0  558.89   75.12   9
  -7  -1   0  679.38   87.77  15
  -7  -1   0  516.13   83.00  12
  -7  -1  -1   28.27   28.95   9
  -7  -1  -1   47.11   25.75  15
  -7  -1  -1   56.73   31.01  12
  -7  -1  -2  475.74   54.85   9
  -7  -1  -2  497.42   89.56  15
  -7  -1  -2  471.01   59.33  12
  -7  -1  -2  376.55   66.87   5
  -7  -1  -3 1747.74   95.86   9
  -7  -1  -3 1841.23  182.64  15
  -7  -1  -3 1902.49  107.81  12
  -7  -1  -3 1785.84  151.22   5
  -7  -1  -4 2353.66  109.84   9
  -7  -1  -4 2527.35  181.33  15
  -7  -1  -4 2554.38  120.06  12
  -7  -1  -4 2475.45  217.52   5
  -7  -1  -5 1335.19   87.39   9
  -7  -1  -5 1335.22  117.96  15
  -7  -1  -5 1353.04  106.66   8
  -7  -1  -5 1223.40  139.97   5
  -7  -1  -6  919.72   82.07   9
  -7  -1  -6 1043.51  111.51  15
  -7  -1  -6  899.82   76.94   8
  -7  -1  -6  945.12  110.49   5
  -7  -1  -7  267.85   43.87   8
  -7  -1  -8   -2.25   11.27   8
  -7  -1  -9   43.04   18.13   8
  -7  -1  -9   40.22   19.44  14
  -7  -1 -10  124.65   21.04  14
  -7  -1 -11  153.30   17.56  14
  -7  -2   6    5.45    8.19  17
  -7  -2   5   78.41   21.46  17
  -7  -2   4  396.83   47.95  17
  -7  -2   3  558.17   64.05  17
  -7  -2   3  514.49   59.08  12
  -7  -2   2  538.91   68.56  17
  -7  -2   2  514.56   70.06  12
  -7  -2   1  366.96   73.39  17
  -7  -2   1  535.17   59.29   9
  -7  -2   1  418.01   66.09  12
  -7  -2   0  190.83   48.21   9
  -7  -2   0  124.23   43.60   6
  -7  -2   0   95.52   33.11  12
  -7  -2  -1  192.46   41.02   9
  -7  -2  -1  247.27   53.18  15
  -7  -2  -1  197.19   52.03  12
  -7  -2  -2 1996.08  116.95   9
  -7  -2  -2 2122.15  210.68  15
  -7  -2  -2 2058.32  117.65  12
  -7  -2  -3 3124.50  131.75   9
  -7  -2  -3 3252.26  240.72  15
  -7  -2  -3 3237.19  133.80  12
  -7  -2  -4 1806.70  102.27   9
  -7  -2  -4 1903.88  171.03  15
  -7  -2  -4 2000.37  101.62  12
  -7  -2  -5 1168.81   86.22   9
  -7  -2  -5 1242.78  132.03  15
  -7  -2  -6  783.99   77.30   9
  -7  -2  -6  710.04   70.83   8
  -7  -2  -7   35.33   16.08   8
  -7  -2  -7  126.28   36.05  14
  -7  -2  -8   42.70   17.67   8
  -7  -2  -8   60.90   18.84  14
  -7  -2  -9  128.74   22.58   8
  -7  -2  -9  108.26   25.43  14
  -7  -2 -10  251.88   29.07  14
  -7  -2 -10  299.57   26.03   7
  -7  -2 -11  125.40   16.80  14
  -7  -3   6   17.32   10.87  17
  -7  -3   5  195.40   30.91  17
  -7  -3   4  454.08   51.19  17
  -7  -3   3  465.09   59.10  17
  -7  -3   3  439.15   57.73  12
  -7  -3   2  304.43   54.34  17
  -7  -3   2  262.36   49.55  12
  -7  -3   1  143.86   53.21  17
  -7  -3   0   95.14   27.84   9
  -7  -3   0   72.04   35.57   6
  -7  -3  -1 1061.19   96.28   9
  -7  -3  -2 2370.88  137.11   9
  -7  -3  -2 2506.26  106.32   7
  -7  -3  -2 2688.24  130.62  12
  -7  -3  -3 2105.14  122.25   9
  -7  -3  -3 2405.00  103.33   7
  -7  -3  -3 2328.30  234.68   2
  -7  -3  -3 2342.32  115.07  12
  -7  -3  -4 2116.92  119.34   9
  -7  -3  -4 2204.18  113.32  12
  -7  -3  -5 1427.08  102.08   9
  -7  -3  -5 1505.08  179.80   2
  -7  -3  -6   53.05   43.72   9
  -7  -3  -7   28.68   15.24   8
  -7  -3  -7   12.12   23.35  14
  -7  -3  -8  108.41   26.04   8
  -7  -3  -8  113.97   29.46  14
  -7  -3  -9  322.18   37.88  14
  -7  -3  -9  352.33   37.10   7
  -7  -3 -10  324.35   31.30  14
  -7  -3 -11   98.64   14.53  14
  -7  -4   6   43.45   11.69  17
  -7  -4   5  199.69   31.20  17
  -7  -4   4  412.92   49.10  17
  -7  -4   4  350.79   42.69  12
  -7  -4   3  409.41   56.53  17
  -7  -4   3  389.86   51.17  12
  -7  -4   2  175.27   36.06  17
  -7  -4   1  -19.74   19.64  17
  -7  -4   0  235.42   53.71   9
  -7  -4   0  362.84   53.01  18
  -7  -4  -1  984.81  110.37   9
  -7  -4  -1 1191.51   74.43   7
  -7  -4  -1 1118.00   80.50  18
  -7  -4  -2 1153.13  110.25   9
  -7  -4  -2 1270.77   75.93   7
  -7  -4  -3 1639.22  120.44   9
  -7  -4  -3 1759.72   90.69   7
  -7  -4  -3 1490.37  224.02   2
  -7  -4  -3 1760.01  100.06  12
  -7  -4  -4 2079.75  132.18   9
  -7  -4  -4 2233.71  110.14   7
  -7  -4  -4 2488.83  284.32   2
  -7  -4  -5  383.67   63.87   9
  -7  -4  -5  389.63   51.43   7
  -7  -4  -6   27.90   20.46  14
  -7  -4  -6   76.41   22.05   7
  -7  -4  -7  218.23   44.22  14
  -7  -4  -7  255.81   41.24   7
  -7  -4  -8  337.01   47.67  14
  -7  -4  -8  377.05   44.95   7
  -7  -4  -9  368.65   39.50  14
  -7  -4  -9  392.22   34.71   7
  -7  -4 -10  184.04   23.98  14
  -7  -5   5  167.52   25.65  17
  -7  -5   4  208.37   34.08  17
  -7  -5   4  205.34   34.10  12
  -7  -5   3  224.65   37.40  17
  -7  -5   2   14.93   15.05  17
  -7  -5   1  103.15   39.63  17
  -7  -5   1  182.01   34.99  18
  -7  -5   0 1027.07   72.59   7
  -7  -5   0  954.73   75.30  18
  -7  -5  -1 1094.26  115.86   9
  -7  -5  -1 1204.13   75.61   7
  -7  -5  -1 1089.28   75.84  18
  -7  -5  -2  758.24  112.09   9
  -7  -5  -2  841.18   65.85   7
  -7  -5  -2  901.95   70.28  18
  -7  -5  -3 1106.11  111.48   9
  -7  -5  -3 1161.99   79.45   7
  -7  -5  -3 1049.24   85.45  12
  -7  -5  -3 1091.79   76.32  18
  -7  -5  -4  390.28   72.45   9
  -7  -5  -4  407.40   49.47   7
  -7  -5  -4  359.12   44.12  18
  -7  -5  -5    3.38   17.63   7
  -7  -5  -5   17.38   18.56  18
  -7  -5  -6  119.62   33.77  14
  -7  -5  -6   96.72   36.58   7
  -7  -5  -6   35.31   15.57  18
  -7  -5  -7  486.65   60.88  14
  -7  -5  -7  454.97   52.44   7
  -7  -5  -7  506.93   66.84  18
  -7  -5  -8  570.47   58.24  14
  -7  -5  -8  597.79   49.05   7
  -7  -5  -8  610.30   65.64  18
  -7  -5  -9  293.64   34.51  14
  -7  -5 -10  111.11   15.95  14
  -7  -6   5  117.92   21.25  17
  -7  -6   4   86.63   22.01  17
  -7  -6   4   64.15   23.09  12
  -7  -6   3   80.62   23.82  17
  -7  -6   2    1.64   12.75  17
  -7  -6   1  375.76   56.58  17
  -7  -6   1  396.02   50.68  18
  -7  -6   0  963.15   73.90  18
  -7  -6  -1 1127.80  144.48   9
  -7  -6  -1 1298.70   86.77   7
  -7  -6  -1 1267.02   80.46  18
  -7  -6  -2 1294.24  165.69   9
  -7  -6  -2 1307.80   84.56   7
  -7  -6  -2 1313.47   83.61  18
  -7  -6  -3  564.06   57.94   7
  -7  -6  -3  528.41   60.38  12
  -7  -6  -3  575.36   54.90  18
  -7  -6  -4   24.32   20.58   7
  -7  -6  -4  -20.49   20.69  18
  -7  -6  -5   96.58   32.87   7
  -7  -6  -5   70.24   20.96  18
  -7  -6  -6  284.10   43.14  14
  -7  -6  -6  317.55   45.67   7
  -7  -6  -6  289.68   49.54  18
  -7  -6  -7  581.66   63.96  14
  -7  -6  -7  539.97   51.24   7
  -7  -6  -7  580.65   77.38  18
  -7  -6  -8  467.35   47.38  14
  -7  -6  -8  458.85   38.24   7
  -7  -6  -8  493.19   52.73  18
  -7  -6  -9  246.46   27.94  14
  -7  -6  -9  262.93   27.19  18
  -7  -7   4   25.51    7.62  17
  -7  -7   4   28.08   12.34  12
  -7  -7   3  -10.37    7.08  17
  -7  -7   2  126.62   31.63  17
  -7  -7   1  506.80   67.93  17
  -7  -7   1  491.77   58.90  18
  -7  -7   0  810.30   68.33  18
  -7  -7  -1 1140.88   78.22  18
  -7  -7  -2  921.71   76.21   7
  -7  -7  -2  842.71   65.89  18
  -7  -7  -3  130.28   32.50   7
  -7  -7  -3  132.74   24.89  18
  -7  -7  -4   36.30   17.27   7
  -7  -7  -4   33.41   19.21  18
  -7  -7  -5  200.51   43.93   7
  -7  -7  -5  217.75   39.58  18
  -7  -7  -6  533.38   58.41  14
  -7  -7  -6  422.62   51.80   7
  -7  -7  -6  572.82   60.76  18
  -7  -7  -7  432.85   50.63  14
  -7  -7  -7  393.35   40.89   7
  -7  -7  -7  488.76   67.92  18
  -7  -7  -8  301.24   33.22  14
  -7  -7  -8  286.06   33.96  18
  -7  -8   3   27.85    8.85  17
  -7  -8   2  201.98   35.48  17
  -7  -8   1  496.33   51.11  17
  -7  -8   1  515.76   58.04  18
  -7  -8   0  665.77   62.18  18
  -7  -8  -1  532.86   53.23  18
  -7  -8  -2  146.82   31.77  18
  -7  -8  -3    0.12   14.32  18
  -7  -8  -4  163.93   29.97  18
  -7  -8  -5  417.02   51.46  18
  -7  -8  -6  461.01   55.21  18
  -7  -8  -7  290.00   40.19  18
  -7  -8  -8  138.69   18.73  18
  -7  -9   2  121.86   24.51  17
  -7  -9   1  282.36   37.25  17
  -7  -9   0  388.75   44.80  18
  -7  -9  -1  153.32   30.54  18
  -7  -9  -2   -2.80   16.33  18
  -7  -9  -3   54.09   20.74  18
  -7  -9  -4  299.58   37.66  18
  -7  -9  -5  388.58   45.57  18
  -7  -9  -6  428.88   42.89  18
  -7 -10  -1   74.12   13.90  18
  -7 -10  -2    4.40   15.57  18
  -7 -10  -3  166.80   26.69  18
  -7 -10  -4  252.39   32.30  18
  -7 -10  -5  243.05   29.78  18
  -8   6  -1   81.14   22.62   9
  -8   6  -1  122.65   24.31  15
  -8   6  -2   46.46   15.06   9
  -8   6  -2   64.77   28.71  15
  -8   6  -3   -0.09   26.53  15
  -8   6  -4  -22.96   22.62  15
  -8   6  -5   21.44   21.01  15
  -8   6  -6   52.05   14.62   8
  -8   5   1  179.81   23.25   9
  -8   5   0  172.45   33.83   9
  -8   5   0  211.49   30.29  15
  -8   5  -1   99.12   25.03   9
  -8   5  -1   82.02   28.08  15
  -8   5  -2   13.67   12.65   9
  -8   5  -2   -5.28   18.91  15
  -8   5  -3    0.63    8.43   9
  -8   5  -3  -26.90   29.72  15
  -8   5  -4   18.56   17.04  15
  -8   5  -5  162.28   40.01  15
  -8   5  -6  300.96   43.48  15
  -8   5  -6  297.68   38.60   8
  -8   5  -7  163.09   27.31   8
  -8   5  -8   42.11   11.89   8
  -8   4   2  154.01   22.35   9
  -8   4   1  322.56   40.95   9
  -8   4   1  259.70   42.74  10
  -8   4   0  208.26   45.66  15
  -8   4   0  244.16   42.06  10
  -8   4  -1  131.70   29.61  10
  -8   4  -1   70.01   39.61  15
  -8   4  -2   15.29    9.55   9
  -8   4  -2  -64.74   49.64  15
  -8   4  -3    9.51   13.50   9
  -8   4  -3   77.57   43.48  15
  -8   4  -4  158.85   31.31   9
  -8   4  -4  183.52   52.98  15
  -8   4  -5  523.61   68.61  15
  -8   4  -6  354.61   56.54  15
  -8   4  -6  357.61   46.14   8
  -8   4  -7  204.82   33.38   8
  -8   4  -8   78.52   18.72   8
  -8   4  -9   -2.61    9.39   8
  -8   3   3   73.81   16.91  17
  -8   3   3   46.56   13.87   9
  -8   3   2  225.77   32.05   9
  -8   3   2  232.03   35.83  17
  -8   3   1  190.25   61.91  10
  -8   3   1  200.97   41.87  17
  -8   3   0  182.88   39.85  10
  -8   3   0  134.50   37.60  17
  -8   3   0  179.40   34.11  15
  -8   3  -1   62.18   14.53  10
  -8   3  -1   78.63   28.76  15
  -8   3  -2  -21.46   15.96  10
  -8   3  -2    6.08   18.31   9
  -8   3  -2   20.32   30.44  15
  -8   3  -3  100.54   36.89   9
  -8   3  -3  193.59   66.47  15
  -8   3  -4  634.76   53.46   9
  -8   3  -4  640.83  105.49  15
  -8   3  -5  428.32   70.77  15
  -8   3  -6  143.36   42.18  15
  -8   3  -6  147.94   34.05   8
  -8   3  -7  245.57   42.08  15
  -8   3  -7  207.57   38.89   8
  -8   3  -8   47.27   19.32   8
  -8   3  -9  -14.09   12.40   8
  -8   2   4   57.45   12.72  17
  -8   2   3  231.45   26.64   9
  -8   2   3  212.67   31.78  17
  -8   2   2  249.34   36.25   9
  -8   2   2  244.76   43.18  17
  -8   2   1  125.85   39.69  17
  -8   2   0  104.61   23.77  17
  -8   2   0   24.01   25.39  15
  -8   2  -1  -10.25   29.01  15
  -8   2  -2  104.67   31.26   9
  -8   2  -2  101.95   50.51  15
  -8   2  -3  492.10   58.04   9
  -8   2  -3  526.67  125.48  15
  -8   2  -4  683.45   61.57   9
  -8   2  -4  727.02  116.45  15
  -8   2  -5  366.09   48.94   9
  -8   2  -5  383.48   70.45  15
  -8   2  -6  304.03   49.32  15
  -8   2  -6  261.23   46.14   8
  -8   2  -7  179.18   37.31  15
  -8   2  -7  115.60   33.70   8
  -8   2  -8   -4.83    7.58   8
  -8   2  -9   22.19   11.07   8
  -8   2 -10   53.19   12.96   8
  -8   1   4  101.70   20.46  17
  -8   1   3  283.46   31.86   9
  -8   1   3  280.08   39.91  17
  -8   1   2  265.31   36.63   9
  -8   1   2  287.32   47.67  17
  -8   1   1  139.19   30.73  17
  -8   1   1  148.41   34.16   9
  -8   1   0   46.88   20.52  17
  -8   1   0   68.47   40.28   9
  -8   1   0   12.46   18.75  15
  -8   1  -1   89.39   37.47   9
  -8   1  -1   25.48   39.90  15
  -8   1  -2  708.51   77.99   9
  -8   1  -2  718.21  126.79  15
  -8   1  -3 1025.86   82.21   9
  -8   1  -3 1003.00  163.02  15
  -8   1  -4  693.02   64.24   9
  -8   1  -4  751.91  114.52  15
  -8   1  -5  568.22   59.80   9
  -8   1  -5  526.05   83.97  15
  -8   1  -5  479.29   66.24   8
  -8   1  -6  390.12   59.38  15
  -8   1  -6  247.20   48.53   8
  -8   1  -7    1.27   13.18  15
  -8   1  -7   -3.74   24.36   8
  -8   1  -8   41.57   17.89   8
  -8   1  -9   59.09   19.72   8
  -8   1  -9   50.18   18.97  14
  -8   1 -10   94.12   16.31   8
  -8   1 -10   86.03   17.85  14
  -8   0   4  162.50   26.51  17
  -8   0   3  224.43   34.84  17
  -8   0   2  240.84   36.41   9
  -8   0   2  247.59   47.97  17
  -8   0   1   26.12   31.01  17
  -8   0   1   52.69   23.20   9
  -8   0   0   40.07   43.62   9
  -8   0   0   17.92   39.31  15
  -8   0   0   59.65   24.55  12
  -8   0  -1  584.06   84.59   9
  -8   0  -1  644.93   94.70  15
  -8   0  -1  588.86   85.60  12
  -8   0  -2 1131.62   99.71   9
  -8   0  -2 1128.94  151.20  15
  -8   0  -2 1050.82   99.73  12
  -8   0  -3  930.36   81.98   9
  -8   0  -3  827.79  136.34  15
  -8   0  -4  896.49   75.52   9
  -8   0  -4  915.13  124.53  15
  -8   0  -5  568.37   60.42   9
  -8   0  -5  570.74   89.62  15
  -8   0  -5  544.62   71.98   8
  -8   0  -6   65.54   27.93   9
  -8   0  -6   57.22   29.21  15
  -8   0  -6   43.80   27.38   8
  -8   0  -7   19.82   17.83   8
  -8   0  -8   84.86   24.26   8
  -8   0  -8   62.37   28.79  14
  -8   0  -9  164.18   26.77   8
  -8   0  -9  146.31   27.64  14
  -8   0 -10  147.57   19.85   8
  -8   0 -10  134.26   20.71  14
  -8  -1   5  103.20   16.50  17
  -8  -1   4  176.81   28.11  17
  -8  -1   3  146.17   31.10  17
  -8  -1   2   52.64   18.83  17
  -8  -1   2   46.44   14.89   9
  -8  -1   2   20.77   25.51  12
  -8  -1   1   40.92   28.53  17
  -8  -1   1    4.52   13.38   9
  -8  -1   1    5.91   21.62  12
  -8  -1   0  214.71   62.62   9
  -8  -1   0  209.99   56.37  12
  -8  -1  -1 1252.36  115.14   9
  -8  -1  -1 1408.36  141.56  15
  -8  -1  -1 1202.22  114.91  12
  -8  -1  -2 1472.03  114.48   9
  -8  -1  -2 1505.19  178.10  15
  -8  -1  -2 1443.93  113.64  12
  -8  -1  -3 1119.09   91.51   9
  -8  -1  -3 1224.29  172.81  15
  -8  -1  -3 1295.45  100.29  12
  -8  -1  -4  825.08   77.20   9
  -8  -1  -4  930.84  125.08  15
  -8  -1  -4  965.38   83.75  12
  -8  -1  -5  154.27   40.12   9
  -8  -1  -5  161.84   46.65  15
  -8  -1  -6   74.10   32.87   9
  -8  -1  -6   81.95   33.32  15
  -8  -1  -7   79.40   44.44   9
  -8  -1  -7   96.60   28.32   8
  -8  -1  -8  275.90   37.34   8
  -8  -1  -8  275.45   44.80  14
  -8  -1  -9  286.72   33.03   8
  -8  -1  -9  262.24   36.27  14
  -8  -1 -10  182.07   24.62  14
  -8  -1 -10  208.13   22.96   7
  -8  -2   5  115.97   18.41  17
  -8  -2   4  187.51   32.31  17
  -8  -2   3   88.35   28.20  17
  -8  -2   2   31.89   13.70  17
  -8  -2   2   19.69   11.63  12
  -8  -2   1  182.46   44.79  17
  -8  -2   1   89.22   32.71   9
  -8  -2   1  133.80   30.97  12
  -8  -2   0  300.85   60.05   9
  -8  -2   0  281.28   57.70  12
  -8  -2  -1  769.73   99.42   9
  -8  -2  -1  839.73  120.68  15
  -8  -2  -1  839.56   95.38  12
  -8  -2  -2 1517.97  115.92   9
  -8  -2  -2 1593.17  181.51  15
  -8  -2  -2 1532.40  113.55  12
  -8  -2  -3 1308.50  102.56   9
  -8  -2  -3 1574.78  203.21  15
  -8  -2  -3 1452.97   85.42   7
  -8  -2  -3 1583.36  103.92  12
  -8  -2  -4  239.89   42.52   9
  -8  -2  -4  288.71   77.43  15
  -8  -2  -4  270.75   49.23  12
  -8  -2  -5  -15.99   21.79   9
  -8  -2  -6   95.34   23.51   9
  -8  -2  -7  503.19   66.34   9
  -8  -2  -7  367.10   50.11   8
  -8  -2  -8  361.72   40.22   8
  -8  -2  -8  398.87   53.25  14
  -8  -2  -9  277.29   32.18   8
  -8  -2  -9  305.84   38.05  14
  -8  -2  -9  316.06   34.88   7
  -8  -2 -10  136.72   21.26  14
  -8  -2 -10  144.34   18.87   7
  -8  -3   5   94.24   17.24  17
  -8  -3   4  109.98   23.82  17
  -8  -3   3   39.13   19.10  17
  -8  -3   3   23.81   16.13  12
  -8  -3   2   28.72   26.46  17
  -8  -3   2   16.65   12.97  12
  -8  -3   1  379.39   63.45  17
  -8  -3   1  340.84   58.79  12
  -8  -3   0  639.62   83.42   9
  -8  -3   0  648.53   98.53  12
  -8  -3  -1  524.85   84.71   9
  -8  -3  -1  588.73   80.84  12
  -8  -3  -2  429.62   78.79   9
  -8  -3  -2  592.09   51.59   7
  -8  -3  -2  592.75   71.26  12
  -8  -3  -3  401.64   62.77   9
  -8  -3  -3  407.44   52.75   7
  -8  -3  -3  421.88   57.31  12
  -8  -3  -4   82.21   25.65   9
  -8  -3  -4   48.04   21.01   7
  -8  -3  -4   68.80   19.74  12
  -8  -3  -5   82.39   22.53   9
  -8  -3  -5   72.16   26.30   7
  -8  -3  -5   85.70   19.54  12
  -8  -3  -6  550.40   75.95   9
  -8  -3  -6  621.37   79.44   7
  -8  -3  -7  535.61   62.79   7
  -8  -3  -8  377.25   53.61  14
  -8  -3  -8  399.31   46.92   7
  -8  -3  -9  210.36   35.00  14
  -8  -3  -9  244.61   31.83   7
  -8  -3 -10   18.60   11.27  14
  -8  -3 -10   55.39    8.51   7
  -8  -4   4    0.17    8.85  17
  -8  -4   3   14.70   16.81  17
  -8  -4   3   32.67   13.93  12
  -8  -4   2  144.67   31.44  17
  -8  -4   2  114.27   30.80  12
  -8  -4   1  593.78   81.03  17
  -8  -4   1  480.22   69.34  12
  -8  -4   0 1089.09  100.48   9
  -8  -4   0  935.38  129.78  12
  -8  -4  -1  866.63  104.35   9
  -8  -4  -1  956.59  106.04  12
  -8  -4  -2  269.24   62.49   9
  -8  -4  -2  319.17   41.78   7
  -8  -4  -2  323.25   54.96  12
  -8  -4  -3   20.77   21.92   9
  -8  -4  -3   65.64   17.61   7
  -8  -4  -3   33.76   13.69  12
  -8  -4  -4   -6.06   19.97   9
  -8  -4  -4  -22.76   25.90   7
  -8  -4  -4   -8.00   15.00  12
  -8  -4  -5  305.10   59.09   9
  -8  -4  -5  299.72   53.32   7
  -8  -4  -6  827.56   88.63   7
  -8  -4  -7  709.30   71.87   7
  -8  -4  -8  418.13   54.67  14
  -8  -4  -8  414.12   44.50   7
  -8  -4  -9   99.89   23.88  14
  -8  -4  -9   95.25   18.48   7
  -8  -4 -10   15.81    8.99  14
  -8  -5   4   -1.10    8.97  17
  -8  -5   3   47.99   13.70  17
  -8  -5   3   54.37   14.50  12
  -8  -5   2  336.16   46.55  17
  -8  -5   2  270.79   41.81  12
  -8  -5   1  665.34   83.87  17
  -8  -5   1  556.01   77.10  12
  -8  -5   0  902.15   81.84  18
  -8  -5  -1  757.19   92.04   9
  -8  -5  -1  802.44   65.01   7
  -8  -5  -1  620.57   94.71  12
  -8  -5  -1  751.18   72.28  18
  -8  -5  -2  270.60   55.43   9
  -8  -5  -2  321.54   41.19   7
  -8  -5  -2  294.73   48.44  12
  -8  -5  -2  336.94   47.30  18
  -8  -5  -3  -35.49   36.03   9
  -8  -5  -3   27.38   10.97   7
  -8  -5  -3   26.64   23.18  12
  -8  -5  -3  -15.29   11.58  18
  -8  -5  -4  238.33   59.82   9
  -8  -5  -4  274.31   44.46   7
  -8  -5  -4  267.20   44.55  12
  -8  -5  -5  559.93   65.86   7
  -8  -5  -6  542.48   68.40   7
  -8  -5  -7  490.22   54.05   7
  -8  -5  -8  206.91   41.49  14
  -8  -5  -8  218.31   30.36   7
  -8  -5  -9   60.80   12.05  14
  -8  -5  -9   27.71   11.75   7
  -8  -6   4   10.56    6.26  17
  -8  -6   3   90.46   19.92  17
  -8  -6   3   70.52   20.95  12
  -8  -6   2  289.03   43.26  17
  -8  -6   2  250.21   42.53  12
  -8  -6   1  526.88   71.29  17
  -8  -6   0  523.79   62.31  18
  -8  -6  -1  226.91   37.61  18
  -8  -6  -2   41.97   20.53   7
  -8  -6  -2   50.24   20.85  12
  -8  -6  -2   34.66   17.93  18
  -8  -6  -3  102.21   29.15   7
  -8  -6  -3  104.55   33.02  12
  -8  -6  -3   85.00   23.34  18
  -8  -6  -4  611.63   64.16   7
  -8  -6  -4  649.06   62.35  18
  -8  -6  -5  585.79   65.81   7
  -8  -6  -5  646.96   67.16  18
  -8  -6  -6  422.15   57.34   7
  -8  -6  -6  476.72   66.34  18
  -8  -6  -7  240.52   36.37   7
  -8  -6  -7  260.35   61.84  18
  -8  -6  -8   64.56   18.21  14
  -8  -6  -8   93.93   17.30   7
  -8  -7   3  113.82   19.65  17
  -8  -7   3  119.01   21.54  12
  -8  -7   2  247.62   32.10  17
  -8  -7   2  199.31   34.01  12
  -8  -7   1  250.22   39.91  17
  -8  -7   0  177.40   40.40  18
  -8  -7  -1   55.13   22.43  18
  -8  -7  -2   23.86   25.63  12
  -8  -7  -2   48.22   23.73  18
  -8  -7  -3  381.79   51.27   7
  -8  -7  -3  411.63   49.84  18
  -8  -7  -4  618.64   65.39   7
  -8  -7  -4  656.64   60.96  18
  -8  -7  -5  527.24   65.63   7
  -8  -7  -5  621.45   63.98  18
  -8  -7  -6  349.22   45.50   7
  -8  -7  -6  453.53   50.92  18
  -8  -7  -7  114.47   22.82   7
  -8  -7  -7  132.82   23.29  18
  -8  -8   2  138.52   25.86  12
  -8  -8   1  124.00   32.60  12
  -8  -8   0   35.10   30.98  12
  -8  -8  -1  -44.16   35.16  12
  -8  -8  -1    3.27   16.28  18
  -8  -8  -2  126.65   34.77  12
  -8  -8  -2  132.02   25.57  18
  -8  -8  -3  402.26   46.85  18
  -8  -8  -4  453.60   50.62  18
  -8  -8  -5  366.91   46.77  18
  -8  -8  -6  202.94   32.83  18
  -8  -8  -7   49.99   11.95  18
  -8  -9   1   22.07   14.52  12
  -8  -9   0   41.41   16.70  12
  -8  -9  -1   64.45   16.91  12
  -8  -9  -1  109.42   24.05  18
  -8  -9  -2  262.45   35.65  18
  -8  -9  -3  359.94   39.42  18
  -8  -9  -4  329.87   38.49  18
  -8  -9  -5  144.65   28.14  18
  -9   5  -2    6.18    7.79  15
  -9   5  -3   16.00   25.05  15
  -9   5  -4  130.83   34.55  15
  -9   5  -4  102.55   27.17   8
  -9   5  -5   73.46   20.56  15
  -9   5  -5   70.20   24.61   8
  -9   5  -6   55.58   16.30   8
  -9   4   0   23.26   11.75   9
  -9   4  -1   22.22   20.84   9
  -9   4  -1   -7.57   16.33  15
  -9   4  -2   82.91   22.35   9
  -9   4  -2   56.28   31.19  15
  -9   4  -3   99.63   28.05   9
  -9   4  -3  115.56   39.04  15
  -9   4  -4  181.80   51.38  15
  -9   4  -5  155.73   36.88  15
  -9   4  -5  140.69   31.85   8
  -9   4  -6   83.75   18.75  15
  -9   4  -6   17.44   20.98   8
  -9   4  -7    1.58   10.48   8
  -9   3   1    7.71    9.91   9
  -9   3   0    8.72   16.03   9
  -9   3  -1   89.06   43.02   9
  -9   3  -1   71.29   29.66  15
  -9   3  -2  246.22   50.84   9
  -9   3  -2  169.12   46.66  15
  -9   3  -3  323.76   47.72   9
  -9   3  -3  155.97  108.80  15
  -9   3  -4  246.78   36.82   9
  -9   3  -4  246.11   72.35  15
  -9   3  -5   43.70   21.89  15
  -9   3  -5   89.67   23.45   8
  -9   3  -6   15.00   23.30  15
  -9   3  -6    4.94   19.62   8
  -9   3  -7   22.55   18.51  15
  -9   3  -7    2.79   12.65   8
  -9   3  -8   49.92   12.62   8
  -9   2   2   28.98    7.95   9
  -9   2   1  -44.85   17.43  17
  -9   2   1   19.15   10.30   9
  -9   2   0   72.50   24.87   9
  -9   2  -1  274.61   46.56  15
  -9   2  -1  206.53   71.92   9
  -9   2  -2  410.21   71.74   9
  -9   2  -2  351.04   72.58  15
  -9   2  -3  451.29   59.53   9
  -9   2  -3  355.00  106.46  15
  -9   2  -4  190.03   35.92   9
  -9   2  -4  141.12   70.85  15
  -9   2  -5   17.42   10.12   9
  -9   2  -5   -5.86   20.02  15
  -9   2  -5    7.83   26.92   8
  -9   2  -6   -3.03   10.84  15
  -9   2  -6  -15.71   21.79   8
  -9   2  -7   20.09   14.14  15
  -9   2  -7   15.11   16.24   8
  -9   2  -8   83.37   19.95   8
  -9   2  -9   67.24   14.93   8
  -9   1   2    7.16    5.75  17
  -9   1   2  -12.85    8.88   9
  -9   1   1    4.63   26.21  17
  -9   1   1   66.97   17.98   9
  -9   1   0  184.45   47.34   9
  -9   1  -1  407.10   90.47   9
  -9   1  -1  479.78   78.57  15
  -9   1  -2  784.85   93.27   9
  -9   1  -2  625.82  104.99  15
  -9   1  -3  386.76   55.92   9
  -9   1  -3  490.78  116.72  15
  -9   1  -4   82.38   25.94   9
  -9   1  -4  105.39   45.86  15
  -9   1  -5    9.71   12.64   9
  -9   1  -5   25.63   35.99  15
  -9   1  -5  -38.17   32.31   8
  -9   1  -6   41.15   22.61   9
  -9   1  -6   26.23   21.69  15
  -9   1  -6   24.24   15.37   8
  -9   1  -7  178.60   32.59   8
  -9   1  -8  184.96   27.26   8
  -9   1  -9  112.83   19.63   8
  -9   0   3    1.86    5.88  17
  -9   0   2    4.98    6.34  17
  -9   0   2   31.03   10.12   9
  -9   0   1   39.86   28.39  17
  -9   0   1   88.02   26.93   9
  -9   0   0  260.96   52.64   9
  -9   0  -1  596.36   97.54   9
  -9   0  -1  588.77   86.90  15
  -9   0  -2  496.14   78.61   9
  -9   0  -2  426.76   88.82  15
  -9   0  -3  155.43   37.24   9
  -9   0  -3  151.83   75.50  15
  -9   0  -4   -1.17   28.32   9
  -9   0  -4  103.00   54.74  15
  -9   0  -5   15.09   15.73   9
  -9   0  -5   60.79   37.88  15
  -9   0  -6  225.79   40.13   9
  -9   0  -6  273.77   60.22  15
  -9   0  -6  242.06   45.05   8
  -9   0  -7  346.11   46.04   8
  -9   0  -8  195.89   29.30   8
  -9   0  -9  113.77   17.39   8
  -9   0 -10   23.84    8.17   7
  -9  -1   3    1.35    2.55  17
  -9  -1   2   85.78   16.69  17
  -9  -1   1  205.50   38.98  17
  -9  -1   1  218.59   37.55   9
  -9  -1   0  350.91   57.33   9
  -9  -1   0  363.10   56.75  12
  -9  -1  -1  378.94   71.87  15
  -9  -1  -1  280.29   68.53   9
  -9  -1  -1  286.10   71.28  12
  -9  -1  -2  158.16   48.96   9
  -9  -1  -2  231.50   58.99  15
  -9  -1  -2   75.91   40.29  12
  -9  -1  -3   18.40   22.81   9
  -9  -1  -3   85.19   72.65  15
  -9  -1  -4   -8.79   25.73   9
  -9  -1  -4  -28.78   38.86  15
  -9  -1  -4   27.87   22.03   7
  -9  -1  -5  238.58   37.40   9
  -9  -1  -5  253.20   73.78  15
  -9  -1  -6  566.71   61.70   9
  -9  -1  -7  512.66   69.33   9
  -9  -1  -7  449.68   52.23   8
  -9  -1  -8  189.87   28.86   8
  -9  -1  -9   79.90   12.20   8
  -9  -1  -9   81.28   19.85   7
  -9  -1 -10   10.85    7.57   7
  -9  -2   3   46.09   12.20  17
  -9  -2   2  180.37   36.97  17
  -9  -2   1  333.88   44.57   9
  -9  -2   1  285.94   48.23  12
  -9  -2   1  322.21   55.64  17
  -9  -2   0  372.74   57.77   9
  -9  -2   0  363.79   62.65  12
  -9  -2  -1  244.47   60.05   9
  -9  -2  -1  294.62   69.06  12
  -9  -2  -2   18.60   39.63   9
  -9  -2  -2   38.47   33.61  12
  -9  -2  -3   -2.40   24.65   9
  -9  -2  -3  -29.36   31.69  12
  -9  -2  -4  173.02   38.00   9
  -9  -2  -4  192.73   37.17   7
  -9  -2  -5  644.02   73.10   9
  -9  -2  -5  615.74   67.64   7
  -9  -2  -6  806.98   79.98   9
  -9  -2  -6  667.01   75.36   7
  -9  -2  -7  440.91   68.75   9
  -9  -2  -7  387.49   60.75   7
  -9  -2  -8   93.82   23.74   8
  -9  -2  -8  173.36   31.64   7
  -9  -2  -9   48.37   16.84   7
  -9  -2 -10   -2.78    6.20   7
  -9  -3   3   77.03   20.38  17
  -9  -3   2  235.34   37.32  12
  -9  -3   2  275.62   41.62  17
  -9  -3   1  355.72   50.79  12
  -9  -3   0  336.98   57.03   9
  -9  -3   0  382.80   63.66  12
  -9  -3  -1  110.44   50.81   9
  -9  -3  -1  178.13   54.89  12
  -9  -3  -2   33.28   33.87   9
  -9  -3  -2   54.81   28.96  12
  -9  -3  -3   38.85   36.84   9
  -9  -3  -3   69.66   17.17   7
  -9  -3  -3   45.56   28.75  12
  -9  -3  -4  517.22   72.30   9
  -9  -3  -4  473.66   53.48   7
  -9  -3  -4  455.78   62.93  12
  -9  -3  -5  762.40   81.49   9
  -9  -3  -5  746.04   72.35   7
  -9  -3  -6  562.82   76.85   9
  -9  -3  -6  524.04   68.93   7
  -9  -3  -7  247.00   52.04   7
  -9  -3  -8   95.39   26.60   7
  -9  -3  -9   23.95    9.62   7
  -9  -4   3   84.44   18.11  17
  -9  -4   2  131.71   34.94  12
  -9  -4   2  207.98   30.45  17
  -9  -4   1  355.64   51.05  12
  -9  -4   0  179.84   47.20  12
  -9  -4  -1   12.64   29.88   9
  -9  -4  -1  -80.91   46.04  12
  -9  -4  -2   39.74   21.78   9
  -9  -4  -2   27.09   27.08  12
  -9  -4  -3  246.75   59.12   9
  -9  -4  -3  259.77   38.51   7
  -9  -4  -3  206.69   47.21  12
  -9  -4  -4  518.12   80.01   9
  -9  -4  -4  486.62   56.45   7
  -9  -4  -4  566.10   60.76  12
  -9  -4  -5  519.91   76.07   9
  -9  -4  -5  504.85   61.19   7
  -9  -4  -6  344.22   55.40   7
  -9  -4  -7  128.44   35.61   7
  -9  -4  -8   23.13   15.27   7
  -9  -4  -9   22.60   10.90   7
  -9  -5   2  132.09   28.72  12
  -9  -5   2  162.80   24.08  17
  -9  -5   1  156.60   34.56  12
  -9  -5   0   74.97   30.25  12
  -9  -5  -1   57.23   24.22   9
  -9  -5  -1   19.18   18.96  12
  -9  -5  -2  177.05   58.87   9
  -9  -5  -2  198.44   41.58   7
  -9  -5  -2  250.27   50.60  12
  -9  -5  -3  637.75  102.30   9
  -9  -5  -3  633.42   60.24   7
  -9  -5  -3  587.33   68.60  12
  -9  -5  -4  746.99   99.39   9
  -9  -5  -4  651.85   63.77   7
  -9  -5  -4  679.66   69.44  12
  -9  -5  -5  412.70   53.62   7
  -9  -5  -6  205.14   43.90   7
  -9  -5  -7   58.05   23.10   7
  -9  -5  -8   14.03    9.71   7
  -9  -6   2  114.94   21.05  12
  -9  -6   1   26.49   22.72  12
  -9  -6   0   18.56   22.31  12
  -9  -6  -1   49.46   51.37  12
  -9  -6  -2  386.69   62.29  12
  -9  -6  -2  372.90   50.44  18
  -9  -6  -3  569.36   59.31   7
  -9  -6  -3  574.27   67.06  12
  -9  -6  -4  519.41   58.64   7
  -9  -6  -5  221.56   45.39   7
  -9  -6  -6   83.07   31.12   7
  -9  -6  -7    4.62   11.68   7
  -9  -6  -8   47.00    9.14   7
  -9  -7   1   11.25    8.34  12
  -9  -7   0    7.53   27.24  12
  -9  -7  -1  143.72   54.55  12
  -9  -7  -2  407.29   56.75  12
  -9  -7  -2  389.42   49.43  18
  -9  -7  -3  453.95   48.74  12
  -9  -7  -3  487.34   53.35  18
  -9  -7  -4  276.46   43.28   7
  -9  -7  -4  259.70   42.31  18
  -9  -7  -5   92.40   31.58   7
  -9  -7  -5  160.02   29.43  18
  -9  -7  -6   31.17   12.42   7
  -9  -8   0   18.82   19.40  12
  -9  -8  -1  141.67   35.38  12
  -9  -8  -2  233.73   36.92  12
  -9  -8  -2  290.15   38.28  18
  -9  -8  -3  275.89   38.02  18
  -9  -8  -4  190.85   27.98  18
  -9  -8  -5   60.89   25.45  18
 -10   3  -1  103.81   23.35   9
 -10   3  -2  123.28   29.20   9
 -10   3  -2   85.11   22.70  15
 -10   3  -3   30.87   20.43   9
 -10   3  -3   81.47   29.24  15
 -10   3  -4  -22.26   12.58   9
 -10   3  -4  -29.44   25.52  15
 -10   3  -5  -19.65   25.23  15
 -10   2   0   97.49   19.57   9
 -10   2  -1  103.71   28.40   9
 -10   2  -2  112.34   34.44   9
 -10   2  -2   49.23   25.61  15
 -10   2  -3  -42.19   32.49   9
 -10   2  -3   -3.26   16.52  15
 -10   2  -4    9.85   10.24   9
 -10   2  -4  -38.16   29.71  15
 -10   2  -5   28.12   17.96   9
 -10   2  -5   18.65   38.47  15
 -10   2  -6  165.42   40.77  15
 -10   1   0   76.64   20.09   9
 -10   1  -1   50.64   32.02   9
 -10   1  -2  -32.57   27.86   9
 -10   1  -2   63.20   26.28  15
 -10   1  -3    7.19   28.54   9
 -10   1  -3  -21.84   19.43  15
 -10   1  -4   40.45   19.04   9
 -10   1  -4   20.76   64.67  15
 -10   1  -5  187.15   29.20   9
 -10   1  -5  248.69   67.74  15
 -10   1  -6  221.95   31.51   9
 -10   1  -7  166.50   39.51   7
 -10   1  -8   68.25   14.53   7
 -10   0   0  121.31   27.96   9
 -10   0  -1    3.84   29.29   9
 -10   0  -2   14.38   40.14   9
 -10   0  -3   73.69   37.27   9
 -10   0  -3   59.35   58.48  15
 -10   0  -4  196.95   43.89   9
 -10   0  -4  226.50   93.71  15
 -10   0  -5  380.61   48.84   9
 -10   0  -5  372.59   80.47  15
 -10   0  -6  308.61   44.94   9
 -10   0  -6  348.63   45.02   7
 -10   0  -7   83.89   45.83   7
 -10   0  -8   27.65   20.80   7
 -10   0  -9    7.09    9.62   7
 -10  -1   0  106.59   26.55   9
 -10  -1  -1   20.32   28.83   9
 -10  -1  -2   11.48   41.19   9
 -10  -1  -3  178.37   49.67   9
 -10  -1  -4  365.30   55.84   9
 -10  -1  -5  359.93   53.04   9
 -10  -1  -5  296.22   44.82   7
 -10  -1  -6  263.62   44.70   9
 -10  -1  -6  227.23   44.82   7
 -10  -1  -7  118.42   34.93   7
 -10  -1  -8    5.03   19.56   7
 -10  -1  -9    8.91    8.05   7
 -10  -2   0    1.84   15.77   9
 -10  -2  -1   20.75   17.15   9
 -10  -2  -2   35.65   41.09   9
 -10  -2  -3  215.90   51.52   9
 -10  -2  -4  409.82   65.03   9
 -10  -2  -5  348.63   55.14   9
 -10  -2  -5  241.12   47.79   7
 -10  -2  -6  102.08   35.93   9
 -10  -2  -6  156.14   38.04   7
 -10  -2  -7   20.53   24.70   7
 -10  -2  -8  -15.05   18.00   7
 -10  -2  -9   24.75   10.33   7
 -10  -3   0    0.34   15.80  12
 -10  -3  -1   69.13   32.67   9
 -10  -3  -1  115.84   44.17  12
 -10  -3  -2  235.79   60.83   9
 -10  -3  -2  281.88   64.24  12
 -10  -3  -3  468.16   70.63   9
 -10  -3  -3  323.68   62.10  12
 -10  -3  -4  480.35   72.47   9
 -10  -3  -4  395.33   46.65   7
 -10  -3  -5  256.25   53.73   9
 -10  -3  -5  246.09   38.84   7
 -10  -3  -6   49.36   26.59   9
 -10  -3  -6   22.74   26.91   7
 -10  -3  -7  -46.31   32.62   7
 -10  -3  -8   25.32   13.99   7
 -10  -3  -9   57.89   14.24   7
 -10  -4   0   24.93   22.77  12
 -10  -4  -1  208.55   43.01   9
 -10  -4  -1  277.77   58.93  12
 -10  -4  -2  373.14   70.46   9
 -10  -4  -2  434.10   77.10  12
 -10  -4  -3  475.68   77.43   9
 -10  -4  -3  433.28   64.28  12
 -10  -4  -4  232.45   62.02   9
 -10  -4  -4  194.87   36.99   7
 -10  -4  -5   47.79   40.74   9
 -10  -4  -5   65.09   27.26   7
 -10  -4  -6    4.87   19.12   7
 -10  -4  -7    0.65   19.65   7
 -10  -4  -8   59.40   18.76   7
 -10  -5   1   13.15    8.43  12
 -10  -5   0   92.65   27.07  12
 -10  -5  -1  220.40   72.51  12
 -10  -5  -2  383.63   69.76  12
 -10  -5  -3  265.71   41.91   7
 -10  -5  -3  284.85   56.90  12
 -10  -5  -4  109.06   26.37   7
 -10  -5  -5   -1.49   15.32   7
 -10  -5  -6    8.45   21.90   7
 -10  -5  -7   62.52   21.57   7
 -10  -5  -8  143.08   20.31   7
 -10  -6   0   88.13   24.30  12
 -10  -6  -1   96.36   72.48  12
 -10  -6  -2  296.55   58.82  12
 -10  -6  -3  169.76   38.00  12
 -10  -6  -4    8.36   27.30   7
 -10  -6  -5   -3.99   14.34   7
 -10  -6  -6   64.11   29.58   7
 -10  -6  -7  150.39   24.67   7
 -10  -7  -1   51.93   27.89  12
 -10  -7  -2   79.87   36.35  12
 -11   1  -3   65.34   32.56   9
 -11   1  -4   63.80   22.91   9
 -11   0  -2   50.55   17.08   9
 -11   0  -3  116.84   38.95   9
 -11   0  -4  152.88   36.76   9
 -11   0  -5   84.90   17.27   9
 -11  -1  -2   70.45   30.44   9
 -11  -1  -3  164.47   47.54   9
 -11  -1  -4  167.28   40.93   9
 -11  -1  -5   49.89   27.09   9
 -11  -1  -6   16.39    8.07   9
 -11  -2  -2  183.69   36.66   9
 -11  -2  -3  177.25   46.35   9
 -11  -2  -4   80.31   39.43   9
 -11  -2  -5   37.12   26.21   9
 -11  -3  -2   94.49   32.25   9
 -11  -3  -3   28.71   43.53   9
 -11  -3  -4   14.46   37.88   9
 -11  -3  -5   -7.41   25.39   9
 -11  -3  -6    8.53   12.95   7
 -11  -4  -6   71.51   23.47   7
   0   0   0    0.00    0.00   0
;
_shelx_hkl_checksum              75486
loop_
_space_group_symop_operation_xyz
'x, y, z'
'-x, -y, -z'
loop_
_atom_site_label
_atom_site_type_symbol
_atom_site_fract_x
_atom_site_fract_y
_atom_site_fract_z
_atom_site_U_iso_or_equiv
_atom_site_adp_type
_atom_site_occupancy
_atom_site_site_symmetry_order
_atom_site_calc_flag
_atom_site_refinement_flags_posn
_atom_site_refinement_flags_adp
_atom_site_refinement_flags_occupancy
_atom_site_disorder_assembly
_atom_site_disorder_group
Hg Hg 0.66004(4) 0.55122(3) 0.57236(3) 0.06147(10) Uani 1 1 d . . . . .
N1 N 0.7390(7) 0.6733(6) 0.7796(6) 0.0644(14) Uani 1 1 d . . . . .
N2 N 0.4218(7) 0.7672(6) 0.7384(6) 0.0618(13) Uani 1 1 d . . . . .
N3 N 0.5096(9) 0.4074(7) 0.6752(10) 0.093(2) Uani 1 1 d . . . . .
N4 N 0.5481(8) 0.3001(7) 0.7101(7) 0.0704(15) Uani 1 1 d . . . . .
N5 N 0.5726(11) 0.1845(9) 0.7541(10) 0.105(3) Uani 1 1 d . . . . .
C1 C 0.8231(8) 0.6706(7) 0.4500(8) 0.0629(16) Uani 1 1 d . . . . .
C2 C 0.8422(9) 0.7006(9) 0.2999(9) 0.076(2) Uani 1 1 d . . . . .
H2A H 0.782254 0.665135 0.252717 0.091 Uiso 1 1 calc R U . . .
C3 C 0.9513(11) 0.7840(11) 0.2219(11) 0.098(3) Uani 1 1 d . . . . .
H3A H 0.965027 0.804052 0.122086 0.117 Uiso 1 1 calc R U . . .
C4 C 1.0390(11) 0.8365(11) 0.2931(13) 0.102(3) Uani 1 1 d . . . . .
H4A H 1.112235 0.891895 0.241089 0.123 Uiso 1 1 calc R U . . .
C5 C 1.0185(10) 0.8073(9) 0.4413(13) 0.092(3) Uani 1 1 d . . . . .
H5A H 1.077977 0.843629 0.488431 0.110 Uiso 1 1 calc R U . . .
C6 C 0.9106(9) 0.7245(8) 0.5207(9) 0.0681(18) Uani 1 1 d . . . . .
C7 C 0.8960(9) 0.6881(9) 0.6808(10) 0.079(2) Uani 1 1 d . . . . .
H7A H 0.969703 0.598034 0.675545 0.095 Uiso 1 1 calc R U . . .
H7B H 0.927553 0.763538 0.725887 0.095 Uiso 1 1 calc R U . . .
C8 C 0.7443(12) 0.5876(10) 0.9098(11) 0.107(3) Uani 1 1 d . . . . .
H8A H 0.809555 0.623021 0.955279 0.160 Uiso 1 1 calc R U . . .
H8B H 0.787976 0.487468 0.875014 0.160 Uiso 1 1 calc R U . . .
H8C H 0.638965 0.596585 0.983446 0.160 Uiso 1 1 calc R U . . .
C9 C 0.6321(9) 0.8150(8) 0.8280(9) 0.0725(19) Uani 1 1 d . . . . .
H9A H 0.660282 0.879575 0.746807 0.087 Uiso 1 1 calc R U . . .
H9B H 0.645483 0.856156 0.915314 0.087 Uiso 1 1 calc R U . . .
C10 C 0.4593(9) 0.8051(9) 0.8693(8) 0.074(2) Uani 1 1 d . . . . .
H10A H 0.434605 0.732639 0.942739 0.089 Uiso 1 1 calc R U . . .
H10B H 0.392636 0.897574 0.917032 0.089 Uiso 1 1 calc R U . . .
C11 C 0.4234(10) 0.8876(8) 0.6389(9) 0.085(2) Uani 1 1 d . . . . .
H11A H 0.351856 0.972842 0.696714 0.128 Uiso 1 1 calc R U . . .
H11B H 0.390732 0.862193 0.558409 0.128 Uiso 1 1 calc R U . . .
H11C H 0.528691 0.906493 0.596666 0.128 Uiso 1 1 calc R U . . .
C12 C 0.2683(9) 0.7261(10) 0.7904(10) 0.088(2) Uani 1 1 d . . . . .
H12A H 0.187944 0.807224 0.846727 0.131 Uiso 1 1 calc R U . . .
H12B H 0.269470 0.646784 0.854322 0.131 Uiso 1 1 calc R U . . .
H12C H 0.245937 0.697096 0.704392 0.131 Uiso 1 1 calc R U . . .
loop_
_atom_site_aniso_label
_atom_site_aniso_U_11
_atom_site_aniso_U_22
_atom_site_aniso_U_33
_atom_site_aniso_U_23
_atom_site_aniso_U_13
_atom_site_aniso_U_12
Hg 0.06433(18) 0.05365(16) 0.06714(16) -0.00150(11) -0.02292(13) -0.01546(12)
N1 0.063(4) 0.065(3) 0.064(3) 0.002(3) -0.029(3) 0.000(3)
N2 0.060(3) 0.064(3) 0.060(3) 0.009(3) -0.021(3) -0.009(3)
N3 0.081(5) 0.062(4) 0.139(7) 0.014(4) -0.031(5) -0.040(4)
N4 0.076(4) 0.069(4) 0.072(4) 0.004(3) -0.028(3) -0.028(3)
N5 0.124(7) 0.089(5) 0.119(6) 0.033(5) -0.057(6) -0.040(5)
C1 0.056(4) 0.051(3) 0.072(4) 0.001(3) -0.014(3) -0.007(3)
C2 0.058(4) 0.088(5) 0.071(4) 0.001(4) -0.013(4) -0.013(4)
C3 0.073(6) 0.103(7) 0.083(5) 0.023(5) 0.002(5) -0.001(5)
C4 0.071(6) 0.092(6) 0.130(9) 0.029(6) -0.014(6) -0.026(5)
C5 0.065(5) 0.081(6) 0.129(8) 0.010(5) -0.034(5) -0.019(4)
C6 0.058(4) 0.057(4) 0.089(5) 0.002(3) -0.027(4) -0.013(3)
C7 0.065(5) 0.076(5) 0.104(6) -0.008(4) -0.043(5) -0.004(4)
C8 0.122(8) 0.103(7) 0.091(6) 0.020(5) -0.049(6) 0.006(6)
C9 0.079(5) 0.064(4) 0.075(4) -0.013(3) -0.035(4) -0.002(4)
C10 0.075(5) 0.074(5) 0.067(4) -0.011(3) -0.024(4) -0.002(4)
C11 0.100(7) 0.074(5) 0.082(5) 0.020(4) -0.042(5) -0.002(4)
C12 0.060(5) 0.099(6) 0.096(6) 0.010(5) -0.018(4) -0.020(4)
loop_
_atom_type_symbol
_atom_type_description
_atom_type_scat_dispersion_real
_atom_type_scat_dispersion_imag
_atom_type_scat_source
C C 0.0181 0.0091 'International Tables Vol C Tables 4.2.6.8 and 6.1.1.4'
H H 0.0000 0.0000 'International Tables Vol C Tables 4.2.6.8 and 6.1.1.4'
N N 0.0311 0.0180 'International Tables Vol C Tables 4.2.6.8 and 6.1.1.4'
Hg Hg -4.2923 7.6849 'International Tables Vol C Tables 4.2.6.8 and 6.1.1.4'
loop_
_geom_angle_atom_site_label_1
_geom_angle_atom_site_label_2
_geom_angle_atom_site_label_3
_geom_angle
_geom_angle_site_symmetry_1
_geom_angle_site_symmetry_3
C1 Hg N3 172.6(3) . .
C1 Hg N1 75.6(2) . .
N3 Hg N1 109.6(3) . .
C1 Hg N2 100.0(2) . .
N3 Hg N2 86.9(2) . .
N1 Hg N2 69.52(17) . .
C7 N1 C9 111.2(6) . .
C7 N1 C8 111.6(6) . .
C9 N1 C8 112.2(6) . .
C7 N1 Hg 97.3(4) . .
C9 N1 Hg 106.8(4) . .
C8 N1 Hg 116.8(5) . .
C12 N2 C10 109.5(6) . .
C12 N2 C11 110.5(6) . .
C10 N2 C11 111.5(6) . .
C12 N2 Hg 113.0(5) . .
C10 N2 Hg 106.6(4) . .
C11 N2 Hg 105.7(4) . .
N4 N3 Hg 125.0(7) . .
N3 N4 N5 172.9(9) . .
C6 C1 C2 120.3(7) . .
C6 C1 Hg 118.5(6) . .
C2 C1 Hg 121.3(6) . .
C3 C2 C1 119.6(9) . .
C3 C2 H2A 120.2 . .
C1 C2 H2A 120.2 . .
C4 C3 C2 119.7(9) . .
C4 C3 H3A 120.1 . .
C2 C3 H3A 120.1 . .
C3 C4 C5 120.3(9) . .
C3 C4 H4A 119.9 . .
C5 C4 H4A 119.9 . .
C4 C5 C6 120.9(9) . .
C4 C5 H5A 119.6 . .
C6 C5 H5A 119.6 . .
C1 C6 C5 119.3(8) . .
C1 C6 C7 120.9(7) . .
C5 C6 C7 119.8(8) . .
N1 C7 C6 114.9(6) . .
N1 C7 H7A 108.5 . .
C6 C7 H7A 108.5 . .
N1 C7 H7B 108.5 . .
C6 C7 H7B 108.5 . .
H7A C7 H7B 107.5 . .
N1 C8 H8A 109.5 . .
N1 C8 H8B 109.5 . .
H8A C8 H8B 109.5 . .
N1 C8 H8C 109.5 . .
H8A C8 H8C 109.5 . .
H8B C8 H8C 109.5 . .
N1 C9 C10 112.2(6) . .
N1 C9 H9A 109.2 . .
C10 C9 H9A 109.2 . .
N1 C9 H9B 109.2 . .
C10 C9 H9B 109.2 . .
H9A C9 H9B 107.9 . .
N2 C10 C9 113.1(6) . .
N2 C10 H10A 109.0 . .
C9 C10 H10A 109.0 . .
N2 C10 H10B 109.0 . .
C9 C10 H10B 109.0 . .
H10A C10 H10B 107.8 . .
N2 C11 H11A 109.5 . .
N2 C11 H11B 109.5 . .
H11A C11 H11B 109.5 . .
N2 C11 H11C 109.5 . .
H11A C11 H11C 109.5 . .
H11B C11 H11C 109.5 . .
N2 C12 H12A 109.5 . .
N2 C12 H12B 109.5 . .
H12A C12 H12B 109.5 . .
N2 C12 H12C 109.5 . .
H12A C12 H12C 109.5 . .
H12B C12 H12C 109.5 . .
loop_
_geom_bond_atom_site_label_1
_geom_bond_atom_site_label_2
_geom_bond_distance
_geom_bond_site_symmetry_2
Hg C1 2.062(7) .
Hg N3 2.108(6) .
Hg N1 2.656(6) .
Hg N2 2.699(6) .
N1 C7 1.448(9) .
N1 C9 1.463(8) .
N1 C8 1.480(9) .
N2 C12 1.451(9) .
N2 C10 1.461(9) .
N2 C11 1.469(8) .
N3 N4 1.096(9) .
N4 N5 1.173(9) .
C1 C6 1.379(10) .
C1 C2 1.400(10) .
C2 C3 1.392(11) .
C2 H2A 0.9300 .
C3 C4 1.377(14) .
C3 H3A 0.9300 .
C4 C5 1.379(14) .
C4 H4A 0.9300 .
C5 C6 1.385(11) .
C5 H5A 0.9300 .
C6 C7 1.515(11) .
C7 H7A 0.9700 .
C7 H7B 0.9700 .
C8 H8A 0.9600 .
C8 H8B 0.9600 .
C8 H8C 0.9600 .
C9 C10 1.521(10) .
C9 H9A 0.9700 .
C9 H9B 0.9700 .
C10 H10A 0.9700 .
C10 H10B 0.9700 .
C11 H11A 0.9600 .
C11 H11B 0.9600 .
C11 H11C 0.9600 .
C12 H12A 0.9600 .
C12 H12B 0.9600 .
C12 H12C 0.9600 .
loop_
_geom_torsion_atom_site_label_1
_geom_torsion_atom_site_label_2
_geom_torsion_atom_site_label_3
_geom_torsion_atom_site_label_4
_geom_torsion
_geom_torsion_site_symmetry_1
_geom_torsion_site_symmetry_2
_geom_torsion_site_symmetry_3
_geom_torsion_site_symmetry_4
C6 C1 C2 C3 0.7(12) . . . .
Hg C1 C2 C3 178.8(6) . . . .
C1 C2 C3 C4 -0.3(13) . . . .
C2 C3 C4 C5 -0.2(15) . . . .
C3 C4 C5 C6 0.3(15) . . . .
C2 C1 C6 C5 -0.6(11) . . . .
Hg C1 C6 C5 -178.8(6) . . . .
C2 C1 C6 C7 -177.6(7) . . . .
Hg C1 C6 C7 4.3(9) . . . .
C4 C5 C6 C1 0.2(13) . . . .
C4 C5 C6 C7 177.1(8) . . . .
C9 N1 C7 C6 -74.9(8) . . . .
C8 N1 C7 C6 158.9(7) . . . .
Hg N1 C7 C6 36.3(7) . . . .
C1 C6 C7 N1 -34.4(10) . . . .
C5 C6 C7 N1 148.7(7) . . . .
C7 N1 C9 C10 154.6(6) . . . .
C8 N1 C9 C10 -79.7(8) . . . .
Hg N1 C9 C10 49.6(7) . . . .
C12 N2 C10 C9 166.4(7) . . . .
C11 N2 C10 C9 -71.0(8) . . . .
Hg N2 C10 C9 43.9(7) . . . .
N1 C9 C10 N2 -68.5(8) . . . .
