#------------------------------------------------------------------------------
#$Date: 2021-07-04 04:53:45 +0300 (Sun, 04 Jul 2021) $
#$Revision: 266976 $
#$URL: file:///home/coder/svn-repositories/cod/cif/1/56/33/1563375.cif $
#------------------------------------------------------------------------------
#
# This file is available in the Crystallography Open Database (COD),
# http://www.crystallography.net/
#
# All data on this site have been placed in the public domain by the
# contributors.
#
data_1563375
loop_
_publ_author_name
'Jin, Jianbo'
'Folgueras, Maria C.'
'Gao, Mengyu'
'Yu, Sunmoon'
'Louisia, Sheena'
'Zhang, Ye'
'Quan, Li Na'
'Chen, Chubai'
'Zhang, Rui'
'Seeler, Fabian'
'Schierle-Arndt, Kerstin'
'Yang, Peidong'
_publ_section_title
;
 A New Perspective and Design Principle for Halide Perovskites: Ionic
 Octahedron Network (ION).
;
_journal_issue                   12
_journal_name_full               'Nano letters'
_journal_page_first              5415
_journal_page_last               5421
_journal_paper_doi               10.1021/acs.nanolett.1c01897
_journal_volume                  21
_journal_year                    2021
_chemical_formula_moiety         'Au3.5 Cl23 Cs8 In1.5'
_chemical_formula_sum            'Au3.5 Cl23 Cs8 In1.5'
_chemical_formula_weight         2740.24
_chemical_name_common            'Cs8Au3.5In1.5Cl23 Black (Eg=1.43eV)'
_space_group_crystal_system      cubic
_space_group_IT_number           221
_space_group_name_Hall           '-P 4 2 3'
_space_group_name_H-M_alt        'P m -3 m'
_atom_sites_solution_primary     dual
_audit_creation_date             2021-05-09
_audit_creation_method
;
Olex2 1.3
(compiled 2020.11.12 svn.r5f609507 for OlexSys, GUI svn.r6272)
;
_cell_angle_alpha                90
_cell_angle_beta                 90
_cell_angle_gamma                90
_cell_formula_units_Z            1
_cell_length_a                   10.4914(5)
_cell_length_b                   10.4914(5)
_cell_length_c                   10.4914(5)
_cell_measurement_reflns_used    886
_cell_measurement_temperature    293
_cell_measurement_theta_max      28.5300
_cell_measurement_theta_min      3.3470
_cell_volume                     1154.78(10)
_computing_cell_refinement       'CrysAlisPro 1.171.40.53 (Rigaku OD, 2019)'
_computing_data_collection       'CrysAlisPro 1.171.40.53 (Rigaku OD, 2019)'
_computing_data_reduction        'CrysAlisPro 1.171.40.53 (Rigaku OD, 2019)'
_computing_molecular_graphics    'Olex2 1.3 (Dolomanov et al., 2009)'
_computing_publication_material  'Olex2 1.3 (Dolomanov et al., 2009)'
_computing_structure_refinement  'SHELXL 2018/3 (Sheldrick, 2015)'
_computing_structure_solution    'SHELXT 2018/2 (Sheldrick, 2018)'
_diffrn_ambient_temperature      293
_diffrn_detector                 'CCD plate'
_diffrn_detector_area_resol_mean 5.8140
_diffrn_detector_type            'Pilatus 200K'
_diffrn_measured_fraction_theta_full 0.992
_diffrn_measured_fraction_theta_max 0.889
_diffrn_measurement_details
;
List of Runs (angles in degrees, time in seconds):

  # Type    Start    End  Width  t~exp~   \w     \q     \k     \f   Frames
--------------------------------------------------------------------------
  1  \w    -27.00  -2.00   0.50    2.13    --    2.33  95.00-165.00   50
  2  \w     -9.00  34.00   0.50    2.13    --    2.33 -99.00-120.00   86
;
_diffrn_measurement_device       'four-circle diffractometer'
_diffrn_measurement_device_type  'ROD, Synergy Custom DW system, Pilatus 200K'
_diffrn_measurement_method       '\w scans'
_diffrn_orient_matrix_type
'CrysAlisPro convention (1999,Acta A55,543-557)'
_diffrn_orient_matrix_UB_11      0.0354748000
_diffrn_orient_matrix_UB_12      -0.0321565000
_diffrn_orient_matrix_UB_13      -0.0477392000
_diffrn_orient_matrix_UB_21      0.0066483000
_diffrn_orient_matrix_UB_22      -0.0534446000
_diffrn_orient_matrix_UB_23      0.0408373000
_diffrn_orient_matrix_UB_31      -0.0572444000
_diffrn_orient_matrix_UB_32      -0.0261445000
_diffrn_orient_matrix_UB_33      -0.0247466000
_diffrn_radiation_monochromator  mirror
_diffrn_radiation_probe          x-ray
_diffrn_radiation_type           'Mo K\a'
_diffrn_radiation_wavelength     0.71073
_diffrn_reflns_av_R_equivalents  0.0366
_diffrn_reflns_av_unetI/netI     0.0266
_diffrn_reflns_Laue_measured_fraction_full 0.992
_diffrn_reflns_Laue_measured_fraction_max 0.889
_diffrn_reflns_limit_h_max       12
_diffrn_reflns_limit_h_min       -13
_diffrn_reflns_limit_k_max       13
_diffrn_reflns_limit_k_min       -4
_diffrn_reflns_limit_l_max       13
_diffrn_reflns_limit_l_min       -10
_diffrn_reflns_number            2686
_diffrn_reflns_point_group_measured_fraction_full 0.992
_diffrn_reflns_point_group_measured_fraction_max 0.889
_diffrn_reflns_theta_full        25.242
_diffrn_reflns_theta_max         29.320
_diffrn_reflns_theta_min         3.363
_diffrn_source                   'Rotating-anode X-ray tube'
_diffrn_source_type              'Rigaku (Mo) X-ray Source'
_exptl_absorpt_coefficient_mu    19.365
_exptl_absorpt_correction_T_max  0.741
_exptl_absorpt_correction_T_min  0.169
_exptl_absorpt_correction_type   gaussian
_exptl_absorpt_process_details
;
CrysAlisPro 1.171.40.53 (Rigaku Oxford Diffraction, 2019)
Numerical absorption correction based on gaussian integration over
			a multifaceted crystal model
Empirical absorption correction using spherical harmonics,
 implemented in SCALE3 ABSPACK scaling algorithm.
;
_exptl_crystal_colour            black
_exptl_crystal_colour_primary    black
_exptl_crystal_density_diffrn    3.940
_exptl_crystal_description       plate
_exptl_crystal_F_000             1181
_exptl_crystal_preparation       'HCl slow cooling'
_exptl_crystal_recrystallization_method 'HCl slow cooling'
_exptl_crystal_size_max          0.202
_exptl_crystal_size_mid          0.116
_exptl_crystal_size_min          0.031
_refine_diff_density_max         2.177
_refine_diff_density_min         -1.209
_refine_diff_density_rms         0.255
_refine_ls_extinction_method     none
_refine_ls_goodness_of_fit_ref   1.115
_refine_ls_hydrogen_treatment    undef
_refine_ls_matrix_type           full
_refine_ls_number_parameters     18
_refine_ls_number_reflns         335
_refine_ls_number_restraints     0
_refine_ls_restrained_S_all      1.115
_refine_ls_R_factor_all          0.0640
_refine_ls_R_factor_gt           0.0512
_refine_ls_shift/su_max          0.000
_refine_ls_shift/su_mean         0.000
_refine_ls_structure_factor_coef Fsqd
_refine_ls_weighting_details
'w=1/[\s^2^(Fo^2^)+(0.0417P)^2^+21.6585P] where P=(Fo^2^+2Fc^2^)/3'
_refine_ls_weighting_scheme      calc
_refine_ls_wR_factor_gt          0.1214
_refine_ls_wR_factor_ref         0.1273
_reflns_Friedel_coverage         0.000
_reflns_number_gt                280
_reflns_number_total             335
_reflns_threshold_expression     'I > 2\s(I)'
_cod_data_source_file            nl1c01897_si_003.cif
_cod_data_source_block           Cs16Au7In3Cl23Black
_cod_depositor_comments
'Adding full bibliography for 1563375--1563376.cif.'
_cod_original_cell_volume        1154.78(17)
_cod_original_formula_sum        'Au3.50 Cl23 Cs8 In1.50'
_cod_database_code               1563375
_shelx_shelxl_version_number     2018/3
_chemical_oxdiff_formula         'Cs Au In Cl'
_shelx_space_group_comment
;
The symmetry employed for this shelxl refinement is uniquely defined
by the following loop, which should always be used as a source of
symmetry information in preference to the above space-group names.
They are only intended as comments.
;
_reflns_odcompleteness_completeness 99.31
_reflns_odcompleteness_iscentric 1
_reflns_odcompleteness_theta     26.32
_olex2_refinement_description
;
1. Shared sites
{Au01, In2}
2. Uiso/Uaniso restraints and constraints
Uanis(Au01) = Uanis(In2)
3. Others
 Fixed Sof: Au01(0.05208) Cl07(0.10417) In2(0.01042)
;
_shelx_res_file
;
TITL jianbo07_t3_pp_0316_a.res in Pm-3m
    jianbo07_t3_pp_0316.res
    created by SHELXL-2018/3 at 18:34:23 on 09-May-2021
REM Old TITL Jianbo07_t3_pp_0316 in Pm-3m #221
REM SHELXT solution in Pm-3m: R1 0.138, Rweak 0.005, Alpha 0.050
REM <I/s> 0.000 for 0 systematic absences, Orientation as input
REM Formula found by SHELXT: Cl24 Cs10 Au3
CELL 0.71073 10.4914 10.4914 10.4914 90 90 90
ZERR 1 0.0005 0.0005 0.0005 0 0 0
LATT 1
SYMM -X,-Y,+Z
SYMM -X,+Y,-Z
SYMM +X,-Y,-Z
SYMM +Z,+X,+Y
SYMM +Z,-X,-Y
SYMM -Z,-X,+Y
SYMM -Z,+X,-Y
SYMM +Y,+Z,+X
SYMM -Y,+Z,-X
SYMM +Y,-Z,-X
SYMM -Y,-Z,+X
SYMM +Y,+X,-Z
SYMM -Y,-X,-Z
SYMM +Y,-X,+Z
SYMM -Y,+X,+Z
SYMM +X,+Z,-Y
SYMM -X,+Z,+Y
SYMM -X,-Z,-Y
SYMM +X,-Z,+Y
SYMM +Z,+Y,-X
SYMM +Z,-Y,+X
SYMM -Z,+Y,+X
SYMM -Z,-Y,-X
SFAC Au Cl Cs In
UNIT 3.5 23 8 1.5
EADP Au01 In2
EXYZ Au01 In2

L.S. 4 0 0
PLAN  2
CONF
list 4
MORE -1
fmap 2 53
acta
REM <olex2.extras>
REM <HklSrc "%.\\Jianbo07_t3_pp_0316.hkl">
REM </olex2.extras>

WGHT    0.041700   21.658499
FVAR       0.13499
PART 3
AU01  1    0.000000    0.000000    0.500000    10.05208    0.03055    0.03055 =
         0.06874    0.00000    0.00000    0.00000
PART 0
AU02  1    0.000000    0.000000    0.000000    10.02083    0.07906    0.07906 =
         0.07906    0.00000    0.00000    0.00000
IN03  4    0.500000    0.500000    0.500000    10.02083    0.02329    0.02329 =
         0.02329    0.00000    0.00000    0.00000
CS04  3    0.259734    0.259734    0.740266    10.16667    0.05164    0.05164 =
         0.05164    0.00513    0.00513   -0.00513
CL05  2    0.220316    0.000000    0.500000    10.25000    0.03945    0.04374 =
         0.08507    0.00000    0.00000    0.00000
CL06  2    0.500000    0.500000    0.741587    10.12500    0.03421    0.03421 =
         0.01963    0.00000    0.00000    0.00000
CL07  2    0.000000    0.000000    0.228585    10.10417    0.11562    0.11562 =
         0.07154    0.00000    0.00000    0.00000
PART 4
IN2   4    0.000000    0.000000    0.500000    10.01042    0.03055    0.03055 =
         0.06874    0.00000    0.00000    0.00000
HKLF 4




REM  jianbo07_t3_pp_0316_a.res in Pm-3m
REM wR2 = 0.1273, GooF = S = 1.115, Restrained GooF = 1.115 for all data
REM R1 = 0.0512 for 280 Fo > 4sig(Fo) and 0.0640 for all 335 data
REM 18 parameters refined using 0 restraints

END

WGHT      0.0417     21.6586

REM Highest difference peak  2.177,  deepest hole -1.209,  1-sigma level  0.255
Q1    1   0.5000  0.5000  1.0000  10.06250  0.05    2.18
Q2    1   0.0000  0.0000  0.4140  10.12500  0.05    1.19
;
_shelx_res_checksum              5890
_shelx_hkl_file
;
   1  -1   1  839.79   29.71
  -2   0   0   41.22    1.74
  -2   0   0   38.98    1.95
   2   0   0   44.28    1.76
  -2   0  -1  291.83   10.53
  -1   0  -2  291.56   10.39
  -2   0  -1  302.80   10.75
   2   0  -1  286.54   10.54
  -1   0   2  298.93   10.38
   2  -1   1   47.03    2.49
   1  -1   2   57.11    2.23
  -2  -1   1   53.49    2.16
  -1   1  -2   54.60    2.26
   2   1  -1   49.79    2.31
  -2   0   2 5904.79  206.32
   0   2  -2 5916.89  206.34
   2   0   2 5873.90  206.55
  -2   0  -2 5943.17  206.34
   1  -2   2  117.13    4.99
  -1   2  -2  126.59    5.00
   2   2  -1  130.16    4.72
   2  -1   2  135.79    5.07
  -2   2  -2 1823.79   63.93
   2  -2   2 1798.39   63.98
  -3   0   0  193.17    7.50
  -3   0   0  192.12    7.77
  -3   0  -1   14.36    0.94
  -3   1   0   17.63    1.48
  -3   0   1   14.65    1.49
   3   1   0   14.56    0.94
  -3   0  -1   14.04    1.13
   3   0  -1   13.30    0.94
   3   1   0   16.47    1.14
  -3  -1   0   17.30    1.02
  -3  -1   1  444.57   16.44
   3   1  -1  450.74   16.72
   1  -1   3  455.99   16.31
   3   1  -1  473.17   16.38
   3  -1   1  456.42   16.95
   3   0   2    4.00    0.71
  -3   0  -2    5.12    0.63
  -2   0   3    3.71    0.42
   0  -2   3    5.79    0.52
   3   2   0    4.40    0.62
  -3   0   2    4.03    0.54
  -2   0  -3    4.81    0.48
   2   1   3   19.09    0.99
   3  -1   2   23.00    1.60
  -1   2  -3   21.40    1.23
  -1   3  -2   23.55    1.44
   1  -2   3   20.30    1.22
   2   1  -3   21.23    1.05
   3   2  -1   20.67    1.26
   3   1   2   22.96    1.18
  -3  -1   2   20.92    1.42
   2  -1   3   20.88    1.26
   3   1  -2   22.26    1.20
  -2   3  -2  242.01    9.22
   2   3  -2  227.18    8.48
  -3  -2   2  243.72    8.59
  -3   2  -2  236.29    9.35
  -2   2  -3  254.27    9.13
   2  -2   3  245.34    9.09
   3  -2   2  250.34    9.44
  -3   0  -3    6.94    0.68
   0   3  -3    6.13    0.63
  -3   0   3    5.47    0.60
   3   0   3    7.02    0.84
  -3   1   3  227.24    8.77
   3   1   3  241.31    8.70
   3   1  -3  237.99    8.73
  -1   3  -3  238.78    8.93
   3  -1   3  238.77    9.04
  -3   1  -3  235.00    9.20
   3   3  -1  241.43    8.72
  -3  -2   3    2.00    0.52
   3   3  -2    1.99    0.62
  -3   2  -3    2.22    0.87
  -2   3  -3    2.93    0.91
   3  -2   3    1.20    0.85
  -3   3  -2    1.44    0.86
  -3   3  -3  152.06    6.44
  -4   0   0 9999.00  331.60
  -4   0   0 9077.28  331.18
   4   0   0 9790.61  331.99
   4   1   0   22.31    1.39
  -4   0  -1   25.19    1.41
  -4   1   0   17.36    1.42
  -4   1   0   21.63    2.09
  -4   0   1   22.10    1.85
   4   1   0   27.04    1.81
  -4  -1   0   24.56    1.50
  -4   0  -1   21.79    1.62
   4   1  -1   20.01    1.30
  -4   1  -1   20.26    1.70
  -4  -1   1   17.68    1.31
  -4  -1  -1   20.13    1.45
   4   1  -1   19.83    1.66
   4   1   1   17.00    1.37
  -4   2   0   19.37    1.86
   4   2   0   20.75    1.41
   0  -2   4   21.08    1.07
  -4   0  -2   20.42    1.60
  -4   0   2   21.01    1.29
  -4   0  -2   22.35    1.36
   4  -1   2  129.25    5.62
  -4   1   2  126.59    5.08
   2   1  -4  129.41    4.75
  -4  -1   2  114.55    5.24
   4   1   2  127.09    4.99
   4   2  -1  127.13    5.40
   4   2   1  134.73    5.17
   2   1   4  124.72    4.71
   4   1  -2  129.66    5.05
   2  -1   4  125.47    5.03
  -4  -2   1  126.93    4.92
   1  -2   4  127.22    4.93
  -4   1  -2  132.04    5.19
  -4  -2   2 3200.19  110.54
   4   2   2 3079.10  110.85
   4  -2   2 3212.97  111.43
   4   2   2 3181.77  110.63
   2  -2   4 3114.16  110.75
  -4   0   3   99.31    4.04
   0  -3   4  107.59    4.09
   4   0   3   94.43    4.34
   3   0   4  108.11    4.30
  -4   0  -3   98.91    4.11
   4   3   0  100.01    4.17
   0   4  -3   96.73    4.06
   3   1  -4    7.85    0.80
  -4   1   3    6.86    0.90
   3  -1   4    9.51    1.08
   4   3  -1    7.08    0.90
  -3   1   4    7.17    0.80
   4   1  -3    7.97    0.91
  -1   4  -3    4.29    0.88
  -4   1  -3    5.99    1.00
  -3   1  -4    8.09    0.94
   1  -3   4    7.88    0.99
   1   4  -3    5.44    0.64
  -4  -1   3    6.51    1.29
   4   3   1    6.54    0.91
   3   1   4    6.88    0.72
   4   1   3    7.35    0.84
   4  -1   3    5.28    1.11
   4   2   3    3.02    0.70
   2  -3   4    0.87    0.95
   3  -2   4    2.71    0.93
   4  -2   3    1.14    1.07
  -4   2  -3    2.26    1.02
  -2   4  -3    2.14    0.93
  -3   4  -2    2.03    1.02
  -3   2  -4    2.48    0.88
  -4  -2   3    3.19    0.64
   3   4  -2    2.90    0.49
   4   2  -3    1.39    0.70
  -2   3  -4    2.50    0.88
   4   3  -2    1.75    0.94
  -4   3  -2    1.82    1.10
   3  -3   4    6.13    1.26
  -3   3  -4    5.89    1.15
  -4   3  -3    6.76    1.31
  -3   4  -3    6.28    1.16
   0   4  -4 6273.69  213.29
  -4   0  -4 5936.65  213.45
   4   0   4 6029.44  213.78
  -1   4  -4    4.64    0.93
   4   1   4    3.10    0.97
   4   1  -4    5.50    0.90
  -4   1   4    4.62    0.86
   4   1   4    5.70    0.85
   4   4  -1    5.85    0.87
  -4   1  -4    5.47    1.05
   4  -1   4    7.18    1.13
   4   2  -4   15.48    1.24
   4   2   4   16.29    1.23
   4   4  -2   15.60    1.20
  -4  -2   4   15.04    1.30
  -2   4  -4   15.99    1.49
  -4   2  -4   16.25    1.63
   4  -2   4   16.91    1.64
  -4   4  -2   12.99    1.63
  -4   3  -4   45.03    2.85
  -3   4  -4   53.96    2.95
   4  -3   4   48.49    3.02
  -4   4  -4 3686.08  129.83
  -5   0   0    4.46    1.10
  -5   0   0    6.47    0.89
   5   0   0    4.81    1.33
  -5   0  -1   43.74    2.72
  -5   1   0   48.28    2.57
  -5   1   0   61.89    3.50
  -5   0   1   49.46    3.04
   5   1   0   55.05    3.21
  -5   0  -1   48.93    2.48
   5   1   0   54.22    2.54
  -5  -1   0   51.66    2.65
   5   1   1  511.62   18.63
  -5  -1  -1  527.74   18.54
   1   1   5  500.86   17.63
  -5   1  -1  504.22   18.35
  -5  -1   1  467.38   18.36
  -5   1   1  529.16   19.25
   1   1  -5  497.15   17.65
   5   1  -1  512.05   18.24
  -5   1  -1  476.14   18.79
  -1   1   5  505.29   17.64
  -5   0  -2  540.01   19.26
  -5   0   2  593.66   20.56
   5   2   0  488.51   19.20
   5   2   0  543.40   19.59
  -5   0   2  524.90   19.17
   0  -2   5  524.47   18.89
  -5   0  -2  568.79   19.77
  -5   2   0  534.03   20.12
  -2   1   5   37.96    1.58
  -2   1  -5   38.48    1.72
   2   1  -5   35.95    1.61
   5   1  -2   37.27    2.05
   2  -1   5   34.59    1.94
   2   1   5   39.12    1.60
   5   2  -1   28.73    2.42
  -5   1  -2   36.27    2.12
   5  -1   2   38.58    2.77
  -5   1   2   36.41    2.05
  -5  -2   1   35.42    1.90
   5   2  -1   33.60    1.98
  -5   2  -1   26.67    2.48
   1  -2   5   34.68    1.81
   5   2   1   30.51    2.07
   5   1   2   37.98    2.01
  -5  -1   2   37.67    2.26
   5   2   2   12.10    1.17
   5   2   2   13.55    1.30
  -5  -2   2   13.62    1.10
   5   2  -2   14.55    1.26
   2  -2   5   13.13    1.18
  -5   0  -3   13.07    1.26
   5   3   0   13.22    1.43
   3   0   5   12.46    1.24
  -5   0   3   13.15    1.17
   0  -3   5   11.90    1.00
  -5   3   0   13.48    1.83
   5   0   3   11.33    1.41
  -5   1   3  331.48   12.02
   1  -3   5  311.29   11.91
   5   3   1  319.64   12.14
  -5   1  -3  328.32   12.15
  -1   5  -3  325.33   12.10
   3   1   5  324.25   11.68
  -3   1  -5  331.16   11.83
  -5  -1   3  313.73   12.52
   5   1  -3  325.41   12.05
  -3   1   5  325.44   11.67
   3  -1   5  326.66   12.09
   5   1   3  305.70   11.95
   5   3  -1  316.69   12.36
   3   1  -5  327.05   11.75
   5  -1   3  308.98   12.56
  -5  -2   3   28.49    1.72
   3  -2   5   30.72    1.95
   5   2  -3   28.07    1.84
   2  -3   5   30.36    1.95
   5   2   3   26.64    1.74
   3   2   5   31.38    1.58
   3   2  -5   32.50    1.63
  -2   5  -3   29.44    2.02
   5   3   2   33.73    2.03
   5   3  -2   35.80    2.35
   5  -2   3   24.87    2.38
   3  -3   5  176.07    7.22
   5   3   3  193.02    7.14
  -3   5  -3  179.57    7.29
  -5   3  -3  206.92    7.77
   3   5  -3  160.61    6.30
   5   4   0    2.89    1.00
   0   5  -4    2.16    0.81
   5   0   4    1.11    1.05
   4   0   5    2.11    1.05
   5   1   4   20.39    1.80
   4   1   5   20.52    1.40
   4  -1   5   20.51    1.77
   5   1   4   19.46    1.53
  -1   5  -4   21.75    1.62
   5   4   1   20.86    1.66
  -4   1   5   22.19    1.40
   5   4  -1   18.54    1.55
  -4   1  -5   23.34    1.59
   4   1  -5   19.17    1.46
   5   1  -4   22.26    1.69
  -5  -1   4   24.97    2.18
  -5   1   4   25.40    1.59
   4   1   5   18.28    1.60
  -5   1  -4   20.82    1.74
   5  -1   4   23.15    1.89
  -4   5  -2  293.80   11.40
  -5  -2   4  298.07   10.67
   4   2   5  293.19   10.42
  -4   2   5  279.37   10.47
   4   5  -2  268.88   10.33
   5   2  -4  281.45   10.60
   5  -2   4  268.60   11.26
   4  -2   5  273.92   10.91
   5   2   4  279.88   10.51
  -5   2  -4  284.17   11.30
  -5   2  -4  278.10   10.92
  -2   4  -5  272.00   10.71
  -2   5  -4  297.92   10.76
   4   2  -5  275.88   10.44
  -5   2   4  279.70   10.64
  -5   4  -2  268.69   11.24
   5   4  -2  267.24   10.82
   5   3   4    7.52    1.13
   4   5  -3    3.54    0.91
   5  -3   4    3.23    1.54
  -3   5  -4    5.05    1.34
   5   3  -4    6.07    1.23
  -4   5  -3    2.94    1.37
  -4  -3   5    3.68    0.48
   4  -3   5    2.30    1.50
  -4   3  -5    1.75    1.63
  -5  -3   4    5.46    0.71
  -3   4  -5    4.52    1.35
  -5   3  -4    4.17    1.60
  -5   4  -3    2.71    1.42
  -5   4  -4    6.48    1.56
  -4   5  -4    4.12    1.39
  -4   4  -5    6.21    1.76
   5   0   5   48.43    3.01
   5   5   0   59.57    2.86
  -1   5  -5  344.38   12.70
   5  -1   5  335.47   13.11
  -5   1   5  343.51   12.61
   5   1   5  336.54   12.99
  -5   1  -5  336.37   12.82
  -5   5  -1  369.89   13.70
   5   5  -1  329.82   12.70
  -5   5  -2   18.52    2.22
   5   2   5   15.08    1.69
   5   2   5   14.95    1.38
  -5   2  -5   14.62    1.77
  -5  -2   5   12.59    1.60
   5   5  -2   16.27    1.53
   5  -2   5   10.50    1.76
   5   2  -5   11.93    1.44
  -2   5  -5   16.41    1.72
  -5   2   5   13.81    1.47
  -5  -3   5  218.60    8.54
  -3   5  -5  261.96    9.62
  -5   5  -3  236.56    9.76
   5   3   5  234.70    9.02
  -5   3  -5  265.84   10.07
   5  -3   5  230.64    9.84
   5   3  -5  254.65    9.22
  -5   5  -4   24.68    2.25
  -4   5  -5   24.37    2.19
  -5   4  -5   25.74    2.56
  -5   5  -5  244.67   10.04
  -6   0   0   42.21    2.76
  -6   0   0   44.08    2.41
  -6   0  -1   53.48    3.12
   6   0   1   57.23    3.71
   6   1   0   58.85    3.65
  -6   1   0   63.36    3.79
   6   1   0   54.01    2.89
  -6   0   1   51.69    3.38
  -6  -1   0   49.74    2.97
  -6   0  -1   59.73    2.89
  -6  -1  -1    3.69    1.17
   6   1  -1   -0.07    0.95
  -6   1  -1    1.58    1.32
  -6  -1   1    0.31    1.03
   6   1   1    2.64    1.23
  -6   1   1    1.44    1.52
  -6   1  -1    3.53    1.14
   6   2   0 2108.17   76.46
  -6   2   0 2042.69   77.27
  -6   0  -2 2155.89   76.99
  -6   0   2 2178.00   76.38
   0  -2   6 2177.00   76.05
  -6   0  -2 2197.12   76.48
   6   2   0 2233.26   77.16
  -6   0   2 2261.30   77.50
  -6   1   2   40.27    2.32
  -6   2  -1   41.74    3.00
  -6   1  -2   32.71    2.66
   6   2   1   37.52    2.51
   6   2  -1   42.63    2.38
   6   2  -1   35.16    2.89
   6   1   2   39.94    2.60
  -6   1   2   37.31    3.04
  -6   2  -1   43.00    2.66
   2  -1   6   41.78    2.22
  -6   1  -2   39.05    2.44
  -6  -2   1   38.28    2.24
  -2   1   6   40.27    1.65
  -6  -1   2   32.37    2.37
   6   1  -2   40.82    2.36
   1  -2   6   43.74    2.08
  -2   1  -6   40.76    1.74
  -6   2   1   42.96    3.07
   6   1   2   36.16    2.25
   2   2  -6  280.83   10.24
  -6   2   2  284.81   10.97
   6   2  -2  290.02   10.84
  -6   2  -2  283.04   11.14
   2  -2   6  277.83   10.64
   6   2   2  285.61   10.75
  -6  -2   2  279.25   10.68
   6   2   2  283.75   11.04
   2   2   6  282.17   10.21
  -6   3   0    5.36    1.70
  -6   0  -3    6.88    1.24
   3   0   6    5.66    1.07
   6   3   0    6.96    1.28
  -6   0   3    6.77    1.12
  -6   0   3    5.24    1.82
   6   3   0    2.69    1.11
   0  -3   6    3.53    0.75
  -6  -1   3    1.18    1.26
   3  -1   6    1.39    0.97
  -3   1  -6    1.76    0.72
   6  -1   3    0.12    1.49
   6   3  -1    1.44    1.00
   1  -3   6    1.61    0.83
  -1  -3   6    0.93    0.53
   6   3   1    2.44    1.20
   6   1  -3    0.35    1.08
   6   1   3   -0.68    1.06
   6   3  -1    1.52    1.32
  -6   1   3    2.51    1.07
  -3   1   6    1.70    0.62
  -6   1  -3    1.57    1.15
   3   2   6  109.41    4.18
  -6   2  -3  101.33    4.92
   6   2  -3  106.50    4.68
  -6   2   3  101.53    4.71
   6   3   2  107.37    4.84
   3  -2   6  112.94    4.69
   6   2   3  102.18    4.58
   3   2  -6  105.43    4.22
   6   3  -2  102.15    4.64
  -2   6  -3  100.61    4.83
   6   2   3  100.62    4.83
   6   3   2  104.11    4.61
   6  -2   3   99.31    5.45
  -3   2   6  103.63    4.19
   2  -3   6  103.27    4.57
  -6  -2   3  104.75    4.55
   3  -3   6    1.62    1.19
   6   3  -3    3.93    1.23
  -3   6  -3    1.06    1.41
  -6  -3   3    1.76    0.80
   6   3   3    1.54    1.01
  -6   3  -3    3.04    1.66
   6   3   3    3.06    1.21
   0   6  -4   23.34    1.61
   4   0   6   28.33    2.01
   6   0   4   25.29    2.10
   6   4   0   26.17    2.02
   1   6  -4   27.87    1.47
  -4   1   6   27.33    1.59
  -6   1  -4   28.03    2.08
   6  -1   4   23.71    2.30
  -6  -1   4   23.11    2.36
   4  -1   6   24.89    2.00
  -6   1   4   26.21    1.90
   6   4   1   25.03    2.03
   4   1   6   26.75    1.98
  -1   6  -4   26.63    1.82
  -4   1  -6   23.64    1.70
   1  -4   6   30.54    1.99
   6   4  -1   27.88    2.18
   6   4   2 1309.91   46.96
  -6   2   4 1333.52   46.81
  -6   2  -4 1297.43   47.10
  -4   2   6 1301.16   46.41
   4  -2   6 1299.57   46.98
  -6   4  -2 1278.98   47.51
   4   6  -2 1298.09   46.39
   2  -4   6 1329.92   46.93
  -6  -2   4 1314.31   46.70
   6   2   4 1325.07   46.69
  -2   6  -4 1290.85   46.80
  -4   2  -6 1325.37   46.75
   4   2  -6 1309.27   46.51
  -4   6  -2 1357.25   47.44
   6   4  -2 1356.80   47.34
   4   2   6 1289.91   46.38
   6  -2   4 1313.05   47.62
  -6   2  -4 1346.94   47.61
   6   2  -4 1337.15   46.80
  -6  -3   4    3.86    0.85
  -6   3  -4    5.45    1.78
   3  -4   6    3.57    1.46
   4   6  -3    5.02    0.82
  -4  -3   6    4.02    0.62
   4   3  -6    2.47    1.08
  -4   6  -3    4.36    1.66
   4   3   6    2.57    1.02
   6   3  -4    2.96    1.32
   6   3   4    3.88    1.24
  -3   6  -4    4.39    1.32
   6   4   3    5.22    1.32
  -6   4  -3    3.47    1.55
   4  -3   6    2.50    1.32
   6   3   4    3.50    1.48
   6   4   4   21.17    1.98
   6   4   4   19.45    1.76
   6   4  -4   20.97    1.95
  -6   4  -4   17.34    2.12
   4  -4   6   21.51    2.24
   5   0   6  150.24    6.38
   6   0   5  143.09    6.44
   6   5   0  154.46    6.30
   0   6  -5  140.93    5.70
   5  -1   6    3.11    1.42
   6   5   1    4.53    1.41
   5   1   6    2.90    1.49
  -5   1  -6    1.58    1.20
   6  -1   5    2.88    1.58
   6   5  -1    3.81    1.27
  -6   1  -5    4.63    1.46
  -6   5  -1   -0.28    1.87
   5   6  -1    1.41    1.03
  -6   1   5    1.96    1.16
  -5   1   6    2.90    1.02
  -1   6  -5    1.64    1.17
   6   1   5    1.41    1.39
  -6  -1   5    0.71    1.69
  -6   2   5    3.03    1.17
   6   5   2    4.81    1.37
   6  -2   5    1.35    1.63
  -2   6  -5    4.33    1.26
   5   6  -2    3.04    1.09
  -5   2   6    2.70    1.05
   6   2   5    4.37    1.27
  -6  -2   5    3.11    1.27
  -6   2  -5    2.95    1.40
   5  -2   6    6.86    1.66
   6   5  -2    3.54    1.51
   5   2  -6    2.44    1.20
  -5   2  -6    4.62    1.40
   6   2  -5    3.63    1.35
   5   2   6    3.50    1.40
  -6   5  -2    2.46    1.66
   5   2   6    3.74    1.13
  -5   6  -2    1.66    1.71
   5   6  -3    2.57    1.26
  -6  -3   5    2.85    0.78
   5   3   6    2.83    1.15
  -5   6  -3    2.34    1.65
  -6   3  -5    0.95    1.75
  -6   5  -3    1.87    1.59
  -5  -3   6    4.01    0.69
  -6   3  -5    1.57    1.70
   5   3  -6    1.30    1.16
   5  -3   6    1.93    1.68
  -5   3   6    1.35    1.19
  -6   3   5    0.75    1.30
  -3   6  -5    2.65    1.30
   6   3  -5    4.72    1.38
   6   3   5    4.40    1.27
   6  -3   5    3.94    1.91
   6   4   5   75.45    4.09
  -4   5  -6   98.57    4.69
   6   4   5   76.99    3.87
   5  -4   6   67.52    4.31
  -6   5  -4   77.92    4.36
   5   4   6   80.21    3.73
  -5   6  -4   77.09    4.27
   6   4  -5   89.03    4.15
  -4   6  -5   79.69    4.13
   5   4  -6   80.99    3.95
  -6   4  -5   82.08    4.62
  -5   5  -6    0.12    1.87
  -5   6  -5    3.23    1.76
  -6   5  -5   -0.56    1.89
   6   6   0  881.57   31.60
   6   0   6  865.05   31.94
   6   6   1    8.55    1.58
   6   6  -1    8.87    1.58
   6   1   6    8.70    1.80
   6  -1   6    8.91    1.79
  -6   1  -6   11.30    1.69
  -6   6  -1    9.54    2.24
  -6   1   6   10.88    1.41
   6   2   6   61.82    3.31
   6   2  -6   62.50    3.53
  -6   2  -6   61.70    3.65
   6   6  -2   65.16    3.51
  -2   6  -6   77.19    3.64
  -6  -2   6   60.91    3.45
   6   2   6   68.20    3.71
  -6   6  -2   69.69    4.36
  -6   2   6   64.77    3.27
   6  -2   6   61.01    3.92
   6   6  -3   37.41    2.42
   6   3  -6   35.00    2.60
  -6   3  -6   34.31    2.93
  -6   3   6   35.10    2.48
   6   3   6   33.94    2.41
  -3   6  -6   37.55    2.76
  -6   6  -3   31.05    2.93
  -6  -3   6   34.08    1.85
   6  -3   6   34.50    3.12
  -6   4  -6  624.75   22.53
   6   4   6  593.01   21.47
   6   4  -6  594.67   21.71
  -4   6  -6  575.17   21.89
  -6   6  -4  548.58   22.01
   6   5  -6    2.96    1.75
  -6   6  -5   -0.33    1.68
   6   5   6    1.59    1.42
  -5   6  -6    0.94    1.63
  -6   5  -6    0.24    1.89
  -6   6  -6   18.46    2.44
  -7   0   0  152.33    6.84
   7   0   1    1.24    1.65
  -7   0  -1    3.07    1.41
   7   1   0    2.50    1.26
  -7   1   0    4.65    1.73
  -7  -1   0    2.64    1.14
  -7   0  -1    3.48    1.17
  -7   0   1    3.19    1.42
   7   1   0    2.37    1.74
   7   1  -1  133.22    5.88
  -7   1  -1  130.44    5.87
   7   1   1  140.48    6.75
  -7  -1  -1  140.41    6.13
  -7   1  -1  143.31    6.61
  -7  -1   1  121.11    5.93
  -7   0   2   37.24    2.37
   7   2   0   36.95    2.47
  -7   0  -2   41.49    2.93
  -7   2   0   43.68    3.26
  -7   0   2   41.77    3.23
  -7   0  -2   42.39    2.52
   0  -2   7   39.09    1.99
   7   2   0   40.17    3.19
  -7   2  -1    3.85    1.50
  -7   1   2    2.77    1.18
  -7  -2   1    5.46    1.20
   1   2   7    4.68    0.52
   7   1   2    5.50    1.33
  -7  -1   2    6.26    1.40
  -7   2  -1   10.07    1.85
   1   2  -7    5.75    0.59
   7   1   2    6.47    1.60
   7   2  -1    4.00    1.27
   7   2   1    7.26    1.63
   2  -1   7    5.51    1.10
  -7   1  -2    4.63    1.34
   7   1  -2    4.42    1.32
   7   2  -1    2.61    1.56
  -7   1  -2    5.42    1.52
  -7   2   1    3.25    1.75
   1  -2   7    4.55    0.96
  -7   1   2    4.94    2.05
  -7   2   2  198.30    8.56
  -7   2   2  184.23    7.73
   2  -2   7  191.55    7.35
  -7   2  -2  186.84    7.88
  -7   2  -2  198.22    8.56
   2   2   7  183.55    6.76
   2   2  -7  178.46    6.85
   7   2  -2  189.48    7.63
  -7  -2   2  191.13    7.48
   7   2   2  187.21    7.53
  -2   2  -7  181.79    6.93
   7   2   2  179.66    7.91
  -2   2   7  181.71    6.76
   0  -3   7    3.69    0.84
   7   3   0    2.22    1.19
   7   3   0    2.06    1.56
  -7   0   3    3.52    1.73
  -7   3   0    2.52    1.67
   3   0   7    3.68    1.13
   7   3  -1   72.66    3.73
  -7   1  -3   70.91    4.27
   1  -3   7   72.39    3.36
   3  -1   7   72.35    3.58
   7   3   1   76.10    4.03
  -7   1  -3   80.99    3.96
  -1  -3   7   72.11    3.02
  -7   3   1   79.01    4.70
  -7   3  -1   73.28    4.40
  -7  -1   3   70.60    3.92
  -7   1   3   77.74    3.72
   7   3  -1   77.81    4.48
   7  -1   3   65.94    4.56
  -7   1   3   72.63    4.52
   3   2  -7    0.78    0.88
   7  -2   3   -0.85    1.85
  -3   2  -7    0.73    0.93
   7   2  -3    1.84    1.39
   3  -2   7    1.01    1.16
   7   3  -2    0.63    1.27
   7   2   3    1.29    1.21
  -7   2  -3   -0.60    1.53
  -7  -2   3   -0.29    1.12
  -3   2   7    0.94    0.73
  -7   2   3   -0.08    1.27
   2  -3   7    0.13    1.04
   7   3   2   -0.37    1.13
  -7   3   2   -0.61    1.62
   7   2   3    1.95    1.33
   7   3   2    0.89    1.30
   3   2   7    1.98    0.81
  -7  -3   3   43.92    2.43
  -7   3   3   42.30    3.01
   7   3  -3   49.68    2.93
   7   3   3   45.93    3.03
   7   3   3   46.89    2.80
   3  -3   7   46.46    2.84
  -7   3  -3   43.59    3.39
   3   3  -7   49.36    2.40
   3   3   7   50.00    2.30
  -3   7  -3   49.44    3.17
   7   0   4   82.04    4.81
  -7   0   4  110.09    5.56
   7   4   0   82.96    4.31
   4   0   7   94.46    4.38
   7   4   0   98.07    4.73
   0   7  -4   93.80    4.04
   0  -4   7   89.44    3.97
  -7   4   0   92.41    5.36
  -1   7  -4    1.64    1.15
   4  -1   7    1.28    1.25
   1   7  -4    1.59    0.86
   7   4   1    3.79    1.41
   7  -1   4    1.65    1.88
  -7   4   1    0.15    1.63
  -7   1   4    2.00    1.22
  -7  -1   4    0.91    1.51
   4   1   7    2.16    1.36
   7   4  -1    1.60    1.30
   7   4  -1    0.87    1.66
   1  -4   7   -0.13    1.13
  -7   1  -4    4.01    1.49
  -2   7  -4   23.83    2.08
   7   2  -4   26.24    2.20
  -4   2  -7   26.47    1.88
   7   4  -2   20.83    2.14
   7   4   2   23.07    2.13
  -4   2   7   24.19    1.55
   4   2  -7   27.48    1.83
   7   4  -2   28.34    2.72
   7   2   4   22.95    2.02
   4   2   7   25.41    1.64
   2   7  -4   21.07    1.18
  -7   2  -4   22.64    2.35
   7   4   2   27.50    2.31
  -7  -2   4   25.14    1.99
   4  -2   7   29.89    2.21
   2  -4   7   25.43    2.09
  -7   2   4   26.55    2.14
   7  -2   4   23.42    2.86
   4   7  -3    2.23    0.81
  -7   3  -4    5.41    1.84
   7   4   3    1.60    1.42
  -7  -3   4    4.64    1.00
   7   3   4    2.93    1.47
  -7   4  -3    2.74    1.59
   7   4   3    3.45    1.28
   7   4  -3    2.36    1.44
   4  -3   7    2.49    1.48
  -3   7  -4    3.13    1.45
   4   3   7    4.08    1.07
  -4   3   7    2.21    1.08
   7   3   4    2.22    1.32
   7   3  -4    2.84    1.45
  -4   7  -3    0.93    1.62
   3  -4   7    2.16    1.47
  -7   3   4   -0.27    1.61
   4   3  -7    4.61    1.18
  -7   3  -4    0.62    1.85
   7   4  -4   52.80    3.24
  -4   7  -4   50.10    3.29
  -7   4  -4   49.57    3.62
   7   4   4   53.03    3.06
   7   4   4   49.66    3.18
   4  -4   7   51.32    3.40
   0   7  -5    1.23    1.04
   5   0   7    1.98    1.54
   7   5   0    5.39    1.53
  -7   0   5    0.15    2.18
   7   0   5    1.86    1.78
  -7  -1   5  100.57    5.60
   5   1   7  110.86    5.23
  -1   7  -5  117.59    4.84
   7   5   1  109.30    5.28
   7   1   5  106.99    5.43
   7   5  -1  110.91    5.53
   7  -1   5  114.03    5.76
   5  -1   7  114.42    5.27
  -7   1  -5  112.76    5.32
  -7   1   5  110.12    4.92
  -5   2  -7   13.65    1.72
   7   5   2   12.70    1.86
  -2   7  -5   13.49    1.53
   7   2   5   11.26    1.72
  -5   2   7   12.40    1.38
  -7   5  -2   14.18    2.35
   5   7  -2   16.85    1.50
  -7   2  -5   12.14    1.97
   5  -2   7   15.76    1.98
   7  -2   5   12.62    2.38
  -7   2   5   10.00    1.61
  -7  -2   5   16.60    1.70
  -5   7  -2   10.34    2.15
   7   5  -2   12.34    2.27
   5   2   7   13.77    1.80
   7   2  -5   12.35    1.84
  -5   7  -3   65.68    4.15
  -5   3   7   60.27    3.26
  -7   3  -5   57.66    4.01
  -3   7  -5   69.88    3.53
   5  -3   7   62.87    3.98
  -7   3   5   62.47    3.57
  -5  -3   7   63.75    2.76
   5   3   7   62.43    3.20
   5   3  -7   66.96    3.45
  -7  -3   5   60.94    2.97
  -5   3  -7   58.62    3.67
  -7   3  -5   79.69    4.73
   7   5   3   68.84    3.76
   7   3  -5   63.22    3.63
  -7   5  -3   73.51    4.28
   7   3   5   62.83    3.47
   5   7  -3   72.76    3.26
   7  -3   5   63.27    4.24
  -7   4  -5    1.07    2.05
   7   5   4    0.82    1.61
   7   5  -4   -0.86    1.80
  -7   5  -4    1.75    1.92
  -4   7  -5    1.27    1.60
   7   5   4    2.39    1.62
   7   4  -5    1.27    1.70
   7   4   5    2.16    1.74
   5   4   7    1.57    1.38
   5  -4   7    2.91    2.11
   7   4   5    0.38    1.48
  -5   7  -4    0.68    1.82
   5   4  -7    1.05    1.56
  -5   7  -5  101.34    5.04
   7   5  -5  109.95    5.15
   7   5   5   94.62    4.77
   7   5   5   95.77    5.07
  -7   5  -5  101.49    5.35
   6   7   0   22.42    2.06
   7   0   6   21.22    2.46
   7   6   0   18.91    2.22
   6   0   7   22.04    2.31
  -7  -1   6   -0.76    1.88
   6   7  -1    1.66    1.30
   6   1   7    1.31    1.56
   7   6  -1    1.62    1.59
   7   6   1    0.39    1.54
   7   1   6    1.14    1.71
  -6   7  -1   -1.74    2.01
   6  -1   7    0.87    1.63
   7  -1   6    0.52    1.80
  -7   6  -1    1.10    2.06
   7   6   2   79.19    4.37
   6   2   7   87.84    4.50
  -7   6  -2   82.36    5.01
  -6  -2   7   81.71    4.21
  -6   2  -7   84.85    4.35
  -7   2  -6   85.84    4.50
  -7   2   6   91.73    4.12
   7  -2   6   79.87    4.94
  -6   2   7   78.78    3.91
  -6   7  -2   77.70    4.91
  -2   7  -6   89.05    4.16
   7   2   6   80.78    4.61
   7   6  -2   84.34    4.74
   6   7  -2   82.33    4.09
  -7  -2   6   96.40    4.32
   6  -2   7   79.68    4.72
   6   3   7    4.21    1.83
  -3   7  -6    1.06    1.45
   6   3   7    1.91    1.51
   7   3   6    2.17    1.63
   6   3  -7    3.03    1.74
  -7  -3   6    1.64    1.02
   7   3  -6    2.09    1.81
   6  -3   7    2.56    2.09
  -6   3  -7    4.42    1.96
  -7   3  -6    3.02    2.00
  -6  -3   7    3.41    0.91
  -7   6  -3    6.30    2.29
  -7   3   6    2.44    1.55
   6   7  -3    2.49    1.53
  -6   3   7    2.46    1.40
  -6   7  -3    1.21    1.99
   7   6   3    2.97    1.69
   7  -3   6    2.80    2.23
  -6   4   7   16.10    2.15
  -4   7  -6   15.17    2.05
   6   4   7   13.98    1.87
   6   4  -7   20.28    2.22
  -7   6  -4   20.22    2.54
  -6   7  -4   17.36    2.45
   6  -4   7   14.91    2.50
  -7   4   6   11.66    2.18
  -7   4  -6    8.96    2.76
  -7   4  -6   15.33    2.67
   7   4   6   16.85    2.00
  -6   4  -7   17.57    2.77
   7   4  -6   17.17    2.25
   7   6   4   14.78    2.12
   6   5   7    2.17    1.53
  -7   5  -6    0.39    1.91
  -5   7  -6    0.91    1.68
  -7   6  -5    5.09    2.04
  -6   7  -5    1.98    1.90
   6   5  -7    5.54    1.83
   7   5   6    2.51    1.84
   7   6   5    1.85    1.81
   7   5   6    1.68    1.57
   7   5  -6    1.56    1.85
   7   6   6   38.59    2.86
  -6   7  -6   36.29    3.05
   7   6   6   34.86    3.11
  -7   6  -6   29.27    3.08
   7   6  -6   40.19    3.21
   7   7   0    2.66    1.56
   7   0   7    3.94    1.90
   7   7   1   27.18    2.46
   7   1   7   29.28    2.81
  -7  -1   7   26.64    3.08
   7   7  -1   31.39    2.53
   7  -1   7   31.71    2.95
  -7   7  -1   30.77    3.24
   7   7   2    3.46    1.77
   7   2   7   -0.35    1.73
  -7   2  -7    2.27    1.76
   7   7  -2   -1.21    1.83
  -7  -2   7    0.76    1.57
   7  -2   7    2.67    2.17
  -7   7  -2    1.84    2.22
  -7   2   7    4.02    1.51
   7   3   7   21.23    2.53
   7   3   7   18.01    2.13
  -7   7  -3   19.58    2.79
  -7   3   7   18.89    2.03
  -7  -3   7   17.98    1.42
  -7   3  -7   20.71    2.56
   7   3  -7   20.74    2.37
   7  -3   7   14.11    2.84
   7   7   3   16.97    2.23
  -7   4  -7    0.76    2.41
  -7   4   7    1.91    1.84
  -4   7  -7    0.47    1.61
   7   4   7    4.30    1.66
  -7   7  -4    2.80    2.07
   7   4  -7    4.33    1.89
  -7   5   7   30.55    3.07
   7   5   7   24.20    2.48
   7   5   7   28.52    3.01
   7   5  -7   28.44    2.81
  -5   7  -7   25.48    2.71
  -7   7  -5   31.70    3.16
  -6   7  -7    1.15    2.15
  -7   7  -6    3.96    2.24
   7   6  -7    6.81    2.39
   7   6   7    3.78    2.21
   7   6   7    4.13    2.01
  -7   7  -7    5.93    2.31
   7   7  -7    8.80    2.49
   7   7   7    7.38    2.16
  -8   0   0 2106.73   75.27
  -8  -1   0    4.30    1.66
  -8   0  -1    7.12    1.52
  -8   0  -1    2.64    1.75
  -8   0   1    7.86    1.88
  -8   1   0    7.25    2.20
  -8  -1  -1    2.12    1.60
  -8   1  -1    2.55    1.92
  -8   1   1    3.15    2.04
  -8   1  -1    4.96    1.61
  -8  -1   1    4.08    1.57
   8   1   1    0.82    2.13
  -8   0  -2    7.53    1.84
   8   2   0    7.27    1.75
   0  -2   8   10.91    1.18
  -8   0   2   10.76    2.11
  -8   2   0   10.45    2.14
   8   0   2    7.29    2.24
   8   2   0    5.88    2.14
  -8   1  -2   14.64    2.41
  -8   2   1   15.31    2.42
   8   2   1   11.10    2.31
   8   2  -1   17.64    2.08
   1  -2   8   17.82    1.54
  -8  -1   2   15.14    2.07
  -8   2  -1   17.61    2.18
  -8   2  -1   19.84    2.66
  -8  -2   1   19.94    1.98
  -8   1   2   15.97    1.95
   2  -1   8   19.83    1.70
  -8   1   2   15.40    2.63
   8   1   2   14.58    2.45
  -8   1  -2   14.45    2.05
   8   2  -2  728.78   27.24
  -8   2  -2  753.00   27.48
   2  -2   8  730.03   26.79
  -8   2   2  738.68   27.25
   8   2   2  740.12   27.79
  -8   2   2  702.45   28.06
   8   2   2  742.45   27.15
  -8  -2   2  724.92   27.07
  -8   3   0    7.54    2.23
  -8   0   3    6.23    2.26
   8   3   0    6.20    1.84
   0  -3   8   11.11    1.20
   8   3   0    3.47    2.22
   3   0   8    8.33    1.52
   8   3  -1   -1.08    2.37
  -8   1  -3    2.08    1.89
  -8   1  -3    2.40    1.56
   3  -1   8    1.03    1.31
  -1  -3   8    2.69    0.82
  -8   1   3    3.63    1.51
  -8   3  -1    1.42    2.01
   1  -3   8    3.31    1.13
  -8  -1   3    0.99    1.53
  -8   3  -1    2.33    2.01
   8   3   1    2.47    1.87
   8   1   3    1.54    1.85
   8   3  -1    0.83    1.51
  -8   1   3    1.50    2.15
  -8   3   1    3.99    2.12
  -2  -3   8    3.13    0.70
  -8   3   2   -0.33    1.78
  -8   3  -2    0.13    2.11
  -8  -2   3    1.76    1.30
   8   3   2    0.69    1.50
   3  -2   8    4.72    1.38
   2  -3   8    4.48    1.26
   8   3   2    5.30    1.73
   8   2   3    4.55    1.74
  -3   2  -8    4.77    0.94
   2   3  -8    3.04    0.94
   8   3  -2    1.04    1.59
   2   3   8    2.45    0.87
  -8   2   3    3.78    1.58
  -8   2  -3    5.41    1.79
  -8   3   2    3.56    2.08
   8   2   3    3.00    1.48
  -8   2   3    2.11    2.00
   8   2  -3    6.05    1.82
   3   3  -8    3.48    1.15
  -8   3   3    1.15    2.03
  -8   3  -3    1.49    1.95
  -8   3   3    2.30    1.75
  -3   3  -8    1.34    1.21
   8   3   3    3.37    1.69
   3   3   8    2.50    0.99
   3  -3   8    2.25    1.42
   8   3   3    0.60    1.45
   8   3  -3    1.14    1.64
  -3   8  -3    1.63    1.63
  -3   3   8    2.19    1.02
   4   0   8 1387.40   48.57
   8   4   0 1359.07   49.38
   0  -4   8 1346.17   48.12
   8   4   0 1320.34   48.64
   0   8  -4 1382.43   48.28
  -8   0   4 1390.49   49.79
  -8   4   0 1315.29   49.73
  -8   1  -4    5.48    1.88
   4  -1   8    2.91    1.49
  -8   1   4    4.51    2.33
   1   8  -4    2.32    1.17
  -8  -1   4    2.76    1.71
   8   4   1    5.56    1.88
   1  -4   8    4.06    1.37
   8   4  -1    4.85    1.71
  -1   8  -4    3.17    1.48
   8   4  -1    0.47    2.21
   8  -1   4    2.90    2.26
  -8   4   1    5.56    2.53
  -8   1   4    7.25    1.63
   4   1   8    3.10    1.55
  -8   2  -4    7.65    2.05
  -8   2   4    7.17    2.22
  -8   2   4    6.73    1.71
  -8  -2   4    7.06    1.58
   8   4   2   11.58    1.91
   4  -2   8    9.40    1.79
   8   2   4    7.07    1.83
   8   4   2   10.28    1.74
   8   4  -2    9.15    1.83
  -4   2  -8   11.29    1.33
  -4   2   8   10.39    1.11
  -2   8  -4    7.72    1.79
   2   8  -4    5.87    0.98
   8   2   4    7.49    1.71
   8   2  -4    4.36    1.84
  -8   4   2    6.75    2.46
   2  -4   8   11.35    1.68
   8  -2   4    3.19    2.44
  -3   8  -4    3.20    1.72
  -8   3  -4   -0.92    2.31
  -8   4  -3    4.36    2.70
   4   3   8    3.75    1.27
  -4   3  -8    5.25    1.54
   8   4   3    2.42    1.62
   8   4  -3    4.68    1.73
   4   3  -8    5.42    1.45
   8   4   3    4.38    1.86
  -4   3   8    3.23    1.24
   8   3   4    4.51    1.89
   8   3   4    3.86    1.76
  -8   3  -4    2.06    2.11
   8   3  -4    2.58    1.86
  -8   3   4    3.88    1.81
   4  -3   8    4.81    1.89
  -8   4  -3    3.50    2.15
  -8  -3   4    6.42    1.31
  -8   4   3    6.47    2.14
   3  -4   8    6.34    1.85
  -4   8  -3    2.15    1.96
   4   8  -3    3.58    1.03
  -8   4  -4  964.38   34.16
  -8   4   4  906.34   33.20
  -8   4  -4  915.37   33.57
   8   4   4  905.32   32.87
   8   4  -4  945.79   33.12
   4   4   8  893.79   32.38
   4   4  -8  888.48   32.56
   8   4   4  899.21   33.25
  -4   8  -4  897.86   33.20
   4  -4   8  886.87   33.16
   5   0   8   14.21    2.00
   8   0   5   13.47    2.57
   8   5   0    8.48    2.07
   8   5   0   12.90    2.39
   0   8  -5   14.94    1.39
  -8   0   5    8.98    2.90
  -8   1   5    0.82    2.22
   1   8  -5    2.96    0.89
   5   1   8    5.28    1.73
   8   5  -1    4.77    1.84
  -8   1  -5    3.99    1.89
   8  -1   5    4.24    2.32
   5  -1   8    4.83    1.81
  -1   8  -5    1.90    1.21
   8   5   1    3.56    1.80
  -8  -1   5    3.12    1.95
   8   5  -1    1.77    2.15
  -8   1   5    5.13    1.66
  -8   5   1    4.31    2.50
  -8   5  -2   52.05    3.97
  -5   2  -8   52.35    3.04
   8   5   2   50.94    3.61
  -8   2  -5   54.57    3.66
  -8   2   5   60.22    3.32
   5   8  -2   54.97    2.90
   5   2   8   63.95    3.50
   8  -2   5   60.92    4.33
   8   5  -2   52.82    3.52
  -5   2   8   54.62    2.74
  -8  -2   5   54.65    3.15
   5  -2   8   58.50    3.60
  -2   8  -5   46.99    2.93
   8   5  -2   56.32    4.15
   8   5   2   58.10    3.47
  -5   8  -2   44.02    3.66
   8   3  -5    2.73    2.09
   8   5   3    3.02    1.88
   8   3   5    1.62    1.97
   5   8  -3    1.32    1.18
   8   5   3    0.95    1.70
  -8   5  -3    1.99    2.04
  -3   8  -5    1.33    1.44
   8   5  -3    3.71    2.08
   5  -3   8    0.35    2.04
  -5  -3   8    2.58    1.02
  -8   3  -5   -0.54    2.15
  -5   3  -8    0.79    1.70
  -8   3   5    2.78    1.75
  -8   3  -5   -1.18    2.72
  -5   3   8    0.29    1.43
  -5   8  -3    1.73    2.19
   5   3  -8   -1.50    1.91
   8   3   5   -0.18    1.83
  -8  -3   5    2.16    1.23
   5   3   8   -1.35    1.70
  -8   4  -5   13.42    2.90
  -8   4  -5   12.34    2.59
   8   5   4   10.15    2.14
   8   4   5   11.59    2.28
  -8   5  -4   14.50    2.50
  -8   4   5   10.77    2.29
   8   5   4   14.01    2.23
  -4   8  -5   12.55    2.09
  -5   8  -4   13.40    2.47
   8   4   5   15.18    2.13
   5   4   8    8.66    1.66
  -5   4  -8   10.82    2.51
   8   5  -4    9.38    2.34
   5   4  -8   10.43    2.05
  -5   4   8    9.23    1.98
   5  -4   8   12.30    2.52
   8   4  -5   18.52    2.51
   5   5   8    6.10    1.61
  -8   5  -5    6.34    2.30
   8   5   5    5.66    2.00
   8   5   5    4.10    1.86
  -5   8  -5    4.64    1.99
   8   5  -5    5.57    2.26
   5   5  -8    6.48    1.81
   6   0   8   12.23    2.12
   8   6   0    9.96    2.11
   8   0   6   14.21    2.56
   6   8   0   12.82    1.70
  -8   0   6   12.32    2.89
  -1   8  -6    3.37    1.30
   6   8  -1    4.59    1.51
   6   1   8    4.33    1.83
   8   6   1    1.65    1.90
   6  -1   8    5.97    1.90
   8   1   6    5.37    2.14
   8   6  -1    4.66    2.22
   8  -1   6    4.40    2.35
  -8   6  -1    6.28    2.65
  -8  -1   6    2.60    2.00
  -2   8  -6  332.35   12.80
  -8   2   6  337.66   13.01
  -8   2  -6  343.81   13.59
   6   2   8  344.60   13.39
  -6   2  -8  326.61   13.03
   8   6   2  333.36   13.42
   6   8  -2  325.25   12.90
  -8  -2   6  337.01   12.96
   6  -2   8  345.28   13.71
  -8   6  -2  363.53   14.21
   8   6  -2  382.18   14.11
  -6   8  -2  323.25   13.77
  -6  -2   8  325.80   12.93
   8  -2   6  346.33   14.16
   6   3   8    3.93    1.97
   8  -3   6    1.56    2.27
  -8   3   6    3.14    1.76
  -8  -3   6    4.52    1.23
  -6   3   8    4.14    1.57
   8   6   3    3.55    1.81
  -3   8  -6    3.39    1.47
  -6  -3   8    3.62    0.90
  -8   6  -3    6.01    2.30
   6   8  -3    4.84    1.53
   6  -3   8   -0.56    2.32
  -6   8  -3    2.72    2.13
   8   6  -3    3.74    2.06
   6   3  -8    3.16    1.95
   8   6   3    3.59    1.92
  -8   3  -6    3.16    2.16
   8   3   6    4.08    1.93
   8   3  -6    3.09    2.06
  -6   3  -8    4.39    1.83
   8   6   4   10.35    2.18
  -6   4  -8    7.45    2.39
  -4   8  -6   11.34    1.95
  -8   4  -6    8.39    2.55
  -8   4  -6   12.51    2.91
  -6   4   8   11.63    2.06
   8   6   4   12.08    2.17
  -8   6  -4   12.21    2.51
  -8   4   6   11.92    2.24
   6   4   8   13.66    1.91
   8   4   6    9.78    2.00
   6   4  -8   15.23    2.24
   8   4  -6   13.44    2.31
   6  -4   8   10.08    2.64
  -6   8  -4   10.75    2.34
   8   6  -4    8.78    2.28
   8   4   6   12.79    2.32
   8   5  -6   16.40    2.61
  -8   5  -6   11.19    2.61
   8   6   5   13.58    2.44
   8   5   6   19.52    2.55
  -8   6  -5   14.73    2.63
  -5   8  -6   14.54    2.33
   6   5  -8   18.63    2.40
  -6   8  -5   12.00    2.42
   6   5   8   18.90    2.13
   8   6   5   15.53    2.38
   8   6  -5   15.26    2.74
  -6   5   8   16.71    2.50
  -8   5  -6   14.19    3.06
  -8   5   6   15.52    2.85
   8   5   6   15.61    2.32
   8   6   6  150.42    7.54
   8   6   6  154.50    7.12
   8   6  -6  164.14    7.61
   6   6   8  161.46    6.98
   6   6  -8  174.00    7.33
  -8   6  -6  154.72    7.59
  -6   8  -6  157.02    7.27
  -8   0   7   13.08    3.08
   7   8   0   16.60    2.08
   8   7   0   15.81    2.37
   7   0   8   16.10    2.44
   8   0   7   17.98    2.71
  -8   7   0   12.80    2.87
   7   8   1    2.90    1.66
   8   7   1    0.46    1.85
   7   8  -1   -0.10    1.69
   7   1   8    1.70    1.94
   8   1   7    0.13    2.06
   8   7  -1   -1.45    2.11
   7  -1   8    2.78    2.09
  -8   7  -1    1.51    2.49
   8  -1   7    0.76    2.28
  -8  -1   7    3.08    2.31
  -7   8  -1    3.00    2.28
   8   7   2   13.05    2.21
   7   2   8   12.34    2.31
   8   2   7   12.74    2.39
  -8   2  -7   11.39    2.29
  -8  -2   7   14.34    1.90
  -8   2   7   12.64    1.88
   7   8  -2   11.15    2.10
  -8   7  -2   14.30    2.75
   7  -2   8    5.78    2.43
  -7  -2   8    7.73    1.98
   8   7  -2   15.09    2.83
  -7   8  -2   12.96    2.63
   8  -2   7    7.67    2.71
   7   8   2    8.21    2.00
   8  -3   7   -1.88    2.75
  -7   8  -3    2.33    2.26
  -8  -3   7    2.10    1.10
   7   3   8    5.43    2.05
  -7  -3   8    1.24    0.99
   8   7   3    1.18    1.78
  -8   3  -7   -0.13    2.19
  -8   7  -3    2.71    2.27
  -8   3   7    2.74    1.78
  -7   3  -8    0.48    2.00
  -7   3   8    1.49    1.64
   7   8  -3   -0.77    1.59
   7  -3   8   -0.16    2.52
  -3   8  -7    1.72    1.50
   7   4   8    7.13    2.11
  -4   8  -7    7.44    1.91
   8   4   7    8.82    2.21
   7   4  -8   12.37    2.54
   8   7   4   11.51    2.46
   7  -4   8   13.15    2.81
   8   4  -7    8.97    2.48
  -8   7  -4   13.47    2.63
  -7   8  -4   13.31    2.51
  -8   4  -7   13.42    2.98
  -7   4  -8    9.68    2.86
   7   4   8   10.07    2.40
  -8   4   7    9.60    2.28
  -7   4   8   10.61    2.30
  -7   5  -8    0.61    2.63
  -5   8  -7    0.61    1.91
   8   7   5    3.87    2.37
  -8   5  -7    0.84    2.84
  -7   5   8    0.11    2.36
   8   5   7    1.49    2.28
  -8   5   7   -1.35    2.48
  -8   7  -5    2.26    2.49
  -7   8  -5    3.48    2.39
   8   7  -5    0.13    2.44
   8   5   7    3.36    2.01
   7   5   8   -1.14    2.09
   8   5  -7    6.30    2.47
   7   5  -8   -1.25    2.37
   8   7   5    4.78    2.12
   8   7  -6    5.75    2.60
   8   7   6    9.04    2.87
  -6   8  -7    7.25    2.24
  -8   7  -6    4.66    2.52
  -7   8  -6    7.47    2.43
   8   6  -7   10.21    2.71
   7   6   8    6.56    2.18
   7   6  -8    4.96    2.50
   8   6   7    8.87    2.28
  -8   6  -7    6.29    2.75
  -8   6   7    2.83    2.95
   8   7   6    4.00    2.25
  -7   8  -7    1.88    2.23
   7   7   8    1.26    2.25
   7   7  -8   -0.13    2.50
   8   7   7    2.14    2.21
   8   7  -7    2.49    2.60
  -8   7  -7    0.95    2.37
   8   0   8  402.88   15.78
  -8   8   0  373.79   16.14
   8   8   0  395.58   15.42
   8   8   1    1.51    1.94
   8   1   8    4.50    2.25
   8   8  -1    6.75    2.21
   8  -1   8    4.33    2.51
  -8  -1   8    0.14    2.46
  -8   8  -1    3.68    2.50
   8   8   2    6.03    2.04
   8   2   8    4.40    2.37
  -8  -2   8    6.98    1.80
   8   8  -2    6.52    2.52
  -8   8  -2    2.98    2.36
   8  -2   8    4.79    2.77
   8   8   3    0.14    2.23
   8   3   8   -0.14    2.32
  -8   3  -8    2.05    2.40
  -8   8  -3    3.79    2.45
  -8   3   8    0.81    1.96
   8  -3   8   -1.93    3.13
   8   4  -8  294.37   12.42
  -8   4  -8  297.89   13.02
  -8   4   8  314.39   12.13
   8   8   4  300.43   12.78
  -8   8  -4  293.03   12.60
   8   8   5   10.21    3.53
   8   5   8    9.01    2.34
   8   5  -8   10.98    2.94
  -8   8  -5   12.73    2.95
  -8   5  -8    4.63    3.02
  -8   5   8    6.20    2.57
  -8   6   8    2.79    2.44
  -8   8  -6    8.39    2.60
   8   8   6    5.43    2.01
   8   6   8    8.82    2.46
   8   6  -8    7.92    2.76
  -8   6  -8    3.22    2.72
   8   8  -7    5.61    3.05
  -8   8  -7    1.80    2.64
   8   7   8    3.17    2.62
   8   7  -8    1.11    2.80
   7   8  -8    4.53    2.94
   7   8   8    0.83    2.28
  -8   7   8   -3.53    2.28
   8   8   7    0.41    2.13
   8   8   8   97.35    5.55
   8   8  -8   92.30    6.00
  -9   0   0    2.27    1.91
  -9  -1   0   19.66    2.46
  -9   0   1   14.75    2.59
  -9   1   0   22.33    3.28
  -9   0  -1   18.46    2.52
  -9  -1  -1  174.06    8.06
  -9   1  -1  175.54    7.84
  -9  -1   1  166.01    7.90
  -9   1   1  195.15    8.92
   9   1   1  176.55    8.67
   9   2   0  200.63    9.25
   0  -2   9  218.28    8.55
  -9   0  -2  233.45    9.99
  -9   0   2  225.18    9.91
  -9   2   0  253.52   10.28
   9   0   2  240.90   10.41
   9   2   0  215.75   10.07
   2  -1   9   10.75    1.54
  -9   2  -1    6.88    2.00
   1  -2   9   10.53    1.45
  -9   1  -2    9.11    2.41
  -9  -1   2   10.55    2.12
  -9   2  -1   10.04    2.47
  -9   1   2   14.16    1.95
  -9   1   2   14.08    2.73
  -9   2   1    8.93    2.30
  -9  -2   1   11.05    1.84
   9   2   1   11.34    2.63
  -9   1  -2   14.50    2.12
   9   2  -1    9.91    2.12
   9   1   2   11.91    2.67
  -9  -2   2    0.30    1.50
  -9   2  -2    0.99    1.82
   2  -2   9    0.21    1.31
  -9   2   2    2.05    1.75
  -9   2  -2   -1.96    2.39
  -9   2   2   -0.49    2.03
   9   2   2    0.17    2.22
   9   2   2    0.92    1.70
   9   2  -2   -2.09    1.93
   3   0   9    6.19    1.61
   0  -3   9    3.60    1.15
   9   3   0    4.17    2.06
   9   0   3    4.51    2.59
  -9   0   3    6.37    2.27
  -9   3   0    5.62    2.33
   9   3   0    6.81    2.71
   9   3  -1  134.67    5.54
  -9   3  -1  123.55    5.93
  -9   1  -3  146.16    6.58
  -1  -3   9  115.50    4.28
  -9   1  -3  131.37    5.49
  -9   1   3  132.46    5.23
  -9  -1   3  111.38    5.41
   1  -3   9  125.14    4.66
  -9   3  -1  130.95    6.18
   3  -1   9  122.95    5.00
  -9   1   3  124.63    6.36
  -9   3   1  123.48    6.17
   9   3   1  122.61    6.32
   9   1   3  117.65    6.20
  -9   2  -3   14.10    2.89
  -9  -2   3   13.48    1.90
  -9   3   2   13.35    2.82
   9   3   2   10.54    2.12
   9   3  -2   10.98    2.18
   3  -2   9   10.65    1.81
  -9   3  -2   15.23    2.69
  -2   3   9   14.95    0.96
  -9   2  -3   12.17    2.26
  -9   2   3   11.13    1.92
  -9   3  -2   10.66    2.48
  -9   3   2   13.89    2.26
   9   3   2   12.59    2.51
   9   2   3   13.35    2.55
  -2  -3   9   13.75    1.12
  -9   2   3    7.60    2.51
   2  -3   9   15.96    1.75
   9   3   3   80.83    4.44
   9   3  -3   82.55    4.58
  -9   3  -3   85.71    5.11
  -9   3   3   75.95    4.45
  -3   3  -9   74.16    3.55
  -3   3   9   81.88    3.37
   3  -3   9   83.80    4.26
   9   3   3   84.28    4.93
  -9   3   3   84.90    5.53
  -3   9  -3   78.82    4.54
   4   0   9    7.22    1.83
  -9   0   4    6.91    2.61
  -9   4   0    6.40    2.66
   0  -4   9    6.42    1.34
   9   4   0    6.16    2.83
   9   4   0    8.33    2.11
   0   9  -4    4.63    1.58
   4   1   9    6.68    1.75
   9   4  -1    2.44    2.48
  -9   1   4    7.47    1.92
   4  -1   9    6.54    1.83
  -9  -1   4   11.89    2.03
  -9   4  -1    6.79    2.45
  -9   1  -4   11.95    2.27
  -1  -4   9    7.38    1.18
   9   4   1    6.93    2.50
   9   1   4   10.07    2.65
  -9   1   4    3.71    2.55
  -9   4   1    4.32    2.70
   1  -4   9    6.37    1.51
  -1   9  -4    9.46    1.81
   9   4  -1    8.22    2.07
   1   9  -4   10.92    1.50
  -9   4  -1    3.38    2.67
  -9   4  -2  137.33    7.30
  -9   4   2  137.90    6.87
   9   4   2  134.16    6.37
   9   4  -2  142.95    6.58
  -9   2  -4  147.69    6.85
  -9   2   4  142.90    6.40
   2   4   9  142.41    5.39
  -9  -2   4  137.00    6.20
   4  -2   9  136.98    6.23
   9   4   2  134.77    6.84
   9   2   4  140.70    7.00
   2  -4   9  129.98    6.07
  -2   9  -4  136.63    6.29
  -9   4   2  136.20    7.55
  -9   2   4  119.85    7.23
   9   3   4   -1.02    2.03
   9   3  -4    1.39    2.16
  -9   4   3    2.01    2.77
  -9   3   4    2.95    2.77
  -4   3  -9    2.05    1.41
  -9   4  -3    1.98    2.84
  -9   4   3    1.81    2.18
   3   4  -9    2.97    1.48
   9   4   3    6.52    2.15
  -4   3   9    3.06    1.31
   9   3   4    4.12    2.15
   4  -3   9    3.88    1.98
   9   4  -3    3.74    2.07
   9   4   3    6.58    2.01
  -3   9  -4    3.29    1.94
  -9   3  -4    0.15    2.46
   3  -4   9    2.89    1.91
  -9   3   4    1.84    2.07
   3   4   9    1.84    1.27
  -4   9  -3   -1.60    2.14
  -9  -3   4    3.61    1.48
  -4   4   9    6.75    1.79
  -9   4  -4    3.97    2.48
  -9   4  -4    8.38    3.17
  -9   4   4    7.12    2.42
   9   4   4   12.60    2.38
   4   4   9    7.31    1.58
   9   4   4    9.44    2.10
   9   4  -4    6.50    2.32
   4   4  -9    9.22    1.91
  -4   9  -4    9.44    2.30
   4  -4   9    7.32    2.37
  -4   4  -9    6.23    1.94
   9   5   0   22.81    2.70
  -9   0   5   25.67    3.34
   9   5   0   22.68    3.34
   5   0   9   26.12    2.54
  -9   5   0   27.19    3.44
   0   9  -5   22.25    1.72
   9   5  -1  130.15    6.20
   5   1   9  136.34    6.08
   1   9  -5  123.63    4.97
   5  -1   9  131.80    6.12
  -9  -1   5  120.13    6.14
  -1   9  -5  129.43    5.47
   9   5   1  123.76    6.61
  -9   1   5  124.94    7.18
  -9   5   1  141.11    7.52
   9  -1   5  139.00    7.20
   9   5  -1  122.80    7.02
   5   2   9    6.12    1.98
   9  -2   5    4.55    2.57
  -5   9  -2    5.51    2.27
  -9   2  -5    5.63    2.36
  -9  -2   5    5.83    1.89
  -9   2   5    5.13    1.84
   9   5   2    4.78    2.02
   9   5   2    8.30    2.28
   9   5  -2    3.79    2.17
  -2   9  -5    4.00    1.55
   5  -2   9    4.55    2.04
   9   2   5    5.70    2.47
  -9   5   2    4.54    2.94
   5   9  -2    4.43    1.42
  -9   2   5    2.30    2.78
  -9   5  -3  117.40    6.80
  -9   5   3   93.88    5.73
   9   3   5  102.64    5.12
   9   3  -5  101.85    5.37
  -9   3  -5  105.95    5.79
  -9   3   5  102.87    5.16
   9   5   3   95.09    5.12
   9   5  -3  101.20    5.30
  -5   3  -9   86.54    4.66
  -5   3   9  110.67    4.52
  -9   3  -5  120.49    6.32
  -9  -3   5   98.73    4.53
   5   9  -3   96.56    4.41
  -9   5  -3  116.82    6.01
   9   5   3  109.82    5.56
   9   3   5   98.59    5.52
  -3   9  -5  104.02    4.96
   5  -3   9   96.90    5.39
  -5  -3   9   92.82    4.09
  -5   9  -3   92.65    5.44
  -9   5   3  103.69    6.24
   9   5  -4   12.70    2.58
   5   4   9   11.66    1.87
  -9   4  -5   12.65    2.75
   4   5  -9   15.12    2.02
   5   4  -9   10.13    2.22
  -9   5  -4   14.22    2.81
   9   4   5   10.06    2.24
   9   5   4   12.08    2.52
   9   4  -5   11.34    2.58
  -5   4  -9    9.65    2.17
   9   4   5   10.48    2.49
  -9   4  -5    9.70    3.18
  -4   9  -5   12.96    2.21
  -5   4   9   13.22    2.01
  -9   4   5   12.21    2.41
  -5   9  -4   11.59    2.58
   4   5   9   15.25    1.79
  -9   5  -4    9.84    3.41
   5  -4   9    7.74    2.57
  -9   5   4    5.74    2.72
   9   5   4   14.23    2.30
  -5   5   9   99.05    4.98
  -9   5  -5  104.70    6.61
  -9   5   5  107.16    5.93
   9   5   5  101.09    5.30
   9   5  -5  119.22    5.92
   5   5   9   99.14    4.82
   5   5  -9  102.17    5.13
  -9   5  -5  110.37    5.97
   9   5   5   97.19    5.65
  -5   9  -5  114.15    5.54
   9   6   0   75.81    4.62
   6   0   9   73.90    4.49
   9   6   0   88.44    5.31
   9   0   6   75.88    5.13
  -9   0   6   86.77    5.66
   6   9  -1    1.71    1.43
  -1   9  -6    1.54    1.32
   6   1   9    0.67    1.99
   6  -1   9    2.58    1.92
   9   6   1    4.71    2.29
  -9  -1   6    3.59    2.14
   9   6  -1   -0.12    2.13
   9   6  -1   -0.18    2.78
   9  -1   6    0.90    2.64
  -9   6   1   -2.24    2.68
  -9   1   6   -2.28    2.86
  -9   6   2   -1.85    2.75
  -9   2  -6    2.27    2.11
  -9   2   6   -4.04    2.68
   6   2   9   -0.47    1.95
  -2   9  -6    1.84    1.40
   6   9  -2    1.15    1.63
  -9  -2   6    0.78    1.65
   9   6   2    4.85    2.19
   9   6   2   -1.37    2.19
   9   6  -2   -2.07    2.30
  -9   6  -2    1.99    2.36
   6  -2   9    3.79    2.31
  -9   2   6    2.99    1.82
  -6   9  -2    0.15    2.24
   9  -2   6   -1.09    2.83
   6   3   9    3.91    2.10
  -9  -3   6    5.28    1.38
   9   6  -3    3.39    2.26
  -6   3  -9    1.34    1.84
  -3   9  -6    3.83    1.60
   9   6   3    0.81    2.10
   9   3   6    5.15    2.21
  -9   6  -3   -0.95    2.37
  -9   3  -6    0.92    2.40
   6   9  -3    3.34    1.74
  -9   3   6    2.10    1.93
  -6   9  -3    0.29    2.29
   6  -3   9    0.43    2.46
  -6   3   9    2.27    1.58
   9   6   3    2.82    2.07
   6   4   9   48.43    3.57
   6   4   9   48.25    3.28
   6   4  -9   42.07    3.68
   9   4   6   48.72    3.57
   9   4  -6   55.58    4.00
  -9   4  -6   47.76    4.52
  -6   4  -9   44.08    3.69
  -9   4   6   44.34    3.60
  -6   4   9   50.18    3.35
   9   6   4   52.67    3.75
   9   6   4   43.93    3.56
   9   6  -4   52.62    4.03
  -4   9  -6   48.17    3.21
  -9   6  -4   49.86    4.22
   9   4   6   48.53    3.85
  -6   9  -4   56.30    3.98
   6  -4   9   48.53    4.02
  -9   5  -6    1.22    2.61
  -6   5  -9    0.99    2.64
  -9   6  -5   -0.90    2.56
  -6   5   9   -0.69    2.09
  -9   5  -6    0.56    3.13
   9   6   5    2.37    2.38
   5   6   9    3.05    1.94
  -5   9  -6    1.99    2.15
   9   5   6    4.97    2.47
  -9   5   6   -2.04    2.77
   9   6   5    1.72    2.21
   9   6  -5    2.38    2.62
  -6   9  -5    7.80    2.47
   6   5   9    2.96    1.97
   9   5   6    1.78    2.19
   9   5  -6    1.31    2.55
   6   5  -9    2.71    2.30
   5   6  -9    4.59    2.21
  -9   6   5   -1.87    3.61
  -9   6  -6   -1.80    2.64
   6   6   9    1.71    2.08
  -6   9  -6    3.32    2.22
   6   6  -9    1.08    2.36
  -9   6  -6    0.35    2.96
   9   6   6   -0.11    2.34
  -9   6   6   -5.85    3.67
   9   6  -6   -2.52    2.78
   7   9   0   -0.87    1.90
   7   0   9    5.21    2.21
   9   7   0    3.73    2.42
   9   0   7    3.00    2.63
  -9   0   7   -1.18    3.25
   7   9   1   51.75    3.50
   7   9  -1   52.23    3.45
   7   1   9   45.05    3.78
   9   7  -1   56.74    3.94
   9   7   1   57.70    4.02
   7  -1   9   54.67    3.89
   9   1   7   56.13    4.31
  -9  -1   7   48.75    3.91
   9   7  -1   52.71    4.50
  -9   7  -1   45.42    4.24
   9  -1   7   43.02    4.39
  -7   9  -1   56.06    4.57
  -9   1   7   51.36    4.75
  -9   7   2    6.77    2.77
   9   7   2    8.06    2.35
   7   2   9    9.25    2.47
   9   7  -2    6.89    2.37
   9   7   2    8.78    2.41
  -9  -2   7    8.28    1.80
   7   9  -2    8.21    2.12
  -9   7  -2    8.89    2.87
   7  -2   9    8.91    2.75
  -7   9  -2    4.82    2.61
   9  -2   7    4.45    3.15
   7   9   2   13.39    2.56
   9   7  -2    9.49    2.97
  -9   3  -7   36.74    3.78
  -3   9  -7   35.40    2.62
  -9   3   7   37.81    3.12
   7   3   9   34.81    3.36
   9   7   3   30.44    3.33
  -7   3  -9   28.10    3.07
   9   7   3   38.32    3.17
   9   7  -3   34.42    3.43
  -9   7  -3   44.98    3.87
  -7   9  -3   38.28    3.61
   7   9  -3   35.91    3.01
   7  -3   9   36.35    3.86
   9  -3   7   34.98    4.04
  -9   4  -7   -0.74    3.11
  -4   9  -7    0.35    1.78
   7  -4   9    5.55    2.98
   7   4   9    4.05    2.58
  -9   4   7    0.91    2.40
   9   7   4   -2.82    2.50
  -7   4  -9   -0.13    2.53
   9   4   7    1.19    2.60
  -9   7  -4    4.75    2.77
  -7   4   9    4.03    2.21
  -7   9  -4    1.13    2.45
   9   7   4    3.14    2.34
   9   7  -4    0.28    2.63
   9   4   7    1.86    2.33
   9   4  -7   -0.68    2.60
   7   5   9   53.40    3.61
   7   5  -9   49.25    4.00
   9   5   7   54.95    3.71
   9   5  -7   53.09    4.14
  -9   5  -7   53.02    4.68
  -9   5   7   52.03    4.12
  -7   5   9   46.05    3.51
   9   7   5   46.89    3.64
   9   7  -5   50.34    4.17
  -5   9  -7   48.42    3.44
   9   7   5   45.41    4.01
  -9   7  -5   44.38    4.08
  -7   9  -5   59.87    4.07
  -7   6   9   -1.42    1.78
  -9   6  -7   -0.17    2.88
  -6   9  -7    0.80    2.14
  -9   7  -6   -0.76    2.64
   6   7   9    0.53    2.39
  -9   6   7   -1.05    3.06
  -7   9  -6    2.89    2.43
   9   7   6    3.05    2.24
   9   7  -6    2.21    2.76
   9   6   7    3.72    2.32
   7   6   9    3.06    2.30
   9   6  -7    2.59    2.79
   9   7   7   18.93    3.00
  -7   9  -7   21.39    3.02
   9   7  -7   18.32    3.61
   7   7   9   17.75    3.13
  -9   7   7   14.62    3.89
  -9   7  -7   17.35    3.29
  -8   9   0   13.93    3.57
   8   9   0    7.76    2.50
   9   8   0   13.88    2.87
   8   0   9   13.85    2.94
   9   0   8    7.59    3.00
  -9   0   8   13.63    3.77
  -9   8   0   11.16    3.04
  -9   1   8    3.21    2.99
   8   9   1    0.23    1.98
   9   8   1    4.21    2.27
   8   1   9    4.23    2.37
   8   9  -1    6.50    2.39
   9   1   8    0.96    2.49
   8  -1   9    1.27    2.59
  -9  -1   8    2.57    2.39
   9   8  -1    0.34    2.79
   9  -1   8   -2.82    2.98
  -9   8  -1   -1.86    2.66
  -8   9  -1    0.18    2.82
   9   8   2   27.99    3.18
   8   9   2   32.32    3.20
  -8   9  -2   25.69    3.41
   8  -2   9   29.74    3.84
  -9   8  -2   30.83    3.67
   9  -2   8   30.74    4.03
   9  -3   8   -0.74    3.15
   8   9   3    2.71    2.85
   9   8   3    1.28    2.57
  -9   8  -3    6.19    2.71
  -8   9  -3    7.29    2.84
  -9   3  -8    2.34    2.84
  -9   3   8    5.30    2.31
   8  -3   9   -0.18    3.07
   9   8   3    2.46    2.11
   8   9   4   14.12    4.41
  -8   4   9   16.06    2.77
   9   8   4   11.34    3.07
  -9   8  -4   13.97    3.06
   9   8   4   11.27    2.48
  -8   9  -4   12.61    2.85
  -9   4  -8   13.00    3.67
  -9   4   8   14.16    2.94
   9   8  -4   13.56    2.97
  -8   5   9    6.00    2.48
   9   8  -5    5.20    2.86
  -9   8  -5    2.97    2.77
  -8   9  -5    8.68    2.87
  -9   5  -8    5.93    3.29
   8   5   9    4.96    2.57
   9   5   8    3.76    2.50
  -9   5   8    6.06    2.80
   9   5  -8    4.27    2.94
   9   8   5    4.96    2.18
   6   8   9    9.54    3.03
  -9   8  -6    9.35    3.14
   9   8   6   12.24    2.49
  -8   9  -6    7.64    2.82
   8   6   9    5.80    2.87
   9   6   8   10.07    2.99
   9   8  -6   14.74    3.39
   9   6  -8    8.06    3.33
  -9   6   8    6.76    2.70
  -9   8  -7    3.07    3.02
  -8   9  -7    1.25    2.77
   8   9   7    1.43    1.86
   8   9  -7    1.52    3.09
   9   8   7    2.39    2.51
   9   8  -7    4.42    3.51
   9   7   8   -2.19    3.08
   9   7  -8   -3.18    3.56
   8   9   8    3.56    2.41
   9   8   8    4.22    3.15
   9   9   0   12.29    2.75
  -9   9   0   10.00    3.49
   9   9   1   59.39    4.30
  -9   9  -1   57.90    4.97
   9   9   2   -0.14    2.55
  -9   9  -2    2.19    2.73
   9   9   3   46.89    4.25
  -9   9  -3   47.50    4.13
  -9   9  -4   10.49    2.90
  -9   9  -5   58.03    4.76
 -10   0   0   57.00    4.25
 -10  -1   0    9.24    2.41
 -10   0  -1    7.18    2.68
 -10   0   1    5.47    2.60
 -10   1   0    9.60    3.28
 -10  -1   1    7.71    2.31
 -10   1  -1   15.35    3.35
 -10   1   1   11.76    3.07
   1  -1  10   10.33    1.67
 -10   1  -1   12.68    2.29
 -10   0  -2  455.39   18.99
   0  -2  10  479.52   17.56
 -10   0   2  472.02   19.06
 -10   2   0  515.14   19.42
  10   1   2    3.99    2.90
  10   2   1    5.83    2.86
   2  -1  10   11.50    1.84
 -10   1  -2    8.02    2.99
   1  -2  10   11.33    1.63
 -10  -1   2    5.11    2.27
 -10   2  -1    5.33    2.82
 -10   1   2   13.92    3.06
 -10   2   1    9.65    2.60
 -10   1   2   10.28    2.20
 -10   2  -1   11.32    2.56
 -10   1  -2    9.76    2.21
 -10  -2   2   16.30    2.34
 -10   2  -2   14.28    3.10
   2  -2  10   13.51    1.91
 -10   2   2   13.78    2.82
 -10   2  -2   13.02    2.58
 -10   2   2   11.45    2.40
  10   2   2   11.19    2.97
  10   3   0    7.17    2.43
   3   0  10    6.63    1.83
  10   0   3    0.39    2.79
  10   3   0    3.55    2.76
   0  -3  10    4.94    1.41
 -10   0   3    8.79    2.66
 -10   3   0    7.17    2.58
 -10   1  -3    6.89    2.89
   3  -1  10    8.13    1.87
  -1  -3  10    5.75    1.22
 -10  -1   3    3.77    2.27
   1  -3  10    7.34    1.54
 -10   3  -1   10.10    2.73
 -10   1   3    8.69    2.77
 -10   3   1    7.96    2.75
 -10   3  -1    8.02    2.72
  10   1   3    3.34    2.88
  10   3   1    4.55    2.85
  10   3  -1    4.36    2.29
 -10   2  -3   15.97    2.90
 -10   2  -3   27.08    3.82
 -10   2   3   22.00    2.67
 -10   3  -2   17.50    3.07
 -10   2   3   15.80    3.11
 -10  -2   3   21.43    2.59
 -10   3   2   22.84    3.34
  -2  -3  10   19.28    1.47
   3  -2  10   26.68    2.37
  10   3   2   17.47    3.37
  10   2   3   18.60    3.44
   2  -3  10   24.20    2.16
 -10   3  -2   19.51    3.23
 -10   3   2   22.62    2.93
  10   3   2   19.63    2.73
  10   3  -2   16.92    2.86
  -3  -3  10    7.22    1.03
 -10   3  -3    6.96    2.83
  -3  10  -3   11.91    2.22
 -10   3   3    8.05    2.44
   3  -3  10    7.24    1.91
  10   3   3   10.35    2.90
 -10   3   3   10.54    3.05
  10   3   3    5.39    2.18
  10   3  -3    6.37    2.52
  10   4   0   30.57    3.17
   4   0  10   37.42    2.94
 -10   0   4   39.76    3.70
 -10   4   0   36.43    3.77
   0  -4  10   38.84    2.43
   0  10  -4   28.81    2.63
  10   4   0   31.34    4.15
   4   1  10    5.67    2.01
   1   4 -10    3.98    1.01
   4  -1  10    5.79    1.97
 -10  -1   4    2.45    2.15
 -10   4  -1    5.11    3.05
  10   4  -1    2.52    2.28
 -10   4  -1    1.36    2.41
  -1  -4  10    2.29    1.28
 -10   1   4    2.72    2.83
 -10   4   1    4.17    2.86
   1  -4  10    4.06    1.61
  10   4   1    1.82    2.95
  10   1   4   -2.19    2.95
  -1   4  10    2.07    0.65
  -1  10  -4    1.72    1.85
   2   4 -10  265.55   10.91
  -2   4  10  293.30   10.77
  10   4   2  309.40   12.22
  10   4  -2  310.70   12.32
 -10   4  -2  307.65   13.14
 -10   4   2  313.44   12.62
 -10   2  -4  320.84   12.65
 -10  -2   4  288.77   11.81
 -10   2   4  324.55   12.13
   4  -2  10  322.54   11.99
  10   4   2  330.40   13.20
  10   2   4  315.68   13.16
   2  -4  10  287.53   11.65
 -10   2   4  281.83   12.94
 -10   4   2  317.75   13.46
  -2  10  -4  296.46   11.89
  10   4   3    7.80    2.27
  10   4  -3    4.18    2.37
 -10   3  -4    1.94    2.57
 -10   3   4    1.62    2.18
  -3   4 -10    3.33    1.47
 -10   4  -3    3.03    2.91
 -10   4   3    4.76    2.42
  10   4   3    4.75    2.72
   4  -3  10    3.96    2.16
  10   3   4    5.17    2.71
  -3   4  10    5.34    1.33
   3  -4  10    2.26    1.96
  -3  10  -4    4.29    2.00
   3   4 -10    2.16    1.55
 -10   3   4    6.71    3.08
 -10   4   3   11.72    3.36
  -4  10  -3    3.92    2.34
  10   4   4   17.75    2.86
  10   4  -4   24.50    3.26
 -10   4  -4   27.18    3.48
  -4   4  10   29.93    2.06
 -10   4  -4   27.08    3.88
  -4  10  -4   18.47    2.69
 -10   4   4   25.31    3.09
  10   4   4   27.30    3.23
   4  -4  10   28.90    2.97
 -10   4   4   25.97    4.08
  10   5   0   27.22    3.08
 -10   0   5   26.40    3.38
 -10   5   0   28.81    3.77
   5   0  10   28.66    2.83
   0  10  -5   23.08    2.04
  10   5   0   22.89    3.92
  10   5  -1    7.33    3.10
   5   1  10    6.59    2.16
   1  10  -5    9.18    1.33
   5  -1  10    6.89    2.19
 -10  -1   5   11.15    2.38
  -1  10  -5    8.36    1.76
 -10   1   5   13.91    3.35
  10   5   1    9.20    3.17
 -10   5   1    7.33    2.94
  10   5  -1    8.28    2.46
 -10   5  -1    8.65    3.47
  10  -1   5    6.88    3.36
 -10   5  -2    3.73    3.41
 -10   5   2   -1.52    2.89
   5   2  10    4.46    2.19
  -5  10  -2    3.13    2.55
 -10  -2   5    3.87    1.88
 -10   2  -5    3.21    2.58
   5  -2  10    6.71    2.21
  -2  10  -5    3.89    1.72
  10   5   2    0.72    2.58
  10   2   5    4.02    2.74
 -10   2   5    3.45    2.09
  10   5   2    2.17    2.29
  10   5  -2    2.86    2.38
 -10   2   5    3.25    2.79
 -10   5   2    3.88    3.11
   2   5  10    3.03    1.20
 -10   5  -3    3.92    3.40
 -10   5   3    5.93    2.89
   5  10  -3    4.96    1.78
 -10   5  -3    2.91    2.65
  10   5   3    2.93    2.41
  -3  10  -5    7.19    1.95
  10   3   5    6.61    2.69
 -10   3  -5   -2.01    2.91
   5  -3  10    3.53    2.29
  10   5   3    3.43    2.20
  10   5  -3    4.80    2.51
 -10   3   5    1.96    2.26
  -5  10  -3    2.20    2.27
   3   5  10    1.81    1.41
 -10   5   3    6.14    3.41
 -10   3   5    1.95    3.04
 -10  -3   5    6.16    1.63
 -10   3  -5    2.18    2.93
 -10   4  -5    7.88    2.97
 -10   5   4   13.77    3.48
 -10   4   5   15.19    3.69
 -10   5  -4   12.74    3.00
 -10   5  -4   17.09    3.86
 -10   5   4    7.10    2.85
   4   5  10   13.23    1.82
  10   5   4   11.99    2.62
  10   4   5   16.15    2.89
  -4  10  -5   14.02    2.40
  10   5   4   12.48    2.65
  10   5  -4   12.60    2.90
  -5   4  10   15.14    2.01
  -5  10  -4   15.92    2.72
 -10   4  -5   10.51    3.45
   5  -4  10   15.06    2.93
 -10   4   5   12.26    2.72
  10   4   5   10.72    2.59
  10   4  -5   12.25    3.13
  -4   5  10    9.08    1.74
   5   5  10    7.71    2.12
 -10   5  -5   11.53    3.24
  10   5   5   11.08    2.70
  10   5  -5   12.65    3.21
 -10   5  -5   12.53    3.71
  10   5   5   15.91    2.90
 -10   5   5   13.00    3.13
  -5  10  -5   18.02    2.61
   0  10  -6  215.93    8.28
   6   0  10  215.37    9.36
 -10   0   6  213.52   10.20
  10   6   0  227.27   10.69
  10   0   6  213.07   10.47
   6  10  -1    4.24    1.65
  -1  10  -6    3.05    1.46
   6   1  10    2.88    2.21
  10   6  -1    2.56    2.34
 -10  -1   6    1.90    2.13
   6  -1  10    0.86    2.20
  10   6   1    0.19    2.73
 -10   1   6    0.21    3.10
 -10   6   1    1.02    2.87
  10  -1   6   -0.60    3.14
  10   6  -1   -4.20    3.43
  10  -2   6    0.19    3.00
   6   2  10    4.53    2.25
   6  10  -2    1.23    1.73
 -10  -2   6    2.40    1.81
  -2  10  -6    4.61    1.58
  10   6   2    5.80    2.29
  10   6  -2    4.21    2.42
 -10   6  -2    5.75    2.69
  10   6   2    8.79    2.71
   6  -2  10    1.35    2.25
 -10   6  -2    2.74    3.19
 -10   6   2    0.21    3.43
 -10   6   2    7.84    3.18
 -10   2   6   -0.42    3.06
  -6  10  -2    4.86    2.85
 -10   3   6   11.01    3.67
   6   3  10   12.24    2.60
  10   6   3    7.05    2.50
  10   6  -3    8.15    2.81
 -10   3  -6    5.03    3.04
  -3  10  -6    6.09    1.89
 -10   6  -3    3.80    2.79
  10   6   3    9.49    2.62
 -10   3   6    6.82    2.42
  10   3   6    8.77    2.85
   6  -3  10    6.47    2.80
  -6  10  -3    3.40    2.58
 -10   6  -3    7.48    3.40
 -10   6   3    3.28    3.47
 -10   6   3    9.55    3.36
  10   4   6  135.71    6.77
  10   4  -6  143.49    7.18
 -10   6  -4  124.97    7.72
 -10   6   4  142.39    8.09
  10   6   4  142.35    6.81
  10   6  -4  140.67    7.17
 -10   4  -6  147.50    7.98
 -10   4   6  136.23    6.75
   4   6  10  136.39    5.98
 -10   6  -4  137.13    7.39
  -4  10  -6  135.06    6.34
  10   6   4  123.88    6.87
  -6  10  -4  134.80    6.83
   6  -4  10  151.74    7.34
 -10   6   4  134.48    7.61
 -10   6  -5   -1.94    3.14
 -10   6   5   -0.19    3.73
  10   5   6    1.08    2.45
  10   5  -6    1.52    2.89
 -10   6  -5    0.49    2.71
  -5  10  -6    3.12    2.14
  -6  10  -5    2.40    2.34
 -10   5  -6    2.97    3.36
 -10   5   6    3.93    2.83
  10   6   5    0.37    2.37
  10   6  -5    0.92    2.95
   6   5  10    1.82    2.07
 -10   5  -6    0.65    2.64
 -10   6  -6   -0.99    2.86
  -6  10  -6    5.16    2.42
  10   6   6    0.36    2.34
  10   6  -6    1.23    2.90
   7  10   0    4.55    1.90
   7   0  10   12.20    2.66
 -10   0   7   12.09    3.34
  10   7   0    3.36    3.12
   7  10   1    5.80    2.13
  -7  10  -1    2.04    3.76
  10   7  -1    6.08    2.72
   7  10  -1    3.92    2.05
   7   1  10   -0.40    2.39
 -10  -1   7    5.50    2.37
   7  -1  10    3.09    2.60
  10   7   1    7.82    2.97
 -10   7  -1    7.56    2.90
 -10   1   7    1.10    3.29
  10   7  -1   -4.21    3.41
  10   7   2   19.03    3.07
 -10   7  -2   19.26    3.33
   7  -2  10   16.63    3.19
  -7  10  -2   14.02    3.44
  10   7   2   18.45    2.97
  10   7  -2   18.95    3.13
 -10   7   2   19.15    3.50
 -10   2   7   15.37    3.80
  -3  10  -7    7.92    1.91
 -10   7   3    3.85    3.00
 -10   3   7    7.64    3.52
 -10   3  -7    6.59    3.21
 -10   7  -3    5.74    2.91
  10   7   3    9.96    2.66
  -7  10  -3    6.54    2.73
  10   7   3    8.05    2.65
  10   7  -3    7.19    2.96
 -10   3   7   11.45    2.55
   7  -3  10    3.86    3.07
   7  -4  10    3.19    3.20
  -4  10  -7    7.66    2.19
 -10   7  -4   15.66    3.25
  10   7   4    1.89    2.67
  10   7   4    7.56    2.63
  10   7  -4   10.84    3.12
  -7  10  -4   12.23    2.75
 -10   4  -7    5.01    3.53
 -10   4   7    8.72    2.76
  -5  10  -7    2.94    2.15
  10   7   5   -0.50    2.46
  10   7  -5    1.27    3.03
 -10   7  -5    1.34    2.96
  -7  10  -5    4.69    2.45
 -10   5  -7    1.16    3.26
  10   5   7    0.49    2.50
  10   5  -7   -1.89    3.11
 -10   5   7   -0.56    2.73
  -6  10  -7    3.77    2.35
  10   6   7    6.12    2.87
  -7  10  -6   11.93    2.84
  10   6  -7    1.31    3.27
  10   7   6    7.68    2.74
  10   7  -6   11.82    3.49
  -7  10  -7    4.92    2.76
  10   7   7    3.21    2.87
  10   7  -7    6.77    3.57
  -8  10   0   10.75    4.90
  10   8   0   12.72    3.45
 -10   8   0   10.07    3.24
  10   8  -1    4.75    2.77
   8  10   1    2.64    2.10
  10   8   1    0.51    2.61
 -10   8  -1    3.01    2.89
 -10   1   8   -1.12    3.48
  -8  10  -1   -0.23    3.71
   8  10   2   82.35    5.24
  10   8   2   92.35    5.41
  10   8  -2   95.21    5.56
  10   8   2   75.07    5.26
 -10   8  -2   80.64    5.45
  -8  10  -2   88.45    5.82
 -10   2   8   87.43    6.34
   8  10   3    6.88    3.98
  10   8   3    3.17    2.54
  10   8   3    2.89    2.53
 -10   8  -3    7.14    2.88
  10   8  -3    6.05    3.07
  -8  10  -3    4.64    2.79
  -8  10  -4   12.90    2.90
 -10   4  -8    7.91    4.21
 -10   4   8   13.98    3.06
  -8  10  -5    1.45    2.74
 -10   5   8    2.78    2.98
  -8  10  -6   38.36    3.86
  10   6   8   36.74    4.04
  10   9   2    4.78    2.62
 -11   0   0   66.55    4.86
 -11   0  -1   -1.12    2.59
 -11   0   1   -0.17    2.43
 -11   1   0    1.28    2.82
 -11  -1   0    0.77    2.16
   1  -1  11   41.41    2.80
 -11  -1   1   34.89    3.47
 -11   1  -1   39.42    4.41
 -11   1   1   47.00    4.49
   0  -2  11   13.50    1.70
 -11   0   2   13.02    3.00
 -11   2   0   17.89    3.21
   2   0  11   10.09    1.94
 -11   1  -2   -0.66    2.92
   2  -1  11    1.52    1.70
 -11  -1   2   -0.43    1.99
   1  -2  11    1.13    1.46
 -11   2  -1    0.60    2.60
 -11   1   2    0.20    2.77
 -11   2   1   -0.18    2.48
 -11   2  -1    2.11    2.43
  -1  -2  11    1.37    1.28
 -11  -2   2   75.61    4.43
 -11   2  -2   71.82    5.46
 -11   2  -2   69.08    4.79
 -11   2   2   78.69    4.67
   2  -2  11   73.00    3.89
 -11   2   2   74.32    5.08
  11   2   2   71.51    5.61
   3   0  11    2.77    1.77
 -11   0   3    0.17    2.39
   0  -3  11    1.71    1.36
 -11   3   0    0.53    2.50
  11   1   3   20.56    3.75
  11   3   1   23.91    3.84
 -11  -1   3   23.42    2.95
 -11   3  -1   24.53    3.49
 -11   3  -1   26.56    3.36
 -11   1   3   22.36    3.56
 -11   3   1   25.46    3.33
   3  -1  11   23.44    2.43
  -1  -3  11   19.83    1.77
   1  -3  11   23.49    2.05
 -11   1  -3   27.01    3.97
 -11  -2   3    0.48    1.88
 -11   2  -3   -2.39    3.10
 -11   3  -2    2.20    2.59
 -11   2  -3   -1.24    2.35
   3  -2  11    1.58    1.86
 -11   2   3    1.74    2.13
   2  -3  11    1.87    1.63
 -11   3  -2    3.14    2.66
 -11   3   2   -0.43    2.32
 -11   2   3    0.37    2.55
 -11   3   2    1.85    2.70
  11   2   3   -0.22    3.02
  11   3   2   -3.08    3.21
  -3  11  -3   13.44    2.29
 -11   3  -3   20.74    3.47
   3  -3  11   17.96    2.36
 -11   3   3   12.84    3.12
 -11   3  -3   15.29    3.27
 -11   3   3   20.81    2.93
  11   3   3    9.40    3.35
  11   0   4   38.26    4.43
   4   0  11   32.89    2.88
 -11   0   4   32.06    3.66
 -11   4   0   39.69    3.93
   0  11  -4   36.82    2.92
  11   4  -1    0.14    2.44
   4   1  11    0.11    1.94
 -11  -1   4   -1.37    2.18
   4  -1  11    0.10    1.88
 -11   4  -1    1.45    2.55
 -11   1   4    4.18    2.97
 -11   4   1    1.73    2.72
 -11   4  -1    1.76    2.96
  -1  11  -4    1.16    1.88
  11   1   4   -1.99    3.37
  11   4   1   -3.14    3.31
   1  11  -4    0.53    2.04
  11   4  -2   10.74    2.76
 -11  -2   4   15.64    2.42
 -11   4  -2    7.84    2.90
   4  -2  11   12.65    2.28
 -11   2   4   15.74    2.54
 -11   2  -4   10.56    2.78
 -11   2   4   10.39    3.08
 -11   4   2    9.84    3.11
   2  -4  11    8.14    1.97
 -11   4  -2   10.80    3.53
  11   4   2    8.85    3.37
  11   2   4    7.63    3.41
  -2  11  -4    8.72    2.15
 -11   4   2    6.41    2.82
   4   2  11    9.51    2.33
  11   4   2    8.87    2.49
 -11   3   4    0.91    2.31
   4  -3  11    0.23    2.13
 -11   3   4   -2.73    3.17
  11   4   3   -1.89    3.15
 -11   4   3    0.44    3.17
  11   3   4   -4.01    3.36
   3  -4  11   -1.49    2.10
  -3  11  -4    0.11    2.06
 -11   4  -3    0.63    3.14
  11   4   3    0.26    2.30
 -11   3  -4   -4.24    3.05
  -4  11  -3   -2.59    2.28
  11   4  -3   -0.59    2.71
 -11   4   3   -2.70    2.68
 -11   4  -4   19.81    3.98
 -11   4   4   17.34    3.11
  11   4   4   20.54    3.66
  -4  11  -4   16.83    2.56
 -11   4   4   22.01    4.21
   4  -4  11   20.97    2.92
  11   4   4   16.06    3.02
  11   4  -4   19.16    3.38
  11   5   0   -0.91    3.57
   5   0  11    3.20    2.15
 -11   0   5    1.72    2.63
   0  11  -5    1.49    2.00
 -11   5   0    4.07    2.87
  11   5  -1   30.93    3.57
 -11   1   5   35.86    4.26
   5   1  11   37.16    3.21
 -11  -1   5   35.35    3.36
   5  -1  11   34.40    3.09
 -11   5  -1   35.21    3.92
  -1  11  -5   39.84    2.98
  11   5   1   26.71    4.29
 -11   5   1   41.95    4.34
   5   2  11    2.18    2.16
  -5  11  -2    1.51    2.89
 -11  -2   5    4.11    1.99
  11   5   2   -0.68    2.60
  11   5  -2    2.06    2.69
   5  -2  11    0.12    2.28
  -2  11  -5    4.89    2.07
 -11   2   5    2.87    3.10
 -11   5   2   -1.97    3.46
  11   5   2    0.21    3.24
  11   5   3   17.75    3.00
  11   5  -3   24.15    3.50
 -11   3  -5   18.69    3.67
  11   5   3   22.90    3.82
   5  -3  11   19.48    2.97
 -11   3   5   26.69    3.09
 -11   3   5   24.46    4.13
 -11   5   3   19.07    4.16
  -3  11  -5   27.91    2.82
  -5  11  -3   13.94    2.93
 -11   4  -5    2.57    2.95
  11   5   4   -2.01    2.58
 -11   5  -4    0.36    2.78
  11   5  -4   -0.79    2.96
  -4  11  -5    3.00    2.27
  -5  11  -4    1.97    2.27
 -11   4   5   -1.73    3.62
 -11   5   4    2.45    3.63
   5  -4  11    1.78    2.66
 -11   5  -5   36.66    4.08
  -5  11  -5   30.24    3.07
 -11   5   5   27.82    4.76
  11   5   5   22.01    3.25
  11   5  -5   34.44    4.02
   6   0  11    7.36    2.57
 -11   0   6    7.80    3.00
 -11   6   0    9.02    3.28
  11   6   0    4.60    3.54
   6   1  11    1.27    2.35
 -11  -1   6   -2.37    2.40
   6  -1  11    0.52    2.29
 -11   1   6   -0.88    3.36
 -11   6   1   -1.66    3.14
  11   6  -1    0.29    2.63
  11   6   1   -3.25    3.76
  11   6  -2   34.90    3.78
  11   6   2   31.46    4.12
  11   6   2   27.02    3.41
 -11   2   6   21.42    3.99
 -11   6   2   27.24    4.26
   6  -2  11   32.85    3.51
  -6  11  -2   35.32    4.24
 -11   3   6    4.74    2.43
 -11   6  -3    4.67    3.11
 -11   3  -6    2.49    3.16
  11   6   3    5.49    3.10
  11   6   3    1.52    2.56
  11   6  -3    1.40    2.83
   6  -3  11   -0.15    2.89
  -6  11  -3   -0.61    2.74
 -11   3   6   -1.66    3.59
 -11   6   3   -1.38    3.54
  -4  11  -6    2.75    2.31
  11   6   4    6.69    2.78
  11   6  -4    6.23    3.07
  -6  11  -4    5.47    2.52
 -11   6   4    3.02    3.71
 -11   4   6    2.04    3.83
   6  -4  11    5.05    3.05
 -11   5   6   -0.54    4.43
  -5  11  -6    1.61    2.39
  11   6   5   -0.83    2.78
  11   6  -5   -4.47    3.54
  -6  11  -5    3.24    2.46
  11   5   6   -3.10    2.78
  11   5  -6   -2.69    3.36
  -6  11  -6    9.64    2.72
  11   7   0    0.47    3.88
 -11   1   7   12.67    3.97
  11   7   1   10.70    3.72
   7  11   1    9.09    2.25
  11   7   2    0.20    3.16
 -11   2   7   -0.93    3.57
  -7  11  -2   -2.35    3.68
  -7  11  -3    7.98    2.96
 -11   3   7    7.74    3.78
  -7  11  -4    1.53    2.48
 -11   4   7   -3.05    4.42
  -7  11  -5   14.06    2.89
  -7  11  -6    0.13    2.72
 -11   3   8    1.52    3.91
 -12   0   0  339.94   14.77
 -12   0   1    9.77    3.10
 -12   1   0    5.22    3.48
   0  -1  12    5.96    1.84
 -12   0  -1    3.86    3.14
 -12  -1   1    5.62    2.60
   1  -1  12    0.67    1.77
 -12   1  -1    2.92    3.57
 -12   1   1    2.83    3.48
   2   0  12   10.73    2.21
 -12   0   2    8.65    2.92
 -12   2   0    5.23    3.06
 -12   1  -2    0.74    3.67
 -12  -1   2    3.65    2.56
   2  -1  12    5.58    1.98
 -12   2  -1    0.63    3.15
   1  -2  12    2.39    1.70
 -12   1   2    4.47    3.27
 -12   2   1    1.17    2.92
 -12   2  -2  102.34    6.79
   2  -2  12   95.12    4.87
 -12   2   2   96.62    6.11
   3   0  12    4.03    2.19
 -12   0   3   -1.45    2.80
 -12   3   0    4.75    3.01
 -12  -1   3   -1.52    2.50
   3  -1  12    2.99    2.13
 -12   3  -1    0.58    2.94
 -12   1   3   -0.64    3.17
 -12   3   1    2.22    2.86
   3   1  12    1.17    2.10
 -12   2  -3    3.17    3.45
  12   3   2   -3.05    3.66
 -12   3  -2    4.76    3.24
   3  -2  12    4.87    1.98
 -12   2   3    4.04    3.00
 -12   3   2    7.17    2.97
 -12  -2   3    3.22    2.31
  -3  12  -3   -1.02    1.94
 -12   3  -3   -0.21    3.34
 -12   3   3    0.20    2.89
   4   0  12  209.13    9.12
 -12   0   4  209.46   10.02
 -12   4   0  224.90   10.32
   4   1  12    5.77    2.46
  12   4   1    0.45    3.48
 -12  -1   4    3.61    2.48
 -12   4  -1    6.45    3.33
   4  -1  12    3.76    2.28
 -12   1   4    7.95    3.44
 -12   4   1    7.43    3.15
  12   4  -1    5.38    2.87
   4   2  12    8.33    2.46
 -12  -2   4   10.81    2.43
 -12   4  -2    9.68    3.35
   4  -2  12    8.73    2.35
 -12   2   4    7.38    3.25
 -12   4   2    5.94    3.24
  -2  12  -4    3.98    2.22
  12   4   2    2.46    3.77
 -12   3   4    5.36    3.35
 -12   4   3    2.01    3.51
  -3  12  -4    0.11    2.20
  -4  12  -3   -0.69    2.25
 -12   4   4  136.18    8.04
  -4  12  -4  120.01    6.07
   5   0  12    8.01    2.65
 -12   0   5    5.90    3.14
 -12   5   0   15.76    3.69
  12   5  -1    4.09    3.03
 -12  -1   5   -0.14    2.50
   5  -1  12    3.29    2.36
 -12   1   5    8.57    3.49
 -12   5   1    3.98    3.45
  12   5   1    1.52    3.88
  -5  12  -2    2.73    3.03
   5  -2  12    8.12    2.66
 -12   2   5    5.88    3.44
 -12   5   2    6.99    3.51
 -12   3   5    2.24    3.47
  -5  12  -3    0.52    2.40
  -5  12  -4   10.30    2.48
 -12   4   5    5.62    4.11
  -6  12  -1    0.81    6.91
 -12   1   6    3.79    3.56
  12   6   1   -4.59    4.16
 -12   2   6   39.50    5.00
  -6  12  -2   53.14    5.22
 -12   3   6    0.23    3.64
  -6  12  -3    0.89    2.73
  -6  12  -4    6.41    2.57
 -12   2   7    3.94    3.77
 -12   3   7   -2.67    4.00
 -13   0   0    4.76    3.50
 -13   0   1    6.03    3.42
 -13   1   0    8.71    4.14
 -13   1  -1   55.45    5.89
 -13   1   1   50.14    5.35
 -13   0   2   37.83    4.50
 -13   2   0   38.75    4.68
   2   0  13   35.54    3.24
 -13   2  -1    1.34    3.47
 -13   1   2   -4.28    3.52
 -13   2   1    0.21    3.24
   2   1  13    2.64    2.20
 -13  -1   2    1.54    2.80
 -13   2   2   -1.44    3.29
   3   0  13    1.53    2.35
 -13   0   3    0.57    3.07
 -13   1   3   39.20    4.79
 -13  -1   3   36.22    3.99
   3   1  13   34.35    3.41
 -13   2   3   -0.83    3.37
 -13   0   4    3.93    3.34
 -13  -1   4    3.84    2.96
 -13   1   4    0.23    3.88
 -13   2   4   23.11    4.03
  -4  13  -3   -0.57    1.87
 -13   1   5   43.89    5.40
 -13   2   5    4.09    3.55
  -5  13  -2   -2.79    2.88
  -5  13  -3   13.65    2.58
   0   0   0    0.00    0.00


TITL Jianbo07_t3_pp_0316 in Pm-3m
REM Pm-3m (#221 in standard setting)
CELL 0.71073  10.491350  10.491350  10.491350  90.0000  90.0000  90.0000
ZERR    8.00   0.000520   0.000520   0.000520   0.0000   0.0000   0.0000
LATT  1
SYMM -x,-y, z
SYMM -x, y,-z
SYMM  x,-y,-z
SYMM  z, x, y
SYMM  z,-x,-y
SYMM -z,-x, y
SYMM -z, x,-y
SYMM  y, z, x
SYMM -y, z,-x
SYMM  y,-z,-x
SYMM -y,-z, x
SYMM  y, x,-z
SYMM -y,-x,-z
SYMM  y,-x, z
SYMM -y, x, z
SYMM  x, z,-y
SYMM -x, z, y
SYMM -x,-z,-y
SYMM  x,-z, y
SYMM  z, y,-x
SYMM  z,-y, x
SYMM -z, y, x
SYMM -z,-y,-x
SFAC Cl In Cs Au
UNIT 8.00 8.00 8.00 8.00
TREF
HKLF 4
END
_computing_structure_solution     'SHELXT 2018/2 (Sheldrick, 2018)'
;
_shelx_hkl_checksum              61194
_olex2_submission_special_instructions 'No special instructions were received'
_oxdiff_exptl_absorpt_empirical_details
;
Empirical correction (ABSPACK) includes:
- Absorption correction using spherical harmonics
- Frame scaling
;
_oxdiff_exptl_absorpt_empirical_full_max 2.008
_oxdiff_exptl_absorpt_empirical_full_min 0.643
loop_
_space_group_symop_operation_xyz
'x, y, z'
'-x, -y, z'
'-x, y, -z'
'x, -y, -z'
'z, x, y'
'z, -x, -y'
'-z, -x, y'
'-z, x, -y'
'y, z, x'
'-y, z, -x'
'y, -z, -x'
'-y, -z, x'
'y, x, -z'
'-y, -x, -z'
'y, -x, z'
'-y, x, z'
'x, z, -y'
'-x, z, y'
'-x, -z, -y'
'x, -z, y'
'z, y, -x'
'z, -y, x'
'-z, y, x'
'-z, -y, -x'
'-x, -y, -z'
'x, y, -z'
'x, -y, z'
'-x, y, z'
'-z, -x, -y'
'-z, x, y'
'z, x, -y'
'z, -x, y'
'-y, -z, -x'
'y, -z, x'
'-y, z, x'
'y, z, -x'
'-y, -x, z'
'y, x, z'
'-y, x, -z'
'y, -x, -z'
'-x, -z, y'
'x, -z, -y'
'x, z, y'
'-x, z, -y'
'-z, -y, x'
'-z, y, -x'
'z, -y, -x'
'z, y, x'
loop_
_atom_site_label
_atom_site_type_symbol
_atom_site_fract_x
_atom_site_fract_y
_atom_site_fract_z
_atom_site_U_iso_or_equiv
_atom_site_adp_type
_atom_site_occupancy
_atom_site_site_symmetry_order
_atom_site_calc_flag
_atom_site_refinement_flags_posn
_atom_site_refinement_flags_adp
_atom_site_refinement_flags_occupancy
_atom_site_disorder_assembly
_atom_site_disorder_group
Au01 Au 0.000000 0.000000 0.500000 0.0433(5) Uani 0.8333 16 d S T P . 3
Au02 Au 0.000000 0.000000 0.000000 0.0791(12) Uani 1 48 d S T P . .
In03 In 0.500000 0.500000 0.500000 0.0233(8) Uani 1 48 d S T P . .
Cs04 Cs 0.25973(9) 0.25973(9) 0.74027(9) 0.0516(5) Uani 1 6 d S T P . .
Cl05 Cl 0.2203(5) 0.000000 0.500000 0.0561(13) Uani 1 4 d S T P . .
Cl06 Cl 0.500000 0.500000 0.7416(5) 0.0293(11) Uani 1 8 d S T P . .
Cl07 Cl 0.000000 0.000000 0.2286(13) 0.101(4) Uani 0.8334 8 d S T P . .
In2 In 0.000000 0.000000 0.500000 0.0433(5) Uani 0.1667 16 d S T P . 4
loop_
_atom_site_aniso_label
_atom_site_aniso_U_11
_atom_site_aniso_U_22
_atom_site_aniso_U_33
_atom_site_aniso_U_23
_atom_site_aniso_U_13
_atom_site_aniso_U_12
Au01 0.0305(6) 0.0305(6) 0.0687(12) 0.000 0.000 0.000
Au02 0.0791(12) 0.0791(12) 0.0791(12) 0.000 0.000 0.000
In03 0.0233(8) 0.0233(8) 0.0233(8) 0.000 0.000 0.000
Cs04 0.0516(5) 0.0516(5) 0.0516(5) 0.0051(4) 0.0051(4) -0.0051(4)
Cl05 0.039(2) 0.044(3) 0.085(4) 0.000 0.000 0.000
Cl06 0.0342(17) 0.0342(17) 0.020(2) 0.000 0.000 0.000
Cl07 0.116(7) 0.116(7) 0.072(8) 0.000 0.000 0.000
In2 0.0305(6) 0.0305(6) 0.0687(12) 0.000 0.000 0.000
loop_
_atom_type_symbol
_atom_type_description
_atom_type_scat_dispersion_real
_atom_type_scat_dispersion_imag
_atom_type_scat_source
Au Au -2.0133 8.8022 'International Tables Vol C Tables 4.2.6.8 and 6.1.1.4'
Cl Cl 0.1484 0.1585 'International Tables Vol C Tables 4.2.6.8 and 6.1.1.4'
Cs Cs -0.3680 2.1192 'International Tables Vol C Tables 4.2.6.8 and 6.1.1.4'
In In -0.7276 1.3100 'International Tables Vol C Tables 4.2.6.8 and 6.1.1.4'
loop_
_exptl_crystal_face_index_h
_exptl_crystal_face_index_k
_exptl_crystal_face_index_l
_exptl_crystal_face_perp_dist
-12 1 9 0.0315
11 -1 -10 0.0769
-12 0 9 0.0349
-2 -6 -14 0.1140
8 -11 6 0.0180
11 9 4 0.0433
-8 10 -7 0.0102
12 -1 -8 0.0740
0 6 13 0.0332
14 5 2 0.0553
loop_
_geom_angle_atom_site_label_1
_geom_angle_atom_site_label_2
_geom_angle_atom_site_label_3
_geom_angle
_geom_angle_site_symmetry_1
_geom_angle_site_symmetry_3
_geom_angle_publ_flag
Cl05 Au01 Cl05 90.0 . 37 ?
Cl05 Au01 Cl05 90.000(1) 37 25_556 ?
Cl05 Au01 Cl05 180.0 . 25_556 ?
Cl05 Au01 Cl05 90.000(1) . 13_556 ?
Cl05 Au01 Cl05 180.0 37 13_556 ?
Cl05 Au01 Cl05 90.0 13_556 25_556 ?
Cl05 Au01 Cl07 90.0 13_556 . ?
Cl05 Au01 Cl07 90.0 . . ?
Cl05 Au01 Cl07 90.000(1) 25_556 25_556 ?
Cl05 Au01 Cl07 90.000(1) 37 25_556 ?
Cl05 Au01 Cl07 90.0 37 . ?
Cl05 Au01 Cl07 90.000(1) 13_556 25_556 ?
Cl05 Au01 Cl07 90.0 25_556 . ?
Cl05 Au01 Cl07 90.000(1) . 25_556 ?
Cl07 Au01 Cl07 180.0 25_556 . ?
Cl07 Au02 Cl07 90.0 . 33 ?
Cl07 Au02 Cl07 180.0 5 29 ?
Cl07 Au02 Cl07 90.0 5 9 ?
Cl07 Au02 Cl07 180.0 . 25 ?
Cl07 Au02 Cl07 180.0 33 9 ?
Cl07 Au02 Cl07 90.0 33 25 ?
Cl07 Au02 Cl07 90.0 25 29 ?
Cl07 Au02 Cl07 90.0 . 5 ?
Cl07 Au02 Cl07 90.0 . 9 ?
Cl07 Au02 Cl07 90.0 33 5 ?
Cl07 Au02 Cl07 90.0 25 9 ?
Cl07 Au02 Cl07 90.0 25 5 ?
Cl07 Au02 Cl07 90.0 29 9 ?
Cl07 Au02 Cl07 90.0 33 29 ?
Cl07 Au02 Cl07 90.0 . 29 ?
Cs04 In03 Cs04 109.5 27_565 28_655 ?
Cs04 In03 Cs04 109.5 2_665 3_656 ?
Cs04 In03 Cs04 70.5 2_665 28_655 ?
Cs04 In03 Cs04 109.471(1) . 2_665 ?
Cs04 In03 Cs04 180.0 27_565 3_656 ?
Cs04 In03 Cs04 70.529(1) . 26_556 ?
Cs04 In03 Cs04 109.5 . 3_656 ?
Cs04 In03 Cs04 180.0 2_665 26_556 ?
Cs04 In03 Cs04 70.5 26_556 3_656 ?
Cs04 In03 Cs04 70.5 . 27_565 ?
Cs04 In03 Cs04 70.5 . 28_655 ?
Cs04 In03 Cs04 70.5 2_665 27_565 ?
Cs04 In03 Cs04 109.5 26_556 28_655 ?
Cs04 In03 Cs04 109.5 26_556 27_565 ?
Cs04 In03 Cs04 70.5 3_656 28_655 ?
Cl06 In03 Cs04 54.7 29_666 26_556 ?
Cl06 In03 Cs04 54.7 33_666 26_556 ?
Cl06 In03 Cs04 54.7 . 28_655 ?
Cl06 In03 Cs04 125.3 5 26_556 ?
Cl06 In03 Cs04 54.7 9 2_665 ?
Cl06 In03 Cs04 54.7 25_666 26_556 ?
Cl06 In03 Cs04 54.7 5 28_655 ?
Cl06 In03 Cs04 125.3 9 . ?
Cl06 In03 Cs04 54.7 5 3_656 ?
Cl06 In03 Cs04 54.7 29_666 . ?
Cl06 In03 Cs04 54.7 . . ?
Cl06 In03 Cs04 54.7 . 27_565 ?
Cl06 In03 Cs04 125.3 9 28_655 ?
Cl06 In03 Cs04 125.3 33_666 27_565 ?
Cl06 In03 Cs04 54.7 33_666 . ?
Cl06 In03 Cs04 54.7 9 27_565 ?
Cl06 In03 Cs04 125.3 29_666 3_656 ?
Cl06 In03 Cs04 54.7 29_666 27_565 ?
Cl06 In03 Cs04 54.7 25_666 3_656 ?
Cl06 In03 Cs04 125.3 5 27_565 ?
Cl06 In03 Cs04 125.3 29_666 2_665 ?
Cl06 In03 Cs04 125.3 25_666 27_565 ?
Cl06 In03 Cs04 125.3 25_666 2_665 ?
Cl06 In03 Cs04 125.3 5 . ?
Cl06 In03 Cs04 54.7 33_666 28_655 ?
Cl06 In03 Cs04 125.3 25_666 . ?
Cl06 In03 Cs04 125.3 29_666 28_655 ?
Cl06 In03 Cs04 54.7 . 2_665 ?
Cl06 In03 Cs04 125.3 25_666 28_655 ?
Cl06 In03 Cs04 125.3 . 3_656 ?
Cl06 In03 Cs04 125.3 . 26_556 ?
Cl06 In03 Cs04 54.7 33_666 3_656 ?
Cl06 In03 Cs04 125.3 9 26_556 ?
Cl06 In03 Cs04 125.3 9 3_656 ?
Cl06 In03 Cs04 54.7 5 2_665 ?
Cl06 In03 Cs04 125.3 33_666 2_665 ?
Cl06 In03 Cl06 90.000(1) 33_666 29_666 ?
Cl06 In03 Cl06 90.0 9 25_666 ?
Cl06 In03 Cl06 90.0 . 9 ?
Cl06 In03 Cl06 90.0 9 29_666 ?
Cl06 In03 Cl06 90.0 5 25_666 ?
Cl06 In03 Cl06 90.000(1) . 5 ?
Cl06 In03 Cl06 90.0 33_666 25_666 ?
Cl06 In03 Cl06 90.0 33_666 5 ?
Cl06 In03 Cl06 90.0 29_666 25_666 ?
Cl06 In03 Cl06 90.000(1) 9 5 ?
Cl06 In03 Cl06 90.0 . 33_666 ?
Cl06 In03 Cl06 180.0 29_666 5 ?
Cl06 In03 Cl06 90.0 . 29_666 ?
Cl06 In03 Cl06 180.0 . 25_666 ?
Cl06 In03 Cl06 180.0 33_666 9 ?
Cl05 Cs04 Cl05 166.53(16) 13_556 5_556 ?
Cl05 Cs04 Cl05 67.49(12) 13_556 33_566 ?
Cl05 Cs04 Cl05 166.53(15) 21_556 33_566 ?
Cl05 Cs04 Cl05 67.49(12) 17_556 5_556 ?
Cl05 Cs04 Cl05 119.099(17) 5_556 33_566 ?
Cl05 Cs04 Cl05 51.90(13) 13_556 . ?
Cl05 Cs04 Cl05 67.49(12) . 21_556 ?
Cl05 Cs04 Cl05 166.53(16) 17_556 . ?
Cl05 Cs04 Cl05 51.90(13) 17_556 33_566 ?
Cl05 Cs04 Cl05 119.099(17) 5_556 . ?
Cl05 Cs04 Cl05 119.099(17) . 33_566 ?
Cl05 Cs04 Cl05 119.099(17) 17_556 21_556 ?
Cl05 Cs04 Cl05 51.90(13) 5_556 21_556 ?
Cl05 Cs04 Cl05 119.099(17) 13_556 17_556 ?
Cl05 Cs04 Cl05 119.099(17) 13_556 21_556 ?
Cl05 Cs04 Cl07 109.62(17) 33_566 5_556 ?
Cl05 Cs04 Cl07 57.65(18) 21_556 5_556 ?
Cl05 Cs04 Cl07 109.62(18) 13_556 5_556 ?
Cl05 Cs04 Cl07 109.62(18) 17_556 25_556 ?
Cl05 Cs04 Cl07 109.62(17) 21_556 9_556 ?
Cl05 Cs04 Cl07 109.62(17) 5_556 25_556 ?
Cl05 Cs04 Cl07 57.65(18) 5_556 5_556 ?
Cl05 Cs04 Cl07 57.65(18) . 25_556 ?
Cl05 Cs04 Cl07 109.62(18) . 9_556 ?
Cl05 Cs04 Cl07 87.26(3) 21_556 25_556 ?
Cl05 Cs04 Cl07 57.65(18) 33_566 9_556 ?
Cl05 Cs04 Cl07 87.26(3) 33_566 25_556 ?
Cl05 Cs04 Cl07 87.26(3) 17_556 5_556 ?
Cl05 Cs04 Cl07 87.26(3) 13_556 9_556 ?
Cl05 Cs04 Cl07 87.26(3) . 5_556 ?
Cl05 Cs04 Cl07 57.65(18) 17_556 9_556 ?
Cl05 Cs04 Cl07 87.26(3) 5_556 9_556 ?
Cl05 Cs04 Cl07 57.65(18) 13_556 25_556 ?
Cl06 Cs04 Cl05 126.64(10) 29_666 5_556 ?
Cl06 Cs04 Cl05 66.31(9) . 5_556 ?
Cl06 Cs04 Cl05 92.191(19) 29_666 17_556 ?
Cl06 Cs04 Cl05 126.64(10) . . ?
Cl06 Cs04 Cl05 66.31(9) . 17_556 ?
Cl06 Cs04 Cl05 92.19(2) 29_666 . ?
Cl06 Cs04 Cl05 126.64(10) 33_666 33_566 ?
Cl06 Cs04 Cl05 126.64(10) . 13_556 ?
Cl06 Cs04 Cl05 66.31(9) 33_666 . ?
Cl06 Cs04 Cl05 92.19(2) 33_666 13_556 ?
Cl06 Cs04 Cl05 126.64(10) 33_666 17_556 ?
Cl06 Cs04 Cl05 66.31(9) 29_666 13_556 ?
Cl06 Cs04 Cl05 92.19(2) . 33_566 ?
Cl06 Cs04 Cl05 92.191(19) . 21_556 ?
Cl06 Cs04 Cl05 66.31(9) 29_666 33_566 ?
Cl06 Cs04 Cl05 92.191(19) 33_666 5_556 ?
Cl06 Cs04 Cl05 126.64(10) 29_666 21_556 ?
Cl06 Cs04 Cl05 66.31(9) 33_666 21_556 ?
Cl06 Cs04 Cl06 60.36(13) . 33_666 ?
Cl06 Cs04 Cl06 60.36(13) . 29_666 ?
Cl06 Cs04 Cl06 60.36(13) 33_666 29_666 ?
Cl06 Cs04 Cl07 123.73(17) 33_666 5_556 ?
Cl06 Cs04 Cl07 123.73(17) 29_666 25_556 ?
Cl06 Cs04 Cl07 174.9(2) 33_666 9_556 ?
Cl06 Cs04 Cl07 174.9(2) 29_666 5_556 ?
Cl06 Cs04 Cl07 123.73(17) . 9_556 ?
Cl06 Cs04 Cl07 174.9(2) . 25_556 ?
Cl06 Cs04 Cl07 123.73(17) . 5_556 ?
Cl06 Cs04 Cl07 123.73(17) 33_666 25_556 ?
Cl06 Cs04 Cl07 123.73(17) 29_666 9_556 ?
Cl07 Cs04 Cl07 52.0(3) 25_556 5_556 ?
Cl07 Cs04 Cl07 52.0(3) 25_556 9_556 ?
Cl07 Cs04 Cl07 52.0(3) 9_556 5_556 ?
Au01 Cl05 Cs04 96.36(8) . . ?
Cs04 Cl05 Cs04 167.29(16) 4_556 . ?
Cs04 Cl05 Cs04 84.89(4) 4_556 27 ?
Cs04 Cl05 Cs04 93.70(4) 27 . ?
Cs04 Cl05 Cs04 93.70(4) 4_556 26_556 ?
Cs04 Cl05 Cs04 167.29(16) 27 26_556 ?
Cs04 Cl05 Cs04 84.89(4) 26_556 . ?
In2 Cl05 Cs04 96.36(8) . . ?
In03 Cl06 Cs04 89.78(8) . 2_665 ?
In03 Cl06 Cs04 89.78(8) . 27_565 ?
In03 Cl06 Cs04 89.78(8) . 28_655 ?
In03 Cl06 Cs04 89.78(8) . . ?
Cs04 Cl06 Cs04 89.999(1) . 28_655 ?
Cs04 Cl06 Cs04 179.56(16) 28_655 27_565 ?
Cs04 Cl06 Cs04 89.999(1) 2_665 27_565 ?
Cs04 Cl06 Cs04 89.999(1) . 27_565 ?
Cs04 Cl06 Cs04 89.999(1) 2_665 28_655 ?
Cs04 Cl06 Cs04 179.55(16) . 2_665 ?
Au02 Cl07 Au01 180.0 . . ?
Au02 Cl07 Cs04 94.8(2) . 4_556 ?
Au02 Cl07 Cs04 94.8(2) . 3_556 ?
Au02 Cl07 Cs04 94.8(2) . 25_556 ?
Au02 Cl07 Cs04 94.8(2) . 26_556 ?
Au02 Cl07 In2 180.0 . . ?
Cs04 Cl07 Cs04 89.59(3) 25_556 3_556 ?
Cs04 Cl07 Cs04 89.59(3) 26_556 3_556 ?
Cs04 Cl07 Cs04 89.59(3) 26_556 4_556 ?
Cs04 Cl07 Cs04 170.3(4) 26_556 25_556 ?
Cs04 Cl07 Cs04 89.59(3) 25_556 4_556 ?
Cs04 Cl07 Cs04 170.3(4) 4_556 3_556 ?
Cl05 In2 Cl05 90.000(1) . 13_556 ?
Cl05 In2 Cl05 90.0 . 37 ?
Cl05 In2 Cl05 90.000(1) 37 25_556 ?
Cl05 In2 Cl05 180.0 37 13_556 ?
Cl05 In2 Cl05 90.0 13_556 25_556 ?
Cl05 In2 Cl05 180.0 . 25_556 ?
Cl05 In2 Cl07 90.000(1) . 25_556 ?
Cl05 In2 Cl07 90.0 37 . ?
Cl05 In2 Cl07 90.0 25_556 . ?
Cl05 In2 Cl07 90.000(1) 37 25_556 ?
Cl05 In2 Cl07 90.0 13_556 . ?
Cl05 In2 Cl07 90.000(1) 13_556 25_556 ?
Cl05 In2 Cl07 90.000(1) 25_556 25_556 ?
Cl05 In2 Cl07 90.0 . . ?
Cl07 In2 Cl07 180.0 25_556 . ?
loop_
_geom_bond_atom_site_label_1
_geom_bond_atom_site_label_2
_geom_bond_distance
_geom_bond_site_symmetry_2
_geom_bond_publ_flag
Au01 Cl05 2.311(5) . ?
Au01 Cl05 2.311(5) 25_556 ?
Au01 Cl05 2.311(5) 37 ?
Au01 Cl05 2.311(5) 13_556 ?
Au01 Cl07 2.848(13) 25_556 ?
Au01 Cl07 2.848(13) . ?
Au02 Cl07 2.398(13) . ?
Au02 Cl07 2.398(13) 9 ?
Au02 Cl07 2.398(13) 29 ?
Au02 Cl07 2.398(13) 33 ?
Au02 Cl07 2.398(13) 5 ?
Au02 Cl07 2.398(13) 25 ?
In03 Cs04 4.3661(16) 2_665 ?
In03 Cs04 4.3661(16) 28_655 ?
In03 Cs04 4.3661(16) 3_656 ?
In03 Cs04 4.3661(16) 26_556 ?
In03 Cs04 4.3661(16) 27_565 ?
In03 Cs04 4.3660(16) . ?
In03 Cl06 2.535(5) . ?
In03 Cl06 2.535(5) 5 ?
In03 Cl06 2.535(5) 29_666 ?
In03 Cl06 2.535(5) 33_666 ?
In03 Cl06 2.535(5) 9 ?
In03 Cl06 2.535(5) 25_666 ?
Cs04 Cl05 3.7350(6) 17_556 ?
Cs04 Cl05 3.7350(6) 33_566 ?
Cs04 Cl05 3.7350(6) 21_556 ?
Cs04 Cl05 3.7350(6) 5_556 ?
Cs04 Cl05 3.7350(6) . ?
Cs04 Cl05 3.7350(6) 13_556 ?
Cs04 Cl06 3.5649(13) 29_666 ?
Cs04 Cl06 3.5649(13) . ?
Cs04 Cl06 3.5649(13) 33_666 ?
Cs04 Cl07 3.8675(18) 9_556 ?
Cs04 Cl07 3.8675(18) 5_556 ?
Cs04 Cl07 3.8675(19) 25_556 ?
Cl05 In2 2.311(5) . ?
Cl07 In2 2.848(13) . ?
loop_
_exptl_oxdiff_crystal_face_indexfrac_h
_exptl_oxdiff_crystal_face_indexfrac_k
_exptl_oxdiff_crystal_face_indexfrac_l
_exptl_oxdiff_crystal_face_x
_exptl_oxdiff_crystal_face_y
_exptl_oxdiff_crystal_face_z
-11.7264 1.3892 8.8903 -0.8851 0.2108 0.4149
10.6295 -0.6597 -10.2544 0.8878 -0.3128 -0.3375
-11.9997 -0.3460 8.6216 -0.8262 0.2908 0.4826
-2.1858 -5.6340 -13.5196 0.7490 -0.2655 0.6070
7.6058 -10.9508 6.4069 0.3161 0.8975 -0.3076
11.0731 8.9312 4.0299 -0.0868 -0.2391 -0.9671
-8.2191 10.3709 -6.6119 -0.3094 -0.8789 0.3630
12.3078 -0.8832 -8.1341 0.8533 -0.2031 -0.4802
0.4042 6.4880 13.3032 -0.8294 0.1992 -0.5220
13.9274 4.6832 1.5910 0.2675 -0.0927 -0.9591
