#------------------------------------------------------------------------------
#$Date: 2021-07-06 04:26:30 +0300 (Tue, 06 Jul 2021) $
#$Revision: 267261 $
#$URL: file:///home/coder/svn-repositories/cod/cif/1/56/39/1563948.cif $
#------------------------------------------------------------------------------
#
# This file is available in the Crystallography Open Database (COD),
# http://www.crystallography.net/
#
# All data on this site have been placed in the public domain by the
# contributors.
#
data_1563948
loop_
_publ_author_name
'Xiong, Zuping'
'Zhang, Xiaoxiao'
'Liu, Longxiang'
'Zhu, Qiaozhi'
'Wang, Zhenni'
'Feng, Hui'
'Qian, Zhaosheng'
_publ_section_title
;
 Achieving Highly Efficient Aggregation-Induced Emission, Reversible and
 Irreversible Photochromism by Heavy Halogen-Regulated Photophysics and
 D-A Molecular Pattern-Controlled Photochemistry of Through-Space
 Conjugated Lumingens
;
_journal_name_full               'Chemical Science'
_journal_paper_doi               10.1039/D1SC02168K
_journal_year                    2021
_chemical_formula_moiety         'C21 H14 F N'
_chemical_formula_sum            'C21 H14 F N'
_chemical_formula_weight         299.33
_chemical_name_common            TPAN-F
_space_group_crystal_system      triclinic
_space_group_IT_number           2
_space_group_name_Hall           '-P 1'
_space_group_name_H-M_alt        'P -1'
_atom_sites_solution_hydrogens   geom
_atom_sites_solution_primary     dual
_audit_creation_date             2020-06-10
_audit_creation_method
;
Olex2 1.2
(compiled 2018.05.29 svn.r3508 for OlexSys, GUI svn.r5506)
;
_audit_update_record
;
2021-01-06 deposited with the CCDC.	2021-07-05 downloaded from the CCDC.
;
_cell_angle_alpha                106.884(5)
_cell_angle_beta                 104.687(5)
_cell_angle_gamma                91.445(5)
_cell_formula_units_Z            2
_cell_length_a                   8.4617(8)
_cell_length_b                   9.9195(9)
_cell_length_c                   10.0112(10)
_cell_measurement_reflns_used    1659
_cell_measurement_temperature    150(2)
_cell_measurement_theta_max      25.19
_cell_measurement_theta_min      2.50
_cell_volume                     773.36(13)
_computing_cell_refinement       'SAINT v8.37A (Bruker, 2015)'
_computing_data_reduction        'SAINT v8.37A (Bruker, 2015)'
_computing_molecular_graphics    'Olex2 (Dolomanov et al., 2009)'
_computing_publication_material  'Olex2 (Dolomanov et al., 2009)'
_computing_structure_refinement  'ShelXL (Sheldrick, 2015)'
_computing_structure_solution    'ShelXT (Sheldrick, 2015)'
_diffrn_ambient_temperature      150.0
_diffrn_measured_fraction_theta_full 1.000
_diffrn_measured_fraction_theta_max 0.999
_diffrn_measurement_device_type  'Bruker APEX-II CCD'
_diffrn_measurement_method       '\f and \w scans'
_diffrn_radiation_type           MoK\a
_diffrn_radiation_wavelength     0.71073
_diffrn_reflns_av_R_equivalents  0.1119
_diffrn_reflns_av_unetI/netI     0.0775
_diffrn_reflns_Laue_measured_fraction_full 1.000
_diffrn_reflns_Laue_measured_fraction_max 0.999
_diffrn_reflns_limit_h_max       10
_diffrn_reflns_limit_h_min       -10
_diffrn_reflns_limit_k_max       12
_diffrn_reflns_limit_k_min       -12
_diffrn_reflns_limit_l_max       12
_diffrn_reflns_limit_l_min       -12
_diffrn_reflns_number            16287
_diffrn_reflns_point_group_measured_fraction_full 1.000
_diffrn_reflns_point_group_measured_fraction_max 0.999
_diffrn_reflns_theta_full        25.242
_diffrn_reflns_theta_max         26.403
_diffrn_reflns_theta_min         2.158
_diffrn_standards_number         0
_exptl_absorpt_coefficient_mu    0.083
_exptl_absorpt_correction_T_max  0.7454
_exptl_absorpt_correction_T_min  0.6769
_exptl_absorpt_correction_type   multi-scan
_exptl_absorpt_process_details
;
SADABS-2016/2 (Bruker,2016/2) was used for absorption correction.
wR2(int) was 0.0706 before and 0.0639 after correction.
The Ratio of minimum to maximum transmission is 0.9081.
The \l/2 correction factor is Not present.
;
_exptl_crystal_colour            colourless
_exptl_crystal_colour_primary    colourless
_exptl_crystal_density_diffrn    1.285
_exptl_crystal_description       block
_exptl_crystal_F_000             312
_exptl_crystal_recrystallization_method 'Re-crystallisation from solvent'
_exptl_crystal_size_max          0.2
_exptl_crystal_size_mid          0.15
_exptl_crystal_size_min          0.1
_refine_diff_density_max         0.194
_refine_diff_density_min         -0.235
_refine_diff_density_rms         0.052
_refine_ls_extinction_method     none
_refine_ls_goodness_of_fit_ref   1.032
_refine_ls_hydrogen_treatment    constr
_refine_ls_matrix_type           full
_refine_ls_number_parameters     208
_refine_ls_number_reflns         3176
_refine_ls_number_restraints     0
_refine_ls_restrained_S_all      1.032
_refine_ls_R_factor_all          0.1154
_refine_ls_R_factor_gt           0.0542
_refine_ls_shift/su_max          0.000
_refine_ls_shift/su_mean         0.000
_refine_ls_structure_factor_coef Fsqd
_refine_ls_weighting_details
'w=1/[\s^2^(Fo^2^)+(0.0445P)^2^+0.1358P] where P=(Fo^2^+2Fc^2^)/3'
_refine_ls_weighting_scheme      calc
_refine_ls_wR_factor_gt          0.1023
_refine_ls_wR_factor_ref         0.1276
_reflns_Friedel_coverage         0.000
_reflns_number_gt                1873
_reflns_number_total             3176
_reflns_threshold_expression     'I > 2\s(I)'
_cod_data_source_file            d1sc02168k2.cif
_cod_data_source_block           mo_0610_1_0m
_cod_database_code               1563948
_shelx_shelxl_version_number     2018/3
_shelx_space_group_comment
;
The symmetry employed for this shelxl refinement is uniquely defined
by the following loop, which should always be used as a source of
symmetry information in preference to the above space-group names.
They are only intended as comments.
;
_shelx_estimated_absorpt_t_max   0.992
_shelx_estimated_absorpt_t_min   0.984
_olex2_refinement_description
;
1. Fixed Uiso
 At 1.2 times of:
  All C(H) groups
2.a Aromatic/amide H refined with riding coordinates:
 C009(H009), C00A(H00A), C00C(H00C), C00D(H00D), C00E(H00E), C00F(H00F),
 C00G(H00G), C00H(H00H), C00I(H00I), C00J(H00J), C00K(H00K), C00L(H00L),
 C00M(H00M), C00N(H00N)
;
_shelx_res_file
;
TITL mo_0610_1_0m_a.res in P-1
    mo_0610_1_0m.res
    created by SHELXL-2018/3 at 08:37:07 on 10-Jun-2020
REM Old TITL mo_0610_1_0m in P-1
REM SHELXT solution in P-1: R1 0.168, Rweak 0.015, Alpha 0.040
REM <I/s> 0.000 for 0 systematic absences, Orientation as input
REM Formula found by SHELXT: C21 N F
CELL 0.71073 8.4617 9.9195 10.0112 106.884 104.687 91.445
ZERR 2 0.0008 0.0009 0.001 0.005 0.005 0.005
LATT 1
SFAC C H F N
UNIT 42 28 2 2

L.S. 4 0 0
PLAN  20
SIZE 0.2 0.15 0.1
TEMP -123.15
list 4
fmap 2 53
ACTA
REM <olex2.extras>
REM <HklSrc "%.\\mo_0610_1_0m.hkl">
REM </olex2.extras>

WGHT    0.044500    0.135800
FVAR       1.16085
F001  3    0.783009    0.802956    0.163991    11.00000    0.03508    0.03075 =
         0.05110    0.01492    0.01793    0.00065
N002  4    0.095461    0.375637    0.137317    11.00000    0.02829    0.03177 =
         0.04538    0.01010    0.00936    0.00717
C003  1    0.466708    0.249957    0.268847    11.00000    0.02345    0.02241 =
         0.02314    0.00487    0.00613    0.00447
C004  1    0.409336    0.358593    0.220340    11.00000    0.02150    0.02315 =
         0.02643    0.00520    0.00471    0.00390
C005  1    0.358213    0.121333    0.249232    11.00000    0.02077    0.02208 =
         0.03082    0.00799    0.00541    0.00531
C006  1    0.692787    0.694944    0.179232    11.00000    0.02804    0.02521 =
         0.02805    0.00959    0.00492   -0.00232
C007  1    0.233496    0.362938    0.171720    11.00000    0.03101    0.02049 =
         0.03086    0.00719    0.01027    0.00394
C008  1    0.642821    0.251601    0.342612    11.00000    0.02412    0.02402 =
         0.02603    0.00998    0.00795    0.00268
C009  1    0.652147    0.453441    0.162187    11.00000    0.02855    0.02611 =
         0.02795    0.01004    0.00945    0.01035
AFIX  43
H009  2    0.685175    0.360528    0.139878    11.00000   -1.20000
AFIX   0
C00A  1    0.553392    0.724402    0.223177    11.00000    0.02983    0.02386 =
         0.03138    0.00878    0.00919    0.00594
AFIX  43
H00A  2    0.520256    0.817318    0.242853    11.00000   -1.20000
AFIX   0
C00B  1    0.510954    0.477535    0.209189    11.00000    0.02507    0.02277 =
         0.02119    0.00554    0.00456    0.00221
C00C  1    0.462413    0.614395    0.237975    11.00000    0.02543    0.02662 =
         0.02941    0.00882    0.00907    0.00540
AFIX  43
H00C  2    0.365185    0.632169    0.268248    11.00000   -1.20000
AFIX   0
C00D  1    0.357677    0.072028    0.366349    11.00000    0.02525    0.03272 =
         0.03166    0.01089    0.00903    0.00538
AFIX  43
H00D  2    0.423781    0.123524    0.460630    11.00000   -1.20000
AFIX   0
C00E  1    0.727560    0.136428    0.293825    11.00000    0.02847    0.02595 =
         0.03306    0.00642    0.00921    0.00495
AFIX  43
H00E  2    0.670759    0.056373    0.215723    11.00000   -1.20000
AFIX   0
C00F  1    0.745214    0.562029    0.147341    11.00000    0.02314    0.03130 =
         0.03081    0.01271    0.00826    0.00573
AFIX  43
H00F  2    0.842059    0.545441    0.116184    11.00000   -1.20000
AFIX   0
C00G  1    0.727891    0.365898    0.461003    11.00000    0.02887    0.02600 =
         0.03083    0.00926    0.00874    0.00602
AFIX  43
H00G  2    0.672303    0.444976    0.496134    11.00000   -1.20000
AFIX   0
C00H  1    0.261447    0.042938    0.111823    11.00000    0.03027    0.02609 =
         0.03469    0.01048    0.00454    0.00357
AFIX  43
H00H  2    0.259337    0.075313    0.030976    11.00000   -1.20000
AFIX   0
C00I  1    0.892659    0.364867    0.527599    11.00000    0.03083    0.03461 =
         0.02960    0.00839    0.00501   -0.00173
AFIX  43
H00I  2    0.948597    0.441839    0.609696    11.00000   -1.20000
AFIX   0
C00J  1    0.262169   -0.050677    0.346607    11.00000    0.02601    0.03942 =
         0.05057    0.02639    0.01790    0.01075
AFIX  43
H00J  2    0.260888   -0.081824    0.427581    11.00000   -1.20000
AFIX   0
C00K  1    0.167979   -0.082197    0.091963    11.00000    0.02632    0.02875 =
         0.04567    0.00638    0.00114    0.00160
AFIX  43
H00K  2    0.103965   -0.135745   -0.002398    11.00000   -1.20000
AFIX   0
C00L  1    0.168143   -0.128662    0.209258    11.00000    0.02113    0.02833 =
         0.06357    0.02095    0.01020    0.00535
AFIX  43
H00L  2    0.103919   -0.213931    0.195820    11.00000   -1.20000
AFIX   0
C00M  1    0.892793    0.137543    0.357720    11.00000    0.02837    0.03938 =
         0.03939    0.01069    0.01088    0.01069
AFIX  43
H00M  2    0.949669    0.059822    0.321461    11.00000   -1.20000
AFIX   0
C00N  1    0.975880    0.251772    0.474628    11.00000    0.02601    0.04525 =
         0.03856    0.01569    0.00627    0.00498
AFIX  43
H00N  2    1.089652    0.252529    0.518352    11.00000   -1.20000
AFIX   0
HKLF 4




REM  mo_0610_1_0m_a.res in P-1
REM wR2 = 0.1276, GooF = S = 1.032, Restrained GooF = 1.032 for all data
REM R1 = 0.0542 for 1873 Fo > 4sig(Fo) and 0.1154 for all 3176 data
REM 208 parameters refined using 0 restraints

END

WGHT      0.0434      0.1379

REM Highest difference peak  0.194,  deepest hole -0.235,  1-sigma level  0.052
Q1    1   0.1567 -0.1928  0.3389  11.00000  0.05    0.19
Q2    1   0.2798  0.1003  0.1825  11.00000  0.05    0.19
Q3    1   0.9191  0.5965  0.6217  11.00000  0.05    0.18
Q4    1   0.8195  0.9477  0.1370  11.00000  0.05    0.18
Q5    1   0.1383 -0.1624 -0.0576  11.00000  0.05    0.17
Q6    1   0.1849  0.0983 -0.0403  11.00000  0.05    0.17
Q7    1   0.0116 -0.0936  0.0211  11.00000  0.05    0.17
Q8    1   0.8039  0.7611  0.3326  11.00000  0.05    0.17
Q9    1   0.6071  0.0602  0.2964  11.00000  0.05    0.17
Q10   1   0.7169  0.6605  0.5856  11.00000  0.05    0.17
Q11   1   0.0631  0.0390 -0.0848  11.00000  0.05    0.16
Q12   1   1.2749  0.3814  0.5675  11.00000  0.05    0.16
Q13   1   0.3942 -0.0426  0.5818  11.00000  0.05    0.16
Q14   1   0.8812  0.3307  0.2385  11.00000  0.05    0.16
Q15   1   0.2761 -0.0372  0.5739  11.00000  0.05    0.16
Q16   1   0.4005  0.2002  0.2702  11.00000  0.05    0.16
Q17   1  -0.0600  0.3769  0.0535  11.00000  0.05    0.16
Q18   1   0.2401 -0.0060  0.4754  11.00000  0.05    0.16
Q19   1   0.7414  0.6356  0.3146  11.00000  0.05    0.15
Q20   1   0.8827  0.5592  0.7002  11.00000  0.05    0.15
;
_shelx_res_checksum              46657
_shelx_hkl_file
;
  -1   0   0 1264.17   33.90
   1   0   0  997.20   32.40
   1   0   0 1219.58   32.10
   1   0   0 1255.27   30.30
  -2   0   0 2048.00   59.69
  -2   0   0 2088.39   53.49
  -2   0   0 2061.69   57.69
   2   0   0 1994.00   56.89
   2   0   0 2054.09   60.19
   2   0   0 1997.90   52.99
  -3   0   0    3.70    9.80
  -3   0   0    9.50    7.00
  -3   0   0   13.10    9.50
   3   0   0   -1.70   10.80
   3   0   0    5.70    7.10
  -4   0   0  133.69   20.60
  -4   0   0  172.18   21.60
  -4   0   0  151.58   17.60
   4   0   0  181.98   17.90
   4   0   0  189.78   25.40
   4   0   0  134.39   19.10
  -5   0   0  248.78   26.40
  -5   0   0  217.48   20.70
  -5   0   0  222.78   25.90
   5   0   0  225.58   29.90
   5   0   0  218.68   23.20
  -6   0   0   51.79   18.50
  -6   0   0   32.90   12.90
  -6   0   0   34.70   16.70
   6   0   0   37.50   15.30
   6   0   0   28.20   17.70
  -7   0   0   45.50   11.80
  -7   0   0   40.60   17.80
   7   0   0   26.20   15.60
   7   0   0   30.50   19.30
  -8   0   0  135.79   17.80
   8   0   0  180.78   35.20
  -9   0   0   33.60   11.70
  -9   0   0    7.70   22.70
  -9   0   0    1.30   10.10
   9   0   0   59.29   21.50
 -10   0   0   60.19   13.80
 -10   0   0   39.50   28.00
 -10   0   0   18.40   11.70
  10   0   0    8.80   20.80
  10  -1   0   -0.20   22.60
  10  -1   0    7.00   28.50
 -10   1   0   -7.20   13.60
 -10   1   0  -33.10   25.90
   9  -1   0   96.69   28.60
  -9   1   0   94.69   21.00
  -9   1   0  161.28   34.60
   8  -1   0   86.79   25.50
  -8   1   0  110.89   28.20
   7  -1   0   -1.40   14.80
   7  -1   0  -14.10   11.90
  -7   1   0   -9.60    8.40
  -7   1   0   -3.50   11.90
  -7   1   0    1.60   13.70
   6  -1   0   80.39   22.30
   6  -1   0   91.49   21.10
  -6   1   0   77.69   20.70
  -6   1   0   82.79   14.80
  -6   1   0   60.49   19.90
   5  -1   0  769.42   43.10
   5  -1   0  791.92   47.20
  -5   1   0  766.62   34.50
  -5   1   0  735.03   45.30
  -5   1   0  781.92   44.40
   4  -1   0  699.83   38.40
   4  -1   0  811.02   44.00
  -4   1   0  791.32   40.10
  -4   1   0  747.53   31.10
  -4   1   0  768.52   41.80
   3  -1   0   -8.80    7.80
   3  -1   0   -9.80    9.10
  -3   1   0    4.00    5.60
  -3   1   0    5.30   10.20
  -3   1   0   -7.30    9.00
   2  -1   0 4371.66  107.49
   2  -1   0 4360.46  108.39
  -2   1   0 4240.28  107.99
  -2   1   0 4282.17  106.79
   1  -1   0  980.10   30.60
   1  -1   0  929.61   29.60
   1  -1   0  923.41   29.40
  -1   1   0  977.40   29.80
  -1   1   0  925.11   29.50
  -1   1   0  952.60   30.50
   0  -1   0    1.40    3.90
   0  -1   0   28.40    5.40
   0  -1   0   13.10    4.30
   0   1   0    5.70    3.10
   0   1   0    0.10    3.20
   0   1   0   26.70    5.50
  -1  -1   0  243.58   13.30
   1   1   0  243.48   12.80
   1   1   0  244.28   14.50
  -2  -1   0  124.99   14.70
  -2  -1   0  120.99   12.40
   2   1   0  130.99   15.40
   2   1   0  104.29   13.00
   2   1   0  116.39   13.60
  -3  -1   0   95.59   16.00
  -3  -1   0   67.99   15.40
   3   1   0  108.09   15.00
   3   1   0   73.99   28.20
  -4  -1   0  232.98   24.00
  -4  -1   0  212.08   21.10
   4   1   0  240.88   22.70
   4   1   0  227.38   20.80
   4   1   0  227.58   24.80
  -5  -1   0   12.00    5.30
  -5  -1   0   10.00   11.50
   5   1   0    1.70    9.70
   5   1   0   -7.50   11.00
   5   1   0   10.30   10.00
  -6  -1   0    9.60    6.10
  -6  -1   0   -7.90   10.70
   6   1   0  -23.30    8.60
   6   1   0    9.40   10.40
   6   1   0    2.60   12.70
  -7  -1   0   20.10    7.20
  -7  -1   0   17.90    7.60
  -7  -1   0   17.10   23.00
   7   1   0   24.30   16.80
   7   1   0    2.60   13.50
  -8  -1   0  105.99   12.10
  -8  -1   0  117.79   12.70
   8   1   0   51.79   33.40
   8   1   0  136.89   32.30
  -9  -1   0   -1.00   18.60
  -9  -1   0   -6.80    5.00
  -9  -1   0   -4.30    4.80
   9   1   0    7.20   18.20
   9   1   0   20.20   20.60
 -10  -1   0   46.60   30.30
  10   1   0   62.99   27.80
  10  -2   0   -1.60   23.30
  10  -2   0    1.60   22.50
 -10   2   0   31.80   19.10
 -10   2   0   18.10   26.60
 -10   2   0    4.80   26.90
   9  -2   0    1.00   20.60
   9  -2   0    1.40   16.80
  -9   2   0   21.20   19.90
  -9   2   0  -34.00   12.50
  -9   2   0  -42.20   17.00
   8  -2   0   18.40   16.80
  -8   2   0    7.40   23.90
  -8   2   0   10.20   10.70
   7  -2   0    8.40   30.50
   7  -2   0   19.50   15.60
  -7   2   0   37.90   18.80
  -7   2   0    7.10   14.60
  -7   2   0   41.00   11.50
   6  -2   0  109.39   25.70
   6  -2   0   81.49   22.20
   6  -2   0  103.19   22.40
  -6   2   0  102.89   22.80
  -6   2   0  110.89   15.70
  -6   2   0  120.19   24.50
   5  -2   0  250.47   26.20
   5  -2   0  245.78   29.20
   5  -2   0  207.08   29.40
  -5   2   0  259.77   22.80
  -5   2   0  247.18   27.00
  -5   2   0  238.68   30.80
   4  -2   0   52.99   16.60
   4  -2   0   22.30   12.10
   4  -2   0   64.99   16.90
  -4   2   0   30.60   14.70
  -4   2   0   34.20   14.00
  -4   2   0   44.00    8.80
   3  -2   0   23.20   12.80
   3  -2   0   29.90   11.90
   3  -2   0   44.00   13.00
  -3   2   0   55.99   13.80
  -3   2   0   52.59   13.60
   2  -2   0 4334.47  108.29
   2  -2   0 3723.63  136.09
  -2   2   0 4360.56  108.49
  -2   2   0 4136.39  107.69
  -2   2   0 4552.04  111.49
   1  -2   0  674.23   29.50
   1  -2   0  679.53   27.50
   1  -2   0  667.73   27.40
  -1   2   0  733.63   29.30
  -1   2   0  663.93   27.60
   0  -2   0  168.58   15.00
   0  -2   0  163.18   15.00
   0  -2   0  194.88   15.80
   0   2   0  133.89   14.20
   0   2   0  146.89   13.00
   0   2   0  164.28   14.80
  -1  -2   0  285.47   18.90
  -1  -2   0  275.77   14.40
   1   2   0  271.47   14.40
   1   2   0  250.47   16.70
  -2  -2   0  246.88   17.60
   2   2   0  227.28   19.20
   2   2   0  251.77   18.30
  -3  -2   0   -4.50    8.70
   3   2   0   -0.50    8.80
  -4  -2   0   24.40   12.40
   4   2   0   14.80   11.60
   4   2   0   21.30   11.60
   4   2   0   22.50   11.40
  -5  -2   0  -14.50    8.40
   5   2   0   -0.90   10.20
   5   2   0    0.00   11.20
   5   2   0   33.00   12.80
  -6  -2   0   52.79   19.50
   6   2   0   76.49   18.70
   6   2   0   75.99   18.80
   6   2   0   74.59   21.60
   7   2   0   44.90   19.50
   7   2   0   75.59   19.10
   7   2   0   16.90   15.80
   8   2   0  407.66   45.10
  -9  -2   0  276.37   43.10
   9   2   0  406.26   54.69
   9   2   0  221.88   35.30
  10  -3   0   21.20   28.10
  10  -3   0   45.80   24.10
 -10   3   0   52.99   29.20
 -10   3   0   83.99   25.00
 -10   3   0   20.90   31.10
   9  -3   0   32.80   20.80
   9  -3   0   49.10   26.30
  -9   3   0   14.00   22.30
  -9   3   0   28.70   25.90
   8  -3   0   32.90   19.40
  -8   3   0   -9.40   17.20
  -8   3   0    9.50    9.40
   7  -3   0   13.00   15.20
   7  -3   0   -5.40   16.60
  -7   3   0    3.30   17.30
  -7   3   0   21.30    9.80
  -7   3   0   10.50   14.60
   6  -3   0   34.60   19.10
   6  -3   0   13.40   12.90
  -6   3   0   41.40   11.40
  -6   3   0   33.50   17.60
  -6   3   0   40.00   18.80
   5  -3   0  252.37   27.80
   5  -3   0  262.77   33.30
  -5   3   0  249.08   29.50
  -5   3   0  234.68   31.50
  -5   3   0  258.17   17.70
   4  -3   0  473.85   34.00
   4  -3   0  514.45   36.30
  -4   3   0  463.95   35.50
  -4   3   0  441.96   33.80
   3  -3   0  296.57   25.00
   3  -3   0  273.47   25.40
  -3   3   0  303.97   27.30
  -3   3   0  270.47   25.00
  -3   3   0  290.17   25.30
   2  -3   0  218.18   21.10
   2  -3   0  180.28   20.60
  -2   3   0  179.18   19.60
  -2   3   0  176.78   18.60
  -2   3   0  184.38   20.60
   1  -3   0  505.55   25.30
   1  -3   0  458.25   21.10
   1  -3   0  443.86   24.70
   1  -3   0  445.66   28.00
   1  -3   0  492.75   27.90
  -1   3   0  454.45   25.60
  -1   3   0  455.65   27.70
   0  -3   0   64.79   13.40
   0  -3   0   79.79   15.10
   0  -3   0   52.59   12.30
   0   3   0   59.99   12.90
   0   3   0   50.59   11.90
   0   3   0   47.70    9.90
  -1  -3   0  154.78   15.70
  -1  -3   0  141.69   15.20
   1   3   0  140.19   11.70
   1   3   0  142.29   15.30
   1   3   0  160.38   19.20
  -2  -3   0  187.68   19.50
  -2  -3   0  218.78   16.60
   2   3   0  155.78   19.10
   2   3   0  185.68   17.20
   2   3   0  201.98   16.20
  -3  -3   0   88.69   15.60
  -3  -3   0  107.39   18.80
   3   3   0   85.59   16.60
  -4  -3   0  313.47   26.90
   4   3   0  356.06   27.80
   4   3   0  282.77   26.30
  -5  -3   0    3.70   10.30
   5   3   0   -8.80    9.80
   5   3   0   -8.60   10.00
   5   3   0   -0.20   10.90
  -6  -3   0 1082.79   58.59
   6   3   0 1036.10   58.69
   6   3   0 1111.39   57.19
   6   3   0 1083.19   56.49
   7   3   0  465.05   41.20
   7   3   0  521.25   41.40
   7   3   0  572.44   47.10
  -8  -3   0   30.00   22.20
   8   3   0   15.40   20.60
   8   3   0   34.00   18.90
  -9  -3   0   15.90   20.10
   9   3   0  -26.80   20.50
   9   3   0   -7.90   17.20
   9  -4   0   42.60   23.50
   9  -4   0   36.90   25.00
  -9   4   0    9.70   23.10
  -9   4   0   32.90   27.60
   8  -4   0   45.50   21.20
  -8   4   0   19.10   19.50
  -8   4   0   49.90   22.20
  -8   4   0   28.10   10.60
   7  -4   0   -3.60   13.40
   7  -4   0  -12.00   13.10
  -7   4   0    9.00   17.80
  -7   4   0  -21.10   13.00
  -7   4   0   -2.30    6.90
   6  -4   0   82.39   22.30
   6  -4   0   80.39   21.30
  -6   4   0  128.39   27.20
  -6   4   0   61.29   16.10
  -6   4   0   83.09   24.60
   5  -4   0   -3.50   11.80
   5  -4   0   -0.10   11.70
  -5   4   0   -3.60   11.20
  -5   4   0   13.60   14.00
   4  -4   0  989.60   51.29
   4  -4   0 1058.19   54.69
  -4   4   0 1143.69   57.19
  -4   4   0 1164.08   54.89
   3  -4   0  904.81   47.00
   3  -4   0  913.41   44.30
  -3   4   0  951.40   45.10
  -3   4   0  865.91   47.10
  -3   4   0  978.10   45.70
   2  -4   0   50.89   13.60
   2  -4   0   48.60   10.90
   2  -4   0   39.70   13.00
  -2   4   0   39.50   14.90
  -2   4   0   47.90   12.40
  -2   4   0   40.90   14.20
   1  -4   0  386.86   26.00
   1  -4   0  435.66   28.20
   1  -4   0  430.86   22.60
   1  -4   0  392.96   29.30
  -1   4   0  360.46   43.60
  -1   4   0  447.66   30.50
   0  -4   0 1015.60   42.90
   0  -4   0 1047.00   45.20
   0  -4   0 1064.79   45.20
   0   4   0 1052.59   40.60
   0   4   0 1110.09   46.10
   0   4   0 1062.09   44.70
  -1  -4   0  286.17   43.70
  -1  -4   0  263.47   22.10
   1   4   0  271.57   25.20
   1   4   0  258.57   15.80
   1   4   0  239.38   21.40
  -2  -4   0 2324.47   66.09
  -2  -4   0 2323.17   78.09
   2   4   0 2350.96   66.19
   2   4   0 2399.56   81.29
   2   4   0 2281.37   72.69
   2   4   0 2352.66   77.29
  -3  -4   0  135.39   16.90
  -3  -4   0  153.38   23.90
   3   4   0  125.19   21.30
   3   4   0  139.49   21.40
   3   4   0  116.49   17.50
   3   4   0  118.59    8.70
  -4  -4   0   48.40   13.40
  -4  -4   0   51.89   16.60
   4   4   0   45.60   13.70
   4   4   0   36.80   14.60
  -5  -4   0  150.68   27.50
  -5  -4   0  151.68   23.90
   5   4   0  144.09   23.10
   5   4   0  125.09   23.00
   5   4   0  115.09   22.70
  -6  -4   0  278.17   38.10
  -6  -4   0  277.07   31.50
   6   4   0  351.96   36.40
   6   4   0  278.37   31.00
   6   4   0  325.87   35.20
  -7  -4   0   84.19   24.60
   7   4   0  102.39   24.10
   7   4   0   55.79   20.20
   7   4   0   79.79   23.60
  -8  -4   0  -31.20   12.50
   8   4   0  -32.10   14.50
   8   4   0   25.70   20.30
   8   4   0    2.30   17.30
  -9  -4   0   38.40   25.40
  -9  -4   0   26.50   21.40
   9   4   0   22.80   22.50
   9   4   0   29.60   25.70
   9   4   0  -10.40   21.80
   9  -5   0   36.80   27.60
   9  -5   0  -16.30   19.40
  -9   5   0   43.00   28.80
  -9   5   0   24.70   23.30
   8  -5   0    3.60   18.70
  -8   5   0  -14.90   17.70
  -8   5   0    4.60    8.60
  -8   5   0    8.30   19.70
   7  -5   0   21.00   20.00
   7  -5   0  -15.80   13.60
  -7   5   0   19.30   19.70
  -7   5   0   49.90   21.50
  -7   5   0   36.00    9.90
   6  -5   0 1473.75   78.59
   6  -5   0 1379.06   73.19
  -6   5   0 1483.35   77.69
   5  -5   0  172.58   29.60
   5  -5   0  212.98   31.60
  -5   5   0  198.98   30.70
  -5   5   0  187.08   31.20
   4  -5   0   51.39   16.60
   4  -5   0   19.90   14.30
  -4   5   0   54.79   17.50
  -4   5   0   21.70   13.90
  -4   5   0   20.50   15.30
   3  -5   0  293.07   29.20
   3  -5   0  249.08   26.50
  -3   5   0  312.07   30.20
  -3   5   0  276.57   26.70
  -3   5   0  243.68   24.10
   2  -5   0   51.99   11.40
   2  -5   0   74.89   18.90
   2  -5   0   42.70   14.50
   2  -5   0   73.59   19.00
   2  -5   0   62.59   15.40
  -2   5   0   51.69   12.80
  -2   5   0   77.19   17.30
  -2   5   0   79.09   19.30
   1  -5   0  242.38   25.10
   1  -5   0  201.58   21.40
   1  -5   0  287.67   28.10
  -1   5   0  277.67   25.80
  -1   5   0  242.38   26.40
   0  -5   0   14.50   11.00
   0  -5   0    1.30   10.00
   0  -5   0   -2.60   10.00
   0   5   0   24.70   10.90
   0   5   0   31.20   13.20
   0   5   0   19.90   12.50
  -1  -5   0   59.89   16.40
  -1  -5   0   67.39   16.60
   1   5   0   81.99   17.80
   1   5   0   80.09   16.10
   1   5   0   99.49   18.10
   1   5   0   62.69   10.10
  -2  -5   0  198.08   27.80
   2   5   0  220.88   26.20
   2   5   0  171.98   20.20
   2   5   0  228.68   24.50
   2   5   0  226.98   17.50
  -3  -5   0    4.00    7.70
  -3  -5   0    7.20   13.00
   3   5   0    2.40   13.60
   3   5   0   10.60    8.60
   3   5   0    7.00    9.30
   3   5   0   -7.30    6.50
   3   5   0   -1.30    5.00
  -4  -5   0  178.58   29.00
  -4  -5   0  198.18   21.70
   4   5   0  125.49   21.20
   4   5   0  189.88   22.00
   4   5   0  175.08   26.90
  -5  -5   0   55.99   16.50
  -5  -5   0   19.30   16.90
   5   5   0   26.30   13.30
   5   5   0   27.10   15.30
   5   5   0   65.39   18.00
  -6  -5   0  -17.10   10.60
   6   5   0   -4.70   14.10
   6   5   0    7.30   12.70
   6   5   0    6.30   15.90
  -7  -5   0  -21.70   24.60
  -7  -5   0   14.80   19.10
   7   5   0   -1.10   15.30
   7   5   0    2.30   17.20
  -8  -5   0   12.80   17.50
   8   5   0  -28.10   15.60
   8   5   0  -10.30   17.30
   8   5   0   39.60   19.80
   9  -6   0   43.10   27.10
   9  -6   0   56.49   28.80
  -9   6   0   37.00   25.10
  -9   6   0  -10.40   24.80
   8  -6   0    8.00   20.00
   8  -6   0   36.80   21.70
  -8   6   0   30.40   23.30
  -8   6   0   -2.00    8.60
  -8   6   0  -18.40   19.30
   7  -6   0   17.30   20.60
   7  -6   0   -7.50   18.50
  -7   6   0   22.50   20.30
  -7   6   0   27.90   20.10
  -7   6   0    2.70    7.20
   6  -6   0   21.10   16.70
   6  -6   0   15.20   17.20
  -6   6   0  -17.40   16.40
  -6   6   0  -20.60   13.40
   5  -6   0   81.99   27.10
   5  -6   0   39.00   17.90
  -5   6   0   68.09   23.30
  -5   6   0   94.49   23.30
   4  -6   0   16.10   12.40
   4  -6   0   13.40   13.90
  -4   6   0   31.50   14.20
  -4   6   0   -7.50   12.90
  -4   6   0  -25.30   10.20
   3  -6   0   56.09   19.20
   3  -6   0   85.59   20.90
   3  -6   0   76.29   18.20
   3  -6   0   71.99   16.70
  -3   6   0   64.59   15.50
  -3   6   0   71.79   19.70
  -3   6   0   62.49   18.50
   2  -6   0   38.80   17.40
   2  -6   0   79.69   20.50
   2  -6   0   55.09   15.50
  -2   6   0   70.39   19.20
  -2   6   0   33.20   11.80
  -2   6   0   78.29   19.20
   1  -6   0  314.77   29.30
   1  -6   0  329.87   28.80
   1  -6   0  322.87   31.40
  -1   6   0  360.26   31.20
  -1   6   0  327.57   31.50
   0  -6   0  159.28   25.30
   0  -6   0  186.88   27.90
   0  -6   0  176.08   25.40
   0   6   0  192.08   23.70
   0   6   0  149.59   24.00
   0   6   0  150.98   23.90
  -1  -6   0   54.39   16.50
  -1  -6   0   56.49   16.70
   1   6   0   34.90   16.50
   1   6   0   60.99   15.80
   1   6   0   47.80    9.70
   1   6   0   32.40   14.20
  -2  -6   0  367.06   33.50
   2   6   0  341.27   30.50
   2   6   0  393.46   35.00
   2   6   0  368.16   22.40
   2   6   0  350.96   31.70
   2   6   0  355.46   32.10
  -3  -6   0   -2.50   13.10
   3   6   0    8.20   10.90
   3   6   0    6.60   10.50
   3   6   0    0.50    8.00
   3   6   0    8.10   16.50
   3   6   0    3.80    7.30
  -4  -6   0   56.49   14.40
  -4  -6   0   64.39   23.90
   4   6   0   51.79   16.20
   4   6   0   44.90   21.10
   4   6   0   57.79   14.90
   4   6   0   36.20   16.60
   4   6   0   47.70    6.30
   4   6   0   44.10    6.40
  -5  -6   0    4.70   24.10
  -5  -6   0   -4.10   10.60
   5   6   0   10.90   12.30
   5   6   0   10.40   13.40
   5   6   0   21.60   13.10
   5   6   0   27.10   20.60
  -6  -6   0  243.28   32.50
  -6  -6   0  266.77   41.30
   6   6   0  245.68   32.70
   6   6   0  259.07   39.30
   6   6   0  237.98   28.80
   6   6   0  221.38   35.90
  -7  -6   0   37.20   23.40
  -7  -6   0   40.20   22.90
   7   6   0   38.30   20.50
   7   6   0   27.70   19.10
   7   6   0   18.80   14.00
   7   6   0   29.10   22.90
  -8  -6   0   -6.00   17.50
   8   6   0  -15.20   20.00
   8   6   0    2.20   15.10
   8   6   0    0.80   23.60
   8  -7   0   71.99   28.00
  -8   7   0   23.20   24.20
  -8   7   0    2.90   22.70
   7  -7   0    2.30   28.70
  -7   7   0   43.10   24.30
  -7   7   0   31.40   25.10
   6  -7   0   61.89   22.70
   6  -7   0   36.00   22.00
  -6   7   0   53.69   24.20
  -6   7   0   44.70   21.70
   5  -7   0  -16.40   11.40
   5  -7   0   12.80   11.30
   5  -7   0   -4.40   15.20
   5  -7   0    4.30   14.70
  -5   7   0   14.60   16.50
  -5   7   0   -0.20   14.20
  -5   7   0   18.10   16.00
   4  -7   0   28.10   16.10
   4  -7   0   53.99   14.00
   4  -7   0    7.10   14.40
   4  -7   0   51.29   18.50
  -4   7   0   41.10   19.30
  -4   7   0   19.80   14.20
  -4   7   0    7.70   13.90
   3  -7   0   13.40   13.00
   3  -7   0   24.50   10.70
   3  -7   0   46.50   18.90
  -3   7   0   -8.40   13.70
  -3   7   0   19.50   13.20
  -3   7   0   10.30   15.20
   2  -7   0  110.79   24.70
   2  -7   0  137.39   24.50
   2  -7   0   92.29   23.50
  -2   7   0  118.59   19.40
  -2   7   0  110.79   22.70
  -2   7   0  154.48   28.40
   1  -7   0   75.09   19.00
   1  -7   0   99.69   23.30
   1  -7   0   91.89   20.70
  -1   7   0   90.59   23.80
  -1   7   0   70.59   19.60
   0  -7   0  167.58   29.30
   0  -7   0  197.08   28.60
   0  -7   0  231.98   32.10
   0   7   0  197.18   28.80
   0   7   0  172.08   24.50
   0   7   0  182.98   28.70
  -1  -7   0   87.49   25.70
  -1  -7   0  143.29   25.40
   1   7   0   85.39   22.00
   1   7   0  100.79   22.50
   1   7   0  161.68   15.60
   1   7   0  120.99   23.10
  -2  -7   0    4.40   14.30
   2   7   0   -9.00    6.10
   2   7   0   10.80   15.30
   2   7   0   -6.60   12.20
   2   7   0    2.90   11.90
   2   7   0    4.40    9.60
  -3  -7   0  260.17   38.70
   3   7   0  220.78   30.10
   3   7   0  201.18   34.70
   3   7   0  221.28   20.30
   3   7   0  218.08   20.20
   3   7   0  251.97   33.50
  -4  -7   0   -1.00   16.50
   4   7   0    4.90    5.70
   4   7   0  -16.90    9.30
   4   7   0    7.60   16.80
   4   7   0   -2.80    5.40
   4   7   0   21.90   11.00
  -5  -7   0   28.20   13.90
  -5  -7   0   18.60   20.80
   5   7   0    2.10   11.30
   5   7   0   31.90   13.60
   5   7   0   30.90   19.80
  -6  -7   0    2.10   19.60
  -6  -7   0   -9.60   13.30
   6   7   0   -0.40   13.20
   6   7   0   14.20   20.10
   6   7   0    4.00   14.70
   6   7   0    1.10   19.40
  -7  -7   0   -1.10   18.60
  -7  -7   0    4.60   27.40
   7   7   0   -6.90   13.80
   7   7   0  -15.10   16.80
   7   7   0   15.20   18.80
   7   7   0   48.60   28.40
   7   7   0  -32.20   18.40
   8  -8   0   10.60   24.40
   8  -8   0  -20.00   22.50
   8  -8   0   22.90   28.80
  -8   8   0   10.10    9.00
  -8   8   0   -9.90   29.00
   7  -8   0   39.30   26.70
   7  -8   0   39.50   27.60
   7  -8   0   62.49   28.00
  -7   8   0   20.80   25.10
  -7   8   0   27.60   24.30
   6  -8   0   38.90   21.30
   6  -8   0   19.40   20.50
   6  -8   0   57.89   24.80
   6  -8   0   44.60   16.00
  -6   8   0   71.19   23.40
  -6   8   0   76.79   29.10
   5  -8   0   48.80   15.00
   5  -8   0   60.49   21.80
   5  -8   0   67.09   24.60
  -5   8   0   47.40   27.40
  -5   8   0   64.29   24.40
   4  -8   0    6.40   10.30
   4  -8   0   13.50   14.20
   4  -8   0    4.60   15.00
  -4   8   0    4.40   17.80
  -4   8   0   -7.90   15.80
  -4   8   0   -4.50   12.40
   3  -8   0    8.50    9.70
   3  -8   0   23.40   15.20
  -3   8   0    8.80   12.70
  -3   8   0   21.00   20.10
  -3   8   0    8.20   17.40
   2  -8   0  215.28   37.00
   2  -8   0  262.37   30.40
   2  -8   0  303.77   41.80
  -2   8   0  238.08   24.60
  -2   8   0  251.07   35.70
  -2   8   0  180.88   29.30
   1  -8   0  -10.70   14.90
   1  -8   0   16.30   17.00
   1  -8   0    1.10   12.30
  -1   8   0    7.40   17.00
  -1   8   0   21.10   16.60
   0  -8   0  308.67   40.40
   0  -8   0  253.97   37.90
   0   8   0  268.47   31.00
   0   8   0  275.77   36.30
   0   8   0  302.57   34.90
  -1  -8   0    7.70   14.60
   1   8   0  -11.10   11.90
   1   8   0   37.30   17.90
   1   8   0    9.80   14.30
   1   8   0    9.30    7.80
  -2  -8   0  226.78   38.00
   2   8   0  228.28   35.30
   2   8   0  268.57   35.40
   2   8   0  208.68   18.60
   2   8   0  320.67   37.10
  -3  -8   0   62.49   24.70
   3   8   0   42.80   17.30
   3   8   0   41.20   21.20
   3   8   0   30.20   17.30
   3   8   0   41.00   21.00
   3   8   0   16.40   18.70
   3   8   0   15.80   11.90
  -4  -8   0   35.40   21.10
   4   8   0   29.50   17.50
   4   8   0   48.90   22.10
   4   8   0   47.70   14.10
   4   8   0    5.00   19.90
  -5  -8   0   -2.20   18.30
   5   8   0   -4.60   13.70
   5   8   0   11.90   12.70
   5   8   0  -17.20   16.10
   5   8   0   -8.90   20.60
  -6  -8   0   28.60   23.20
   6   8   0   37.20   18.20
   6   8   0    1.90   14.30
   6   8   0  -30.00   22.30
   6   8   0   42.20   25.50
   7  -9   0   19.30   15.50
   7  -9   0   18.00   23.50
   7  -9   0    4.00   26.10
  -7   9   0    9.10   26.10
   6  -9   0   27.30   14.20
   6  -9   0   27.40   23.90
  -6   9   0   14.20   20.50
  -6   9   0   53.29   28.10
   5  -9   0   86.09   29.80
   5  -9   0   50.69   14.70
   5  -9   0   28.10   20.20
  -5   9   0   11.20   19.50
  -5   9   0   65.79   23.30
  -5   9   0   66.99   26.70
   4  -9   0  199.48   22.50
   4  -9   0  242.28   42.20
   4  -9   0  207.88   31.50
  -4   9   0  195.08   39.20
  -4   9   0  189.38   30.60
  -4   9   0  232.68   36.20
   3  -9   0   89.09   28.70
  -3   9   0  102.49   20.70
  -3   9   0   34.30   23.90
  -3   9   0   71.39   23.60
   2  -9   0  -10.30   16.00
   2  -9   0   43.40   18.70
   2  -9   0   37.00   21.00
  -2   9   0   11.90   17.40
  -2   9   0   18.00   11.90
  -2   9   0   23.80   21.20
   1  -9   0   50.69   21.40
   1  -9   0   72.49   26.40
  -1   9   0   69.29   23.90
  -1   9   0   87.69   25.70
  -1   9   0   98.19   16.00
   0  -9   0   28.40   18.90
   0  -9   0   27.50   24.10
   0   9   0   21.40   17.20
   0   9   0   29.10   19.00
   0   9   0   37.20   20.90
  -1  -9   0  199.08   39.00
   1   9   0  164.98   33.10
   1   9   0  210.98   17.90
   1   9   0  139.29   27.70
   1   9   0  213.48   42.60
   1   9   0  226.18   33.40
  -2  -9   0   42.20   24.60
   2   9   0   20.20    8.70
   2   9   0    0.00   16.90
   2   9   0   29.50   19.20
   2   9   0   54.29   23.00
  -3  -9   0   27.30   22.90
   3   9   0    0.20   11.60
   3   9   0   19.50   18.80
   3   9   0  -40.60   16.70
   3   9   0  -44.80   15.90
  -4  -9   0    7.80   18.40
   4   9   0   13.80   21.10
   4   9   0    9.90    9.80
   4   9   0    8.80   10.40
   4   9   0   24.20   21.20
   4   9   0  -15.20   19.40
   4   9   0   11.20   10.30
  -5  -9   0   11.70   20.50
   5   9   0   28.90   19.40
   5   9   0    1.70   11.80
   5   9   0   18.50   25.40
   5   9   0   11.30   16.90
   5   9   0  -17.80   23.40
   6 -10   0   38.40   26.90
   6 -10   0   31.80   24.90
   6 -10   0   29.40   13.60
  -6  10   0   42.80   24.60
  -6  10   0   46.10   30.90
   5 -10   0   34.30   25.80
  -5  10   0  -15.80   18.90
  -5  10   0   19.50   19.50
  -5  10   0  -18.90   16.40
   4 -10   0  -14.90   15.90
   4 -10   0   -5.40   17.50
  -4  10   0    8.20   21.80
  -4  10   0  -24.90   13.50
  -4  10   0   32.70   23.40
   3 -10   0   73.49   24.70
   3 -10   0  162.38   37.50
  -3  10   0   27.40   24.00
  -3  10   0   87.29   19.40
  -3  10   0  106.09   28.40
   2 -10   0    4.00   16.70
   2 -10   0   -6.70   15.10
   2 -10   0    0.70   16.80
  -2  10   0   16.20   18.10
  -2  10   0  -10.90   15.70
  -2  10   0   -1.80   11.30
   1 -10   0   -5.00   19.30
   1 -10   0   16.90   19.50
   1 -10   0  -19.40   14.30
  -1  10   0    2.00   10.20
  -1  10   0   20.10   18.70
  -1  10   0    1.80   19.70
   0 -10   0  157.88   36.30
   0 -10   0  234.28   39.80
   0  10   0  211.78   33.20
   0  10   0  192.88   18.90
   0  10   0  227.18   38.20
   0  10   0  225.88   39.20
   0  10   0  284.47   35.80
  -1 -10   0    7.40   21.00
   1  10   0   24.50   23.30
   1  10   0    6.10    7.00
   1  10   0    9.00   23.20
   1  10   0   28.40   16.00
   1  10   0   19.20   19.80
  -2 -10   0   31.40   24.30
   2  10   0   12.20   20.50
   2  10   0  -11.30   15.40
   2  10   0   16.10    6.30
   2  10   0   51.29   23.70
   2  10   0    4.20   19.60
   2  10   0   43.70   20.50
  -3 -10   0   35.80   24.40
   3  10   0   -1.50   23.20
   3  10   0  -45.30   16.70
   3  10   0   -9.20   22.50
   3  10   0    7.10    5.90
   3  10   0   -0.60   14.50
  -4 -10   0    2.00   19.40
   4  10   0  -36.80   24.50
   4  10   0    2.40   11.30
   4  10   0   -4.70   24.80
   4  10   0   25.20   11.80
   4  10   0    1.30   15.40
   4  10   0   -8.30   19.30
   4  10   0  -17.50   21.30
   4 -11   0  -25.90   22.00
   4 -11   0   15.30   22.60
  -4  11   0   -6.30   17.00
  -4  11   0   28.30   26.00
   3 -11   0  -39.70   19.20
   3 -11   0   90.19   26.30
  -3  11   0   10.80   16.10
  -3  11   0   71.09   32.60
  -3  11   0   17.70   24.60
   2 -11   0  -18.40   18.30
  -2  11   0  -19.20   19.20
  -2  11   0   18.10   13.20
  -2  11   0   16.60   17.60
  -2  11   0   -7.00   22.30
   1 -11   0   -3.80   19.40
   1 -11   0   26.50   22.00
  -1  11   0   14.90   25.70
  -1  11   0    4.40   11.10
  -1  11   0    6.00   10.10
  -1  11   0   -6.80   21.30
  -1  11   0   -4.00   16.60
   0 -11   0   35.90   23.10
   0 -11   0   71.99   30.30
   0  11   0   76.89   30.10
   0  11   0   58.49   15.00
   0  11   0   50.99   22.90
   0  11   0   70.39   26.50
  -1 -11   0   38.20   28.60
   1  11   0   43.70   26.40
   1  11   0   53.89   28.20
   1  11   0   27.20   22.40
   1  11   0    6.30   24.60
  -2 -11   0   18.20   26.10
   2  11   0  -25.00   22.50
   2  11   0   26.40   23.00
   2  11   0  -26.20   20.10
   2  11   0   -1.30   23.90
   2  11   0  -26.30   22.30
   0  12  -1   31.20   28.30
   0  12  -1   31.90   30.70
   0 -12   1   39.10   26.00
   0 -12   1  -24.10   20.00
  -1  12  -1   42.00   28.70
  -1  12  -1   -1.80   29.20
   1 -12   1   21.90   24.60
   1 -12   1   57.39   25.00
  -2  12  -1   70.29   31.50
  -2  12  -1   -5.00   25.00
   2 -12   1   20.90   25.30
   2 -12   1   28.10   24.00
   2 -12   1   31.80   25.40
   3  11  -1    3.50   23.60
   3  11  -1  -53.89   23.80
   3  11  -1   23.40   16.10
   3  11  -1  -14.80   15.70
   3  11  -1  -56.69   19.40
   3  11  -1    4.40   27.20
  -3 -11   1   25.80   26.70
   2  11  -1   32.00   25.30
   2  11  -1  -28.10   23.50
  -2 -11   1    4.50   21.30
   1  11  -1   27.00   26.60
   1  11  -1   14.90   18.70
   1  11  -1    1.70   23.90
   1  11  -1   -1.30   21.00
  -1 -11   1    7.50   22.90
   0  11  -1   44.10   25.20
   0  11  -1  -17.50   22.60
   0 -11   1   14.70   18.80
   0 -11   1  -16.30   19.20
  -1  11  -1   83.19   27.70
  -1  11  -1   64.19   25.90
  -1  11  -1   33.50   12.60
   1 -11   1   31.80   21.40
   1 -11   1   53.69   24.60
   1 -11   1   31.90   24.30
  -2  11  -1   32.90   21.90
  -2  11  -1  -14.20   21.10
  -2  11  -1   41.80   12.90
   2 -11   1    3.60   16.10
   2 -11   1   18.20   18.70
   2 -11   1   -8.90   18.70
  -3  11  -1  -13.50   20.10
  -3  11  -1   43.40   28.50
  -3  11  -1   26.70   14.10
   3 -11   1   51.19   24.50
   3 -11   1   24.10   21.60
  -4  11  -1   27.20   30.50
  -4  11  -1   17.90   16.80
  -4  11  -1   21.10   22.80
   4 -11   1    0.00   22.30
   4 -11   1   -8.40   23.80
  -5  11  -1   39.20   24.40
  -5  11  -1  -28.40   24.30
  -5  11  -1  -19.50   19.60
   5 -11   1   59.99   29.10
   5 -11   1   19.60   23.10
   5  10  -1   23.80   28.10
   5  10  -1   -6.20   19.10
   5  10  -1   13.40    3.80
  -5 -10   1   10.90   22.50
   4  10  -1   20.70   12.90
   4  10  -1   -4.20   21.60
   4  10  -1   17.20   11.50
   4  10  -1   13.10   19.20
   4  10  -1  -32.30   22.70
  -4 -10   1   -3.40   20.20
   3  10  -1   72.69   26.90
   3  10  -1   76.39   24.00
   3  10  -1   64.39   24.00
  -3 -10   1    1.50   22.10
   2  10  -1   22.00   20.20
   2  10  -1    4.60   27.00
   2  10  -1   21.30   20.00
   2  10  -1  -35.60   15.10
  -2 -10   1   23.20   24.30
   1  10  -1  -13.30   17.40
   1  10  -1  -24.80   18.70
   1  10  -1    1.90   15.30
  -1 -10   1    5.20   23.90
  -1 -10   1    4.10   16.00
   0  10  -1   23.50    5.40
   0  10  -1   17.50   22.50
   0  10  -1   10.00   15.30
   0  10  -1   28.10    5.60
   0  10  -1   22.20   22.10
   0 -10   1   24.30   21.20
   0 -10   1   13.60   22.70
  -1  10  -1    4.70   18.20
  -1  10  -1    7.80    8.60
  -1  10  -1   -8.40   18.30
   1 -10   1   16.00   19.60
   1 -10   1   -7.50   15.70
   1 -10   1    1.00   17.40
  -2  10  -1   -7.00   19.60
  -2  10  -1    2.00   10.70
  -2  10  -1    1.10   19.50
   2 -10   1    1.80   14.80
   2 -10   1    7.10   16.20
   2 -10   1   22.10   23.00
  -3  10  -1   35.60   24.70
  -3  10  -1   10.20   14.30
  -3  10  -1    7.70   21.40
   3 -10   1   22.90   21.30
   3 -10   1   11.10   22.00
  -4  10  -1   13.60   21.40
  -4  10  -1   50.49   26.40
  -4  10  -1   29.60   18.80
   4 -10   1   11.60   23.20
  -5  10  -1  -20.50   16.90
  -5  10  -1  -17.80   16.20
  -5  10  -1  -31.20   19.00
   5 -10   1    2.00   19.10
   5 -10   1   24.10   19.60
  -6  10  -1   30.10   21.10
   6 -10   1   34.10   25.10
   6 -10   1   -6.10   24.00
   6   9  -1   -9.10   23.30
  -6  -9   1   21.00   22.60
   5   9  -1   74.99   27.90
  -5  -9   1   19.00   22.30
   4   9  -1   45.40   21.60
   4   9  -1  -38.10   18.20
   4   9  -1  -37.30   16.30
   4   9  -1    1.70    9.90
   4   9  -1   -4.90    9.30
  -4  -9   1  -11.00   16.40
   3   9  -1   -0.40   17.40
   3   9  -1    1.60   15.70
   3   9  -1    0.20   17.70
  -3  -9   1   -4.80   18.90
   2   9  -1  149.39   33.10
   2   9  -1  139.99   27.70
   2   9  -1  161.08   28.90
  -2  -9   1  175.98   36.50
   1   9  -1  435.46   79.39
   1   9  -1  426.96   44.00
   1   9  -1  451.95   39.00
  -1  -9   1  392.56   39.10
  -1  -9   1  429.76   44.60
   0   9  -1  886.51   61.29
   0   9  -1  847.12   58.59
   0   9  -1  921.61   49.10
   0   9  -1  853.91   30.10
   0   9  -1  857.31   30.50
   0  -9   1  921.11   60.79
   0  -9   1  936.21   59.69
   0  -9   1  790.32   55.69
  -1   9  -1   32.00   10.40
  -1   9  -1   21.70   18.30
  -1   9  -1  -11.30   17.10
   1  -9   1   49.60   23.90
   1  -9   1   41.50   20.50
  -2   9  -1   -7.50   14.80
  -2   9  -1   29.00   19.30
  -2   9  -1    8.50    9.70
   2  -9   1   27.80   21.10
   2  -9   1   14.50   16.70
   2  -9   1  -10.80   15.30
  -3   9  -1    7.90   19.10
  -3   9  -1    3.00   11.20
  -3   9  -1  -16.90   10.30
   3  -9   1    6.50   17.60
   3  -9   1   -5.40   13.70
  -4   9  -1  205.68   30.10
  -4   9  -1  242.28   39.20
  -4   9  -1  105.29   28.00
   4  -9   1  147.09   31.20
   4  -9   1  197.88   38.70
  -5   9  -1   -0.10   17.40
  -5   9  -1   23.00   22.20
  -5   9  -1   -3.20   15.20
   5  -9   1   11.50   16.70
  -6   9  -1   -0.20   19.60
  -6   9  -1   27.10   21.20
   6  -9   1   38.90   24.40
   6  -9   1   13.50   10.00
   6  -9   1    8.10   20.50
  -7   9  -1  197.18   38.40
  -7   9  -1   95.29   37.80
   7  -9   1  143.79   21.40
   7  -9   1  137.79   38.00
   7   8  -1  -53.59   25.70
   7   8  -1  -10.10   12.90
   7   8  -1   -7.80   26.30
   7   8  -1  -32.50   20.70
  -7  -8   1    5.10   16.00
  -7  -8   1    1.10   22.30
   6   8  -1    2.90   12.10
   6   8  -1   22.30   25.70
   6   8  -1   12.40   19.70
  -6  -8   1    3.80   19.40
   5   8  -1   26.70   23.00
   5   8  -1   30.30   15.30
  -5  -8   1   25.60   22.80
   4   8  -1  122.09   15.40
   4   8  -1  100.29   14.70
   4   8  -1  112.29   29.80
  -4  -8   1  106.99   27.60
   3   8  -1    6.30    5.00
   3   8  -1   -7.20   13.10
   3   8  -1   -1.40   19.30
  -3  -8   1   19.10   20.90
   2   8  -1   10.60   15.80
   2   8  -1  -21.20   11.80
   1   8  -1  330.47   32.60
   1   8  -1  309.47   36.00
   1   8  -1  363.76   37.50
   1   8  -1  303.57   11.10
  -1  -8   1  272.77   38.70
  -1  -8   1  326.97   33.90
   0   8  -1  454.75   21.80
   0   8  -1  457.55   33.70
   0   8  -1  570.84   45.30
   0   8  -1  493.75   44.70
   0   8  -1  489.85   22.10
   0  -8   1  450.55   42.70
   0  -8   1  540.05   41.90
   0  -8   1  467.75   41.30
  -1   8  -1   11.10    8.20
  -1   8  -1    5.00   14.60
  -1   8  -1   41.00   17.70
   1  -8   1   -2.80   12.90
   1  -8   1    5.00   15.10
   1  -8   1   15.80   18.80
  -2   8  -1   21.80   11.10
  -2   8  -1    3.50   14.10
  -2   8  -1   10.50   16.20
   2  -8   1    1.50   15.10
   2  -8   1   31.00   16.20
   2  -8   1   -4.00   14.70
  -3   8  -1   40.80   14.10
  -3   8  -1   35.90   18.40
   3  -8   1   55.79   18.60
   3  -8   1   35.70   18.50
  -4   8  -1   26.40   18.40
  -4   8  -1   41.90   16.70
  -4   8  -1   -0.20   14.80
   4  -8   1   23.20   17.40
   4  -8   1    4.30    7.80
  -5   8  -1   21.40   21.10
  -5   8  -1    2.50   20.00
  -5   8  -1   -9.90   16.80
   5  -8   1   12.30    9.40
   5  -8   1   23.50   17.30
  -6   8  -1   54.59   22.30
  -6   8  -1    3.70   19.80
   6  -8   1   27.50   19.00
   6  -8   1   11.30   10.90
  -7   8  -1   16.30   21.60
  -7   8  -1   24.40   27.10
   7  -8   1   43.20   24.30
   7  -8   1    1.20   20.10
  -8   8  -1   36.80   26.70
  -8   8  -1   16.90   11.40
  -8   8  -1    7.60   23.80
   8  -8   1   24.00   25.60
   7   7  -1  114.99   32.30
   7   7  -1   85.59   27.80
   7   7  -1  155.28   36.60
   7   7  -1  134.79   21.80
  -7  -7   1  139.99   36.20
  -7  -7   1  102.49   23.90
   6   7  -1  122.99   27.30
   6   7  -1  100.49   19.40
   6   7  -1  108.39   21.00
   6   7  -1  101.89   32.70
  -6  -7   1  144.29   34.90
  -6  -7   1  126.89   22.00
   5   7  -1  263.07   41.70
   5   7  -1  197.38   22.50
   5   7  -1  142.89   21.70
  -5  -7   1  153.78   34.00
  -5  -7   1  164.88   21.60
   4   7  -1    1.40    7.40
   4   7  -1    0.90   10.90
  -4  -7   1  -12.70   14.80
   3   7  -1   25.30    7.50
   3   7  -1   13.20   18.90
  -3  -7   1   -3.90   14.30
   2   7  -1  152.08   28.10
   2   7  -1  159.18   10.00
  -2  -7   1  166.28   30.90
   1   7  -1  626.54   20.10
   1   7  -1  708.53   47.70
   1   7  -1  594.64   37.80
  -1  -7   1  620.64   40.90
  -1  -7   1  647.24   45.50
   0   7  -1  134.29   24.90
   0   7  -1  112.29   24.20
   0   7  -1  127.99   11.70
   0   7  -1  110.19   18.10
   0  -7   1  137.29   25.00
   0  -7   1   69.49   20.20
   0  -7   1  102.59   24.40
  -1   7  -1  157.28   27.30
  -1   7  -1  166.08   28.20
   1  -7   1  155.78   28.60
   1  -7   1  169.18   29.00
   1  -7   1  164.58   26.80
  -2   7  -1    4.90    8.00
  -2   7  -1   -9.80   12.10
  -2   7  -1   10.10   12.10
   2  -7   1    8.80   13.10
   2  -7   1  -13.70    9.80
   2  -7   1   -3.90   12.90
  -3   7  -1   43.20   19.30
  -3   7  -1   52.99   15.70
  -3   7  -1   37.20   19.20
   3  -7   1   31.50    8.60
   3  -7   1   19.80   16.00
  -4   7  -1   -5.50   10.00
  -4   7  -1    5.30   15.80
  -4   7  -1   -2.50   14.40
   4  -7   1   -4.10   11.90
   4  -7   1   16.90    8.60
   4  -7   1   -5.60   12.30
  -5   7  -1   89.49   25.30
  -5   7  -1   91.79   22.70
  -5   7  -1   72.99   26.50
   5  -7   1   94.19   25.40
  -6   7  -1    2.00   20.80
  -6   7  -1   -0.20   16.20
   6  -7   1   22.50   19.10
   6  -7   1  -14.40   12.80
  -7   7  -1    9.50   20.70
  -7   7  -1   19.90   20.60
   7  -7   1    6.50   17.00
   7  -7   1   -0.80   22.30
  -8   7  -1    6.50    9.70
  -8   7  -1    5.70   22.10
  -8   7  -1   24.50   23.40
   8  -7   1   20.90   25.90
   8  -7   1    9.20   20.60
   8   6  -1   14.80   23.30
   8   6  -1    7.90   11.60
   8   6  -1   21.80   23.90
  -8  -6   1  -12.20   17.10
  -8  -6   1   15.90   21.00
   7   6  -1   14.50   11.40
   7   6  -1   40.00   20.50
   7   6  -1  -22.20   18.60
  -7  -6   1   20.00   21.80
  -7  -6   1   29.00   16.70
   6   6  -1    6.90   19.80
   6   6  -1    4.50    9.90
   6   6  -1   -6.70   11.40
  -6  -6   1   18.90   12.60
  -6  -6   1   19.10   19.70
   5   6  -1    0.90   21.50
   5   6  -1   17.40   10.00
   5   6  -1   -6.30   11.70
   5   6  -1    8.00   10.20
  -5  -6   1   -6.20   15.60
  -5  -6   1    8.20   10.10
   4   6  -1    0.20    5.20
   4   6  -1    3.30   11.10
   4   6  -1   -3.80   15.50
   4   6  -1   -4.80    7.90
   4   6  -1    1.00    8.50
  -4  -6   1    5.10    7.70
  -4  -6   1   -7.50   13.10
   3   6  -1  248.68   23.50
   3   6  -1  229.38   29.30
   3   6  -1  279.67   27.90
   3   6  -1  280.77   33.60
   3   6  -1  250.67   17.60
  -3  -6   1  251.77   34.80
   2   6  -1   36.90    6.30
   2   6  -1   52.29   18.60
  -2  -6   1   38.40   17.30
   1   6  -1  324.27   26.80
   1   6  -1  356.66   32.50
   1   6  -1  320.57   13.00
  -1  -6   1  344.37   30.80
  -1  -6   1  344.17   30.70
  -1  -6   1  338.27   27.50
   0   6  -1    2.80    8.20
   0   6  -1    4.80    4.80
   0   6  -1   17.80   13.80
   0   6  -1    6.30   11.40
   0  -6   1   17.10   12.20
   0  -6   1   10.50   11.50
   0  -6   1   17.20   11.80
  -1   6  -1  637.04   29.30
  -1   6  -1  642.44   41.80
  -1   6  -1  710.73   44.30
   1  -6   1  633.04   38.80
   1  -6   1  651.43   40.20
   1  -6   1  694.73   43.00
  -2   6  -1  150.18   25.60
  -2   6  -1  149.29   19.50
  -2   6  -1  133.39   23.60
   2  -6   1  163.98   25.00
   2  -6   1  184.78   26.80
  -3   6  -1    0.70    9.70
  -3   6  -1    3.30   12.40
  -3   6  -1   17.40   14.00
   3  -6   1   -1.10    9.00
   3  -6   1    1.20    6.10
   3  -6   1   -2.50   10.50
  -4   6  -1    8.30   12.20
  -4   6  -1   -7.90   12.50
  -4   6  -1    9.90   14.80
   4  -6   1   10.20   14.20
   4  -6   1  -11.20   11.30
  -5   6  -1  192.18   33.60
  -5   6  -1  276.07   32.40
   5  -6   1  259.37   43.80
   5  -6   1  236.68   35.20
  -6   6  -1   97.89   26.60
  -6   6  -1  116.39   32.90
   6  -6   1   95.79   25.70
   6  -6   1   99.19   23.80
  -7   6  -1   14.50   17.20
  -7   6  -1   24.10   19.50
   7  -6   1    3.00   18.50
  -8   6  -1   89.29   16.50
  -8   6  -1  152.78   35.00
  -8   6  -1   29.70   24.70
   8  -6   1   73.99   28.10
   8  -6   1   77.19   29.00
  -9   6  -1   18.00   12.20
  -9   6  -1  -14.70   24.50
  -9   6  -1  -21.80   22.50
   9  -6   1   -2.70   25.50
   9   5  -1   14.60   21.30
  -9  -5   1   27.60   22.50
  -9  -5   1   24.50   21.70
   8   5  -1   20.50   20.10
   8   5  -1   18.10   18.50
  -8  -5   1   30.40   22.20
  -8  -5   1   36.30   17.80
   7   5  -1  299.37   37.40
   7   5  -1  246.58   24.50
   7   5  -1  175.58   31.00
  -7  -5   1  156.88   27.30
  -7  -5   1  189.48   35.40
   6   5  -1   19.50   15.20
   6   5  -1   15.80   10.80
   6   5  -1   10.60   16.30
   6   5  -1   21.60   14.40
  -6  -5   1   23.00   14.00
   5   5  -1   49.60   14.70
   5   5  -1   27.40   10.90
   5   5  -1   40.00   16.00
  -5  -5   1   23.00   13.00
  -5  -5   1   17.90   18.00
   4   5  -1   23.20   10.50
   4   5  -1   21.90   17.10
   4   5  -1    8.50    8.70
   4   5  -1   26.30    4.30
   4   5  -1   32.80   15.10
  -4  -5   1   47.80   11.90
  -4  -5   1   38.70   18.30
   3   5  -1  456.35   38.00
   3   5  -1  437.46   21.70
   3   5  -1  512.85   25.00
   3   5  -1  432.86   26.80
  -3  -5   1  466.35   35.40
  -3  -5   1  498.05   24.30
   2   5  -1  193.78   27.00
   2   5  -1  157.38   17.70
   2   5  -1  152.08   11.00
  -2  -5   1  139.49   23.30
   1   5  -1   77.39   18.80
   1   5  -1  112.79    7.30
  -1  -5   1   89.19   18.90
  -1  -5   1  106.89   17.80
  -1  -5   1  124.99   21.30
   0   5  -1   -0.40    6.70
   0   5  -1    6.20    4.60
   0   5  -1   15.20   13.40
   0  -5   1   12.80   11.50
   0  -5   1    4.70   11.60
   0  -5   1    1.60    9.50
  -1   5  -1  209.58   23.80
  -1   5  -1  194.48   25.10
  -1   5  -1  203.48   16.00
   1  -5   1  220.78   23.70
   1  -5   1  220.08   23.20
  -2   5  -1  161.18   17.70
  -2   5  -1  171.58   26.00
  -2   5  -1  125.39   22.40
   2  -5   1  172.98   24.10
   2  -5   1  146.29   21.80
   2  -5   1  146.69   11.90
  -3   5  -1  457.85   36.00
  -3   5  -1  452.35   31.70
  -3   5  -1  471.35   36.20
   3  -5   1  446.16   34.20
   3  -5   1  432.16   35.00
  -4   5  -1   81.19   19.10
  -4   5  -1  105.29   23.50
  -4   5  -1   75.89   20.20
   4  -5   1   97.69   21.30
   4  -5   1   62.79   19.20
  -5   5  -1    1.80   12.70
  -5   5  -1  -10.60   10.00
   5  -5   1    3.60   15.20
   5  -5   1    7.30   11.10
  -6   5  -1 1247.68   69.99
  -6   5  -1 1330.77   82.39
   6  -5   1 1285.37  103.79
   6  -5   1 1087.69   81.59
  -7   5  -1  130.59   18.70
  -7   5  -1  102.49   26.50
  -7   5  -1  147.39   30.60
   7  -5   1  101.79   27.20
   7  -5   1  126.09   31.40
  -8   5  -1   88.89   28.20
  -8   5  -1   48.90   24.50
  -8   5  -1   52.49   14.80
   8  -5   1   66.79   25.90
   8  -5   1   59.39   25.00
  -9   5  -1  168.88   39.20
  -9   5  -1   98.09   18.30
  -9   5  -1  105.19   32.60
   9  -5   1  113.29   32.30
   9   4  -1  -47.40   17.70
   9   4  -1   -0.90   18.80
  -9  -4   1   -3.10   20.40
   8   4  -1   30.50   23.80
  -8  -4   1  112.49   26.60
   7   4  -1   28.40   18.90
   7   4  -1   40.40   17.80
   7   4  -1   36.20   18.60
  -7  -4   1   42.70   19.00
   6   4  -1  236.28   32.50
   6   4  -1  256.97   33.10
   6   4  -1  320.47   32.00
  -6  -4   1  238.48   31.30
   5   4  -1   40.90   17.00
   5   4  -1   50.09   15.00
   5   4  -1   42.90   15.50
  -5  -4   1   36.30   13.50
   4   4  -1   84.59   13.20
   4   4  -1  110.39   18.70
   4   4  -1  111.99   17.10
  -4  -4   1   86.19   15.00
   3   4  -1  586.34   27.60
   3   4  -1  571.44   39.00
   3   4  -1  595.64   21.80
   3   4  -1  596.14   28.10
  -3  -4   1  568.14   36.30
  -3  -4   1  583.24   27.70
   2   4  -1    3.10    7.20
   2   4  -1    7.00   12.70
   2   4  -1   -1.20    4.40
  -2  -4   1    3.50   10.30
  -2  -4   1    3.90    5.00
   1   4  -1  762.82   20.40
   1   4  -1  913.41   42.00
  -1  -4   1  792.12   38.00
  -1  -4   1  814.72   40.20
  -1  -4   1  779.22   34.50
   0   4  -1   40.20   13.10
   0   4  -1   43.70    5.90
   0   4  -1   50.39    9.10
   0  -4   1   39.30   13.20
   0  -4   1   53.59   14.30
   0  -4   1   39.70   12.20
  -1   4  -1  566.24   25.50
  -1   4  -1  613.24   34.20
  -1   4  -1  655.93   35.30
   1  -4   1  568.94   36.10
   1  -4   1  575.94   33.10
  -2   4  -1 1838.82   66.79
  -2   4  -1 1723.73   58.39
  -2   4  -1 1781.62   65.09
   2  -4   1 1724.23   64.39
   2  -4   1 1756.52   64.89
  -3   4  -1  146.69   23.00
  -3   4  -1  176.68   24.90
  -3   4  -1  185.98   23.90
   3  -4   1  139.29   21.90
   3  -4   1  158.88   23.30
  -4   4  -1  -15.50    8.20
  -4   4  -1   -4.80   10.30
   4  -4   1   16.00   13.30
   4  -4   1  -24.50    9.90
   4  -4   1   16.90   12.20
  -5   4  -1    1.00   13.70
  -5   4  -1   -2.20    9.40
   5  -4   1   -6.80    8.80
   5  -4   1   21.30   15.80
   5  -4   1   -9.90    9.60
  -6   4  -1  121.69   27.30
  -6   4  -1   85.29   24.80
  -6   4  -1   91.19   15.50
   6  -4   1   94.79   23.70
   6  -4   1  101.09   26.50
  -7   4  -1   39.30   18.30
  -7   4  -1   -8.90   15.70
  -7   4  -1   -3.00    9.40
   7  -4   1  -17.60   13.80
   7  -4   1   15.60   16.60
  -8   4  -1    6.50   10.20
  -8   4  -1   -0.70   19.10
  -8   4  -1  -19.80   16.10
   8  -4   1  -11.80   16.30
   8  -4   1    9.30   18.70
  -9   4  -1  -35.70   11.20
  -9   4  -1  -29.30   20.40
  -9   4  -1   31.70   26.10
   9  -4   1   17.00   24.40
   9  -4   1    1.90   19.70
   9   3  -1   57.79   25.10
  -9  -3   1  110.79   31.50
   8   3  -1   51.29   21.00
   8   3  -1   46.20   19.60
  -8  -3   1   53.39   21.50
   7   3  -1    2.10   12.60
   7   3  -1    0.90   14.30
   7   3  -1    8.30   15.40
  -7  -3   1   -3.50   13.30
   6   3  -1   25.90   15.70
   6   3  -1    9.70   13.10
   6   3  -1   12.50   13.40
  -6  -3   1   21.30   13.80
   5   3  -1    1.10   10.40
   5   3  -1   10.20   11.90
   5   3  -1    4.70   11.20
  -5  -3   1   -8.30    8.90
   4   3  -1  639.84   35.00
   4   3  -1  653.83   36.20
  -4  -3   1  599.04   33.40
   3   3  -1  651.53   20.10
   3   3  -1  711.83   31.60
  -3  -3   1  694.93   31.30
   2   3  -1   84.59   10.20
   2   3  -1  102.19   17.10
   2   3  -1   91.49   10.10
   2   3  -1  101.89   10.70
  -2  -3   1   97.69   10.70
  -2  -3   1  120.19   18.00
   1   3  -1  430.96   27.30
   1   3  -1  374.16   11.10
  -1  -3   1  408.76   26.20
  -1  -3   1  398.66   24.10
  -1  -3   1  408.36   20.40
   0   3  -1  285.77   21.60
   0   3  -1  225.38   10.40
   0  -3   1  233.38   17.90
   0  -3   1  235.98   20.80
  -1   3  -1  989.30   39.50
  -1   3  -1  985.80   40.00
  -1   3  -1  866.61   31.80
   1  -3   1  904.51   24.20
   1  -3   1  962.60   35.10
   1  -3   1  939.31   32.60
   1  -3   1  906.71   46.00
  -2   3  -1   43.20   12.30
  -2   3  -1   27.30   12.70
  -2   3  -1   39.20   13.70
   2  -3   1   38.20   11.80
   2  -3   1   49.90   14.10
   2  -3   1   37.60   12.10
  -3   3  -1  191.88   22.60
  -3   3  -1  225.98   25.60
  -3   3  -1  210.38   22.80
   3  -3   1  217.18   23.90
   3  -3   1  214.38   24.30
   3  -3   1  243.78   23.30
  -4   3  -1   -0.70    9.20
  -4   3  -1    8.20   11.10
   4  -3   1   -8.00   10.80
   4  -3   1   -6.40   10.90
   4  -3   1    7.80   10.20
  -5   3  -1   30.20   16.10
  -5   3  -1   35.80   16.70
   5  -3   1   36.20   17.10
   5  -3   1   31.00   14.10
   5  -3   1   25.10   15.20
  -6   3  -1  432.36   28.60
  -6   3  -1  475.15   41.40
  -6   3  -1  387.86   36.70
   6  -3   1  458.65   41.80
   6  -3   1  452.15   41.60
   6  -3   1  411.26   37.40
  -7   3  -1   28.00   18.00
  -7   3  -1   47.30   13.40
   7  -3   1   64.59   21.20
   7  -3   1   45.90   19.40
   7  -3   1   40.00   20.60
  -8   3  -1   -9.30   20.40
  -8   3  -1    0.00   10.60
   8  -3   1    7.40   23.90
   8  -3   1   15.80   17.60
  -9   3  -1   14.10   20.70
  -9   3  -1   -3.90   13.00
   9  -3   1   42.10   24.00
   9  -3   1   14.60   18.20
  10   2  -1   18.90   25.00
 -10  -2   1  -28.70   23.80
   9   2  -1   -7.90   18.00
  -9  -2   1  -23.10   16.20
   8   2  -1  106.99   22.90
   8   2  -1   58.69   22.70
  -8  -2   1   83.09   24.90
   7   2  -1   -5.80   11.60
   7   2  -1   35.60   19.50
   7   2  -1   -4.80   11.50
  -7  -2   1  -11.20   14.20
  -7  -2   1    0.90    3.30
   6   2  -1   36.30   17.80
   6   2  -1   55.69   18.80
   6   2  -1   25.70   12.80
  -6  -2   1   33.00    5.40
  -6  -2   1   37.60   16.10
   5   2  -1  395.46   32.30
   5   2  -1  393.26   31.60
   5   2  -1  386.76   28.20
  -5  -2   1  378.46   14.60
  -5  -2   1  364.26   29.70
   4   2  -1    5.20    9.20
   4   2  -1   32.60   12.40
   4   2  -1   10.70   12.10
  -4  -2   1   14.30   10.90
  -4  -2   1   18.20    4.10
   3   2  -1  821.02   22.50
   3   2  -1  801.12   35.10
   3   2  -1  868.21   35.80
  -3  -2   1  726.53   40.60
  -3  -2   1  830.52   22.70
   2   2  -1  557.24   19.00
   2   2  -1  607.84   24.00
  -2  -2   1  582.04   23.90
   1   2  -1 1825.82   54.09
   1   2  -1 1689.13   46.20
  -1  -2   1 1757.72   43.90
  -1  -2   1 1733.63   40.70
  -1  -2   1 1801.92   53.99
   0   2  -1  451.75   23.40
   0   2  -1  435.76   14.10
   0  -2   1  453.85   19.80
   0  -2   1  437.76   14.00
   0  -2   1  465.35   23.10
  -1   2  -1 4854.61  117.89
  -1   2  -1 4607.44  111.89
  -1   2  -1 4825.52  115.39
   1  -2   1 4872.11  112.99
   1  -2   1 4687.53  114.69
   1  -2   1 4676.93  109.19
   1  -2   1 4933.11  117.99
  -2   2  -1  172.68   21.30
  -2   2  -1  145.39   16.90
   2  -2   1  162.98   18.40
   2  -2   1  120.69   18.30
   2  -2   1  118.29   15.70
  -3   2  -1  879.71   41.30
  -3   2  -1  885.61   42.70
   3  -2   1  949.31   44.60
   3  -2   1  868.31   42.70
   3  -2   1  902.41   40.00
  -4   2  -1    9.70   11.60
  -4   2  -1    6.30   11.00
   4  -2   1   32.30   15.00
   4  -2   1    4.40   12.90
   4  -2   1    4.30    9.40
  -5   2  -1  203.48   27.50
  -5   2  -1  174.88   20.00
  -5   2  -1  194.28   28.50
   5  -2   1  161.18   27.70
   5  -2   1  151.88   23.20
   5  -2   1  196.58   30.10
  -6   2  -1    4.50   12.20
  -6   2  -1   18.90   10.60
  -6   2  -1    9.80   15.00
   6  -2   1   20.70   13.40
   6  -2   1   24.50   16.90
   6  -2   1   25.80   16.10
  -7   2  -1    3.50   16.40
  -7   2  -1   37.10   13.70
   7  -2   1   70.39   23.80
   7  -2   1   41.40   18.20
   7  -2   1   18.70   20.30
  -8   2  -1    4.60   18.00
  -8   2  -1   27.00   13.60
   8  -2   1   15.70   21.10
   8  -2   1   16.60   16.90
  -9   2  -1  -17.00   18.20
  -9   2  -1  -15.20   21.90
  -9   2  -1    3.10   13.70
   9  -2   1   -6.40   15.80
   9  -2   1   34.50   24.10
  10   1  -1  116.39   32.20
 -10  -1   1   64.59    8.90
 -10  -1   1   44.50   29.70
 -10  -1   1   53.79   10.30
   9   1  -1   14.70   18.80
  -9  -1   1   39.20   23.10
   8   1  -1  123.59   27.80
  -8  -1   1  114.09   28.80
   7   1  -1  142.29   21.30
   7   1  -1  171.28   29.20
  -7  -1   1  102.39   24.90
  -7  -1   1  150.08   15.90
   6   1  -1  -17.20   11.10
   6   1  -1   17.00    9.20
   6   1  -1    0.50   10.20
  -6  -1   1    2.20    6.30
  -6  -1   1   19.40   13.10
   5   1  -1  911.41   47.20
   5   1  -1  872.21   39.40
   5   1  -1  966.40   49.50
  -5  -1   1  874.61   47.10
  -5  -1   1  895.21   32.50
   4   1  -1  378.06   29.40
   4   1  -1  463.65   25.30
   4   1  -1  451.75   31.00
  -4  -1   1  451.65   20.10
  -4  -1   1  426.16   29.80
   3   1  -1   17.50   10.50
   3   1  -1   12.40    7.50
   3   1  -1    3.90    9.00
  -3  -1   1   15.90    5.80
  -3  -1   1   20.00   10.50
   2   1  -1  636.84   21.50
   2   1  -1  708.13   31.30
  -2  -1   1  718.73   22.50
  -2  -1   1  694.53   27.50
   1   1  -1   90.09    8.50
   1   1  -1   97.69   11.40
  -1  -1   1  119.59    9.60
   0   1  -1   37.80    4.90
   0   1  -1   41.20    7.20
   0   1  -1   35.40    6.80
   0  -1   1   41.80    5.30
   0  -1   1   30.00    6.40
   0  -1   1   37.80    6.50
   0  -1   1   39.50    4.80
  -1   1  -1  414.36   22.10
  -1   1  -1  398.06   17.30
  -1   1  -1  391.16   20.20
   1  -1   1  406.96   17.70
   1  -1   1  403.36   21.60
   1  -1   1  380.96   20.10
  -2   1  -1 1139.89   38.00
  -2   1  -1 1122.29   44.20
   2  -1   1 1142.59   45.70
   2  -1   1 1152.88   38.00
   2  -1   1 1164.78   44.00
  -3   1  -1  768.22   33.60
  -3   1  -1  711.53   30.30
  -3   1  -1  713.13   37.30
   3  -1   1  717.53   38.90
   3  -1   1  660.43   37.20
  -4   1  -1   38.30   13.40
  -4   1  -1   17.80    9.60
  -4   1  -1   22.80   12.00
   4  -1   1   21.80   10.80
   4  -1   1   58.29   17.90
  -5   1  -1  511.15   34.00
  -5   1  -1  505.35   38.30
  -5   1  -1  507.85   30.20
   5  -1   1  470.85   33.20
   5  -1   1  497.95   39.80
  -6   1  -1   22.10   16.70
  -6   1  -1   27.80   14.10
  -6   1  -1   22.00   13.00
   6  -1   1   51.49   16.00
   6  -1   1   27.90   19.40
  -7   1  -1  129.99   27.90
  -7   1  -1  155.98   23.20
  -7   1  -1  128.39   25.50
   7  -1   1  153.78   26.40
   7  -1   1   97.79   42.80
  -8   1  -1   47.40   18.70
  -8   1  -1   31.40   15.20
  -8   1  -1   34.90   18.80
   8  -1   1   -8.70   12.20
   8  -1   1   12.50   22.10
  -9   1  -1  132.39   20.80
  -9   1  -1   84.59   29.70
   9  -1   1  107.09   25.80
   9  -1   1   89.89   31.50
   9  -1   1  144.99   36.50
  10   0  -1   90.79   30.00
 -10   0   1   40.50   13.90
 -10   0   1   -4.70   22.00
   9   0  -1  -13.20   15.90
  -9   0   1   31.00   22.40
  -9   0   1   16.50   11.60
   8   0  -1   38.50   18.90
  -8   0   1    5.30   10.20
  -8   0   1   19.40   16.70
   7   0  -1   52.99   19.70
  -7   0   1   25.40   11.30
  -7   0   1   57.59   19.40
  -7   0   1   24.10   17.70
   6   0  -1   17.80   13.40
  -6   0   1    2.10    9.90
  -6   0   1    4.60    7.80
  -6   0   1   13.20   14.80
   5   0  -1   13.70    8.50
   5   0  -1   19.70   13.20
  -5   0   1    0.30   11.40
  -5   0   1   21.30   13.30
  -5   0   1   21.60    9.50
   4   0  -1  122.99   13.70
   4   0  -1   92.69   18.30
  -4   0   1  128.89   20.00
  -4   0   1  147.89   15.80
  -4   0   1  150.08   21.20
   3   0  -1    5.80    5.60
   3   0  -1    6.10    7.70
  -3   0   1    3.20   12.20
  -3   0   1   14.90   10.50
  -3   0   1    3.20    7.00
   2   0  -1  307.37   21.50
   2   0  -1  302.77   13.10
  -2   0   1  321.17   22.10
  -2   0   1  294.67   16.70
  -2   0   1  306.07   20.30
   1   0  -1   61.89    9.00
   1   0  -1   67.69    7.80
   1   0  -1   66.59    6.70
  -1   0   1   53.49    6.70
  -1   0   1   69.69    9.30
  -1   0   1   71.89    7.90
   0   0  -1    7.00    2.70
   0   0  -1   11.40    4.30
   0   0   1    8.10    4.70
   0   0   1   10.70    5.00
   0   0   1    1.70    2.50
   0   0   1   -0.10    3.80
  -1   0  -1   90.49   10.70
  -1   0  -1  112.49   10.10
  -1   0  -1  124.89   14.00
  -1   0  -1  137.99    7.50
   1   0   1  113.49    7.20
   1   0   1  109.89    9.90
   1   0   1  125.79   14.40
  -2   0  -1 1060.19   36.50
  -2   0  -1 1027.50   33.10
  -2   0  -1 1011.50   31.40
  -2   0  -1 1036.00   40.50
   2   0   1 1086.79   41.30
   2   0   1  975.30   32.40
  -3   0  -1 2351.66   76.09
  -3   0  -1 2321.07   70.29
  -3   0  -1 2323.57   66.49
   3   0   1 2289.77   75.89
   3   0   1 2249.87   65.99
  -4   0  -1  535.65   31.20
  -4   0  -1  582.94   31.40
  -4   0  -1  551.64   36.50
   4   0   1  502.15   29.60
   4   0   1  546.15   37.70
  -5   0  -1   70.29   18.60
  -5   0  -1   85.19   16.10
  -5   0  -1   96.49   17.80
   5   0   1   82.89   16.70
   5   0   1  103.89   22.80
  -6   0  -1    5.10   13.20
  -6   0  -1    9.70   11.20
  -6   0  -1    4.90    7.70
   6   0   1    4.40   11.50
   6   0   1   13.10   16.40
  -7   0  -1  -16.60   15.30
  -7   0  -1  -15.20    9.90
  -7   0  -1    9.40    8.80
   7   0   1    7.40   12.20
  -8   0  -1   43.40   12.20
  -8   0  -1   55.49   35.20
   8   0   1   51.19   20.00
   8   0   1   -9.90   20.30
  -9   0  -1   45.90   25.50
  -9   0  -1   28.50   11.60
  -9   0  -1   18.80   10.40
   9   0   1    6.60   17.60
   9   0   1   16.50   22.60
  10  -1  -1   22.60   22.60
 -10   1   1    3.40   14.70
 -10   1   1   24.70   23.50
   9  -1  -1   57.69   25.50
  -9   1   1   53.69   24.90
  -9   1   1   48.40   15.70
  -9   1   1   60.79   22.60
   8  -1  -1  168.38   31.70
  -8   1   1  175.78   41.40
  -8   1   1  160.68   24.30
   7  -1  -1   43.00   18.10
  -7   1   1   42.10   21.90
  -7   1   1   81.99   24.00
  -7   1   1   81.89   17.50
   6  -1  -1   90.89   20.10
  -6   1   1   60.49   20.30
  -6   1   1   78.39   19.80
   5  -1  -1  170.88   25.30
  -5   1   1  140.29   23.70
  -5   1   1  144.89   23.90
   4  -1  -1 1482.95   59.29
  -4   1   1 1426.66   58.89
  -4   1   1 1476.95   42.30
  -4   1   1 1494.35   59.59
   3  -1  -1 4190.38  112.69
  -3   1   1 4263.97  113.39
  -3   1   1 4005.40  111.19
  -3   1   1 4156.38   92.49
   2  -1  -1  992.80   38.90
  -2   1   1 1006.20   38.40
   1  -1  -1 9596.04  207.48
   1  -1  -1 9332.97  208.48
  -1   1   1 9169.08  196.88
  -1   1   1 9999.00  208.58
  -1   1   1 9513.25  206.98
  -1   1   1 9231.78  198.88
  -1   1   1 9128.19  208.18
   0  -1  -1  760.32   25.60
   0  -1  -1  767.32   28.40
   0  -1  -1  795.72   25.00
   0  -1  -1  738.53   23.00
   0  -1  -1  787.72   25.50
   0   1   1  763.92   25.40
   0   1   1  753.62   27.30
   0   1   1  743.73   22.90
   0   1   1  712.73   28.00
   0   1   1  725.23   24.50
  -1  -1  -1 1783.92   51.19
  -1  -1  -1 1711.63   47.00
  -1  -1  -1 1782.92   50.99
  -1  -1  -1 1721.83   43.60
   1   1   1 1726.73   50.89
   1   1   1 1710.53   49.90
   1   1   1 1750.82   43.90
  -2  -1  -1   26.00   10.90
  -2  -1  -1   14.00   12.60
  -2  -1  -1   19.10    4.90
   2   1   1   15.20    4.70
   2   1   1    0.70    9.80
   2   1   1   10.30    9.00
   2   1   1   23.80    7.40
  -3  -1  -1  118.69   18.90
  -3  -1  -1  138.09    9.90
  -3  -1  -1  112.89   16.50
   3   1   1  156.38   21.60
   3   1   1  122.59   15.00
   3   1   1  168.48   19.20
  -4  -1  -1   -3.00    9.40
  -4  -1  -1    3.80    4.50
  -4  -1  -1    6.70    8.70
   4   1   1   13.30   12.80
   4   1   1    4.00    9.40
   4   1   1   -2.00    8.30
  -5  -1  -1   56.59    8.50
  -5  -1  -1   62.79   16.50
  -5  -1  -1   55.79   17.40
   5   1   1   63.99   18.80
   5   1   1   64.99   15.80
   5   1   1   57.19   14.40
  -6  -1  -1   12.40   13.90
  -6  -1  -1   17.00    6.60
  -6  -1  -1   34.70   15.00
   6   1   1   21.20   16.40
   6   1   1   17.40   12.50
  -7  -1  -1  180.18   14.30
  -7  -1  -1  164.38   13.50
  -7  -1  -1  189.78   33.30
   7   1   1  157.88   25.70
   7   1   1  268.47   63.19
  -8  -1  -1  196.98   12.40
  -8  -1  -1  175.58   11.70
   8   1   1  170.78   29.90
   8   1   1  154.98   33.30
  -9  -1  -1  150.88   33.50
   9   1   1  104.79   30.60
   9   1   1  107.19   28.30
  10  -2  -1   -0.80   23.30
 -10   2   1   31.70   26.20
 -10   2   1   -4.00   24.50
 -10   2   1   21.70   19.80
   9  -2  -1    1.30   20.70
   9  -2  -1    7.60   17.30
  -9   2   1   23.20   16.20
  -9   2   1   -2.10   19.60
  -9   2   1   53.59   24.50
   8  -2  -1   -0.70   14.60
   8  -2  -1   21.30   19.80
  -8   2   1   -2.10   17.90
  -8   2   1  -20.20   10.70
   7  -2  -1    5.50   15.30
   7  -2  -1   13.30   15.70
  -7   2   1   -2.70   12.90
  -7   2   1  -31.40   14.80
   6  -2  -1   85.89   20.90
  -6   2   1  117.59   24.40
  -6   2   1  112.19   23.70
   5  -2  -1  448.66   35.60
   5  -2  -1  411.56   33.30
  -5   2   1  437.96   19.70
  -5   2   1  438.96   35.30
  -5   2   1  436.26   35.40
   4  -2  -1   -9.10    9.40
   4  -2  -1    7.30   10.60
  -4   2   1   -6.70    9.70
  -4   2   1   -2.40   12.20
  -4   2   1    7.40    4.20
   3  -2  -1 1820.92   64.99
  -3   2   1 1861.61   64.69
  -3   2   1 1910.01   66.19
   2  -2  -1  297.47   23.00
   2  -2  -1  299.47   19.00
   2  -2  -1  257.27   22.50
  -2   2   1  327.17   24.10
  -2   2   1  266.07   18.20
   1  -2  -1 1156.58   40.30
   1  -2  -1 1153.18   43.20
   1  -2  -1 1094.59   33.50
   1  -2  -1 1171.48   39.30
  -1   2   1 1112.59   33.70
  -1   2   1 1089.39   32.10
  -1   2   1 1103.09   41.70
  -1   2   1 1147.29   40.50
   0  -2  -1  479.75   24.90
   0  -2  -1  478.65   26.30
   0  -2  -1  440.36   23.30
   0   2   1  446.86   20.70
   0   2   1  475.95   22.00
   0   2   1  448.66   21.30
   0   2   1  478.15   24.80
   0   2   1  502.15   26.40
   0   2   1  466.75   22.20
  -1  -2  -1  431.26   23.00
  -1  -2  -1  416.36   22.50
  -1  -2  -1  461.85   25.00
   1   2   1  421.96   18.70
   1   2   1  416.26   22.70
   1   2   1  375.66   26.20
  -2  -2  -1  192.98   23.80
  -2  -2  -1  176.78   20.30
  -2  -2  -1  160.08   16.00
   2   2   1  141.29   17.80
   2   2   1  142.29    9.70
   2   2   1  195.28   19.10
  -3  -2  -1   30.10   11.70
  -3  -2  -1   14.90    9.70
  -3  -2  -1    0.00    9.70
   3   2   1    2.70    9.40
   3   2   1   15.50   11.60
  -4  -2  -1    4.90   10.70
  -4  -2  -1    8.50   11.90
   4   2   1   -4.50    7.80
   4   2   1    8.20   11.00
   4   2   1    2.10   11.20
  -5  -2  -1   60.29   16.70
  -5  -2  -1   70.99   18.90
   5   2   1   91.69   19.20
   5   2   1   48.50   15.00
   5   2   1   57.49   18.20
  -6  -2  -1   -2.70   13.90
   6   2   1   20.70   13.50
   6   2   1   -3.80   14.00
   6   2   1    7.10   13.30
  -7  -2  -1    2.20   15.00
   7   2   1   12.90   13.10
  -8  -2  -1   -2.80   19.20
   8   2   1  -28.40   17.90
   8   2   1   30.60   14.60
  -9  -2  -1   32.60   22.70
   9   2   1   -3.00   21.60
   9   2   1   10.30   19.70
 -10   3   1   38.90   29.10
 -10   3   1   22.70   21.90
 -10   3   1   31.00   25.70
   9  -3  -1   17.70   20.00
   9  -3  -1   27.00   21.20
  -9   3   1    7.00   22.30
  -9   3   1   -5.10   20.20
  -9   3   1    7.30   17.00
   8  -3  -1   87.19   26.40
   8  -3  -1  108.29   28.00
  -8   3   1  109.29   29.90
   7  -3  -1  413.46   40.20
   7  -3  -1  416.26   41.60
  -7   3   1  394.96   41.90
  -7   3   1  362.86   39.60
   6  -3  -1   75.69   20.90
   6  -3  -1  111.89   25.20
  -6   3   1   84.69   22.00
  -6   3   1   87.69   23.20
  -6   3   1   97.79   10.80
   5  -3  -1 1118.39   54.49
   5  -3  -1 1138.39   57.89
  -5   3   1 1088.99   57.79
  -5   3   1 1106.59   32.90
  -5   3   1 1067.29   56.79
   4  -3  -1   68.39   16.70
   4  -3  -1   90.79   18.80
  -4   3   1   87.99   20.60
  -4   3   1   87.19   18.90
   3  -3  -1  963.00   46.70
   3  -3  -1  924.41   40.50
  -3   3   1  951.90   47.00
  -3   3   1  900.41   44.20
   2  -3  -1 1153.58   50.09
   2  -3  -1 1202.98   48.40
   2  -3  -1 1087.69   40.40
  -2   3   1 1130.59   47.90
  -2   3   1 1110.19   41.10
   1  -3  -1 1722.93   67.69
   1  -3  -1 1788.42   56.59
   1  -3  -1 1799.92   62.79
   1  -3  -1 1745.13   51.79
   1  -3  -1 1787.62   58.99
  -1   3   1 1706.83   61.09
  -1   3   1 1687.93   66.89
  -1   3   1 1788.62   52.59
   0  -3  -1  806.12   35.30
   0   3   1  678.73   39.40
   0   3   1  764.12   31.90
   0   3   1  797.92   33.50
   0   3   1  737.73   32.90
   0   3   1  741.93   36.50
  -1  -3  -1 1020.10   41.60
   1   3   1 1034.80   41.10
   1   3   1  983.10   43.50
   1   3   1  987.20   37.70
   1   3   1  990.70   34.60
   1   3   1  971.90   42.70
  -2  -3  -1   11.50    9.80
  -2  -3  -1    5.70    9.60
   2   3   1    9.50    5.70
   2   3   1    6.70    8.10
   2   3   1    4.60    9.10
  -3  -3  -1   13.60   10.90
  -3  -3  -1    1.40    8.90
   3   3   1   13.60   10.80
   3   3   1   11.40   10.40
   3   3   1    5.10    3.10
  -4  -3  -1   21.20   13.60
  -4  -3  -1   19.50   12.10
   4   3   1   12.50   10.60
   4   3   1   24.50   13.20
   4   3   1    8.50   11.40
  -5  -3  -1  694.33   44.80
  -5  -3  -1  733.73   44.40
   5   3   1  677.03   46.60
   5   3   1  678.23   40.00
   5   3   1  739.73   45.50
  -6  -3  -1  231.98   33.90
  -6  -3  -1  160.88   27.70
   6   3   1  207.38   28.20
   6   3   1  176.88   48.90
   6   3   1  197.08   32.60
  -7  -3  -1  886.21   56.09
  -7  -3  -1  817.12   56.99
   7   3   1 1002.30   57.89
   7   3   1  866.31   51.49
  -8  -3  -1   13.90   21.90
  -8  -3  -1  -18.20   14.70
   8   3   1   28.30   16.30
   8   3   1   30.90   22.30
  -9  -3  -1   18.70   18.10
  -9  -3  -1   -1.20   23.00
   9   3   1  -12.60   22.70
   9   3   1   -5.00   16.60
  10  -4  -1   33.90   28.50
 -10   4   1   -6.00   21.30
 -10   4   1   24.20   28.50
   9  -4  -1   20.50   22.60
   9  -4  -1   27.60   22.10
  -9   4   1  -14.60   21.30
  -9   4   1   47.60   27.00
  -9   4   1    4.60   19.40
   8  -4  -1   64.39   24.00
  -8   4   1   67.99   27.00
  -8   4   1   82.49   28.60
   7  -4  -1   20.60   15.30
   7  -4  -1    3.00   14.20
  -7   4   1  -24.00   12.40
  -7   4   1    5.00   15.50
   6  -4  -1  218.28   31.10
   6  -4  -1  243.08   36.10
  -6   4   1  244.78   13.80
  -6   4   1  274.57   38.60
  -6   4   1  254.47   36.50
   5  -4  -1   66.09   19.80
   5  -4  -1   53.89   16.90
  -5   4   1   63.79   19.20
  -5   4   1   49.99   17.50
   4  -4  -1  265.67   26.10
   4  -4  -1  248.58   28.30
  -4   4   1  310.07   31.80
  -4   4   1  227.98   26.60
   3  -4  -1  501.05   30.50
   3  -4  -1  521.05   35.90
   3  -4  -1  536.05   36.30
  -3   4   1  455.45   30.40
  -3   4   1  498.15   36.40
   2  -4  -1   27.10   12.40
   2  -4  -1   23.30   14.20
   2  -4  -1   30.80   10.80
   2  -4  -1    9.20   11.20
  -2   4   1   24.70   11.80
  -2   4   1   15.60   10.60
   1  -4  -1 1481.95   52.99
   1  -4  -1 1505.25   61.19
   1  -4  -1 1492.55   56.99
   1  -4  -1 1521.85   57.39
  -1   4   1 1498.95   51.69
  -1   4   1 1424.36   59.19
  -1   4   1 1478.55   56.89
  -1   4   1 1430.56   52.79
   0  -4  -1   46.00   15.20
   0  -4  -1   40.90   15.40
   0   4   1   52.49   13.90
   0   4   1   37.00   12.60
   0   4   1   29.90   11.00
   0   4   1   51.89   15.10
  -1  -4  -1  148.19   21.80
   1   4   1  193.38   24.80
   1   4   1  150.18   16.60
   1   4   1  172.88   20.60
   1   4   1  186.48   24.00
   1   4   1  146.69   20.20
  -2  -4  -1   21.30   13.10
  -2  -4  -1   10.90    9.20
   2   4   1   23.20   12.00
   2   4   1    8.40   10.30
   2   4   1    8.20    6.70
   2   4   1   16.00    9.20
  -3  -4  -1  289.97   24.00
  -3  -4  -1  313.97   27.50
   3   4   1  307.07   26.70
   3   4   1  327.67   26.80
   3   4   1  284.17   14.80
   3   4   1  299.47   28.20
  -4  -4  -1  396.26   33.40
  -4  -4  -1  373.56   31.00
   4   4   1  368.56   31.30
   4   4   1  440.06   34.00
  -5  -4  -1  751.52   48.70
  -5  -4  -1  860.41   50.09
   5   4   1  760.12   44.80
   5   4   1  860.11   58.19
   5   4   1  870.61   51.29
  -6  -4  -1  205.58   33.90
  -6  -4  -1  203.98   31.40
   6   4   1  196.98   32.20
   6   4   1  236.38   35.50
   6   4   1  163.78   25.10
  -7  -4  -1  129.19   28.70
  -7  -4  -1  109.69   25.90
   7   4   1  165.68   32.00
   7   4   1   77.39   34.60
   7   4   1  116.09   23.70
  -8  -4  -1   55.59   23.90
  -8  -4  -1   37.90   23.60
   8   4   1  132.89   31.30
   8   4   1   40.10   24.90
   8   4   1   47.10   24.30
   9  -5  -1   38.60   25.80
   9  -5  -1   18.10   28.60
  -9   5   1   49.90   31.20
  -9   5   1   34.80   23.60
   8  -5  -1   74.59   29.00
   8  -5  -1   89.49   27.20
  -8   5   1  113.59   33.80
  -8   5   1   64.89   28.40
   7  -5  -1   87.99   30.70
   7  -5  -1   11.50   19.60
  -7   5   1   57.69    7.20
  -7   5   1   53.99   21.80
  -7   5   1   51.69   22.30
   6  -5  -1 1532.35   79.89
   6  -5  -1 1597.94   75.09
  -6   5   1 1666.33   93.49
  -6   5   1 1493.35   42.70
  -6   5   1 1668.23   83.49
   5  -5  -1  488.75   36.60
   5  -5  -1  531.65   44.50
   5  -5  -1  475.25   42.00
  -5   5   1  431.56   38.20
  -5   5   1  483.05   43.00
   4  -5  -1   96.39   19.00
   4  -5  -1   95.29   23.30
   4  -5  -1   93.19   21.20
  -4   5   1   89.79   19.10
  -4   5   1   91.59   19.60
  -4   5   1   84.79   22.30
   3  -5  -1   40.80   13.90
   3  -5  -1   42.90   15.40
   3  -5  -1   38.80   15.10
   3  -5  -1   31.80   12.20
  -3   5   1   48.60   17.30
  -3   5   1   46.00   14.30
   2  -5  -1  792.02   45.20
   2  -5  -1  773.92   38.70
   2  -5  -1  758.82   46.90
   2  -5  -1  763.92   38.20
  -2   5   1  750.42   38.60
  -2   5   1  779.22   45.20
   1  -5  -1   26.90   11.10
   1  -5  -1    6.80   11.90
   1  -5  -1    2.50    9.00
   1  -5  -1   -8.00   10.40
  -1   5   1    5.40    9.40
  -1   5   1    2.70    9.60
  -1   5   1   10.10   11.40
   0  -5  -1   52.99   17.00
   0  -5  -1   42.20   16.70
   0   5   1   54.09   13.00
   0   5   1   69.29   16.10
   0   5   1   62.69   16.70
   0   5   1   60.79   15.40
   0   5   1   71.39   16.80
  -1  -5  -1  424.46   31.90
   1   5   1  509.15   32.40
   1   5   1  443.46   42.40
   1   5   1  441.36   30.40
   1   5   1  436.26   33.20
   1   5   1  456.15   33.30
   1   5   1  478.55   34.10
  -2  -5  -1   -1.60   11.10
   2   5   1   -8.40    6.90
   2   5   1    4.60   10.20
   2   5   1   -2.60    9.50
   2   5   1   -6.80   10.00
   2   5   1    5.10    7.90
   2   5   1   17.40   11.80
  -3  -5  -1    0.30    9.40
  -3  -5  -1    4.90   13.00
   3   5   1   -6.10   10.30
   3   5   1    1.80    6.10
   3   5   1   -2.60    9.20
   3   5   1   12.50    9.90
  -4  -5  -1   -5.80    9.40
  -4  -5  -1    9.70   16.30
   4   5   1   -3.00   10.90
   4   5   1   -1.70   10.60
   4   5   1    5.80   12.30
  -5  -5  -1  135.89   25.20
  -5  -5  -1  105.99   27.10
   5   5   1   95.29   21.90
   5   5   1  116.59   24.70
   5   5   1   81.89   21.10
  -6  -5  -1  150.08   27.90
  -6  -5  -1  125.99   29.30
   6   5   1  135.69   26.80
   6   5   1  116.09   24.30
  -7  -5  -1   18.20   18.30
  -7  -5  -1   27.90   18.70
   7   5   1    8.20   14.10
   7   5   1   10.40   17.70
   7   5   1  -11.20   18.20
  -8  -5  -1  -40.80   18.00
  -8  -5  -1  -29.50   14.40
   8   5   1   63.49   24.10
   8   5   1    7.70   22.60
   8   5   1    9.50   17.00
   9  -6  -1   31.50   27.30
   9  -6  -1    4.90   27.40
   9  -6  -1   39.70   23.90
  -9   6   1   12.60   24.20
  -9   6   1   62.59   29.30
   8  -6  -1   89.29   30.00
   8  -6  -1  106.79   28.70
  -8   6   1   96.99   31.00
  -8   6   1   35.20   24.90
   7  -6  -1  512.15   51.49
   7  -6  -1  592.84   54.89
   7  -6  -1  602.94   48.60
  -7   6   1  542.65   52.29
  -7   6   1  494.45   48.90
  -7   6   1  527.05   17.90
   6  -6  -1  297.87   34.30
   6  -6  -1  239.08   37.30
   6  -6  -1  256.67   42.20
  -6   6   1  288.47   39.70
  -6   6   1  207.98   36.80
   5  -6  -1   11.00   12.90
   5  -6  -1   30.30   19.80
   5  -6  -1    4.70   14.10
  -5   6   1   21.00   15.90
  -5   6   1   28.30   19.70
   4  -6  -1   25.30   12.80
   4  -6  -1   47.30   15.30
   4  -6  -1   18.40   15.90
   4  -6  -1    9.20   10.10
  -4   6   1   16.30   14.90
  -4   6   1   16.10   13.60
  -4   6   1   64.29   21.30
   3  -6  -1   38.50   13.50
   3  -6  -1   34.20   13.00
   3  -6  -1   18.40   13.20
   3  -6  -1   62.89   19.20
  -3   6   1   40.40   15.30
  -3   6   1   30.60   17.50
   2  -6  -1   84.19   16.90
   2  -6  -1   76.09   17.40
   2  -6  -1   55.39   18.90
   2  -6  -1   76.89   21.20
  -2   6   1  103.19   23.10
  -2   6   1   63.19   16.30
   1  -6  -1  -13.50   11.00
   1  -6  -1   -7.50   12.20
   1  -6  -1   -2.90    8.40
  -1   6   1   -5.50   10.00
  -1   6   1   -1.00   10.30
  -1   6   1  -17.40    8.20
   0  -6  -1   24.50   14.30
   0  -6  -1   44.00   15.80
   0   6   1   71.69   17.90
   0   6   1   52.79   14.20
   0   6   1   62.09   17.50
   0   6   1   20.90   13.60
   0   6   1   23.20   14.20
  -1  -6  -1  262.87   34.60
   1   6   1  329.47   29.60
   1   6   1  313.57   23.90
   1   6   1  300.47   27.60
   1   6   1  304.57   30.50
   1   6   1  317.27   31.40
   1   6   1  306.37   30.60
  -2  -6  -1   25.40   16.60
   2   6   1   21.00   14.10
   2   6   1   29.00   11.30
   2   6   1    3.00   14.30
   2   6   1   22.00   14.30
   2   6   1    9.50    9.50
  -3  -6  -1   74.39   21.20
   3   6   1   50.09   16.80
   3   6   1   56.09   23.80
   3   6   1   77.19   17.00
   3   6   1   70.69   12.60
   3   6   1   68.69   21.10
   3   6   1   68.19   20.90
  -4  -6  -1    0.60   14.50
  -4  -6  -1   -9.10   10.00
   4   6   1   18.80   16.30
   4   6   1    4.30    4.00
   4   6   1   11.30   13.30
   4   6   1    4.50   12.30
  -5  -6  -1   -5.80   12.40
  -5  -6  -1    2.00   15.90
   5   6   1   17.90   13.80
   5   6   1   19.20   14.90
  -6  -6  -1   -1.70   14.80
  -6  -6  -1   30.00   19.40
   6   6   1   -4.90   14.30
   6   6   1    0.60   17.30
   6   6   1   11.20   16.30
   6   6   1   21.90   14.00
  -7  -6  -1   31.40   22.10
  -7  -6  -1  -20.40   18.00
   7   6   1   45.80   19.80
   7   6   1   30.90   16.80
   8  -7  -1   14.80   38.00
   8  -7  -1   33.90   26.30
   8  -7  -1   58.79   34.20
  -8   7   1   22.50   26.30
  -8   7   1   28.20   26.40
   7  -7  -1   51.29   26.90
   7  -7  -1   45.80   20.70
   7  -7  -1   30.30   25.10
  -7   7   1   17.50   22.40
  -7   7   1   59.29   27.20
  -7   7   1   38.30    5.40
   6  -7  -1  -18.00   13.80
   6  -7  -1   18.10   15.30
  -6   7   1    8.40   16.60
  -6   7   1   17.20   17.10
   5  -7  -1   78.69   21.10
   5  -7  -1  103.79   28.40
   5  -7  -1   67.19   18.90
  -5   7   1   54.59   25.20
  -5   7   1   47.70   19.40
   4  -7  -1   97.79   29.60
   4  -7  -1   57.09   17.90
   4  -7  -1   82.89   21.80
   4  -7  -1   89.19   18.60
  -4   7   1   62.69   19.70
  -4   7   1   76.19   26.20
  -4   7   1  104.39   23.40
   3  -7  -1    8.30   11.50
   3  -7  -1   -8.50   10.00
   3  -7  -1   17.10   16.40
  -3   7   1   -6.80    8.80
  -3   7   1    0.60   12.00
  -3   7   1   -7.70   11.90
   2  -7  -1   -5.30   10.10
   2  -7  -1    8.30   15.40
   2  -7  -1   -4.40   15.00
   2  -7  -1   10.00   11.10
  -2   7   1   12.50   15.10
  -2   7   1   21.70   14.20
   1  -7  -1  217.28   28.30
   1  -7  -1  108.19   25.70
   1  -7  -1  237.48   35.10
  -1   7   1  161.58   23.40
  -1   7   1  176.78   29.10
  -1   7   1  178.68   26.10
   0  -7  -1   63.39   20.00
   0  -7  -1  125.49   26.00
   0   7   1   69.69   20.30
   0   7   1  105.49   21.60
   0   7   1   35.60   17.10
   0   7   1   79.89   15.90
   0   7   1   61.89   17.20
  -1  -7  -1  132.79   27.90
   1   7   1   88.19   16.20
   1   7   1  105.39   22.70
   1   7   1  110.49   23.50
   1   7   1  121.69   24.90
   1   7   1   65.49   20.20
   1   7   1  100.09   20.20
  -2  -7  -1  271.27   39.10
   2   7   1  227.18   30.80
   2   7   1  206.88   30.90
   2   7   1  308.07   35.20
   2   7   1  269.27   32.40
   2   7   1  258.97   24.60
   2   7   1  221.58   23.10
   2   7   1  195.68   33.80
   3   7   1  534.65   43.90
   3   7   1  662.73   50.69
   3   7   1  554.54   31.20
   3   7   1  587.04   46.00
   3   7   1  565.24   50.79
   3   7   1  536.35   35.40
  -4  -7  -1   31.00   21.40
   4   7   1    3.10   16.10
   4   7   1   15.90   14.90
   4   7   1   13.00   13.10
   4   7   1   31.40    7.90
   4   7   1   37.80   18.80
  -5  -7  -1    5.50   17.90
   5   7   1    2.10   18.20
   5   7   1   11.30   14.30
   5   7   1    0.80   17.80
   5   7   1   17.70   13.70
  -6  -7  -1   49.00   25.80
  -6  -7  -1   47.50   21.60
   6   7   1   31.20   27.40
   6   7   1   35.10   20.40
   6   7   1   44.20   20.40
  -7  -7  -1   70.49   28.40
  -7  -7  -1    9.10   19.60
   7   7   1   52.69   24.50
   7   7   1   66.69   29.40
   7   7   1   26.10   20.40
   7   7   1   17.90   20.70
   8  -8  -1   76.49   33.20
   8  -8  -1   11.00   23.60
   8  -8  -1   85.79   49.70
  -8   8   1  128.19   38.40
  -8   8   1   72.49   34.90
   7  -8  -1   30.40   24.60
   7  -8  -1  -36.50   18.90
   7  -8  -1   -7.50   15.90
  -7   8   1  -28.40   15.60
  -7   8   1   -3.90   21.10
   6  -8  -1    7.60   15.50
   6  -8  -1    8.30   14.20
   6  -8  -1   15.20   19.10
   6  -8  -1    5.30   17.30
  -6   8   1  -11.80   16.20
  -6   8   1   60.89   24.60
   5  -8  -1    0.70   13.70
   5  -8  -1  -13.00   11.40
   5  -8  -1   11.60   16.30
  -5   8   1   12.90   14.40
  -5   8   1  -25.90   13.40
  -5   8   1   18.70   20.60
   4  -8  -1   87.19   18.90
   4  -8  -1   87.29   27.60
   4  -8  -1  107.69   23.30
  -4   8   1  110.29   25.00
  -4   8   1   78.39   26.60
  -4   8   1  102.89   22.70
   3  -8  -1    6.80   11.80
   3  -8  -1  -24.70    9.20
   3  -8  -1   23.60   19.60
  -3   8   1  -13.20   10.20
  -3   8   1  -15.20   12.60
  -3   8   1   28.00   19.00
   2  -8  -1  126.39   23.40
   2  -8  -1  122.99   29.40
  -2   8   1   76.39   17.30
  -2   8   1  124.39   26.00
  -2   8   1  136.99   27.90
   1  -8  -1   36.40   17.30
   1  -8  -1   -4.10   14.20
  -1   8   1  -12.80   12.60
  -1   8   1   10.70   14.40
  -1   8   1   17.90   12.30
   0  -8  -1   28.90   17.80
   0  -8  -1   23.30   17.30
   0   8   1    1.10   10.70
   0   8   1    7.50   11.10
   0   8   1    3.30   15.40
   0   8   1   -2.10   13.70
   0   8   1    4.30   15.20
  -1  -8  -1  621.94   51.59
   1   8   1  686.53   51.29
   1   8   1  637.84   48.40
   1   8   1  742.13   38.10
   1   8   1  682.83   46.20
   1   8   1  733.33   51.19
   1   8   1  648.34   41.90
  -2  -8  -1  177.88   34.80
   2   8   1  175.68   31.20
   2   8   1  150.68   28.10
   2   8   1  242.88   36.30
   2   8   1  174.18   30.70
   2   8   1  175.48   22.70
   2   8   1  237.08   28.00
  -3  -8  -1   24.00   21.10
   3   8   1   21.40   12.70
   3   8   1    4.20   16.50
   3   8   1   13.90   13.40
   3   8   1   27.90   13.10
   3   8   1   23.60   15.60
   3   8   1   25.30   19.10
   3   8   1  -16.80   16.10
  -4  -8  -1   22.40   21.10
   4   8   1   15.00   19.40
   4   8   1   21.40   15.70
   4   8   1  -35.30   15.90
   4   8   1   12.40   20.60
   4   8   1    8.30   13.40
  -5  -8  -1   33.70   23.90
   5   8   1  -10.80   20.90
   5   8   1   18.30   20.30
   5   8   1  -16.80   14.90
   5   8   1   -6.70   23.60
  -6  -8  -1   -9.40   18.20
   6   8   1   -2.90   27.70
   6   8   1  -20.60   23.00
   6   8   1  -26.00   18.90
   6   8   1   25.00   20.00
   6   8   1   20.40   19.00
   7  -9  -1   17.50   30.40
   7  -9  -1  -31.50   16.30
   7  -9  -1    5.50   20.70
   7  -9  -1   15.30   29.40
  -7   9   1   19.90   22.80
  -7   9   1  -45.30   20.90
  -7   9   1   -2.40    9.80
   6  -9  -1   30.90   16.50
   6  -9  -1   79.29   29.50
   6  -9  -1   10.10   20.50
   6  -9  -1   34.40   25.50
  -6   9   1   45.00   24.90
  -6   9   1   28.20   10.20
  -6   9   1   44.70   21.50
   5  -9  -1    4.10   12.70
   5  -9  -1  -34.40   14.90
   5  -9  -1   27.90   22.20
  -5   9   1  -13.80   17.70
  -5   9   1    8.90   16.00
  -5   9   1    8.40   22.30
   4  -9  -1   20.90   19.70
   4  -9  -1   25.70   17.30
   4  -9  -1   30.40   15.30
  -4   9   1   33.30   18.40
  -4   9   1   46.10   18.60
  -4   9   1   63.79   27.80
   3  -9  -1  100.69   29.50
   3  -9  -1  100.89   23.60
  -3   9   1  107.99   24.70
  -3   9   1   79.99   19.90
  -3   9   1  105.09   20.90
  -3   9   1   79.99   26.60
   2  -9  -1   10.70   20.90
   2  -9  -1   29.60   16.80
   2  -9  -1   32.50   22.50
  -2   9   1   36.70   18.40
  -2   9   1   28.60   13.50
  -2   9   1   10.30   20.00
   1  -9  -1   59.29   21.80
   1  -9  -1   72.09   27.70
  -1   9   1   53.19   20.60
  -1   9   1   76.69   26.80
  -1   9   1    7.90   24.90
   0  -9  -1  457.15   44.90
   0  -9  -1  523.65   48.50
   0   9   1  440.26   32.20
   0   9   1  456.95   39.90
   0   9   1  470.25   45.70
   0   9   1  435.66   43.80
   0   9   1  451.35   45.00
  -1  -9  -1   12.00   21.50
   1   9   1   25.60   20.00
   1   9   1    7.10   13.80
   1   9   1   13.90   16.80
   1   9   1   12.20   17.70
   1   9   1   40.60   32.70
   1   9   1   -2.90   10.20
  -2  -9  -1   17.30   22.90
   2   9   1   -0.40   13.00
   2   9   1   -8.70    9.80
   2   9   1  -41.90   11.90
   2   9   1  -23.60   19.20
   2   9   1    7.20   19.10
   2   9   1   17.60   18.00
  -3  -9  -1   15.40   20.60
   3   9   1   31.10   13.40
   3   9   1    1.50   17.40
   3   9   1   -1.00   14.10
   3   9   1  -16.60   20.50
   3   9   1   -1.60   16.60
   3   9   1   13.80   19.50
   3   9   1   55.79   26.80
  -4  -9  -1   44.60   28.10
   4   9   1   70.39   25.20
   4   9   1    4.30   18.80
   4   9   1   28.40   14.90
   4   9   1   22.10   10.90
   4   9   1   17.60   19.40
   4   9   1   33.40   19.30
   4   9   1   44.80   26.40
  -5  -9  -1   65.59   30.50
   5   9   1   46.60   19.70
   5   9   1   30.00   23.50
   5   9   1   85.19   34.50
   5   9   1   67.09   30.90
   5   9   1   97.39   34.30
   6 -10  -1   28.50   24.10
   6 -10  -1   14.10   28.80
   6 -10  -1   21.60   15.90
  -6  10   1   29.40   11.60
  -6  10   1   29.90   27.40
  -6  10   1   28.30   29.90
   5 -10  -1   28.20   17.10
   5 -10  -1  127.99   35.00
   5 -10  -1   56.09   29.90
  -5  10   1   72.89   23.70
  -5  10   1   87.79   17.40
  -5  10   1   39.00   28.50
  -5  10   1   91.29   31.00
   4 -10  -1   15.00   17.90
   4 -10  -1   41.20   24.20
  -4  10   1   -2.30   13.60
  -4  10   1  -11.50   22.30
  -4  10   1   14.70   21.10
  -4  10   1   13.20   15.80
   3 -10  -1    0.60   16.30
   3 -10  -1   -5.60   22.30
  -3  10   1    1.70   13.80
  -3  10   1   22.50   16.30
  -3  10   1   -5.90   19.10
   2 -10  -1   -5.20   16.20
   2 -10  -1   22.20   22.90
  -2  10   1    5.30   12.80
  -2  10   1   -7.90   13.90
  -2  10   1  -15.90   16.70
  -2  10   1  -20.00   26.60
   1 -10  -1   26.30   21.50
   1 -10  -1    7.30   18.70
  -1  10   1  -15.30   13.70
  -1  10   1  -42.70   16.50
  -1  10   1   32.70   21.80
  -1  10   1   18.60   13.50
   0 -10  -1   54.59   23.60
   0  10   1   52.19   14.50
   0  10   1    5.80   19.70
   0  10   1   15.30   20.40
   0  10   1   54.19   22.70
   0  10   1   41.20   19.60
   0  10   1   51.59   20.00
  -1 -10  -1   10.90   23.90
   1  10   1   64.69   24.50
   1  10   1   90.69   28.90
   1  10   1   35.10   18.10
   1  10   1   49.30   20.00
   1  10   1   36.10   13.10
   1  10   1   78.89   27.20
  -2 -10  -1   11.20   21.40
   2  10   1   17.50   20.00
   2  10   1   14.70   12.00
   2  10   1   24.50   20.50
   2  10   1   14.50   18.00
   2  10   1   37.40   19.50
   2  10   1  -31.00   20.70
  -3 -10  -1   -1.10   23.30
   3  10   1   13.00   26.20
   3  10   1   10.60   11.90
   3  10   1    0.70   14.70
   3  10   1   36.20   26.50
   3  10   1   21.30   20.30
   3  10   1   11.40   18.90
   4 -11  -1   52.99   30.90
  -4  11   1  -24.10   21.70
  -4  11   1   29.80   16.00
  -4  11   1  -33.30   19.70
  -4  11   1   -1.10   17.80
   3 -11  -1   39.00   26.60
  -3  11   1  -11.00   14.70
  -3  11   1  -24.50   21.40
  -3  11   1   16.90   24.70
  -3  11   1   -2.30   15.90
   2 -11  -1  -13.50   20.50
  -2  11   1    7.50   17.10
  -2  11   1   53.69   26.20
  -2  11   1   13.80   16.00
  -2  11   1  -18.20   24.80
   1 -11  -1   18.70   24.60
   1 -11  -1    7.10   21.30
  -1  11   1  -28.50   21.50
  -1  11   1   28.30   26.20
  -1  11   1   -5.10   13.90
  -1  11   1    2.00   12.70
  -1  11   1    0.70   16.40
   0 -11  -1   64.39   29.60
   0  11   1   36.00   14.00
   0  11   1   40.30   20.00
   0  11   1    9.50   23.50
   0  11   1   19.80   27.40
   0  11   1   36.60   23.80
  -1 -11  -1   21.40   22.30
   1  11   1   31.20   24.60
   1  11   1    6.40   24.50
   1  11   1   18.80   11.60
   1  11   1   15.50   22.30
   1  11   1   -6.00   22.40
   1  11   1  -41.60   25.30
   1  12  -2  -24.20   28.70
   1  12  -2   33.30   22.40
  -1 -12   2   40.60   26.20
  -1 -12   2   19.40   29.80
   0  12  -2   42.30   31.20
   0 -12   2   19.00   23.30
   0 -12   2   65.29   32.90
  -1  12  -2   42.10   28.10
   1 -12   2   77.09   32.60
   1 -12   2   86.99   32.00
   1 -12   2    6.70   35.80
  -2  12  -2    2.00   30.00
  -2  12  -2    8.80   14.90
  -2  12  -2   -6.90   25.10
   2 -12   2   37.50   23.90
   2 -12   2   42.90   39.20
   2 -12   2   24.70   24.50
   4  11  -2   36.30   27.80
   4  11  -2   36.40   15.40
  -4 -11   2  -13.40   21.60
   3  11  -2   57.59   19.80
   3  11  -2   -7.10   23.50
   3  11  -2   13.20   23.40
   3  11  -2  -45.40   20.80
   3  11  -2  -17.10   17.70
  -3 -11   2  -20.90   14.80
   2  11  -2  -18.10   21.20
   2  11  -2   -9.30   19.20
   2  11  -2   25.50   22.20
  -2 -11   2   19.40   21.80
   1  11  -2   48.00   25.40
   1  11  -2   36.00   18.90
   1  11  -2  -10.80   17.80
  -1 -11   2   11.70   20.40
  -1 -11   2  -25.80   14.80
   0  11  -2   66.39   25.30
   0  11  -2   23.80   25.10
   0 -11   2   13.30   24.30
   0 -11   2   33.80   20.70
   0 -11   2    4.70   20.80
  -1  11  -2  -22.70   20.20
  -1  11  -2   35.00   24.60
   1 -11   2   22.70   21.70
   1 -11   2   -9.70   19.40
   1 -11   2    6.00   19.10
  -2  11  -2   34.30   22.30
  -2  11  -2   -1.10    9.40
  -2  11  -2    1.90   21.90
   2 -11   2   17.00   20.90
   2 -11   2  -22.30   18.80
   2 -11   2  -19.20   16.80
  -3  11  -2   45.30   17.60
  -3  11  -2   21.90   26.00
  -3  11  -2   15.90   26.90
   3 -11   2   23.90   24.90
   3 -11   2   66.49   27.10
  -4  11  -2   93.59   22.80
  -4  11  -2  101.79   32.40
  -4  11  -2   53.29   29.90
   4 -11   2   13.90   27.00
   4 -11   2   42.00   31.70
  -5  11  -2  -27.80   17.00
  -5  11  -2  -38.30   24.20
  -5  11  -2   38.20   29.30
   5 -11   2   41.60   27.00
   5  10  -2   19.50   28.50
   5  10  -2   35.20   21.80
  -5 -10   2  -13.40   18.90
   4  10  -2   11.70   13.10
   4  10  -2   -7.10   18.90
   4  10  -2   14.90   25.00
  -4 -10   2   11.50   24.70
   3  10  -2   45.90   23.70
   3  10  -2   11.90   18.60
   3  10  -2   22.10   14.30
   3  10  -2   37.80   24.10
  -3 -10   2   16.40   21.80
   2  10  -2   64.39   19.90
   2  10  -2  -13.00   17.70
  -2 -10   2   48.90   25.00
   1  10  -2  446.96   48.20
   1  10  -2  464.35   38.00
   1  10  -2  410.96   47.30
  -1 -10   2  266.07   43.90
  -1 -10   2  343.07   38.80
   0  10  -2   -9.60   18.10
   0  10  -2   42.40   23.40
   0  10  -2    6.90   11.80
   0 -10   2   10.20   17.90
   0 -10   2    5.40   16.40
  -1  10  -2  -13.20   18.20
  -1  10  -2   19.40   22.10
  -1  10  -2   19.70    7.70
   1 -10   2    5.10   17.10
   1 -10   2    2.90   16.50
  -2  10  -2   38.40   22.70
  -2  10  -2   44.40   22.00
  -2  10  -2    7.30   10.30
   2 -10   2  -33.80   15.30
   2 -10   2   27.80   19.20
  -3  10  -2   -4.50   11.70
  -3  10  -2  -18.60   19.30
  -3  10  -2  -33.60   14.90
   3 -10   2   27.30   20.70
  -4  10  -2   39.50   19.00
  -4  10  -2  -12.40   20.20
  -4  10  -2   21.40   23.00
   4 -10   2   57.09   24.00
   4 -10   2   42.00   27.40
  -5  10  -2  100.79   31.40
  -5  10  -2  148.59   37.20
  -5  10  -2  134.29   28.70
   5 -10   2   95.79   30.60
   5 -10   2  171.28   39.70
  -6  10  -2   21.00   21.90
   6 -10   2  -39.40   25.80
   6 -10   2  -24.50   23.60
   6   9  -2   20.00   19.20
   6   9  -2    6.80   25.30
  -6  -9   2  -13.70   16.70
   5   9  -2   -2.80   19.50
   5   9  -2    0.90    7.20
   5   9  -2   43.30   28.90
  -5  -9   2   15.90   19.40
   4   9  -2   38.50   13.50
   4   9  -2    4.80   19.20
  -4  -9   2   11.40   21.00
   3   9  -2  -33.80   12.10
   3   9  -2  -10.80   11.20
  -3  -9   2    7.30   17.00
   2   9  -2   -5.10   13.40
   2   9  -2    2.80   16.40
  -2  -9   2   14.60   15.60
  -2  -9   2   11.70   12.80
   1   9  -2  179.48   25.90
   1   9  -2   88.99   32.10
   1   9  -2  191.98   35.10
  -1  -9   2  120.99   31.40
  -1  -9   2  137.19   27.10
  -1  -9   2  131.89   28.80
   0   9  -2  162.78   21.60
   0   9  -2  200.38   35.50
   0   9  -2  180.38   33.90
   0  -9   2  133.79   28.30
   0  -9   2  156.38   30.30
  -1   9  -2   20.30   18.00
  -1   9  -2   13.70    9.00
  -1   9  -2   12.60   18.20
   1  -9   2   18.40   15.20
   1  -9   2   15.00   18.40
   1  -9   2    6.90   14.70
  -2   9  -2  -25.40   13.60
  -2   9  -2  -12.00   17.30
  -2   9  -2   -0.60    8.00
   2  -9   2   -5.90   13.50
   2  -9   2  -13.30   14.20
   2  -9   2    7.90   16.40
  -3   9  -2  221.38   38.40
  -3   9  -2  271.47   40.50
  -3   9  -2  275.27   27.20
   3  -9   2  332.07   47.40
   3  -9   2  231.88   36.50
  -4   9  -2   79.99   29.90
  -4   9  -2   96.59   26.60
  -4   9  -2  147.99   25.00
   4  -9   2  114.89   29.40
   4  -9   2  147.19   33.90
  -5   9  -2  -28.30   18.00
  -5   9  -2   -8.20   12.70
  -5   9  -2   31.20   21.90
   5  -9   2   -5.10   16.60
  -6   9  -2   16.40   26.00
  -6   9  -2  -21.80   18.70
   6  -9   2   11.40    5.30
   6  -9   2    5.10   21.00
  -7   9  -2  -32.50   22.10
  -7   9  -2   -2.50   22.50
   7  -9   2   -5.50   10.50
   7  -9   2   12.20   45.40
   7   8  -2   51.19   36.70
   7   8  -2   39.30   25.90
   7   8  -2   52.99   22.40
  -7  -8   2   -5.60   19.80
   6   8  -2  -30.80   20.80
   6   8  -2   22.10   22.10
  -6  -8   2   17.60   11.40
  -6  -8   2    7.30   20.60
   5   8  -2   -0.20   19.70
   5   8  -2   19.60   15.90
   5   8  -2    2.60    6.30
  -5  -8   2   -7.50   19.40
   4   8  -2   92.39   15.80
   4   8  -2   77.59   28.60
  -4  -8   2   59.39   22.80
   3   8  -2   14.00   11.70
   3   8  -2   47.10   28.40
  -3  -8   2    2.80   16.70
   2   8  -2  250.17   37.90
  -2  -8   2  295.87   29.30
  -2  -8   2  240.08   36.30
   1   8  -2 1129.79   66.39
   1   8  -2 1059.09   50.79
  -1  -8   2 1141.09   64.39
  -1  -8   2 1167.38   64.39
  -1  -8   2 1141.09   57.99
   0   8  -2   83.99   25.10
   0   8  -2   66.29   14.60
   0   8  -2   86.79   22.70
   0  -8   2  120.59   27.60
   0  -8   2  101.59   24.30
   0  -8   2   89.69   20.70
  -1   8  -2   13.50    7.60
  -1   8  -2   14.90   18.80
  -1   8  -2  -26.10   13.10
   1  -8   2    6.30   13.70
   1  -8   2   22.70   17.50
   1  -8   2    9.60   14.40
  -2   8  -2   75.69   21.60
  -2   8  -2   70.19   14.40
  -2   8  -2   42.70   17.10
   2  -8   2   79.59   23.90
   2  -8   2   61.99   21.30
   2  -8   2   58.19   20.80
  -3   8  -2   72.39   16.80
  -3   8  -2   62.29   23.10
   3  -8   2   23.70   21.20
  -4   8  -2    5.60   11.10
  -4   8  -2    1.90   14.80
  -4   8  -2    0.10   19.30
   4  -8   2  -10.10   13.40
  -5   8  -2   33.80   23.00
  -5   8  -2  -21.50   17.10
   5  -8   2   14.90   15.90
   5  -8   2    3.10    5.80
  -6   8  -2  -18.60   16.90
  -6   8  -2   15.40   23.00
   6  -8   2   32.90   22.00
  -7   8  -2   25.90   25.90
  -7   8  -2   -7.90   19.90
   7  -8   2   34.80   24.00
   7  -8   2    7.80   21.70
  -8   8  -2   90.99   36.90
  -8   8  -2   65.99   17.60
   8  -8   2   83.29   31.00
   8  -8   2   86.29   32.90
   8   7  -2    0.10   23.90
   8   7  -2   75.79   34.40
   8   7  -2   -6.60   22.90
  -8  -7   2   11.40   23.00
   7   7  -2  -34.30   18.40
   7   7  -2   -5.30   17.80
   7   7  -2   -0.50   22.80
  -7  -7   2    2.10   20.80
  -7  -7   2   15.10   13.90
   6   7  -2   47.30   20.10
   6   7  -2   25.00   25.60
  -6  -7   2   55.79   13.20
  -6  -7   2   50.89   24.60
   5   7  -2   -1.90    4.50
   5   7  -2   -3.50   19.40
   5   7  -2    9.40   14.40
  -5  -7   2    9.60    8.90
  -5  -7   2    1.80   12.60
   4   7  -2    4.80   18.00
   4   7  -2   -7.90    7.50
   3   7  -2    8.30   10.20
   3   7  -2  -32.90   12.50
  -3  -7   2    7.10   12.50
   2   7  -2  185.28   30.60
  -2  -7   2  186.88   30.60
  -2  -7   2  166.48   23.30
   1   7  -2  214.48   32.30
   1   7  -2  225.08   22.50
  -1  -7   2  212.08   24.90
  -1  -7   2  252.17   30.10
  -1  -7   2  241.98   33.30
   0   7  -2    1.30   13.30
   0   7  -2  -11.30   11.80
   0   7  -2    3.90    3.60
   0  -7   2   -5.30    9.80
   0  -7   2   39.80   18.80
  -1   7  -2   97.89   12.90
  -1   7  -2   83.79   23.10
  -1   7  -2   43.20   19.70
   1  -7   2   90.09   21.20
   1  -7   2   63.99   19.00
   1  -7   2   87.89   21.70
  -2   7  -2   19.00   17.00
  -2   7  -2   28.20   17.60
  -2   7  -2   10.30    9.50
   2  -7   2   -4.00   12.80
   2  -7   2   23.10   16.40
  -3   7  -2   10.40   15.80
  -3   7  -2   43.60   14.80
  -3   7  -2   24.20   18.80
   3  -7   2   45.60   17.60
  -4   7  -2   22.30   14.40
  -4   7  -2   18.30   17.60
  -4   7  -2   41.80   19.80
   4  -7   2   51.09   21.50
   4  -7   2   17.50    6.20
  -5   7  -2  233.18   33.30
  -5   7  -2  185.18   42.50
   5  -7   2  114.89   26.40
   5  -7   2  181.18   34.30
  -6   7  -2  -11.60   13.80
  -6   7  -2   -9.90   12.90
   6  -7   2   -3.90   15.90
  -7   7  -2   24.80   20.30
  -7   7  -2   -1.00   19.80
   7  -7   2   17.50   21.50
   7  -7   2   17.50   22.60
  -8   7  -2   58.99   17.50
  -8   7  -2  -32.60   21.90
   8  -7   2   49.90   24.90
   8   6  -2   24.20   23.10
   8   6  -2   15.40   21.60
   8   6  -2   23.40   26.80
  -8  -6   2    2.20   19.30
  -8  -6   2   40.30   19.80
   7   6  -2   43.40   22.90
   7   6  -2   31.90   16.40
   7   6  -2   20.40   11.10
   7   6  -2    3.70   22.70
  -7  -6   2   33.70   21.30
  -7  -6   2   29.60   16.70
   6   6  -2  190.48   32.60
   6   6  -2  174.98   24.50
   6   6  -2  209.08   36.80
  -6  -6   2  171.58   23.60
  -6  -6   2  141.19   32.50
   5   6  -2  130.39   35.80
   5   6  -2   68.39    4.50
   5   6  -2   64.99   18.60
  -5  -6   2   82.09   16.10
  -5  -6   2  104.89   25.00
   4   6  -2   -4.70   13.80
   4   6  -2   12.50    7.40
  -4  -6   2    2.20    7.40
  -4  -6   2  -27.20   10.90
   3   6  -2  110.29   23.80
   3   6  -2   77.69   13.10
  -3  -6   2   76.19   20.10
   2   6  -2   26.10   15.80
  -2  -6   2   15.30    9.60
  -2  -6   2    3.10   11.80
   1   6  -2  134.49   24.90
  -1  -6   2  125.99   23.20
  -1  -6   2  125.69   22.60
  -1  -6   2  164.58   19.70
   0   6  -2  273.17   18.30
   0   6  -2  283.87   29.90
   0   6  -2  271.87   12.40
   0  -6   2  316.77   27.30
   0  -6   2  355.76   28.60
   0  -6   2  285.17   28.50
  -1   6  -2  176.98   15.40
  -1   6  -2  191.68   27.90
  -1   6  -2  171.68   26.60
   1  -6   2  213.98   27.00
   1  -6   2  173.48   25.80
  -2   6  -2  180.98   19.50
  -2   6  -2  179.08   27.20
  -2   6  -2  224.58   31.10
   2  -6   2  185.28   28.00
   2  -6   2  224.38   23.80
  -3   6  -2   11.70   11.30
  -3   6  -2   21.80   15.50
  -3   6  -2   23.50   15.20
   3  -6   2   14.60   14.10
   3  -6   2   13.30    4.30
  -4   6  -2  -20.20   11.50
  -4   6  -2   -1.70   14.00
  -4   6  -2    8.60   11.70
   4  -6   2    4.30   12.80
   4  -6   2    1.10   11.60
  -5   6  -2  446.36   38.80
  -5   6  -2  349.27   40.20
   5  -6   2  377.06   38.30
  -6   6  -2  214.58   35.50
  -6   6  -2  144.59   46.40
   6  -6   2  193.28   33.00
   6  -6   2  187.28   35.90
  -7   6  -2  402.56   50.69
  -7   6  -2  434.96   47.20
   7  -6   2  396.46   47.80
   7  -6   2  267.77   38.80
  -8   6  -2   -4.50   11.90
  -8   6  -2   -5.60   21.50
  -8   6  -2  -29.30   18.90
   8  -6   2    3.90   19.80
   8  -6   2   18.70   24.90
   9   5  -2   14.20   21.10
   9   5  -2    4.60   11.20
   9   5  -2   36.30   22.80
   8   5  -2   17.70   21.10
   8   5  -2    3.10   18.10
  -8  -5   2   42.80   18.90
   7   5  -2  263.47   38.90
   7   5  -2  283.07   36.80
  -7  -5   2  347.87   34.90
   6   5  -2   51.39   10.40
   6   5  -2   54.89   22.00
   6   5  -2   66.79   20.60
  -6  -5   2   49.60   16.50
   5   5  -2   90.59   21.20
   5   5  -2   87.69   23.30
   5   5  -2   84.29   11.70
  -5  -5   2  110.79   18.00
   4   5  -2   73.09   21.00
   4   5  -2   57.09    9.00
  -4  -5   2   46.60   17.40
  -4  -5   2   76.89   13.20
   3   5  -2  390.26   34.50
   3   5  -2  293.47   20.70
  -3  -5   2  294.37   28.80
  -3  -5   2  328.77   17.10
   2   5  -2  381.26   32.10
   2   5  -2  335.87   23.00
  -2  -5   2  338.27   28.70
  -2  -5   2  319.57   21.10
   1   5  -2  420.16   33.40
  -1  -5   2  394.36   29.30
  -1  -5   2  393.56   25.80
  -1  -5   2  423.26   32.20
   0   5  -2   17.60    6.60
   0   5  -2    9.90   13.00
   0   5  -2   24.30    5.10
   0  -5   2   39.00   13.70
   0  -5   2   11.70   12.50
  -1   5  -2   47.10   10.00
  -1   5  -2   59.99   17.50
  -1   5  -2   42.90   15.50
   1  -5   2   72.99   18.20
   1  -5   2   62.39   15.40
  -2   5  -2    7.00    8.50
  -2   5  -2    1.30   12.70
  -2   5  -2   -5.50   10.30
   2  -5   2   -2.40    8.30
   2  -5   2   -3.50    8.40
   2  -5   2    1.80    8.60
  -3   5  -2   12.10   12.10
  -3   5  -2    2.70   10.30
  -3   5  -2    2.00    9.10
   3  -5   2   -2.00    9.70
   3  -5   2   -9.00   11.90
   3  -5   2    0.80   10.10
  -4   5  -2   13.20   11.70
  -4   5  -2   18.60   15.30
  -4   5  -2  -12.20   10.40
   4  -5   2    4.50   10.40
   4  -5   2   20.00   14.20
   4  -5   2   11.50   13.10
  -5   5  -2  509.45   43.00
  -5   5  -2  607.34   44.20
   5  -5   2  530.25   46.10
   5  -5   2  534.25   44.20
   5  -5   2  549.35   41.70
  -6   5  -2  230.88   34.80
  -6   5  -2  184.88   32.40
   6  -5   2  182.28   34.30
   6  -5   2  153.78   32.90
   6  -5   2  197.88   32.80
  -7   5  -2   29.80   12.50
  -7   5  -2   -2.70   21.90
  -7   5  -2    3.10   17.80
   7  -5   2   56.99   22.80
   7  -5   2   23.30   19.40
  -8   5  -2   22.30   21.00
  -8   5  -2    7.70   18.30
  -8   5  -2   22.50   14.20
   8  -5   2   37.30   21.60
   8  -5   2    2.80   19.80
  -9   5  -2   92.09   20.60
  -9   5  -2  144.69   33.80
  -9   5  -2   96.79   34.10
   9  -5   2   58.09   33.50
   9  -5   2   95.79   29.20
   9   4  -2   -4.80   18.60
   9   4  -2   66.49   22.30
  -9  -4   2  -11.30   32.20
   8   4  -2   72.39   22.90
   8   4  -2   81.39   27.90
  -8  -4   2   54.99   21.00
   7   4  -2  101.19   26.40
  -7  -4   2  118.59   24.50
   6   4  -2  269.07   28.80
   6   4  -2  291.97   37.80
  -6  -4   2  277.77   27.80
   5   4  -2   30.40    7.40
   5   4  -2   48.70   15.60
  -5  -4   2   43.70   12.70
   4   4  -2  612.34   23.20
   4   4  -2  587.84   22.00
  -4  -4   2  610.64   30.90
   3   4  -2  158.28   14.50
   3   4  -2  194.78   26.40
  -3  -4   2  140.09   13.50
   2   4  -2 2918.21   82.29
   2   4  -2 3270.17   98.89
  -2  -4   2 3056.69   70.99
  -2  -4   2 3211.98   78.59
  -2  -4   2 3107.69   93.69
   1   4  -2   -6.90   10.30
  -1  -4   2   -6.30   10.40
  -1  -4   2   -3.80    7.10
   0   4  -2  345.77   27.40
   0   4  -2  335.17   14.20
   0  -4   2  345.37   25.60
   0  -4   2  307.87   13.90
   0  -4   2  319.37   26.40
  -1   4  -2 1558.84   57.59
  -1   4  -2 1482.55   58.39
  -1   4  -2 1459.05   47.10
   1  -4   2 1533.65   58.89
   1  -4   2 1526.85   50.99
   1  -4   2 1480.15   47.70
  -2   4  -2    1.70    8.50
  -2   4  -2   -1.10   13.00
  -2   4  -2    7.90   10.90
   2  -4   2   21.80   13.40
   2  -4   2   16.20   11.10
  -3   4  -2  104.29   19.40
  -3   4  -2  101.59   18.80
  -3   4  -2  115.59   22.70
   3  -4   2   86.89   19.00
   3  -4   2  125.89   22.90
   3  -4   2   91.19   18.20
  -4   4  -2  160.88   25.10
  -4   4  -2  125.69   22.90
   4  -4   2  176.48   28.30
   4  -4   2  166.88   23.80
   4  -4   2  180.28   26.90
  -5   4  -2  565.74   42.20
  -5   4  -2  562.54   42.90
   5  -4   2  639.04   47.40
   5  -4   2  621.84   45.80
   5  -4   2  587.54   41.60
  -6   4  -2  434.66   40.90
  -6   4  -2  416.36   38.50
  -6   4  -2  397.46   29.90
   6  -4   2  427.86   37.80
   6  -4   2  463.55   45.20
   6  -4   2  419.96   42.60
  -7   4  -2   18.50   20.00
  -7   4  -2   16.70   12.80
  -7   4  -2    4.20   16.50
   7  -4   2   35.30   19.10
  -8   4  -2   11.50   22.60
  -8   4  -2   33.10   13.80
  -8   4  -2   26.10   21.30
   8  -4   2   25.80   22.70
   8  -4   2  -28.50   15.90
   8  -4   2    0.20   20.10
  -9   4  -2  -46.90   21.50
  -9   4  -2   23.30   16.70
  -9   4  -2  -29.80   17.80
   9  -4   2   19.80   21.80
   9  -4   2   -4.60   29.10
  10   3  -2   -0.10   24.80
 -10  -3   2   49.99   26.90
   9   3  -2  -41.10   20.30
   9   3  -2  -23.50   14.90
  -9  -3   2   -2.80   18.70
   8   3  -2   15.80   18.70
  -8  -3   2   16.00   16.10
   7   3  -2  819.02   48.00
   7   3  -2  814.92   57.39
  -7  -3   2  898.61   53.89
   6   3  -2  221.98   32.40
   6   3  -2  300.97   28.10
  -6  -3   2  260.47   11.60
  -6  -3   2  243.68   27.30
   5   3  -2  248.38   28.50
   5   3  -2  180.08   23.70
  -5  -3   2  209.28   23.50
  -5  -3   2  271.97   13.70
   4   3  -2  205.58   13.30
  -4  -3   2  183.28   19.90
  -4  -3   2  184.88   12.70
   3   3  -2   69.59    9.80
  -3  -3   2   87.59   10.70
  -3  -3   2   69.99   11.40
   2   3  -2   98.29   17.50
   2   3  -2   71.19   10.80
  -2  -3   2   86.39    9.50
   1   3  -2  284.57   28.90
   1   3  -2  277.67   20.00
  -1  -3   2  313.47   20.70
  -1  -3   2  298.47   10.50
  -1  -3   2  267.27   23.20
   0   3  -2 2132.09   66.39
   0   3  -2 1985.80   52.09
   0  -3   2 2164.88   66.89
   0  -3   2 2123.69   59.09
   0  -3   2 2079.49   52.69
  -1   3  -2   65.79   11.40
  -1   3  -2   63.49   13.70
  -1   3  -2   87.59   16.70
   1  -3   2   62.19   15.20
   1  -3   2   80.29   12.70
   1  -3   2  100.59   12.40
  -2   3  -2  410.76   27.10
  -2   3  -2  464.15   30.40
  -2   3  -2  434.06   28.20
   2  -3   2  422.46   29.50
   2  -3   2  412.76   30.40
   2  -3   2  418.86   26.80
  -3   3  -2  234.78   24.40
  -3   3  -2  284.67   24.70
   3  -3   2  244.88   22.80
   3  -3   2  259.47   27.40
   3  -3   2  282.47   27.80
  -4   3  -2   33.10   13.80
  -4   3  -2   27.60   14.50
   4  -3   2   48.60   14.50
   4  -3   2   15.80   14.80
   4  -3   2   12.60   13.50
  -5   3  -2   13.20   13.70
  -5   3  -2   21.40   14.00
   5  -3   2    8.70   14.10
   5  -3   2   18.30   15.60
   5  -3   2   20.90   12.70
  -6   3  -2  222.98   55.29
  -6   3  -2  275.57   30.40
  -6   3  -2  249.88   28.10
   6  -3   2  228.88   36.70
   6  -3   2  200.48   56.49
   6  -3   2  253.27   27.90
  -7   3  -2   61.19   21.30
  -7   3  -2   49.80   16.10
   7  -3   2  113.49   28.20
   7  -3   2   45.80   17.80
   7  -3   2   16.40   20.70
  -8   3  -2  119.59   26.50
  -8   3  -2   99.09   35.60
  -8   3  -2   71.09   18.50
   8  -3   2  132.09   27.30
   8  -3   2  136.09   35.50
   8  -3   2   58.99   30.40
  -9   3  -2   26.20   24.50
  -9   3  -2   46.50   32.00
  -9   3  -2   29.50   21.50
   9  -3   2  -20.10   15.70
   9  -3   2   22.90   22.70
   9  -3   2   -5.80   25.60
  10   2  -2    0.00   21.50
 -10  -2   2   10.60   23.40
   9   2  -2   38.30   20.00
   9   2  -2   34.10   21.80
  -9  -2   2   14.80   20.10
   8   2  -2  242.18   39.20
   8   2  -2  330.67   32.30
  -8  -2   2  256.47   18.10
  -8  -2   2  294.97   34.50
   7   2  -2  626.24   49.30
   7   2  -2  734.53   41.70
  -7  -2   2  714.73   48.50
  -7  -2   2  685.43   29.30
   6   2  -2   12.60    9.90
   6   2  -2    6.70   12.50
  -6  -2   2  -12.20   10.10
  -6  -2   2    1.30    6.40
   5   2  -2   19.00    9.80
   5   2  -2    4.40   13.00
  -5  -2   2   19.70   11.60
  -5  -2   2    5.50    6.40
   4   2  -2   -8.90   10.50
   4   2  -2    0.10    5.10
  -4  -2   2    2.90    8.60
  -4  -2   2   -3.70    5.60
   3   2  -2    5.90    6.00
  -3  -2   2    3.20    6.40
  -3  -2   2    6.10    8.00
   2   2  -2   62.49   10.40
   2   2  -2   92.69   15.00
  -2  -2   2   58.19   10.00
   1   2  -2 6676.73  155.58
   1   2  -2 6941.51  159.58
  -1  -2   2 6780.02  155.58
  -1  -2   2 6832.52  159.28
   0   2  -2 1324.57   39.60
   0   2  -2 1438.26   46.50
   0   2  -2 1426.86   46.70
   0  -2   2 1409.86   46.60
   0  -2   2 1373.66   39.70
   0  -2   2 1387.16   38.70
  -1   2  -2    3.40    8.60
  -1   2  -2    5.60    7.80
  -1   2  -2   17.30   11.60
  -1   2  -2    5.40   10.10
   1  -2   2    2.80    4.60
   1  -2   2    2.90    4.50
   1  -2   2   -5.20    9.90
   1  -2   2    7.50    8.90
  -2   2  -2  347.27   21.40
  -2   2  -2  343.77   27.20
  -2   2  -2  374.76   25.80
   2  -2   2  308.87   20.50
   2  -2   2  348.87   26.90
   2  -2   2  282.07   29.80
  -3   2  -2   44.90   15.20
  -3   2  -2   49.20   13.60
   3  -2   2   32.20   11.40
   3  -2   2   19.00   13.70
   3  -2   2   42.00   13.00
  -4   2  -2 1376.06   54.59
  -4   2  -2 1402.96   62.69
   4  -2   2 1385.36   54.19
   4  -2   2 1444.66   65.29
   4  -2   2 1427.76   65.09
  -5   2  -2    0.30    9.70
  -5   2  -2   -0.10   12.00
  -5   2  -2   21.30   11.50
   5  -2   2   24.60   15.30
   5  -2   2   -0.60    9.50
   5  -2   2  -29.00   11.20
  -6   2  -2  116.69   20.20
  -6   2  -2  119.89   22.90
  -6   2  -2   86.09   27.40
   6  -2   2   96.89   28.70
   6  -2   2   80.79   24.80
   6  -2   2   78.99   19.40
  -7   2  -2    6.20   15.70
  -7   2  -2   -2.40   10.40
   7  -2   2   13.30   21.10
   7  -2   2   10.70   13.10
   7  -2   2   12.10   14.00
  -8   2  -2    2.40   13.10
  -8   2  -2  -15.30   14.60
  -8   2  -2   17.70   13.70
  -8   2  -2  -27.40   19.60
   8  -2   2   24.30   19.30
   8  -2   2  -13.80   17.70
   8  -2   2   -0.30   20.10
  -9   2  -2   18.10   21.20
  -9   2  -2   20.20   15.90
  -9   2  -2    5.30   22.70
  -9   2  -2    8.70   14.30
   9  -2   2   16.10   23.10
   9  -2   2  -10.70   21.60
   9  -2   2  -23.80   16.70
  10   1  -2   13.40   24.40
 -10  -1   2   30.90   12.20
   9   1  -2    8.70   20.60
  -9  -1   2   18.60   16.90
  -9  -1   2   18.50   10.50
   8   1  -2    4.50   11.30
   8   1  -2  -11.50   13.80
  -8  -1   2    0.50   14.00
  -8  -1   2   -2.20    9.10
   7   1  -2   32.00   16.80
   7   1  -2   -4.70   10.00
  -7  -1   2   24.90   17.00
  -7  -1   2   12.70   10.00
   6   1  -2  172.38   27.80
   6   1  -2  186.88   21.60
  -6  -1   2  178.68   27.30
  -6  -1   2  176.88   30.50
   5   1  -2   20.70    8.90
   5   1  -2    6.30   13.10
  -5  -1   2   18.00   12.80
  -5  -1   2   20.00    8.20
   4   1  -2   14.20   12.00
   4   1  -2   19.90   10.10
  -4  -1   2   13.40    8.00
  -4  -1   2   23.50   11.50
   3   1  -2   13.40   11.20
   3   1  -2   21.00    8.00
  -3  -1   2   34.80    9.20
  -3  -1   2   25.20   10.60
   2   1  -2 1588.04   53.29
   2   1  -2 1598.74   47.50
  -2  -1   2 1629.74   48.10
   1   1  -2  433.86   20.50
   1   1  -2  428.46   22.20
  -1  -1   2  446.06   20.60
  -1  -1   2  443.56   22.90
   0   1  -2 1591.84   44.10
   0   1  -2 1585.94   46.70
   0   1  -2 1579.34   47.20
   0   1  -2 1560.14   45.50
   0  -1   2 1593.34   47.70
   0  -1   2 1553.64   45.60
   0  -1   2 1622.54   46.80
  -1   1  -2 3107.99   74.19
  -1   1  -2 3099.59   84.09
  -1   1  -2 3207.58   84.59
  -1   1  -2 3172.08   81.89
   1  -1   2 3280.27   84.89
   1  -1   2 3141.49   79.19
   1  -1   2 3212.18   84.79
   1  -1   2 3060.39   81.29
  -2   1  -2 1145.29   46.50
  -2   1  -2 1220.08   42.50
  -2   1  -2 1166.98   37.10
   2  -1   2 1174.78   47.50
   2  -1   2 1170.48   36.70
   2  -1   2 1258.07   50.29
  -3   1  -2  319.47   28.00
  -3   1  -2  286.37   22.50
  -3   1  -2  295.27   20.00
  -3   1  -2  335.27   23.40
   3  -1   2  269.37   27.20
   3  -1   2  269.07   19.30
  -4   1  -2   67.59   14.30
  -4   1  -2   79.69   15.10
  -4   1  -2   75.49   13.60
  -4   1  -2   39.30   16.40
   4  -1   2   63.09   13.20
   4  -1   2   68.49   19.20
  -5   1  -2   77.79   20.70
  -5   1  -2  114.79   17.10
  -5   1  -2  110.59   19.00
  -5   1  -2  111.79   18.70
   5  -1   2   97.19   17.60
   5  -1   2  138.39   27.30
  -6   1  -2   -7.80   10.60
  -6   1  -2   10.50   13.80
  -6   1  -2  -11.30    8.60
  -6   1  -2  -19.10    9.00
   6  -1   2    3.50   10.70
   6  -1   2   21.10   17.00
  -7   1  -2   -0.10   14.80
  -7   1  -2   18.30   11.30
  -7   1  -2   25.30   15.50
  -7   1  -2   24.50   14.70
   7  -1   2   16.60   13.80
   7  -1   2  -14.20   17.80
  -8   1  -2    7.50   18.60
  -8   1  -2    3.20   12.80
  -8   1  -2   -4.60   10.40
   8  -1   2  -16.20   17.10
   8  -1   2   14.00   21.40
   8  -1   2   -6.20   11.50
  -9   1  -2   34.60   17.90
  -9   1  -2  -10.70   20.70
  -9   1  -2    7.80   12.00
   9  -1   2   13.70   17.40
   9  -1   2  -10.30   22.10
   9  -1   2  -12.20   23.20
  10   0  -2   18.60   24.50
 -10   0   2   15.40   14.20
 -10   0   2  -15.00   30.00
   9   0  -2   46.70   22.50
  -9   0   2   51.09   23.00
  -9   0   2   20.50   12.80
   8   0  -2   45.90   20.80
  -8   0   2   52.99   16.80
  -8   0   2   88.29   26.00
   7   0  -2   -7.80   13.50
  -7   0   2    5.40   13.00
  -7   0   2   -3.20   13.30
  -7   0   2    7.40   11.30
   6   0  -2  109.39   22.70
   6   0  -2   99.29   13.90
  -6   0   2  104.99   22.60
  -6   0   2  102.59   24.20
  -6   0   2   95.59   16.90
   5   0  -2   -0.60    5.70
   5   0  -2   17.20   13.80
  -5   0   2   16.10   13.60
  -5   0   2    8.90   10.80
  -5   0   2    4.30    8.40
   4   0  -2   32.50    7.30
   4   0  -2   23.30   13.80
  -4   0   2   13.70   13.40
  -4   0   2   25.70   13.20
  -4   0   2   24.50   12.50
   3   0  -2 1367.26   44.60
   3   0  -2 1402.96   52.89
  -3   0   2 1363.26   52.79
  -3   0   2 1362.96   46.50
   2   0  -2 1328.27   44.90
   2   0  -2 1399.46   48.40
   2   0  -2 1358.36   42.20
  -2   0   2 1417.06   48.30
  -2   0   2 1404.36   42.60
  -2   0   2 1401.66   45.00
   1   0  -2 5706.93  131.89
   1   0  -2 5403.46  120.49
   1   0  -2 5578.14  129.39
  -1   0   2 5608.34  130.29
  -1   0   2 5730.43  129.69
  -1   0   2 5726.43  131.79
   0   0  -2 6956.50  159.18
   0   0  -2 7058.59  157.78
   0   0  -2 6924.31  148.49
   0   0   2 6950.60  159.38
   0   0   2 7006.30  160.48
   0   0   2 7104.79  157.98
   0   0   2 6586.44  151.38
  -1   0  -2 4494.15  114.79
  -1   0  -2 4452.25  100.49
  -1   0  -2 4648.04  109.19
   1   0   2 4495.15  113.39
   1   0   2 4660.93  109.19
   1   0   2 4714.13  116.19
  -2   0  -2 1045.80   44.80
  -2   0  -2 1077.59   31.10
  -2   0  -2 1111.49   42.10
  -2   0  -2 1066.09   36.50
  -2   0  -2 1065.09   32.30
   2   0   2 1118.69   37.10
   2   0   2 1033.80   30.80
   2   0   2 1146.99   46.70
  -3   0  -2    8.00    7.50
  -3   0  -2    1.80    9.10
  -3   0  -2   13.30    7.80
  -3   0  -2   11.60   12.10
   3   0   2   14.60   13.20
   3   0   2   -5.60    5.40
  -4   0  -2   31.60   10.90
  -4   0  -2   14.40   12.50
  -4   0  -2   29.00   12.30
  -4   0  -2    7.20    8.80
   4   0   2   27.50   15.70
   4   0   2   39.80   10.50
  -5   0  -2    2.70    7.60
  -5   0  -2   11.60   13.60
  -5   0  -2    1.10    8.90
   5   0   2   11.30    9.30
   5   0   2   -4.60   14.00
  -6   0  -2  -25.30    9.30
  -6   0  -2   -9.00    7.20
  -6   0  -2    5.20   13.80
   6   0   2   36.60   20.10
   6   0   2   25.50   12.40
  -7   0  -2  118.99   23.70
  -7   0  -2  109.39   24.90
  -7   0  -2  117.49   17.10
   7   0   2  122.89   23.50
   7   0   2  121.59   31.10
  -8   0  -2   25.90   17.20
  -8   0  -2    9.40   10.10
  -8   0  -2   25.60   21.70
   8   0   2   35.00   15.30
   8   0   2   25.90   22.00
  -9   0  -2    0.10    9.20
  -9   0  -2    8.80   21.70
  -9   0  -2   -8.90    9.20
   9   0   2  -25.60   21.70
   9   0   2    6.60   15.80
  10  -1  -2   17.50   24.60
 -10   1   2   71.89   21.20
 -10   1   2   59.79   30.00
   9  -1  -2    8.50   18.00
  -9   1   2   13.80   14.90
  -9   1   2   -8.50   16.20
  -9   1   2   48.80   22.00
   8  -1  -2   16.00   16.10
  -8   1   2   16.80   19.20
  -8   1   2   25.10   19.90
  -8   1   2   10.90   13.60
  -7   1   2    7.10   16.50
  -7   1   2   24.10   13.00
   6  -1  -2   -1.10   11.70
  -6   1   2   19.00   12.20
  -6   1   2   -5.40   13.30
  -6   1   2   15.90   14.40
   5  -1  -2  163.18   25.20
  -5   1   2  192.38   28.20
  -5   1   2  159.28   25.10
  -5   1   2  158.58   21.30
   4  -1  -2  338.77   29.60
  -4   1   2  283.17   27.20
  -4   1   2  337.57   25.50
  -4   1   2  265.07   27.80
   3  -1  -2  683.23   33.20
   3  -1  -2  612.84   34.90
  -3   1   2  625.64   35.20
  -3   1   2  663.73   34.40
   2  -1  -2  593.64   29.60
   2  -1  -2  587.44   16.20
   2  -1  -2  572.64   34.90
  -2   1   2  592.44   29.40
  -2   1   2  653.03   31.50
  -2   1   2  619.44   31.10
   1  -1  -2 1898.81   57.29
   1  -1  -2 1950.50   55.19
   1  -1  -2 1969.10   59.29
   1  -1  -2 1935.21   49.20
   1  -1  -2 1934.71   59.29
  -1   1   2 1862.61   58.79
  -1   1   2 1937.81   55.09
  -1   1   2 1973.10   58.09
   0  -1  -2 1858.71   47.80
   0  -1  -2 1894.11   53.49
   0  -1  -2 1878.51   54.79
   0  -1  -2 1925.01   52.79
   0  -1  -2 1928.71   59.69
   0   1   2 1924.21   48.40
   0   1   2 1922.51   55.19
   0   1   2 1939.11   59.19
   0   1   2 1855.41   59.29
  -1  -1  -2  351.66   17.70
  -1  -1  -2  325.77   18.50
  -1  -1  -2  312.27   21.70
   1   1   2  328.07   23.60
   1   1   2  322.17   19.20
   1   1   2  301.37   11.50
   1   1   2  319.57   21.60
   1   1   2  355.86   25.10
  -2  -1  -2   61.79    9.80
  -2  -1  -2   82.69   13.80
  -2  -1  -2   81.09   16.10
  -2  -1  -2   97.39   13.50
   2   1   2   71.29   16.10
   2   1   2   63.79   14.70
   2   1   2   70.49    8.00
   2   1   2   84.49   10.80
  -3  -1  -2    4.50    5.90
  -3  -1  -2    5.50   10.70
  -3  -1  -2    6.60   10.60
  -3  -1  -2    4.20    7.60
   3   1   2   -5.70    5.40
   3   1   2   12.70   13.20
   3   1   2   -3.60    6.90
  -4  -1  -2    9.10   11.90
  -4  -1  -2   31.50   14.10
  -4  -1  -2   20.90    6.80
   4   1   2   31.60   16.10
   4   1   2   17.50   10.00
  -5  -1  -2  330.77   29.60
  -5  -1  -2  284.97   31.80
  -5  -1  -2  328.17   18.80
   5   1   2  306.97   24.50
   5   1   2  307.67   33.90
  -6  -1  -2  175.28   14.60
  -6  -1  -2  240.58   36.50
  -6  -1  -2  223.38   30.50
   6   1   2  141.69   21.50
   6   1   2  178.78   31.70
  -7  -1  -2    9.80   21.50
  -7  -1  -2  -10.30   14.50
  -7  -1  -2   13.50    6.90
   7   1   2   -4.10   11.20
   7   1   2   24.50   18.80
  -8  -1  -2   88.09   27.40
  -8  -1  -2   32.40   18.60
  -8  -1  -2   57.89    6.60
  -8  -1  -2   59.69    6.90
   8   1   2   59.59   17.80
   8   1   2   27.30   25.00
  -9  -1  -2  -45.80   20.20
   9   1   2    1.60   18.90
   9   1   2    8.40   25.60
  10  -2  -2   37.70   28.80
 -10   2   2    0.80   29.80
 -10   2   2   13.40   21.10
 -10   2   2   24.10   26.80
   9  -2  -2   31.20   21.00
  -9   2   2   28.80   22.10
  -9   2   2   22.10   18.50
  -9   2   2   23.40   20.30
   8  -2  -2   81.19   24.80
   8  -2  -2   28.10   18.70
  -8   2   2   69.19   20.10
  -8   2   2   38.50   21.90
  -7   2   2  299.37   34.40
  -7   2   2  273.07   38.10
  -7   2   2  247.48   37.10
   6  -2  -2  277.27   36.40
  -6   2   2  318.87   33.20
  -6   2   2  292.87   28.90
  -6   2   2  290.97   33.60
   5  -2  -2  583.84   41.70
  -5   2   2  613.24   41.40
  -5   2   2  620.14   42.50
  -5   2   2  606.54   38.10
   4  -2  -2 1330.57   58.99
   4  -2  -2 1278.17   55.19
   4  -2  -2 1293.27   50.59
  -4   2   2 1324.67   59.19
  -4   2   2 1300.27   54.29
   3  -2  -2 2029.60   69.69
   3  -2  -2 1901.61   57.99
   3  -2  -2 1839.12   67.99
  -3   2   2 2092.39   71.79
  -3   2   2 1995.40   67.79
   2  -2  -2  527.45   30.40
   2  -2  -2  557.84   21.20
   2  -2  -2  571.74   31.80
  -2   2   2  584.54   32.50
  -2   2   2  544.95   37.00
  -2   2   2  512.75   30.70
   1  -2  -2  545.75   30.20
   1  -2  -2  484.05   17.50
   1  -2  -2  512.85   21.50
   1  -2  -2  509.45   25.90
   1  -2  -2  448.66   34.50
  -1   2   2  464.15   20.90
  -1   2   2  498.25   28.90
  -1   2   2  501.85   28.40
  -1   2   2  491.15   17.60
  -1   2   2  496.45   26.50
   0  -2  -2 2904.11   76.79
   0  -2  -2 2692.23   92.39
   0  -2  -2 2744.23   76.79
   0  -2  -2 2852.91   73.09
   0  -2  -2 2916.11   78.39
   0   2   2 2806.72   76.99
   0   2   2 2856.41   83.69
   0   2   2 2910.21   85.29
   0   2   2 2900.71   73.49
   0   2   2 2676.13   84.49
  -1  -2  -2  313.37   24.20
  -1  -2  -2  355.76   23.80
  -1  -2  -2  296.67   20.80
  -1  -2  -2  315.67   19.30
   1   2   2  322.17   16.50
   1   2   2  355.56   26.80
   1   2   2  336.47   23.50
   1   2   2  261.17   27.30
   1   2   2  309.77   19.10
  -2  -2  -2  722.83   38.90
  -2  -2  -2  829.32   39.50
  -2  -2  -2  759.12   38.50
  -2  -2  -2  777.42   29.10
   2   2   2  793.12   29.60
   2   2   2  810.82   39.20
   2   2   2  841.32   40.60
  -3  -2  -2   17.20    6.00
  -3  -2  -2   11.70   10.50
  -3  -2  -2   30.50   11.80
  -3  -2  -2    2.90   10.20
   3   2   2    9.00    5.50
   3   2   2   41.90   14.90
   3   2   2   23.90   12.30
   3   2   2   15.70    7.60
  -4  -2  -2  156.38   11.00
  -4  -2  -2  208.28   26.50
  -4  -2  -2  217.48   25.70
  -4  -2  -2  161.18   25.90
   4   2   2  159.98   17.40
   4   2   2  173.18   24.00
   4   2   2  183.68   26.70
  -5  -2  -2   86.09   21.40
  -5  -2  -2   67.99   19.20
  -5  -2  -2   95.99   19.50
  -5  -2  -2   83.19    7.00
   5   2   2   69.19   18.40
   5   2   2   70.69   21.30
   5   2   2   66.09   14.20
  -6  -2  -2  113.79   24.50
  -6  -2  -2   88.19   20.40
   6   2   2   81.39   23.50
   6   2   2   85.59   17.90
  -7  -2  -2   19.40   17.20
  -7  -2  -2    7.90   14.60
   7   2   2   27.20   20.70
   7   2   2  -15.90    9.80
  -8  -2  -2  252.77   41.40
  -8  -2  -2  222.48   34.30
   8   2   2  237.58   31.40
   8   2   2  231.88   43.90
  -9  -2  -2  352.56   53.39
  -9  -2  -2  302.87   41.20
   9   2   2  260.17   52.99
   9   2   2  240.58   34.60
  10  -3  -2  -15.80   24.40
  10  -3  -2  -18.40   22.60
 -10   3   2   21.90   25.20
 -10   3   2  -28.30   23.10
 -10   3   2  -28.70   16.90
   9  -3  -2   -7.50   20.90
  -9   3   2   48.00   23.80
  -9   3   2  -12.80   16.60
  -9   3   2    3.10   21.80
   8  -3  -2   18.10   18.70
   8  -3  -2   -3.50   14.70
  -8   3   2  -13.50   18.60
  -8   3   2   28.50   18.30
   7  -3  -2  126.59   25.60
   7  -3  -2  109.89   28.20
  -7   3   2  145.59   27.80
  -7   3   2  163.68   32.70
  -7   3   2  169.58   32.60
   6  -3  -2   94.19   24.90
   6  -3  -2  194.38   27.90
  -6   3   2  145.19   25.20
  -6   3   2  104.19   24.60
  -6   3   2  126.09   27.50
   5  -3  -2  504.65   34.50
   5  -3  -2  497.65   37.60
   5  -3  -2  546.65   40.90
  -5   3   2  505.55   39.50
  -5   3   2  448.66   37.70
   4  -3  -2  579.74   32.30
   4  -3  -2  538.65   38.50
   4  -3  -2  537.05   37.30
  -4   3   2  567.34   38.60
   3  -3  -2  487.05   32.70
   3  -3  -2  436.36   24.60
   3  -3  -2  509.55   35.40
  -3   3   2  504.65   34.70
  -3   3   2  431.26   15.10
   2  -3  -2  218.68   22.50
   2  -3  -2  225.68   23.10
   2  -3  -2  253.27   16.30
   2  -3  -2  248.38   26.10
  -2   3   2  229.28   24.40
  -2   3   2  248.68   14.50
  -2   3   2  237.38   16.70
  -2   3   2  259.47   25.00
  -2   3   2  234.48   23.90
   1  -3  -2  955.90   45.00
   1  -3  -2  962.90   43.30
   1  -3  -2  906.31   41.90
   1  -3  -2  964.70   32.80
   1  -3  -2  944.01   40.50
  -1   3   2 1002.90   46.60
  -1   3   2  921.51   41.40
  -1   3   2  957.30   32.80
  -1   3   2  921.01   34.70
  -1   3   2  852.51   46.40
   0  -3  -2   32.80   11.50
   0  -3  -2   37.40   12.10
   0   3   2   21.00   12.20
   0   3   2   13.40    8.70
   0   3   2   36.70   13.80
   0   3   2   41.80   12.90
   0   3   2   33.50   10.30
   0   3   2   33.40    9.10
  -1  -3  -2    9.00   10.60
  -1  -3  -2   -1.30    9.20
   1   3   2    5.90   11.00
   1   3   2   -1.70    9.00
   1   3   2    5.90    6.80
   1   3   2   -1.30    9.10
   1   3   2   -1.10    6.80
   1   3   2    1.20   10.00
  -2  -3  -2   63.09   15.10
  -2  -3  -2   25.60   13.90
  -2  -3  -2   37.90   13.40
   2   3   2   46.70   14.90
   2   3   2   34.70   13.00
   2   3   2   41.10    9.30
   2   3   2   61.09   15.50
  -3  -3  -2    9.40   12.20
  -3  -3  -2   50.49   14.80
  -3  -3  -2   57.19   15.80
   3   3   2   37.00   15.30
   3   3   2   46.00   15.60
   3   3   2   46.60    8.10
  -4  -3  -2  120.69   22.60
  -4  -3  -2  125.69   23.30
  -4  -3  -2  152.88   24.00
   4   3   2  154.78   17.80
   4   3   2  132.39   23.40
   4   3   2  126.39   21.90
  -5  -3  -2  512.45   38.00
  -5  -3  -2  496.15   41.10
  -5  -3  -2  541.65   40.90
   5   3   2  549.45   44.60
   5   3   2  465.35   38.40
   5   3   2  535.65   33.80
  -6  -3  -2   66.79   21.00
  -6  -3  -2   35.10   23.60
   6   3   2  115.29   26.20
   6   3   2   33.70   17.70
   6   3   2   54.09   15.90
  -7  -3  -2   54.79   33.00
  -7  -3  -2   41.10   19.30
   7   3   2   38.70   17.10
   7   3   2   23.30   20.00
  -8  -3  -2   56.49   22.50
  -8  -3  -2   30.50   24.70
   8   3   2  128.39   33.10
   8   3   2   50.19   19.40
  10  -4  -2   -6.10   25.40
  10  -4  -2  -16.00   22.60
  10  -4  -2   26.10   24.90
 -10   4   2  -35.80   19.60
 -10   4   2  -10.00   31.60
   9  -4  -2    6.40   18.40
   9  -4  -2   19.80   19.90
  -9   4   2  -14.90   22.30
  -9   4   2    6.50   19.80
  -9   4   2   -0.30   25.30
   8  -4  -2    0.40   17.90
   8  -4  -2    7.40   17.90
   8  -4  -2   20.10   19.90
  -8   4   2   17.80   18.90
  -8   4   2    2.60   17.40
  -8   4   2   22.10   18.90
   7  -4  -2  -16.80   12.20
   7  -4  -2   -3.50   15.40
   7  -4  -2   -1.50   13.00
  -7   4   2  -18.00   15.20
  -7   4   2   -1.80   17.40
  -7   4   2    9.90   15.60
   6  -4  -2  771.32   89.09
   6  -4  -2 1123.89   56.99
   6  -4  -2 1180.48   65.39
  -6   4   2  963.90   60.39
  -6   4   2 1098.19   64.59
   5  -4  -2   23.50   16.10
   5  -4  -2   33.40   16.90
   5  -4  -2   17.40   12.80
  -5   4   2   35.90   19.50
  -5   4   2   23.20   16.00
   4  -4  -2  378.76   35.40
   4  -4  -2  372.46   26.90
   4  -4  -2  421.26   35.20
  -4   4   2  426.76   37.40
  -4   4   2  377.56   13.30
   3  -4  -2   89.59   14.40
   3  -4  -2  122.29   21.70
   3  -4  -2  110.39   23.10
  -3   4   2  111.79   10.20
  -3   4   2  138.79   22.90
  -3   4   2   94.69   16.00
   2  -4  -2   48.00   10.90
   2  -4  -2   39.90   14.50
   2  -4  -2   45.00   16.30
   2  -4  -2   61.19   15.50
  -2   4   2   68.49   11.10
  -2   4   2   58.59   16.30
  -2   4   2   67.79   12.80
  -2   4   2   68.19   17.30
   1  -4  -2  730.63   38.90
   1  -4  -2  746.53   40.00
   1  -4  -2  677.73   31.20
   1  -4  -2  647.54   36.50
   1  -4  -2  719.33   42.80
  -1   4   2  702.53   39.20
  -1   4   2  730.83   39.20
  -1   4   2  713.43   31.90
  -1   4   2  773.62   43.10
  -1   4   2  634.54   31.10
  -1   4   2  730.03   38.40
   0  -4  -2   16.50   13.00
   0   4   2   23.30   10.40
   0   4   2   10.70   11.10
   0   4   2    2.00   11.20
   0   4   2   12.20    9.80
   0   4   2    5.30    9.70
   0   4   2   10.60   10.20
  -1  -4  -2  450.35   31.40
   1   4   2  448.76   34.70
   1   4   2  482.05   31.50
   1   4   2  465.25   30.60
   1   4   2  454.25   27.70
   1   4   2  426.06   32.90
   1   4   2  448.76   27.00
   1   4   2  465.75   30.30
  -2  -4  -2  309.97   26.70
   2   4   2  247.58   25.70
   2   4   2  224.08   23.80
   2   4   2  238.18   26.20
   2   4   2  249.18   19.20
   2   4   2  267.17   29.70
  -3  -4  -2  522.65   36.80
  -3  -4  -2  593.74   37.60
   3   4   2  621.94   39.80
   3   4   2  562.04   39.20
   3   4   2  574.64   25.60
  -4  -4  -2  508.35   37.70
  -4  -4  -2  527.15   38.20
   4   4   2  429.76   37.20
   4   4   2  534.45   40.20
  -5  -4  -2  147.89   25.70
  -5  -4  -2  145.99   27.30
   5   4   2  204.28   30.90
   5   4   2  150.68   29.00
   5   4   2  114.69   19.50
  -6  -4  -2    7.00   15.50
  -6  -4  -2  -12.20   14.00
   6   4   2    5.50   12.10
   6   4   2   44.20   21.30
  -7  -4  -2   40.10   20.30
   7   4   2   28.20   13.90
   7   4   2   15.60   20.10
   7   4   2   11.30   19.70
  -8  -4  -2   39.70   24.80
  -8  -4  -2   40.10   21.50
   8   4   2   28.20   24.40
   8   4   2   32.70   18.00
   9  -5  -2  -28.20   27.20
   9  -5  -2  -12.10   18.80
  -9   5   2   22.40   22.80
  -9   5   2  -34.50   23.40
  -9   5   2   -6.60   19.30
   8  -5  -2   42.60   24.40
   8  -5  -2   52.99   24.90
   8  -5  -2   18.20   18.80
  -8   5   2   21.30   22.70
  -8   5   2  -18.80   15.40
  -8   5   2  -10.60   17.40
   7  -5  -2  284.47   43.30
   7  -5  -2  224.68   39.20
   7  -5  -2  276.17   37.30
  -7   5   2  272.97   41.10
  -7   5   2  266.57   41.50
   6  -5  -2   30.60   19.00
   6  -5  -2   49.50   17.50
   6  -5  -2   81.39   24.10
  -6   5   2    7.20   28.40
  -6   5   2   13.70   17.00
   5  -5  -2   13.40   13.00
   5  -5  -2   16.70   17.50
   5  -5  -2   30.50   16.10
  -5   5   2   12.50   16.50
  -5   5   2   32.50   17.40
  -5   5   2   26.10    3.20
   4  -5  -2   54.19   22.10
   4  -5  -2   57.59   16.80
   4  -5  -2   57.49   14.30
  -4   5   2   48.00   19.40
  -4   5   2   42.10    7.30
   3  -5  -2  187.78   19.80
   3  -5  -2  240.48   29.20
   3  -5  -2  213.28   24.70
   3  -5  -2  198.98   29.20
  -3   5   2  241.28   31.30
  -3   5   2  210.48   21.20
   2  -5  -2  139.29   25.50
   2  -5  -2  100.29   19.90
   2  -5  -2  104.49   19.90
   2  -5  -2   95.59   15.50
  -2   5   2  125.29   22.30
  -2   5   2  104.69   16.70
  -2   5   2   97.59   14.40
   1  -5  -2    2.00   10.90
   1  -5  -2    8.20   12.60
   1  -5  -2   -3.90   10.80
  -1   5   2    4.40    8.90
  -1   5   2  -23.50    8.30
  -1   5   2   -6.90   10.10
  -1   5   2    9.50   10.80
  -1   5   2   -6.90    7.70
  -1   5   2   -0.50    7.50
   0  -5  -2  133.79   22.90
   0   5   2   89.19   16.90
   0   5   2   75.69   16.80
   0   5   2   75.69   19.30
   0   5   2   91.89   17.30
   0   5   2   80.59   15.80
   0   5   2   62.59   17.20
   0   5   2   72.89   14.60
  -1  -5  -2   86.39   19.40
   1   5   2   66.89   15.30
   1   5   2   72.89   19.70
   1   5   2   65.19   18.40
   1   5   2   72.39   17.10
   1   5   2   46.40   12.80
   1   5   2   87.69   17.40
   1   5   2   76.59   16.30
  -2  -5  -2  358.46   32.50
   2   5   2  424.86   31.00
   2   5   2  391.46   34.50
   2   5   2  363.26   32.60
   2   5   2  389.86   25.80
   2   5   2  336.77   33.90
   2   5   2  418.96   33.40
  -3  -5  -2   15.10   14.40
   3   5   2    3.30   12.70
   3   5   2  -11.40   12.00
   3   5   2   -5.20   13.50
   3   5   2    6.30    7.50
   3   5   2   -2.10   10.60
  -4  -5  -2  520.55   40.40
  -4  -5  -2  557.84   43.20
   4   5   2  552.34   42.90
   4   5   2  510.85   40.00
  -5  -5  -2   21.00   16.60
  -5  -5  -2   -3.80   14.70
   5   5   2   48.90   19.30
   5   5   2   10.70   13.00
  -6  -5  -2   24.80   17.00
  -6  -5  -2   -0.20   16.10
   6   5   2    9.60   18.60
   6   5   2   -2.60   15.50
   6   5   2   -5.30   12.70
  -7  -5  -2   13.50   18.60
   7   5   2   73.19   28.30
   7   5   2   23.20   15.50
   7   5   2   58.49   27.60
   9  -6  -2  107.89   36.40
   9  -6  -2   37.80   24.10
   9  -6  -2  123.19   32.50
  -9   6   2   30.60   33.10
  -9   6   2   70.39   28.80
  -9   6   2   52.39   26.40
   8  -6  -2  148.89   35.30
   8  -6  -2   70.99   29.30
   8  -6  -2   40.40   22.70
  -8   6   2   77.39   29.10
  -8   6   2   61.49   26.20
  -8   6   2  106.29   31.30
   7  -6  -2  105.29   25.50
   7  -6  -2   66.69   25.90
   7  -6  -2  109.59   43.00
  -7   6   2   72.89   26.50
  -7   6   2   69.79   24.50
   6  -6  -2   38.00   18.20
   6  -6  -2   27.50   21.40
  -6   6   2   34.70   24.40
  -6   6   2   58.29   23.40
   5  -6  -2  133.09   31.30
   5  -6  -2  106.59   24.40
   5  -6  -2  108.89   21.50
  -5   6   2  100.79   33.70
  -5   6   2  130.19   26.70
  -5   6   2  103.39    9.50
   4  -6  -2   20.00   13.90
   4  -6  -2    1.80   10.40
   4  -6  -2   -2.00   11.30
   4  -6  -2   17.40   15.20
  -4   6   2   -9.40    5.50
  -4   6   2    1.20   11.80
  -4   6   2   -2.30   16.50
   3  -6  -2   10.00   10.30
   3  -6  -2   26.50   13.50
   3  -6  -2   24.70   16.60
   3  -6  -2    4.00   11.80
  -3   6   2   17.40   16.30
  -3   6   2   11.90    8.00
  -3   6   2   -0.40   10.60
   2  -6  -2    9.30   11.50
   2  -6  -2   23.30   11.00
   2  -6  -2   13.50   11.40
   2  -6  -2   23.50   15.50
  -2   6   2   14.20    9.20
  -2   6   2   -0.50   12.60
  -2   6   2   16.70   12.00
   1  -6  -2  542.75   43.50
   1  -6  -2  503.45   37.20
   1  -6  -2  487.75   37.80
  -1   6   2  534.25   38.30
  -1   6   2  518.25   38.20
  -1   6   2  520.05   38.80
  -1   6   2  525.85   32.80
  -1   6   2  473.25   33.10
  -1   6   2  500.75   41.80
   0  -6  -2  295.67   31.60
   0   6   2  268.97   27.30
   0   6   2  291.37   26.30
   0   6   2  291.37   26.80
   0   6   2  307.27   27.70
   0   6   2  280.07   30.90
   0   6   2  278.87   28.70
   0   6   2  220.98   32.20
  -1  -6  -2   11.30   14.00
   1   6   2   42.50   13.90
   1   6   2   38.70   14.00
   1   6   2   25.00   12.10
   1   6   2   73.09   16.70
   1   6   2   14.70   13.20
   1   6   2   42.10   17.90
   1   6   2    8.10   11.60
  -2  -6  -2  499.65   41.60
   2   6   2  507.85   32.00
   2   6   2  420.16   33.90
   2   6   2  527.15   41.80
   2   6   2  468.65   41.50
   2   6   2  480.15   34.80
   2   6   2  521.15   40.00
   2   6   2  482.45   38.10
  -3  -6  -2  -14.50   14.00
   3   6   2   45.20   18.00
   3   6   2    5.20    9.00
   3   6   2   26.20   14.70
   3   6   2    9.40   15.40
   3   6   2   11.90   15.20
   3   6   2   -0.60   15.30
  -4  -6  -2   60.69   26.00
   4   6   2   18.20   15.40
   4   6   2   50.49   17.80
   4   6   2   23.80    7.30
   4   6   2   36.90   22.00
   4   6   2   11.20   18.00
  -5  -6  -2   -8.90   14.30
  -5  -6  -2   -5.00   17.00
   5   6   2  -13.30   12.50
   5   6   2   19.70   22.20
   5   6   2    6.50   15.60
  -6  -6  -2   72.39   26.00
  -6  -6  -2   93.79   25.40
   6   6   2  120.09   35.90
   6   6   2  114.89   28.80
   6   6   2   82.39   20.60
   6   6   2   58.29   22.10
  -7  -6  -2   29.00   24.20
  -7  -6  -2   40.00   29.30
   7   6   2   55.49   25.40
   7   6   2   41.90   25.00
   7   6   2   10.60   19.00
   7   6   2   80.09   28.10
   8  -7  -2   40.50   21.70
   8  -7  -2   12.80   28.40
   8  -7  -2   52.59   28.80
  -8   7   2   80.19   31.60
  -8   7   2   51.29   31.50
  -8   7   2   18.60   25.70
   7  -7  -2   23.40   19.20
   7  -7  -2  -17.80   17.00
   7  -7  -2   34.30   25.80
  -7   7   2   29.10   20.50
  -7   7   2  -17.30   18.60
   6  -7  -2  -26.50   13.40
   6  -7  -2   27.60   16.00
   6  -7  -2   19.50   22.40
  -6   7   2   22.80    3.60
  -6   7   2   42.00   23.00
  -6   7   2   15.40   17.00
   5  -7  -2    8.90   14.60
   5  -7  -2   23.10   19.60
   5  -7  -2   28.10   13.60
  -5   7   2   20.50   20.10
  -5   7   2    5.50   14.50
   4  -7  -2   22.50   15.10
   4  -7  -2   35.80   15.70
   4  -7  -2   -3.00   14.00
   4  -7  -2   25.80   13.50
  -4   7   2   21.80   30.20
  -4   7   2   20.40   14.80
  -4   7   2   20.20    8.90
   3  -7  -2   -9.10   11.80
   3  -7  -2   -3.90   10.60
   3  -7  -2   13.40   16.10
  -3   7   2   24.80   15.80
  -3   7   2   -9.60    6.90
  -3   7   2   13.80   13.60
   2  -7  -2    3.30   13.10
   2  -7  -2   15.20   16.00
   2  -7  -2   25.00   13.00
  -2   7   2   12.70   12.60
  -2   7   2   -6.20   11.60
  -2   7   2   29.80   12.30
   1  -7  -2    5.70   14.10
   1  -7  -2    6.30   13.70
  -1   7   2    5.00    9.70
  -1   7   2   16.70   14.00
  -1   7   2   20.70   13.60
  -1   7   2   21.10   15.60
   0  -7  -2  191.88   32.20
   0   7   2  268.57   32.10
   0   7   2  219.88   32.60
   0   7   2  246.38   30.50
   0   7   2  186.08   27.90
   0   7   2  206.98   27.50
   0   7   2  192.58   26.70
   0   7   2  196.98   30.00
  -1  -7  -2   46.50   21.10
   1   7   2   54.29   21.10
   1   7   2   33.80   14.50
   1   7   2   33.70   14.70
   1   7   2   -5.50   12.60
   1   7   2   11.50   11.60
   1   7   2   19.00   16.90
   1   7   2   47.20   18.20
   2   7   2    5.60   17.90
   2   7   2   16.10   17.50
   2   7   2   25.50   15.50
   2   7   2   45.00   17.80
   2   7   2   31.80   15.40
   2   7   2   40.50   19.50
   2   7   2   43.00   14.90
  -3  -7  -2   71.79   28.00
   3   7   2   94.29   23.90
   3   7   2   77.89   26.50
   3   7   2   86.59   20.40
   3   7   2  138.49   28.10
   3   7   2  105.09   21.10
   3   7   2   88.09   26.10
   3   7   2   90.69   15.30
  -4  -7  -2    2.80   16.40
   4   7   2    8.00    7.30
   4   7   2  -12.40   16.90
   4   7   2  -25.00   14.90
   4   7   2   -8.20   12.00
   4   7   2   -7.80   16.50
   4   7   2    7.80   26.40
  -5  -7  -2   26.60   24.20
   5   7   2   32.70   20.90
   5   7   2   30.20   26.00
   5   7   2   72.99   23.90
   5   7   2   64.89   26.70
   5   7   2   34.10   19.30
  -6  -7  -2   61.79   28.80
   6   7   2   35.50   28.80
   6   7   2   -8.70   19.90
   6   7   2   39.50   27.50
   6   7   2   44.90   22.60
   6   7   2   65.99   23.90
   8  -8  -2   21.60   20.90
   8  -8  -2  -10.80   24.50
  -8   8   2   21.00   25.60
  -8   8   2  -32.40   22.30
  -8   8   2   10.60   29.20
   7  -8  -2  107.79   27.20
   7  -8  -2  114.79   35.70
   7  -8  -2  117.29   27.80
   7  -8  -2   48.30   27.70
  -7   8   2   68.19   27.50
  -7   8   2   89.79   27.20
   6  -8  -2   -5.10   14.90
   6  -8  -2  -10.30   16.80
   6  -8  -2   12.60   18.90
   6  -8  -2   40.50   17.10
  -6   8   2   36.90   24.00
  -6   8   2    4.10    5.50
  -6   8   2   19.80   18.60
   5  -8  -2   -9.00   15.70
   5  -8  -2   -8.60   15.70
   5  -8  -2   24.50   15.20
   5  -8  -2   -2.10   13.00
  -5   8   2   11.20    7.40
  -5   8   2    5.40   15.70
  -5   8   2  -17.70   17.20
   4  -8  -2   32.60   15.40
   4  -8  -2    6.20   13.90
   4  -8  -2   11.30   20.50
  -4   8   2   14.70    9.40
  -4   8   2   38.10   17.40
  -4   8   2  -26.60   18.00
  -4   8   2   41.70   18.50
   3  -8  -2    5.10   11.40
   3  -8  -2  -16.60   11.30
   3  -8  -2   22.70   20.00
  -3   8   2   -6.90   16.80
  -3   8   2   -1.80    8.80
  -3   8   2  -14.30   13.30
   2  -8  -2   -9.00   10.60
   2  -8  -2   -0.20   17.50
  -2   8   2  -11.70   19.10
  -2   8   2  -12.80    9.60
  -2   8   2  -29.60   12.30
   1  -8  -2 1168.38   86.49
  -1   8   2 1108.79   56.19
  -1   8   2 1192.18   61.89
  -1   8   2 1220.08   67.99
  -1   8   2 1180.48   63.99
   0  -8  -2   21.70   19.80
   0   8   2   12.00   18.70
   0   8   2   38.60   15.00
   0   8   2   20.80   16.90
   0   8   2   82.09   25.20
   0   8   2   41.10   20.80
   0   8   2   27.00   18.80
   0   8   2   22.90   16.60
  -1  -8  -2  192.28   37.60
   1   8   2  275.97   37.10
   1   8   2  270.07   28.20
   1   8   2  330.57   33.40
   1   8   2  241.98   30.00
   1   8   2  365.86   38.50
   1   8   2  210.98   36.00
   1   8   2  241.98   37.40
  -2  -8  -2    3.10   16.60
   2   8   2   -1.80   10.90
   2   8   2   -4.50   10.90
   2   8   2    1.40   15.20
   2   8   2  -13.80   17.00
   2   8   2  -22.90   11.90
   2   8   2   -6.80   16.40
   2   8   2  -12.30   16.80
  -3  -8  -2  115.89   31.80
   3   8   2  112.69   23.10
   3   8   2  109.39   18.60
   3   8   2  101.29   22.70
   3   8   2  158.58   32.10
   3   8   2  100.79   26.70
   3   8   2  115.09   29.20
   3   8   2  127.09   28.50
  -4  -8  -2    4.90   22.30
   4   8   2    9.70   15.90
   4   8   2   11.50   20.50
   4   8   2   31.00   17.00
   4   8   2   13.00   21.80
   4   8   2    2.70   20.30
   4   8   2   23.00   19.30
  -5  -8  -2   47.10   26.60
   5   8   2   -3.30   24.60
   5   8   2   10.30   22.80
   5   8   2    9.60   19.00
   5   8   2   46.50   22.80
   5   8   2   40.90   27.60
   7  -9  -2  130.19   44.00
   7  -9  -2   96.79   31.00
  -7   9   2  124.19   36.90
  -7   9   2   92.69   36.10
  -7   9   2  151.68   37.70
   6  -9  -2   12.80   18.50
   6  -9  -2   15.90   18.90
   6  -9  -2  -15.30   21.50
   6  -9  -2    6.70   19.40
  -6   9   2   13.60   11.30
  -6   9   2   -4.80   20.30
  -6   9   2   -1.00   19.40
   5  -9  -2   77.59   30.80
   5  -9  -2   36.70   18.30
   5  -9  -2   61.09   19.50
  -5   9   2   66.69   13.50
  -5   9   2   37.00   22.00
  -5   9   2   65.79   26.80
  -5   9   2   64.49   30.00
   4  -9  -2  -10.80   12.80
   4  -9  -2   13.40   19.30
   4  -9  -2   -2.60   13.50
  -4   9   2   -0.90   14.30
  -4   9   2   19.20   10.90
  -4   9   2   -7.40   14.30
  -4   9   2   -0.90   22.10
   3  -9  -2   74.69   27.60
   3  -9  -2   17.10   17.00
  -3   9   2   50.29   24.00
  -3   9   2   46.40   21.60
  -3   9   2   65.39   16.60
   2  -9  -2  109.79   31.00
  -2   9   2  160.88   33.20
  -2   9   2  160.18   24.60
  -2   9   2  138.09   26.50
  -2   9   2  202.78   34.30
   1  -9  -2   16.80   20.00
   1  -9  -2   29.40   20.90
  -1   9   2   44.30   19.20
  -1   9   2   22.60   15.20
  -1   9   2   21.50   17.90
  -1   9   2   37.80   20.00
  -1   9   2    6.40   14.70
   0  -9  -2   70.09   27.10
   0   9   2  127.79   25.10
   0   9   2  114.49   26.70
   0   9   2   86.49   25.10
   0   9   2   73.49   26.20
   0   9   2   74.09   24.90
   0   9   2   58.99   18.30
  -1  -9  -2  -14.00   16.50
   1   9   2   -9.10   19.40
   1   9   2  -13.70   13.70
   1   9   2  -14.10   14.80
   1   9   2  -14.80   16.90
   1   9   2   17.40   21.90
   1   9   2   12.60   14.50
   1   9   2    3.80   12.30
  -2  -9  -2   84.99   29.80
   2   9   2   83.99   20.20
   2   9   2   92.99   29.50
   2   9   2   96.69   24.70
   2   9   2  124.89   28.50
   2   9   2  114.29   29.70
   2   9   2  136.99   31.90
   2   9   2  114.19   24.10
  -3  -9  -2   25.90   24.50
   3   9   2   27.70   21.90
   3   9   2    6.10   17.20
   3   9   2  -18.60   19.50
   3   9   2    9.90   13.40
   3   9   2   42.50   25.80
   3   9   2  -27.90   12.40
   3   9   2   -1.00   21.10
  -4  -9  -2   -3.70   20.90
   4   9   2   41.00   24.90
   4   9   2    5.10   19.20
   4   9   2    3.50   16.90
   4   9   2   81.79   38.70
   4   9   2   35.30   26.00
   4   9   2   10.20   24.30
   4   9   2   -5.40    9.90
   5 -10  -2  -14.20   17.00
   5 -10  -2   -1.10   17.20
  -5  10   2   19.50   23.80
  -5  10   2  -11.20   18.70
  -5  10   2   -5.70   10.70
   4 -10  -2    7.40   23.80
   4 -10  -2    0.80   18.10
  -4  10   2   22.80   24.60
  -4  10   2  -28.60   21.90
  -4  10   2   -7.50   12.90
  -4  10   2   -0.10   18.40
  -4  10   2   15.20   20.00
   3 -10  -2    5.10   24.00
   3 -10  -2   23.60   18.50
  -3  10   2   -7.30   19.40
  -3  10   2    6.60   21.60
  -3  10   2   39.90   24.70
  -3  10   2    8.30   21.80
  -3  10   2   24.70   25.00
   2 -10  -2   49.30   26.00
  -2  10   2    1.80   17.40
  -2  10   2   25.10   16.20
  -2  10   2    9.60   21.40
  -2  10   2    2.20   20.20
   1 -10  -2    0.50   18.60
  -1  10   2   -2.10   15.20
  -1  10   2  -10.20   15.20
  -1  10   2   26.20   22.70
  -1  10   2   18.70   21.10
  -1  10   2  -29.90   18.50
   0 -10  -2   40.60   25.30
   0  10   2   48.30   24.80
   0  10   2   31.10   16.30
   0  10   2   30.80   21.20
   0  10   2   -4.50   16.40
   0  10   2   31.40   19.10
   0  10   2   27.50   19.00
  -1 -10  -2   17.70   23.60
   1  10   2  -31.00   15.70
   1  10   2   50.19   22.40
   1  10   2   -4.30   17.70
   1  10   2    7.30   24.40
   1  10   2  -19.70   18.60
   1  10   2   -2.70   13.80
  -2 -10  -2   20.50   24.30
   2  10   2   46.30   23.90
   2  10   2   80.49   26.60
   2  10   2   21.20   16.80
   2  10   2   71.09   29.90
   2  10   2   30.90   18.80
   2  10   2  -19.00   22.50
   3 -11  -2   30.30   26.80
  -3  11   2    9.90   29.00
  -3  11   2  -16.60   16.90
   2 -11  -2  -28.20   23.50
  -2  11   2   12.20   18.90
  -2  11   2   18.70   22.60
  -2  11   2    1.50   24.10
  -2  11   2   35.20   17.10
  -2  11   2    7.20   18.90
  -2  11   2  -23.10   25.40
   1 -11  -2    2.60   23.40
  -1  11   2   28.10   17.60
  -1  11   2   16.00   26.30
  -1  11   2   33.70   26.70
  -1  11   2   58.39   22.20
  -1  11   2   23.10   23.10
   0 -11  -2  -17.70   21.50
   0  11   2   33.70   27.80
   0  11   2  -25.30   21.10
   0  11   2    9.90   26.50
   0  11   2    9.10   23.20
   2  12  -3   59.19   24.00
   2  12  -3    1.70   29.70
   2  12  -3   -9.40   19.50
  -2 -12   3   14.80   26.70
   1  12  -3   14.50   27.20
   1  12  -3   25.70   24.00
   1  12  -3  -32.00   15.30
  -1 -12   3  -18.90   22.30
   0  12  -3   11.90   43.70
   0  12  -3  152.18   38.20
   0 -12   3  145.19   34.60
   0 -12   3   44.40   31.70
   0 -12   3  134.49   37.50
  -1  12  -3   28.70   30.90
   1 -12   3   75.49   29.30
   1 -12   3   86.29   30.40
   1 -12   3   46.10   32.70
  -2  12  -3   32.50   24.10
  -2  12  -3   14.40    9.70
  -2  12  -3   -2.00   26.90
   2 -12   3  -19.90   24.40
   2 -12   3   47.10   28.50
   2 -12   3  -38.10   20.20
   4  11  -3   28.70   17.10
   4  11  -3   10.60   24.00
   4  11  -3  -22.80   25.30
  -4 -11   3    5.20   21.30
   3  11  -3   11.70   20.00
   3  11  -3   -5.00   23.00
  -3 -11   3   -9.50   20.90
   2  11  -3  142.09   33.90
   2  11  -3  117.49   33.80
   2  11  -3   99.79   25.10
   2  11  -3  153.78   27.10
  -2 -11   3   82.69   34.30
   1  11  -3  -14.30   21.10
   1  11  -3  -10.60   23.50
   1  11  -3   -3.20   14.40
  -1 -11   3   21.40   25.00
  -1 -11   3  -16.70   14.20
   0  11  -3   57.99   28.20
   0  11  -3  124.59   32.50
   0 -11   3   81.59   29.40
   0 -11   3   87.49   30.40
   0 -11   3   80.09   26.50
  -1  11  -3   52.09   25.50
  -1  11  -3  -48.30   17.40
   1 -11   3   17.40   19.00
   1 -11   3   18.20   20.90
   1 -11   3  -18.10   18.80
  -2  11  -3   14.70    9.60
  -2  11  -3    9.50   22.50
  -2  11  -3    5.50   23.40
   2 -11   3    4.20   19.90
   2 -11   3   -8.40   19.90
   2 -11   3   31.30   22.20
  -3  11  -3  211.48   27.20
  -3  11  -3  150.38   35.50
  -3  11  -3  137.79   35.30
   3 -11   3  158.08   36.20
   3 -11   3  159.18   37.40
  -4  11  -3   -8.40   15.40
  -4  11  -3  -16.20   23.20
  -4  11  -3   22.50   25.60
   4 -11   3   44.60   28.20
   4 -11   3   32.20   21.10
   5  10  -3   15.70   22.20
   5  10  -3  -51.39   23.30
   5  10  -3    2.80   11.10
  -5 -10   3   -4.50   19.40
   4  10  -3   -1.70   23.50
   4  10  -3    3.20   13.00
  -4 -10   3    7.40   17.00
   3  10  -3   24.10   15.10
   3  10  -3   -7.10   21.10
   3  10  -3  -17.60   16.10
  -3 -10   3    0.80   21.00
   2  10  -3    7.80   19.00
   2  10  -3   27.50   15.90
   2  10  -3  -17.30   12.70
  -2 -10   3   -9.90   18.20
  -2 -10   3   -0.50   12.90
   1  10  -3  132.29   31.30
   1  10  -3  136.59   22.40
   1  10  -3  112.29   29.30
  -1 -10   3  138.59   28.30
  -1 -10   3  148.89   34.90
   0  10  -3   16.40   20.50
   0  10  -3   41.80   23.70
   0 -10   3   37.90   17.90
   0 -10   3   42.50   22.10
  -1  10  -3  -10.50   18.50
  -1  10  -3   13.40   19.30
  -1  10  -3   14.60    6.30
   1 -10   3   18.70   19.40
   1 -10   3   50.19   26.60
  -2  10  -3   28.20   23.20
  -2  10  -3  -26.90   17.70
  -2  10  -3   40.10   13.00
   2 -10   3   38.10   21.90
   2 -10   3   35.70   23.30
  -3  10  -3   26.10   22.00
  -3  10  -3   35.80   15.00
  -3  10  -3   24.70   22.80
   3 -10   3   68.29   24.60
   3 -10   3   42.70   22.10
  -4  10  -3   -4.90   24.10
  -4  10  -3   11.10   14.80
  -4  10  -3   12.70   25.40
   4 -10   3    8.10   20.00
  -5  10  -3   52.69   21.00
  -5  10  -3   23.90   25.50
  -5  10  -3   36.60   24.10
   5 -10   3   49.10   22.90
  -6  10  -3   13.10   31.00
  -6  10  -3   40.40   24.00
   6 -10   3   49.50   31.20
   6   9  -3   15.00   22.70
   6   9  -3   40.70   27.80
  -6  -9   3  -26.10   17.90
   5   9  -3  -11.40    9.60
   5   9  -3   16.70   15.60
   5   9  -3  -15.60   17.20
  -5  -9   3    3.40   19.70
   4   9  -3   32.70   24.10
   4   9  -3   11.30   12.70
  -4  -9   3   22.70   21.60
   3   9  -3   18.90   22.60
   3   9  -3  -10.70   10.40
  -3  -9   3    4.10   19.20
   2   9  -3    9.40   12.90
   2   9  -3  -24.60   10.90
   2   9  -3   -8.40   17.60
  -2  -9   3    3.30   12.90
  -2  -9   3  -25.50   15.20
   1   9  -3    2.40   10.20
   1   9  -3   -4.60   16.20
  -1  -9   3   -8.00   11.20
  -1  -9   3   -3.40   20.10
  -1  -9   3    5.50   15.40
   0   9  -3    0.20   23.30
   0   9  -3   17.80   17.00
   0  -9   3   11.70   18.40
   0  -9   3   18.90   17.30
   0  -9   3   -0.90   14.80
  -1   9  -3  486.35   57.29
  -1   9  -3  452.05   22.90
  -1   9  -3  405.96   44.50
   1  -9   3  444.86   43.80
   1  -9   3  455.15   42.30
   1  -9   3  417.56   41.40
  -2   9  -3  -27.20   13.90
  -2   9  -3    6.30    9.60
  -2   9  -3    0.30   15.90
   2  -9   3   18.30   16.80
   2  -9   3  -19.40   14.30
   2  -9   3    7.60   17.60
  -3   9  -3  169.88   32.20
  -3   9  -3   37.10   22.60
  -3   9  -3   80.89   18.40
   3  -9   3   83.99   27.90
  -4   9  -3  -15.40   16.50
  -4   9  -3    4.90   13.10
  -4   9  -3    7.20   17.40
  -5   9  -3    0.90   20.50
  -5   9  -3   19.40   19.90
  -5   9  -3  -25.50   13.90
   5  -9   3   -9.80   18.90
  -6   9  -3   20.50   23.00
  -6   9  -3   -9.80   18.00
   6  -9   3   22.30   22.70
  -7   9  -3   96.89   33.40
  -7   9  -3  155.78   36.20
   7  -9   3  125.19   36.50
   7   8  -3   95.19   31.90
  -7  -8   3   76.09   31.60
   6   8  -3   -0.30   23.10
   6   8  -3    6.90   17.70
  -6  -8   3   14.60    9.70
  -6  -8   3  -10.80   13.50
   5   8  -3   -5.50    8.00
   5   8  -3   37.10   17.00
   5   8  -3    0.40   16.90
  -5  -8   3   -3.30   16.20
   4   8  -3  119.79   28.40
   4   8  -3  115.39   18.60
  -4  -8   3   88.19   27.60
   3   8  -3   -4.90   18.50
   3   8  -3   -2.40   11.90
  -3  -8   3   -3.10   20.20
   2   8  -3   -1.10   11.40
   2   8  -3    5.90   15.70
  -2  -8   3   17.30   11.40
  -2  -8   3    9.60   16.90
   1   8  -3  211.58   35.30
   1   8  -3  258.17   23.40
  -1  -8   3  220.08   34.10
  -1  -8   3  320.37   35.00
  -1  -8   3  268.97   27.50
   0   8  -3  187.28   16.20
   0   8  -3  156.68   30.10
   0   8  -3  186.88   31.20
   0  -8   3  212.68   30.90
   0  -8   3  176.68   29.70
   0  -8   3  182.88   31.10
  -1   8  -3   41.80   21.80
  -1   8  -3   72.59   21.90
  -1   8  -3   56.89   11.40
   1  -8   3   29.80   19.10
  -2   8  -3   50.99   13.40
  -2   8  -3   66.29   25.80
  -2   8  -3  110.99   26.50
   2  -8   3   44.90   19.10
  -3   8  -3    8.80   11.20
  -3   8  -3   12.00   17.00
  -3   8  -3   13.40   19.40
   3  -8   3    1.40   14.40
  -4   8  -3  104.09   23.90
  -4   8  -3  102.89   27.70
  -4   8  -3   84.79   25.40
   4  -8   3  161.78   32.60
  -5   8  -3   15.10   19.20
  -5   8  -3   12.10   18.20
  -5   8  -3    1.70   15.90
  -6   8  -3  101.59   25.80
  -6   8  -3   67.99   27.50
   6  -8   3   90.79   29.60
  -7   8  -3   -6.10   22.40
  -7   8  -3   -2.90   20.50
   8   7  -3  164.98   54.79
   8   7  -3   97.19   34.70
  -8  -7   3  137.99   26.00
  -8  -7   3  118.49   34.00
   7   7  -3  -20.00   16.80
   7   7  -3   15.50   22.80
   7   7  -3  -43.60   16.70
  -7  -7   3  -28.00   12.50
  -7  -7   3   -0.80   11.90
   6   7  -3  203.08   39.10
  -6  -7   3  210.48   21.60
  -6  -7   3  121.99   30.50
   5   7  -3  276.27   42.00
  -5  -7   3  196.78   34.80
   4   7  -3    0.30    9.00
   4   7  -3    4.60   16.40
  -4  -7   3    2.20   16.30
   3   7  -3  421.36   39.60
   3   7  -3  400.76   29.60
  -3  -7   3  337.87   35.50
   2   7  -3  172.98   23.40
   2   7  -3  120.09   27.40
  -2  -7   3  154.88   27.50
  -2  -7   3  119.89   25.10
  -2  -7   3  162.18   21.70
   1   7  -3   76.09   22.10
  -1  -7   3  102.29   22.60
  -1  -7   3  106.79   19.50
  -1  -7   3   74.89   18.80
   0   7  -3  102.39    7.20
   0   7  -3   99.69   11.60
   0   7  -3   91.69   25.00
   0  -7   3   98.19   21.80
   0  -7   3   97.59   21.20
  -1   7  -3   34.20   16.70
  -1   7  -3   29.60    9.70
  -1   7  -3   51.89   19.10
   1  -7   3   11.40   13.70
   1  -7   3    2.30   12.80
  -2   7  -3   15.00   10.00
  -2   7  -3   20.50   17.30
  -2   7  -3   34.90   17.90
   2  -7   3    1.10   12.10
   2  -7   3   26.10   16.90
  -3   7  -3   96.99   26.80
  -3   7  -3  114.69   26.10
  -3   7  -3   86.29   19.10
   3  -7   3   53.39   20.40
  -4   7  -3   41.90   15.90
  -4   7  -3   39.80   20.00
  -4   7  -3   20.50   18.20
   4  -7   3   14.20   16.20
  -5   7  -3  494.15   54.89
   5  -7   3  565.54   51.09
  -6   7  -3   28.90   19.90
  -6   7  -3    5.40   17.30
   6  -7   3    5.40   20.80
  -7   7  -3    5.10   19.40
  -7   7  -3   -7.40   22.40
   7  -7   3   17.50   24.10
   7  -7   3   41.10   21.70
  -8   7  -3   64.89   20.40
  -8   7  -3   47.30   26.60
  -8   7  -3   64.69   32.30
   8  -7   3   27.80   31.90
   8  -7   3   10.40   24.80
   9   6  -3  -28.20   38.20
   9   6  -3   -3.10   25.70
  -9  -6   3    3.50   22.40
   8   6  -3   37.70   21.40
   8   6  -3   43.60   24.90
   8   6  -3   53.89   26.90
  -8  -6   3   -7.40   15.80
   7   6  -3   28.20   19.60
   7   6  -3   51.19   21.00
  -7  -6   3   52.99   23.20
  -7  -6   3   41.80   17.10
   6   6  -3   17.50   20.20
   6   6  -3   52.29   19.30
  -6  -6   3   39.40   22.50
  -6  -6   3   59.29   16.00
   5   6  -3    8.70   17.50
   5   6  -3   -1.20    6.60
  -5  -6   3   -6.50   13.00
  -5  -6   3   11.40    8.50
   4   6  -3   28.80   10.30
   4   6  -3   10.90   14.90
  -4  -6   3   13.10    6.70
  -4  -6   3   -1.50   11.60
   3   6  -3   24.80   17.00
   3   6  -3    6.10    8.90
  -3  -6   3   17.40   13.30
   2   6  -3   49.99   17.40
   2   6  -3   29.90   12.40
  -2  -6   3   37.60   16.70
  -2  -6   3   21.30   14.40
  -2  -6   3   45.50   10.90
   1   6  -3   71.59   20.20
   1   6  -3   90.09   17.90
  -1  -6   3   94.29   20.50
  -1  -6   3  101.59   17.10
  -1  -6   3   72.79   18.10
   0   6  -3   13.70   14.00
   0   6  -3    7.20    4.90
   0   6  -3    2.20    4.10
   0  -6   3  -15.10    8.90
   0  -6   3    4.90   10.80
  -1   6  -3    0.70   13.10
  -1   6  -3   -6.60    7.60
  -1   6  -3   19.40   12.80
   1  -6   3   44.40   15.90
   1  -6   3    5.20   10.90
  -2   6  -3   19.50   15.30
  -2   6  -3    9.80   12.70
  -2   6  -3  -11.80    7.10
   2  -6   3    2.50    9.80
   2  -6   3    1.30   11.20
  -3   6  -3  132.89   22.70
  -3   6  -3  147.59   26.80
  -3   6  -3  149.99   27.50
   3  -6   3  108.19   25.20
   3  -6   3  130.79   22.60
  -4   6  -3  281.37   40.70
  -4   6  -3  279.47   30.40
  -4   6  -3  316.37   34.70
   4  -6   3  312.47   36.30
   4  -6   3  286.97   32.60
  -5   6  -3  185.88   31.40
  -5   6  -3  204.58   33.50
   5  -6   3  218.38   32.50
   5  -6   3  210.58   32.90
   5  -6   3  246.68   37.90
  -6   6  -3   90.79   26.90
  -6   6  -3   86.99   26.90
   6  -6   3  103.39   25.40
   6  -6   3   72.29   26.20
  -7   6  -3  -32.50   15.10
  -7   6  -3   31.80   22.50
   7  -6   3  -12.30   15.30
   7  -6   3    8.90   22.60
   7  -6   3    7.00   21.70
  -8   6  -3  153.68   26.60
  -8   6  -3   52.39   26.40
   8  -6   3   53.99   25.40
   8  -6   3  180.88   47.60
   9   5  -3   -3.90   25.40
   9   5  -3  -20.00   19.30
   8   5  -3   -3.20   20.60
  -8  -5   3  -18.10   24.00
   7   5  -3    8.70   19.00
   7   5  -3   24.10   16.50
  -7  -5   3   16.70   13.30
   6   5  -3   82.69   21.10
   6   5  -3   33.40   24.20
   6   5  -3   19.60   33.40
  -6  -5   3   66.69   16.60
   5   5  -3  -13.60   12.50
   5   5  -3   -0.80    5.80
  -5  -5   3   14.10    9.30
   4   5  -3    4.30    7.40
   4   5  -3   -4.60   11.30
   3   5  -3  120.09   16.60
   3   5  -3  113.99   23.80
  -3  -5   3  105.09   21.70
  -3  -5   3  119.29   10.50
   2   5  -3  362.86   32.70
   2   5  -3  369.36   25.90
  -2  -5   3  423.26   34.00
  -2  -5   3  377.76   21.00
  -2  -5   3  361.86   27.90
   1   5  -3  434.86   34.60
   1   5  -3  454.05   30.80
  -1  -5   3  447.66   33.40
  -1  -5   3  439.46   29.50
   0   5  -3  480.85   20.50
   0   5  -3  465.35   34.10
   0  -5   3  508.25   35.70
   0  -5   3  469.95   20.30
   0  -5   3  443.36   28.60
  -1   5  -3   45.70   17.00
  -1   5  -3   59.99   16.80
  -1   5  -3   80.69   19.80
   1  -5   3   83.39   13.80
   1  -5   3   84.09   19.70
   1  -5   3   61.39   14.30
  -2   5  -3    8.00    8.60
  -2   5  -3    9.10   12.40
  -2   5  -3   -6.60   12.40
   2  -5   3  -10.10   10.80
   2  -5   3  -11.30    7.80
   2  -5   3   -2.60    7.90
  -3   5  -3 1120.69   58.29
  -3   5  -3 1015.60   52.39
  -3   5  -3  983.70   49.40
   3  -5   3 1045.20   51.69
   3  -5   3 1005.60   55.99
  -4   5  -3  155.08   25.80
  -4   5  -3  145.69   25.20
  -4   5  -3  129.19   27.80
   4  -5   3  164.18   29.60
   4  -5   3  160.08   26.20
   4  -5   3  180.48   29.40
  -5   5  -3  101.49   24.20
  -5   5  -3   79.89   21.00
   5  -5   3   68.09   20.10
   5  -5   3   78.99   24.20
  -6   5  -3   54.19   20.70
  -6   5  -3   -2.20   14.90
   6  -5   3   17.90   15.60
   6  -5   3   31.50   21.20
   6  -5   3   42.80   22.70
  -7   5  -3  194.98   37.10
  -7   5  -3  187.78   40.00
  -7   5  -3  156.28   25.30
   7  -5   3  175.18   37.90
   7  -5   3  120.59   29.10
   7  -5   3  136.89   35.10
  -8   5  -3   43.30   17.90
  -8   5  -3   51.99   24.80
  -8   5  -3   62.59   25.30
   8  -5   3   17.60   25.80
   8  -5   3   44.50   20.70
   8  -5   3   38.80   28.60
   9   4  -3   -2.60    5.90
   8   4  -3   85.09   24.20
   8   4  -3   45.70   18.50
  -8  -4   3   99.59   26.20
   7   4  -3    2.80   13.50
   7   4  -3   14.80   17.60
  -7  -4   3   15.70   14.00
   6   4  -3  284.87   29.70
   6   4  -3  317.97   35.40
  -6  -4   3  317.17   29.40
   5   4  -3  -10.60   11.00
   5   4  -3    9.80    6.90
  -5  -4   3   26.70   11.90
   4   4  -3   -5.20    7.00
   4   4  -3   -9.50   11.00
   3   4  -3   71.39   19.20
   3   4  -3   93.39   14.30
  -3  -4   3   90.59   11.70
   2   4  -3 2115.19   67.69
   2   4  -3 2283.27   78.29
  -2  -4   3 2216.18   77.39
   1   4  -3    6.80   12.30
   1   4  -3   24.30   11.50
  -1  -4   3   21.60   11.20
  -1  -4   3   -6.10    9.50
  -1  -4   3    8.40    4.60
   0   4  -3  324.37   28.10
   0   4  -3  285.47   17.10
   0   4  -3  260.87   25.00
   0  -4   3  349.96   28.00
   0  -4   3  315.67   21.10
   0  -4   3  298.87   17.80
  -1   4  -3  236.58   26.20
  -1   4  -3  264.87   23.90
   1  -4   3  227.68   20.10
   1  -4   3  248.78   26.00
   1  -4   3  227.88   17.50
  -2   4  -3  321.37   30.50
  -2   4  -3  283.67   23.90
  -2   4  -3  306.27   26.50
   2  -4   3  325.67   30.40
   2  -4   3  265.67   12.80
   2  -4   3  318.77   26.20
  -3   4  -3   18.60   12.10
  -3   4  -3    7.70   10.50
  -3   4  -3   39.50   17.60
   3  -4   3   25.00   15.40
   3  -4   3   13.30   13.60
  -4   4  -3    0.50   11.60
  -4   4  -3  -21.60    8.00
   4  -4   3   -0.80   13.40
   4  -4   3    2.90   10.20
   4  -4   3  -21.50    8.00
  -5   4  -3   15.20   14.20
  -5   4  -3   11.70   14.10
   5  -4   3   21.20   15.00
   5  -4   3   -1.10    9.80
   5  -4   3   14.40   16.70
  -6   4  -3  -12.90   14.70
  -6   4  -3   30.30   16.60
   6  -4   3  -33.50   19.00
   6  -4   3   -8.20   11.50
   6  -4   3  -10.80   11.40
  -7   4  -3   52.39   19.90
  -7   4  -3   61.79   18.20
  -7   4  -3   13.10   21.50
   7  -4   3   14.70   15.70
   7  -4   3   37.40   22.40
   7  -4   3   -0.20   13.90
  -8   4  -3  -18.20   21.80
  -8   4  -3  -10.40   13.40
  -8   4  -3  -32.60   14.90
  -8   4  -3   17.90   20.50
   8  -4   3    4.60   21.90
   8  -4   3   37.60   22.40
   8  -4   3   48.70   17.20
  -9   4  -3   -6.30   15.20
  -9   4  -3    3.00   27.10
  -9   4  -3    7.30   21.50
   9  -4   3    8.30   23.30
   9  -4   3   44.30   28.80
   9  -4   3  -18.40   21.40
  10   3  -3    8.00   10.90
 -10  -3   3   52.09   25.30
   9   3  -3   47.60   17.50
   9   3  -3   18.20   23.60
   8   3  -3   22.20   19.00
   8   3  -3   19.50   14.50
  -8  -3   3   31.60   16.30
  -8  -3   3   12.50    6.70
   7   3  -3  531.65   37.70
   7   3  -3  550.24   47.60
  -7  -3   3  539.15   26.00
  -7  -3   3  502.45   42.20
   6   3  -3   16.70   11.80
   6   3  -3   16.80   16.70
  -6  -3   3   51.79   10.70
  -6  -3   3   55.49   16.90
   5   3  -3  530.05   33.70
   5   3  -3  523.65   40.00
  -5  -3   3  475.95   32.40
  -5  -3   3  514.75   26.30
   4   3  -3  439.36   28.90
  -4  -3   3  413.96   23.70
  -4  -3   3  428.06   27.30
   3   3  -3  353.86   29.10
  -3  -3   3  325.97   22.30
  -3  -3   3  327.77   21.20
   2   3  -3 1448.96   52.09
   2   3  -3 1490.95   55.59
  -2  -3   3 1445.96   50.19
  -2  -3   3 1537.65   57.19
   1   3  -3  227.68   21.30
   1   3  -3  238.38   22.40
  -1  -3   3  211.38   21.00
  -1  -3   3  215.98   14.90
   0   3  -3  413.46   21.70
   0   3  -3  377.56   27.10
   0   3  -3  406.26   27.60
   0  -3   3  391.76   19.90
   0  -3   3  388.26   21.30
   0  -3   3  390.46   27.20
  -1   3  -3  275.37   22.40
  -1   3  -3  262.87   24.10
  -1   3  -3  240.48   24.60
   1  -3   3  289.77   24.30
   1  -3   3  279.37   15.00
   1  -3   3  281.37   22.40
  -2   3  -3  874.91   41.90
  -2   3  -3  944.21   46.90
  -2   3  -3  839.82   42.70
  -2   3  -3  850.41   46.20
   2  -3   3  894.21   31.90
   2  -3   3  869.01   45.70
   2  -3   3  894.81   43.00
  -3   3  -3   83.59   17.50
  -3   3  -3   77.49   18.30
  -3   3  -3  100.29   17.40
   3  -3   3   73.79   19.90
   3  -3   3  114.99   21.00
   3  -3   3   82.59   14.60
  -4   3  -3    7.80   12.30
  -4   3  -3    3.50    9.70
   4  -3   3   20.50   15.80
   4  -3   3   -4.50   11.40
   4  -3   3   -5.90    7.60
  -5   3  -3   40.10   15.60
  -5   3  -3   37.70   14.90
  -5   3  -3   52.49   18.90
   5  -3   3   47.40   20.00
   5  -3   3   38.00   15.10
   5  -3   3   45.10   18.70
  -6   3  -3  138.39   22.90
  -6   3  -3  157.38   26.20
  -6   3  -3  142.29   31.10
  -6   3  -3  174.08   26.30
   6  -3   3  144.09   24.70
   6  -3   3   49.70   23.70
  -7   3  -3    2.80   13.90
  -7   3  -3  -20.10   13.90
  -7   3  -3  -10.20   12.50
   7  -3   3   -3.00   11.60
   7  -3   3  -30.10   16.80
  -8   3  -3   -7.30   15.90
  -8   3  -3  -13.00   12.90
  -8   3  -3    6.50   16.50
  -8   3  -3   15.70   22.50
   8  -3   3  -18.40   20.60
   8  -3   3   -1.70   21.00
   8  -3   3   -5.50   17.10
  -9   3  -3   16.50   18.30
  -9   3  -3   15.30   20.20
  -9   3  -3    3.40   20.50
  -9   3  -3   37.10   25.70
   9  -3   3  -21.30   25.70
   9  -3   3   29.00   26.00
   9  -3   3   51.49   21.20
  10   2  -3    7.70   12.30
  10   2  -3   34.20   25.80
 -10  -2   3  -39.90   19.30
   9   2  -3  114.49   23.00
   9   2  -3  119.79   30.30
  -9  -2   3   82.99   15.20
   8   2  -3   40.00   15.50
   8   2  -3    6.10   17.70
  -8  -2   3    7.70   16.70
  -8  -2   3   49.80   13.20
   7   2  -3   -2.50    9.00
  -7  -2   3  -21.30   10.50
  -7  -2   3   -5.60    8.20
   6   2  -3  211.58   21.60
   6   2  -3  245.58   34.00
  -6  -2   3  230.78   27.00
  -6  -2   3  184.08   19.80
   5   2  -3  629.84   24.60
   5   2  -3  626.24   43.20
  -5  -2   3  618.74   38.80
   4   2  -3  130.39    8.60
   4   2  -3  119.39   15.40
   4   2  -3  132.59   21.20
  -4  -2   3  126.49   16.40
  -4  -2   3  127.09   18.50
   3   2  -3  199.98   24.80
   3   2  -3  192.88   21.20
  -3  -2   3  166.78   18.40
   2   2  -3   45.10   12.50
  -2  -2   3   38.60   11.30
   1   2  -3 2719.13   73.79
   1   2  -3 2410.86   95.49
  -1  -2   3 2518.25   72.59
  -1  -2   3 2649.93   75.39
   0   2  -3   29.40   12.30
   0   2  -3   32.60   10.50
   0   2  -3   23.70    8.00
   0   2  -3   14.40   10.40
   0  -2   3   15.60   10.20
   0  -2   3   16.80    9.40
   0  -2   3    8.70   10.30
  -1   2  -3  119.59   22.10
  -1   2  -3  136.49   18.40
  -1   2  -3  105.19   16.30
   1  -2   3   92.59   16.30
   1  -2   3   87.19   11.60
   1  -2   3  111.69   17.50
   1  -2   3   85.09    5.50
  -2   2  -3   30.20    9.20
  -2   2  -3   14.90   12.00
  -2   2  -3   28.80   12.70
  -2   2  -3   24.10    3.80
   2  -2   3   24.20    9.20
   2  -2   3   10.20   12.00
   2  -2   3    6.30   11.80
  -3   2  -3    3.40   10.00
  -3   2  -3   -0.50    7.40
  -3   2  -3  -12.60    9.70
   3  -2   3   -7.80    7.10
   3  -2   3    3.50   10.60
   3  -2   3    7.70   10.90
  -4   2  -3   -1.90   10.00
  -4   2  -3   17.00   14.10
  -4   2  -3   29.70   10.70
   4  -2   3   12.60    9.50
   4  -2   3   36.90   16.30
   4  -2   3   13.50   14.20
  -5   2  -3   32.70   16.30
  -5   2  -3    6.50   10.80
  -5   2  -3   42.40   13.50
  -5   2  -3    9.40   11.70
   5  -2   3   30.80   18.80
   5  -2   3   27.90   17.30
   5  -2   3   31.60   13.50
  -6   2  -3   17.70   13.80
  -6   2  -3   15.80   13.80
  -6   2  -3   17.50   13.30
  -6   2  -3    5.70   15.10
   6  -2   3   20.40   13.40
   6  -2   3   20.80   18.00
   6  -2   3   23.70   22.00
  -7   2  -3   56.39   19.80
  -7   2  -3   30.90   15.80
  -7   2  -3   48.70   19.50
   7  -2   3  -12.20   20.20
   7  -2   3   85.59   19.50
  -8   2  -3    6.10   13.10
  -8   2  -3   -7.20   12.40
  -8   2  -3   42.50   18.10
  -8   2  -3  -32.70   15.50
   8  -2   3  -27.80   19.20
   8  -2   3    1.50   13.00
   8  -2   3    5.40   21.30
  -9   2  -3   32.90   18.80
  -9   2  -3   17.30   19.40
  -9   2  -3  -10.20   24.80
   9  -2   3   59.79   29.70
   9  -2   3   35.10   19.50
   9  -2   3  -12.10   27.30
  10   1  -3   14.00   15.70
  10   1  -3   35.00   26.40
 -10  -1   3    0.60   26.00
 -10  -1   3   21.10   14.10
   9   1  -3   -0.30   19.60
  -9  -1   3   -7.20   16.90
  -9  -1   3    9.20   12.90
   8   1  -3   30.70   21.40
   8   1  -3   32.10   13.80
  -8  -1   3   60.29   14.90
  -8  -1   3   50.29   19.80
   7   1  -3  147.09   19.50
   7   1  -3  120.09   28.70
  -7  -1   3  174.68   30.50
  -7  -1   3  149.29   20.30
   6   1  -3   67.19   13.40
   6   1  -3   70.19   20.50
  -6  -1   3   78.99   20.50
  -6  -1   3   73.49   15.30
   5   1  -3   -1.00    6.30
   5   1  -3   12.40   13.80
   5   1  -3    6.80    7.10
  -5  -1   3   -3.30    9.20
  -5  -1   3    5.80    8.60
   4   1  -3    8.20    6.70
   4   1  -3   19.90    9.40
   4   1  -3   12.40   10.90
  -4  -1   3   20.60   10.50
   3   1  -3  321.77   26.60
   3   1  -3  314.37   23.40
   3   1  -3  355.06   18.00
  -3  -1   3  339.37   25.10
   2   1  -3  684.13   33.50
   2   1  -3  613.34   27.10
  -2  -1   3  660.53   26.20
  -2  -1   3  665.93   32.10
   1   1  -3 3412.26   84.39
  -1  -1   3 3507.65   92.69
  -1  -1   3 3376.96   84.39
   0   1  -3 5156.98  123.39
   0   1  -3 5202.08  125.29
   0  -1   3 5234.48  128.39
   0  -1   3 5002.20  122.69
   0  -1   3 5137.19  128.39
  -1   1  -3 3595.44   81.69
  -1   1  -3 3571.04   98.19
  -1   1  -3 3552.94   95.19
   1  -1   3 3568.54   95.49
   1  -1   3 3578.74   94.19
   1  -1   3 3293.87  124.59
   1  -1   3 3416.06  110.29
  -2   1  -3  164.08   22.60
  -2   1  -3  145.39   11.80
  -2   1  -3  145.29    6.40
  -2   1  -3  163.68   18.90
   2  -1   3  150.48   17.90
   2  -1   3  151.88   21.70
   2  -1   3  177.08   23.60
  -3   1  -3 1255.47   48.30
  -3   1  -3 1225.68   40.70
  -3   1  -3 1281.27   57.59
   3  -1   3 1317.37   58.89
   3  -1   3 1248.38   57.59
   3  -1   3 1201.08   40.30
  -4   1  -3   66.89   14.50
  -4   1  -3   41.00   16.70
  -4   1  -3   60.19   15.80
  -4   1  -3   94.29   14.90
   4  -1   3   68.09   12.80
   4  -1   3   82.49   19.10
   4  -1   3   56.79   20.10
  -5   1  -3  993.80   43.90
  -5   1  -3  933.41   56.89
  -5   1  -3  959.50   44.60
  -5   1  -3  926.91   49.10
   5  -1   3  999.80   43.90
   5  -1   3  985.20   60.09
   5  -1   3  963.10   59.09
  -6   1  -3   44.10   17.30
  -6   1  -3   12.20   11.20
  -6   1  -3   33.60   17.40
  -6   1  -3   44.30   15.10
   6  -1   3    4.50   20.00
   6  -1   3   10.10   11.50
   6  -1   3   -3.80   15.50
  -7   1  -3   30.70   16.40
  -7   1  -3   60.99   16.80
   7  -1   3   80.29   25.90
   7  -1   3   47.80   15.90
  -8   1  -3   13.60   19.40
  -8   1  -3   22.80   17.20
  -8   1  -3    1.10   12.00
   8  -1   3   39.20   26.20
   8  -1   3   -2.60   23.90
   8  -1   3    8.40   15.80
  -9   1  -3   32.00   19.90
  -9   1  -3    0.30   14.40
  -9   1  -3   26.80   26.00
   9  -1   3   46.80   29.60
   9  -1   3   -4.80   15.60
   9  -1   3   13.50   34.60
  10   0  -3   39.20   20.50
  10   0  -3   48.20   27.10
 -10   0   3   20.30   15.80
   9   0  -3   59.49   24.70
  -9   0   3   91.79   29.20
  -9   0   3   58.99   19.90
   8   0  -3  -11.70   17.10
  -8   0   3   27.90   20.30
  -8   0   3   23.10   14.00
   7   0  -3    7.30    7.20
   7   0  -3    7.10   14.60
  -7   0   3    6.10   13.40
  -7   0   3    8.60   12.10
  -7   0   3    9.80   15.30
   6   0  -3  -12.70   11.30
   6   0  -3    0.10    8.10
  -6   0   3   25.50   16.50
  -6   0   3    6.30   10.10
  -6   0   3   -5.30   10.70
   5   0  -3   -1.70    4.40
   5   0  -3   -0.30    8.40
   5   0  -3    4.10   11.00
  -5   0   3    3.00    9.40
  -5   0   3    2.90   13.40
  -5   0   3   -8.30    7.70
   4   0  -3  112.19   20.80
   4   0  -3  128.79   17.30
  -4   0   3  113.39   21.10
  -4   0   3  133.29   18.60
   3   0  -3    4.70    8.00
   3   0  -3   -8.10    8.50
   3   0  -3   16.70   12.30
  -3   0   3   13.80   12.40
  -3   0   3   -2.00    9.30
  -3   0   3   15.40    8.80
   2   0  -3  969.00   42.70
   2   0  -3 1060.69   41.90
   2   0  -3  969.80   30.30
  -2   0   3 1042.30   41.60
  -2   0   3 1035.10   38.90
   1   0  -3   33.00   12.00
   1   0  -3   31.50    5.70
   1   0  -3   29.20    9.10
  -1   0   3   27.50   11.70
  -1   0   3   27.60    5.50
  -1   0   3   35.10    9.80
   0   0  -3 4896.81  122.19
   0   0  -3 4775.52  106.09
   0   0   3 5052.59  120.69
   0   0   3 4674.13  111.09
   0   0   3 4001.30  145.89
   0   0   3 4920.31  124.39
  -1   0  -3  139.49   19.80
  -1   0  -3   97.69    9.00
   1   0   3   88.09   14.40
   1   0   3  110.09   15.90
   1   0   3  108.39   17.90
   1   0   3  119.39   17.40
  -2   0  -3   -8.60    4.20
  -2   0  -3   -3.70   10.70
  -2   0  -3   -1.70    7.60
  -2   0  -3   -7.20    9.20
   2   0   3    7.80    8.60
   2   0   3   -9.30   10.00
   2   0   3    1.70   10.50
  -3   0  -3  442.86   21.00
  -3   0  -3  478.65   31.90
  -3   0  -3  410.16   33.20
  -3   0  -3  433.86   26.30
   3   0   3  457.25   19.40
   3   0   3  461.45   35.50
  -4   0  -3  386.16   31.30
  -4   0  -3  388.46   34.70
  -4   0  -3  351.96   21.80
  -4   0  -3  381.36   24.90
   4   0   3  392.26   22.00
   4   0   3  376.36   35.30
  -5   0  -3    3.30   12.40
  -5   0  -3  -18.90   11.20
  -5   0  -3  -11.80    7.00
   5   0   3   -0.30   15.40
   5   0   3   -0.20    7.40
  -6   0  -3   48.40   16.90
  -6   0  -3   51.49   19.20
  -6   0  -3   47.10   12.90
   6   0   3   41.80   38.80
   6   0   3   38.20   12.60
  -7   0  -3    9.20    9.90
  -7   0  -3  -17.70   12.40
   7   0   3   20.40   12.10
   7   0   3   20.50   20.40
  -8   0  -3   41.00   24.30
  -8   0  -3   -1.90    9.60
  -8   0  -3   19.10   16.90
   8   0   3  -15.60   11.80
   8   0   3  -15.20   22.10
  -9   0  -3    0.10    9.80
  -9   0  -3  -21.30   14.50
  -9   0  -3   19.60   28.60
  -9   0  -3  -11.90   16.80
   9   0   3    2.80   15.30
   9   0   3  -40.20   27.90
   9   0   3  -52.79   28.90
  10  -1  -3   -2.20   23.50
  10  -1  -3   46.50   25.30
 -10   1   3   21.70   26.20
 -10   1   3   27.60   18.40
   9  -1  -3   27.90   16.60
   9  -1  -3   28.70   19.40
  -9   1   3  -17.20   17.60
  -9   1   3   20.50   20.70
  -9   1   3   39.50   18.90
   8  -1  -3  744.13   58.19
   8  -1  -3  766.12   49.40
  -8   1   3  651.33   59.79
  -8   1   3  755.92   59.49
  -8   1   3  809.72   48.70
   7  -1  -3    1.40   10.90
  -7   1   3    6.70   12.60
  -7   1   3   29.00   21.10
  -7   1   3   29.30   20.20
   6  -1  -3  257.07   25.90
   6  -1  -3  252.27   34.70
  -6   1   3  242.28   33.20
  -6   1   3  219.08   31.20
  -6   1   3  273.07   30.90
   5  -1  -3  175.28   21.20
   5  -1  -3  203.58   29.50
  -5   1   3  187.88   26.90
  -5   1   3  220.78   26.90
  -5   1   3  179.48   28.70
   4  -1  -3    5.40    9.40
   4  -1  -3   12.30    2.40
   4  -1  -3    1.20   10.30
  -4   1   3   11.20   13.90
  -4   1   3    6.00   11.30
   3  -1  -3   24.70   11.90
   3  -1  -3   49.99   14.60
  -3   1   3   45.70   15.00
  -3   1   3   24.50   13.50
  -3   1   3   45.70   13.10
   2  -1  -3  737.63   35.70
   2  -1  -3  760.02   35.50
  -2   1   3  710.43   36.90
  -2   1   3  797.02   37.70
  -2   1   3  727.13   36.50
   1  -1  -3  728.53   28.80
   1  -1  -3  750.02   37.80
   1  -1  -3  780.62   35.90
   1  -1  -3  751.62   30.90
  -1   1   3  770.32   31.10
  -1   1   3  750.22   37.40
  -1   1   3  759.92   42.60
   0  -1  -3 2726.53   82.49
   0  -1  -3 2626.94   75.19
   0  -1  -3 2678.03   77.69
   0  -1  -3 2662.03   65.79
   0   1   3 2688.93   66.19
   0   1   3 2789.42   83.39
   0   1   3 2759.02   78.79
   0   1   3 2638.94   82.59
  -1  -1  -3   16.00    8.00
  -1  -1  -3   13.40    9.80
  -1  -1  -3    0.20    9.40
   1   1   3    1.20   11.20
   1   1   3    1.30    2.00
   1   1   3   -5.80   10.10
   1   1   3   13.30    9.40
  -2  -1  -3    8.50   11.40
  -2  -1  -3    3.30    8.50
  -2  -1  -3    5.30    6.90
   2   1   3   17.90    9.70
   2   1   3    4.80   11.20
   2   1   3    9.10    2.70
   2   1   3    7.90   12.00
  -3  -1  -3  153.88   14.90
  -3  -1  -3  115.89   19.30
  -3  -1  -3   96.29   19.70
   3   1   3  124.09   22.90
   3   1   3  115.89    9.80
   3   1   3  110.09   14.20
  -4  -1  -3    7.30    8.70
  -4  -1  -3    1.60    9.00
  -4  -1  -3    8.80   12.70
   4   1   3   -3.30    5.70
   4   1   3    6.40   14.20
  -5  -1  -3  160.48   22.50
  -5  -1  -3  132.09   25.20
  -5  -1  -3  136.59   24.50
  -5  -1  -3  129.69   20.30
   5   1   3  127.39   16.30
   5   1   3  136.19   28.70
  -6  -1  -3   14.30   12.40
  -6  -1  -3   24.20   14.30
  -6  -1  -3    5.60   15.40
   6   1   3   -0.40    9.70
  -7  -1  -3   87.69   24.30
  -7  -1  -3   66.99   19.80
   7   1   3   88.39   26.50
   7   1   3  104.79   19.70
  -8  -1  -3    0.30    5.00
  -8  -1  -3    1.30   23.40
  -8  -1  -3   20.00   19.50
  -8  -1  -3    3.30   13.30
   8   1   3   -5.40   24.00
   8   1   3   -4.80   11.80
  10  -2  -3   -9.40   18.30
  10  -2  -3  -40.20   22.70
  10  -2  -3  -18.70   22.00
 -10   2   3   -6.30   19.30
 -10   2   3    1.00   17.40
 -10   2   3   41.30   27.90
   9  -2  -3   17.60   21.10
   9  -2  -3   18.40   21.70
   9  -2  -3   31.80   18.20
  -9   2   3    4.00   16.40
  -9   2   3    8.50   23.00
  -9   2   3  -26.80   17.10
   8  -2  -3   25.30   18.40
   8  -2  -3   47.20   19.90
   8  -2  -3   14.10   18.10
  -8   2   3   23.20   17.90
  -8   2   3   52.89   23.40
   7  -2  -3   68.09   22.70
   7  -2  -3   69.49   21.20
  -7   2   3   72.89   21.30
  -7   2   3   86.99   25.90
  -7   2   3   91.59   21.40
   6  -2  -3   26.40   14.10
   6  -2  -3   12.20   14.40
  -6   2   3   28.90   15.30
  -6   2   3   27.00   15.40
  -6   2   3   16.70   18.70
   5  -2  -3   19.20   12.60
   5  -2  -3   -6.50    7.50
   5  -2  -3    4.20    9.30
  -5   2   3   -8.10   10.00
  -5   2   3    4.00   14.10
   4  -2  -3  155.38   23.70
   4  -2  -3  128.49   23.10
  -4   2   3  152.28   25.50
  -4   2   3  125.69   21.70
   3  -2  -3  121.59   20.30
   3  -2  -3  116.99   20.10
   3  -2  -3  110.69   11.30
  -3   2   3  132.99   20.60
  -3   2   3  133.49   21.30
  -3   2   3  106.09   20.20
   2  -2  -3  177.48   20.20
   2  -2  -3  198.28   21.20
   2  -2  -3  196.48    8.30
   2  -2  -3  215.58   13.80
   2  -2  -3  203.48   22.90
  -2   2   3  216.58   23.70
  -2   2   3  218.18   23.80
  -2   2   3  199.68   23.60
   1  -2  -3  293.37   21.50
   1  -2  -3  328.27   27.90
   1  -2  -3  318.47   20.20
   1  -2  -3  346.17   24.70
  -1   2   3  319.97   27.20
  -1   2   3  297.47   25.30
  -1   2   3  315.57   22.20
  -1   2   3  300.17   12.10
   0  -2  -3  294.47   18.00
   0  -2  -3  291.87   22.80
   0  -2  -3  333.27   28.30
   0  -2  -3  327.77   23.30
   0   2   3  352.26   27.40
   0   2   3  317.77   18.70
   0   2   3  312.27   27.70
   0   2   3  327.67   24.70
   0   2   3  290.17   27.40
   0   2   3  328.57   22.60
  -1  -2  -3   16.70   17.00
  -1  -2  -3    6.50    9.00
  -1  -2  -3   10.00    8.70
   1   2   3   10.20   10.80
   1   2   3   19.80   14.00
   1   2   3    3.10    4.90
   1   2   3   10.00   12.70
  -2  -2  -3   24.70   10.40
  -2  -2  -3   28.20   12.90
  -2  -2  -3   23.00   10.70
  -2  -2  -3   23.40   11.10
   2   2   3   30.20    6.00
   2   2   3   14.80   13.10
   2   2   3   14.20   12.70
   2   2   3   47.50   16.50
   2   2   3   19.50    9.50
  -3  -2  -3   -7.10    9.20
  -3  -2  -3   -2.40    7.80
  -3  -2  -3    2.90    7.20
  -3  -2  -3   -0.60    7.90
   3   2   3    0.70   11.40
   3   2   3   -8.00    9.80
   3   2   3   -0.30    7.00
   3   2   3    2.70    5.10
  -4  -2  -3  168.28   27.30
  -4  -2  -3  203.48   16.50
  -4  -2  -3  198.88   20.70
  -4  -2  -3  208.08   29.90
   4   2   3  182.88   29.00
   4   2   3  190.98   16.40
  -5  -2  -3   31.70   19.20
  -5  -2  -3  -13.60   13.50
  -5  -2  -3   35.90   15.50
  -5  -2  -3   19.40    7.00
   5   2   3   29.30   18.50
   5   2   3   13.60    8.40
  -6  -2  -3   14.20   14.70
  -6  -2  -3   15.10   17.60
  -6  -2  -3   30.20    6.50
  -6  -2  -3   43.10   19.60
   6   2   3   25.40   20.40
   6   2   3   37.00   11.40
  -7  -2  -3  -18.60   15.00
  -7  -2  -3   15.30   16.60
  -7  -2  -3    7.90   15.60
   7   2   3   37.10   20.80
   7   2   3  -11.70    9.30
  -8  -2  -3   62.49   21.80
  -8  -2  -3   69.29   28.40
   8   2   3   16.60   13.40
   8   2   3   31.90   23.00
  10  -3  -3   18.40   24.10
  10  -3  -3   -4.30   21.00
  10  -3  -3   -6.10   25.20
 -10   3   3   41.40   28.20
 -10   3   3   42.70   27.10
 -10   3   3    9.90   20.80
   9  -3  -3   56.99   24.00
   9  -3  -3   15.10   20.70
   9  -3  -3   35.40   23.40
  -9   3   3    3.80   20.30
  -9   3   3   57.59   26.50
  -9   3   3   -1.60   23.30
   8  -3  -3  101.79   28.90
   8  -3  -3  209.68   34.00
   8  -3  -3  195.48   35.80
  -8   3   3  157.08   30.40
  -8   3   3  114.29   33.30
   7  -3  -3   19.30   15.90
   7  -3  -3  -11.80   11.70
   7  -3  -3    4.10   14.10
  -7   3   3   18.10   15.50
  -7   3   3   -9.40   14.70
   6  -3  -3  481.45   41.90
   6  -3  -3  551.24   43.10
   6  -3  -3  472.05   35.80
  -6   3   3  515.35   44.50
  -6   3   3  434.56   43.50
  -6   3   3  506.65   41.70
   5  -3  -3   79.69   16.00
   5  -3  -3   24.50   15.10
   5  -3  -3   64.99   19.30
  -5   3   3   60.79   20.60
  -5   3   3   45.80   17.40
   4  -3  -3   13.90   12.40
   4  -3  -3   17.70   13.80
   4  -3  -3   26.40   14.90
  -4   3   3   23.80   15.00
  -4   3   3   25.30   14.00
   3  -3  -3   44.90    8.50
   3  -3  -3   30.50   14.30
   3  -3  -3   58.59   16.40
  -3   3   3   40.50   13.90
  -3   3   3   94.09   20.10
  -3   3   3   59.29   16.80
   2  -3  -3  131.99   23.80
   2  -3  -3  111.79    9.70
   2  -3  -3  113.59   18.80
   2  -3  -3  125.59   21.10
  -2   3   3  121.29   13.20
  -2   3   3  141.29   21.70
  -2   3   3  160.58   24.10
  -2   3   3  128.29   10.50
  -2   3   3  144.09   22.90
   1  -3  -3  102.49   20.10
   1  -3  -3   93.19   14.50
   1  -3  -3   98.59   17.00
  -1   3   3  128.09   20.40
  -1   3   3  113.19   15.00
  -1   3   3  131.29   18.50
  -1   3   3  125.49   22.70
  -1   3   3  100.49   11.00
   0  -3  -3   22.50   10.90
   0  -3  -3   61.99   17.60
   0  -3  -3   76.79   16.90
   0   3   3   67.09   13.00
   0   3   3   41.90   12.70
   0   3   3   38.60   15.50
   0   3   3   37.40   15.40
   0   3   3   45.60   10.30
   0   3   3   42.50   15.00
   0   3   3   56.69   11.50
  -1  -3  -3  270.87   24.20
  -1  -3  -3  233.08   23.80
   1   3   3  247.18   28.30
   1   3   3  307.57   25.30
   1   3   3  278.37   18.50
   1   3   3  256.57   26.80
   1   3   3  318.37   30.90
   1   3   3  293.87   23.00
  -2  -3  -3    0.50    9.20
  -2  -3  -3  -14.70    8.90
  -2  -3  -3   -0.10   10.10
  -2  -3  -3    7.40    7.40
   2   3   3   -9.20   10.70
   2   3   3   -3.80   10.60
   2   3   3    6.70    6.40
   2   3   3   -4.50    7.10
  -3  -3  -3   58.19   16.20
  -3  -3  -3   33.80   15.50
  -3  -3  -3   33.20   14.60
   3   3   3   51.69   10.60
   3   3   3   29.20   17.30
   3   3   3   40.30   14.10
   3   3   3   34.30   16.00
  -4  -3  -3    3.40   14.90
  -4  -3  -3    5.90   15.10
  -4  -3  -3    9.70   12.30
   4   3   3   -6.80    6.80
   4   3   3   15.90   11.50
   4   3   3   20.80   15.10
  -5  -3  -3 1229.18   67.89
  -5  -3  -3 1331.27   83.59
  -5  -3  -3 1200.78   57.89
   5   3   3 1264.57   69.49
   5   3   3 1218.98   48.30
  -6  -3  -3   28.80   19.70
  -6  -3  -3   53.29   23.20
  -6  -3  -3   33.10   16.80
   6   3   3   49.60   13.40
   6   3   3   51.09   21.20
  -7  -3  -3  131.09   27.50
  -7  -3  -3  113.89   30.80
   7   3   3   80.59   27.30
   7   3   3   63.09   16.50
  -8  -3  -3   39.60   21.80
  -8  -3  -3   97.09   31.30
   8   3   3   50.39   16.50
   8   3   3  118.19   32.40
  10  -4  -3   16.90   21.70
  10  -4  -3  -14.10   20.10
  10  -4  -3   -6.10   23.50
 -10   4   3   68.39   26.20
 -10   4   3  -24.30   26.80
   9  -4  -3  -10.00   23.70
   9  -4  -3    8.60   19.50
   9  -4  -3    0.10   17.10
  -9   4   3  -29.20   23.30
  -9   4   3   26.00   20.40
  -9   4   3    6.80   26.50
   8  -4  -3  -16.60   13.30
   8  -4  -3   53.69   24.50
   8  -4  -3    2.20   17.30
  -8   4   3   26.00   20.50
  -8   4   3   25.70   19.00
  -8   4   3   39.60   23.20
   7  -4  -3   35.70   16.80
   7  -4  -3   21.60   19.00
  -7   4   3   23.40   20.60
  -7   4   3   19.80   21.90
   6  -4  -3    5.40   12.90
   6  -4  -3   15.70   13.20
   6  -4  -3   23.80   14.30
  -6   4   3    9.70   14.90
  -6   4   3    2.90   15.80
  -6   4   3   -6.50   13.60
   5  -4  -3   44.20   13.70
   5  -4  -3   30.20   16.10
   5  -4  -3   21.50   17.20
  -5   4   3   46.20   18.40
  -5   4   3   67.69   21.80
   4  -4  -3  871.21   51.29
   4  -4  -3  800.22   36.70
   4  -4  -3  852.21   53.19
  -4   4   3  905.41   51.79
  -4   4   3  867.91   52.99
   3  -4  -3  145.79   14.10
   3  -4  -3  189.18   26.40
   3  -4  -3  180.28   28.30
   3  -4  -3  124.79   22.10
  -3   4   3  139.09   12.00
  -3   4   3  118.79   22.40
  -3   4   3  155.58   25.80
   2  -4  -3   12.70    6.70
   2  -4  -3   48.50   15.90
   2  -4  -3   19.60   12.10
   2  -4  -3   27.80   14.80
  -2   4   3   24.10    8.70
  -2   4   3   16.00   14.20
  -2   4   3   44.30   14.80
  -2   4   3   20.40   16.50
  -2   4   3   23.10    8.10
   1  -4  -3  292.27   29.00
   1  -4  -3  260.57   23.70
  -1   4   3  247.08   18.30
  -1   4   3  231.88   26.00
  -1   4   3  311.37   25.50
  -1   4   3  275.77   21.70
  -1   4   3  295.57   29.40
  -1   4   3  281.47   29.90
   0  -4  -3   13.40   13.50
   0  -4  -3    3.50   11.10
   0   4   3   11.30    9.10
   0   4   3    2.60   10.10
   0   4   3    7.50   10.50
   0   4   3   -3.40   10.20
   0   4   3    8.60   11.40
   0   4   3   13.50   13.10
   0   4   3    6.40    9.40
  -1  -4  -3   22.30   14.80
  -1  -4  -3   29.60   12.20
   1   4   3   14.00    8.50
   1   4   3   51.09   16.00
   1   4   3   25.60   13.30
   1   4   3   16.30   10.00
   1   4   3    8.60   11.70
   1   4   3   12.40   12.10
  -2  -4  -3    9.90   12.30
  -2  -4  -3    3.30   11.00
   2   4   3    9.40   12.50
   2   4   3   20.50   15.40
   2   4   3   10.10    8.60
   2   4   3    0.80   11.00
   2   4   3    8.10   12.20
   2   4   3    2.80    8.20
  -3  -4  -3   26.20   15.00
  -3  -4  -3   46.40   18.90
  -3  -4  -3   50.69   17.50
   3   4   3   26.50   15.60
   3   4   3   46.60   17.80
   3   4   3   51.59   18.10
  -4  -4  -3   -7.80   12.60
  -4  -4  -3   -9.90   11.20
   4   4   3   -3.00    8.20
   4   4   3    6.90   16.60
   4   4   3   -8.20   12.30
   4   4   3   13.30    6.20
   4   4   3   16.50   13.00
  -5  -4  -3   15.00   28.60
  -5  -4  -3    3.30   14.60
   5   4   3   18.30   10.50
   5   4   3   29.90   19.00
  -6  -4  -3   47.90   21.40
  -6  -4  -3   44.10   22.10
   6   4   3   65.99   24.40
   6   4   3   31.30   13.20
  -7  -4  -3    4.70   20.60
  -7  -4  -3    9.10   16.10
   7   4   3   -1.60   11.90
   7   4   3   24.90   22.70
   9  -5  -3  118.29   36.10
   9  -5  -3  129.69   33.50
   9  -5  -3  108.79   35.90
  -9   5   3  155.98   38.70
  -9   5   3   85.29   28.90
  -9   5   3  134.59   33.10
   8  -5  -3  266.77   45.20
   8  -5  -3  198.08   40.40
  -8   5   3  238.68   39.10
  -8   5   3  188.98   37.00
  -8   5   3  292.27   46.50
   7  -5  -3   -3.30   14.20
   7  -5  -3  -12.20   15.00
  -7   5   3    6.40   19.20
  -7   5   3  -12.30   16.10
  -7   5   3   29.40   17.70
   6  -5  -3  607.84   60.79
   6  -5  -3  698.13   43.50
  -6   5   3  686.83   53.89
  -6   5   3  693.83   56.49
  -6   5   3  686.13   52.59
   5  -5  -3  447.66   44.00
   5  -5  -3  409.66   30.40
  -5   5   3  438.36   41.90
  -5   5   3  458.95   45.10
   4  -5  -3  210.08   30.20
   4  -5  -3  156.08   27.60
   4  -5  -3  157.08   32.20
   4  -5  -3  122.99   17.70
  -4   5   3  175.68   31.30
  -4   5   3  152.48   11.60
  -4   5   3  211.88   31.30
   3  -5  -3    1.90   14.20
   3  -5  -3   -6.60    6.50
   3  -5  -3    7.90   12.90
   3  -5  -3   17.90   14.30
  -3   5   3   17.70   16.90
  -3   5   3    7.50   14.20
  -3   5   3   -4.70    5.30
  -3   5   3    7.20   10.70
   2  -5  -3  357.66   31.80
   2  -5  -3  345.27   23.30
   2  -5  -3  304.87   31.90
   2  -5  -3  346.17   35.80
  -2   5   3  399.86   33.00
  -2   5   3  346.77   33.50
  -2   5   3  315.37   22.50
  -2   5   3  353.46   24.10
  -2   5   3  307.77   33.40
   1  -5  -3   54.79   18.90
   1  -5  -3   91.69   21.60
  -1   5   3   60.79   17.10
  -1   5   3   76.79   15.30
  -1   5   3   72.59   17.60
  -1   5   3  101.19   20.20
  -1   5   3  103.39   21.80
  -1   5   3   96.59   22.70
   0  -5  -3  150.18   25.50
   0   5   3  137.39   26.30
   0   5   3   98.49   18.50
   0   5   3   95.39   23.00
   0   5   3   97.19   18.90
   0   5   3  125.09   18.40
   0   5   3  140.49   20.80
   0   5   3  148.29   22.80
  -1  -5  -3   13.10   13.80
   1   5   3    4.20   11.50
   1   5   3    4.90    9.10
   1   5   3   12.50   11.60
   1   5   3   18.10   13.10
   1   5   3    9.20    8.60
   1   5   3   -1.90    9.60
   1   5   3   -5.40   10.10
  -2  -5  -3   64.09   20.30
   2   5   3   24.90   16.80
   2   5   3   36.60   16.30
   2   5   3   69.79   19.10
   2   5   3   61.39   14.40
   2   5   3   63.09   19.20
   2   5   3   51.89   16.60
   2   5   3   58.49   14.10
  -3  -5  -3  350.96   33.90
   3   5   3  245.58   33.70
   3   5   3  247.48   21.90
   3   5   3  266.17   34.90
   3   5   3  203.88   34.00
   3   5   3  247.58   35.10
   3   5   3  254.27   23.70
  -4  -5  -3    7.00   16.10
  -4  -5  -3   19.70   16.20
   4   5   3   26.00   18.40
   4   5   3   13.50    7.20
   4   5   3   11.40   17.10
   4   5   3    3.20   17.50
  -5  -5  -3   -0.30   15.20
  -5  -5  -3   20.20   17.90
   5   5   3   13.50   11.20
   5   5   3   16.90   17.60
  -6  -5  -3   34.60   21.60
   6   5   3   11.70   12.60
   6   5   3   31.90   24.50
   6   5   3   23.40   21.40
   6   5   3   54.89   24.40
  -7  -5  -3   22.90   24.60
  -7  -5  -3   -2.40   15.20
   7   5   3  -11.60   29.20
   7   5   3   27.20   14.20
   7   5   3   12.60   22.80
   9  -6  -3   -1.10   25.70
   9  -6  -3   72.49   34.70
  -9   6   3   50.49   27.60
  -9   6   3   71.79   30.70
  -9   6   3   -9.30   27.70
   8  -6  -3  122.69   34.00
   8  -6  -3   44.00   20.60
   8  -6  -3    6.60   28.40
  -8   6   3   27.60   24.50
  -8   6   3   45.00   26.10
  -8   6   3   40.30   25.60
   7  -6  -3  227.58   40.20
   7  -6  -3  206.08   30.40
  -7   6   3  170.78   35.50
  -7   6   3  167.28   37.30
  -7   6   3  186.48   36.10
   6  -6  -3  304.57   46.40
   6  -6  -3  266.97   29.10
  -6   6   3  298.57   41.10
  -6   6   3  294.97   45.10
  -6   6   3  208.98   36.80
   5  -6  -3  149.69   32.00
   5  -6  -3  104.99   25.20
   5  -6  -3  115.99   20.40
   5  -6  -3  132.39   29.60
  -5   6   3  188.48   33.00
  -5   6   3  128.39   31.40
   4  -6  -3    9.30   18.70
   4  -6  -3    8.00    9.50
   4  -6  -3   10.00   14.60
  -4   6   3   17.40    8.30
  -4   6   3   29.00   19.70
  -4   6   3   32.30   18.80
   3  -6  -3   -1.00   12.70
   3  -6  -3  -22.40    8.20
   3  -6  -3  -18.30   11.70
   3  -6  -3    3.50    9.10
  -3   6   3   17.20   11.10
  -3   6   3    3.30    7.80
  -3   6   3   25.90   17.50
  -3   6   3  -15.70   10.20
   2  -6  -3    5.90   12.30
   2  -6  -3   22.40   15.10
   2  -6  -3   29.40   14.50
  -2   6   3   15.60   16.60
  -2   6   3   22.00   15.00
  -2   6   3   10.40    9.60
  -2   6   3    8.00   15.20
  -2   6   3    8.00    9.90
   1  -6  -3   19.70   13.80
   1  -6  -3   29.10   15.90
  -1   6   3   27.60   14.60
  -1   6   3   11.30   13.50
  -1   6   3   38.50   20.90
  -1   6   3   37.80   12.90
  -1   6   3    8.30   11.10
   0  -6  -3  298.47   32.80
   0   6   3  293.67   27.50
   0   6   3  201.38   27.10
   0   6   3  214.58   28.30
   0   6   3  242.18   29.90
   0   6   3  275.67   32.40
   0   6   3  271.17   37.30
   0   6   3  298.37   30.00
  -1  -6  -3  384.76   37.40
   1   6   3  286.37   31.30
   1   6   3  356.86   37.30
   1   6   3  376.86   33.10
   1   6   3  368.26   33.00
   1   6   3  412.26   32.90
   1   6   3  351.76   31.10
   1   6   3  394.76   39.10
  -2  -6  -3   97.89   25.10
   2   6   3  108.59   23.20
   2   6   3  106.09   25.00
   2   6   3  130.09   21.70
   2   6   3  145.69   30.50
   2   6   3   96.79   18.80
   2   6   3   96.69   24.40
   2   6   3  101.29   23.10
  -3  -6  -3   33.40   21.40
   3   6   3   51.49   16.20
   3   6   3   34.30   17.40
   3   6   3    8.70   11.00
   3   6   3   71.19   22.40
   3   6   3    7.50   18.00
   3   6   3   21.20   15.40
  -4  -6  -3  189.08   34.20
   4   6   3  124.29   14.90
   4   6   3  153.78   22.60
   4   6   3  132.49   30.20
   4   6   3  113.19   31.30
   4   6   3  192.18   31.00
  -5  -6  -3   17.90   20.00
   5   6   3  -13.60   12.50
   5   6   3  -40.20   13.90
   5   6   3   -5.80   17.90
   5   6   3   -3.80   27.50
   5   6   3  -10.20   18.70
  -6  -6  -3   81.09   28.90
   6   6   3   40.50   26.30
   6   6   3  119.99   31.00
   6   6   3   63.29   27.70
   6   6   3   83.99   19.80
   6   6   3   58.89   32.00
   8  -7  -3   -4.00   15.70
   8  -7  -3   -3.50   20.00
  -8   7   3   50.49   25.80
  -8   7   3  -10.50   20.90
   7  -7  -3    3.60   21.50
   7  -7  -3   13.90   18.20
   7  -7  -3   -2.10   20.00
   7  -7  -3   11.40   16.40
  -7   7   3    4.10   19.90
  -7   7   3   -1.90   19.90
  -7   7   3   20.40   20.60
   6  -7  -3  130.79   28.90
   6  -7  -3  134.19   34.40
   6  -7  -3   92.19   20.90
   6  -7  -3   69.49   27.50
  -6   7   3  104.89   27.80
  -6   7   3  131.39   31.10
  -6   7   3   77.29   30.00
   5  -7  -3    0.90   10.40
   5  -7  -3   10.20   16.50
   5  -7  -3   -4.20   13.00
  -5   7   3  -31.50   16.40
  -5   7   3   -2.00    6.10
  -5   7   3  -21.30   15.90
   4  -7  -3   42.50   13.80
   4  -7  -3   25.30   16.40
   4  -7  -3   25.30   20.80
   4  -7  -3   12.00   15.90
  -4   7   3   -2.40   19.40
  -4   7   3    1.60   18.00
  -4   7   3   16.80    8.60
  -4   7   3   15.10   13.50
   3  -7  -3   -1.30   13.20
   3  -7  -3    1.60   12.00
   3  -7  -3   -1.40   11.90
   3  -7  -3   10.10   10.00
  -3   7   3   15.30   12.40
  -3   7   3    7.90   16.60
  -3   7   3    3.00    9.10
   2  -7  -3   85.89   22.80
  -2   7   3   54.09   16.00
  -2   7   3  103.49   24.00
  -2   7   3   95.39   17.80
  -2   7   3   85.29   24.10
  -1   7   3   -0.50   11.90
  -1   7   3  -18.80    9.80
  -1   7   3    8.20   15.60
  -1   7   3    8.00   13.50
  -1   7   3   16.70   14.80
   0   7   3   76.89   19.00
   0   7   3   96.59   23.10
   0   7   3   29.70   15.60
   0   7   3   76.69   24.20
   0   7   3   63.59   23.30
   0   7   3   59.39   18.50
   0   7   3   59.19   18.70
  -1  -7  -3  145.69   31.80
   1   7   3  180.08   26.60
   1   7   3  144.59   25.40
   1   7   3  149.39   25.90
   1   7   3  235.18   31.60
   1   7   3  162.38   24.80
   1   7   3  173.38   32.60
   1   7   3  148.39   31.00
  -2  -7  -3  217.78   39.00
   2   7   3  262.47   30.80
   2   7   3  156.78   31.50
   2   7   3  180.08   29.60
   2   7   3  288.97   34.10
   2   7   3  189.08   27.60
   2   7   3  183.88   36.60
   2   7   3  261.37   27.40
  -3  -7  -3  214.68   37.70
   3   7   3  200.18   34.40
   3   7   3  189.88   23.40
   3   7   3  198.98   36.90
   3   7   3  280.97   50.89
   3   7   3  287.67   33.50
   3   7   3  237.48   37.50
   3   7   3  180.18   26.70
  -4  -7  -3    0.30   18.00
   4   7   3   30.40   17.00
   4   7   3   24.30   19.20
   4   7   3   38.40   21.30
   4   7   3    7.10   20.70
   4   7   3    9.80   20.40
   4   7   3   -3.30   12.00
  -5  -7  -3   38.20   25.20
   5   7   3   60.29   22.10
   5   7   3   57.59   27.00
   5   7   3    6.00   21.00
   5   7   3   -2.10   20.20
   5   7   3   23.20   26.70
   5   7   3    6.60   15.00
   7  -8  -3  156.78   34.60
   7  -8  -3   69.59   25.60
   7  -8  -3   40.20   26.00
  -7   8   3   62.39   27.50
  -7   8   3   88.39   30.10
  -7   8   3   77.29   32.60
   6  -8  -3   65.89   20.20
   6  -8  -3   48.80   24.90
   6  -8  -3   65.69   25.80
   6  -8  -3   46.00   25.40
  -6   8   3   95.19   28.00
  -6   8   3   40.10   21.40
  -6   8   3   63.39   22.20
   5  -8  -3  -13.00   18.50
   5  -8  -3    8.60   18.80
   5  -8  -3   -0.30   15.90
   5  -8  -3   -1.00   12.60
  -5   8   3  -12.40   19.40
  -5   8   3   13.70   20.50
  -5   8   3    9.50    7.30
  -5   8   3   -6.60   16.50
   4  -8  -3   -5.00   14.50
   4  -8  -3    3.50   12.60
   4  -8  -3   25.40   19.90
  -4   8   3   20.80   14.60
  -4   8   3   18.30   10.30
  -4   8   3   20.70   17.70
  -4   8   3    6.60   19.80
   3  -8  -3   29.60   13.60
   3  -8  -3   22.20   16.50
   3  -8  -3  -13.20   13.70
  -3   8   3    4.70   20.10
  -3   8   3   19.80   14.50
  -3   8   3   27.00   20.90
  -3   8   3    8.40   11.60
   2  -8  -3  -18.10   16.80
  -2   8   3   16.70   18.00
  -2   8   3   19.30   13.00
  -2   8   3   -5.50   15.40
  -2   8   3   -6.50   10.70
   1  -8  -3  150.28   33.50
  -1   8   3  125.59   24.70
  -1   8   3  165.68   32.00
  -1   8   3  173.58   27.40
  -1   8   3  140.59   25.50
  -1   8   3  161.28   31.50
  -1   8   3  194.88   38.10
   0  -8  -3   37.70   23.30
   0   8   3   92.99   27.50
   0   8   3   86.69   23.80
   0   8   3  105.89   24.70
   0   8   3  102.19   23.10
   0   8   3   70.19   19.20
   0   8   3   80.69   22.00
   0   8   3  133.59   31.60
  -1  -8  -3  110.49   29.30
   1   8   3  127.09   26.00
   1   8   3  143.29   25.30
   1   8   3  125.69   30.10
   1   8   3  114.09   31.70
   1   8   3  104.39   23.00
   1   8   3  100.29   23.00
   1   8   3  122.99   22.50
  -2  -8  -3  351.76   49.40
   2   8   3  318.77   33.10
   2   8   3  304.97   40.90
   2   8   3  355.86   49.60
   2   8   3  318.87   33.90
   2   8   3  313.47   32.20
   2   8   3  361.96   38.30
   2   8   3  291.17   44.50
  -3  -8  -3  174.88   37.20
   3   8   3  192.98   35.40
   3   8   3  126.89   25.60
   3   8   3  113.39   30.40
   3   8   3  162.48   23.00
   3   8   3  140.39   31.50
   3   8   3  122.99   31.40
   3   8   3  105.89   26.50
  -4  -8  -3  -22.60   17.00
   4   8   3   13.60   18.00
   4   8   3  -11.90   21.90
   4   8   3    9.10   20.10
   4   8   3  -11.70   10.00
   4   8   3  -21.30   21.20
   4   8   3  -11.40   19.20
   6  -9  -3   30.60   21.30
   6  -9  -3   65.29   31.00
   6  -9  -3    0.60   15.40
  -6   9   3   60.09   26.40
  -6   9   3   15.10   29.80
   5  -9  -3   14.70   15.40
   5  -9  -3  -27.80   18.30
  -5   9   3  -14.90    8.40
  -5   9   3    2.20   19.10
  -5   9   3    2.90   24.00
  -5   9   3  -29.70   18.70
   4  -9  -3  -17.60   16.30
   4  -9  -3  -11.80   15.40
   4  -9  -3   37.10   16.70
  -4   9   3    7.50   10.70
  -4   9   3   21.80   15.80
  -4   9   3   18.00   21.30
  -4   9   3   15.00   20.90
   3  -9  -3   39.50   24.20
  -3   9   3   72.79   26.80
  -3   9   3   83.09   28.70
  -3   9   3   17.60   13.80
  -3   9   3   35.50   19.70
   2  -9  -3  150.98   36.60
  -2   9   3  157.68   27.20
  -2   9   3  198.28   46.40
  -2   9   3  191.58   36.00
  -2   9   3  172.68   34.30
   1  -9  -3  103.19   31.80
  -1   9   3  182.78   29.40
  -1   9   3  166.78   27.90
  -1   9   3  148.69   31.70
  -1   9   3  112.29   29.60
  -1   9   3  198.18   30.40
   0  -9  -3   -6.60   18.80
   0   9   3  -10.90   16.00
   0   9   3    2.10   16.20
   0   9   3   -9.40   16.60
   0   9   3   -6.00   15.00
   0   9   3   -1.50   14.80
   0   9   3  -25.00   12.50
   0   9   3    2.40   21.60
  -1  -9  -3   -1.00   20.10
   1   9   3   13.60   15.20
   1   9   3   16.40   20.70
   1   9   3  -16.30   14.60
   1   9   3  -30.60   22.20
   1   9   3   35.20   18.20
   1   9   3   26.90   16.00
   1   9   3   18.60   22.80
  -2  -9  -3   17.30   23.00
   2   9   3   27.80   17.60
   2   9   3    0.30   17.10
   2   9   3   47.00   23.10
   2   9   3    9.40   24.20
   2   9   3   53.89   26.90
   2   9   3   20.20   20.60
   2   9   3   15.80   16.50
  -3  -9  -3   10.00   23.20
   3   9   3   10.00   18.30
   3   9   3   43.20   26.40
   3   9   3   42.30   21.20
   3   9   3  -20.20   46.20
   3   9   3   -4.90   20.50
   3   9   3  -14.00   21.80
   3   9   3   15.80   15.30
  -4  10   3   52.59   16.60
  -4  10   3   41.50   28.50
  -4  10   3    0.00   22.40
  -4  10   3   35.90   21.80
   3 -10  -3  152.08   37.90
  -3  10   3  130.59   34.30
  -3  10   3  110.79   33.80
  -3  10   3  132.49   25.90
  -3  10   3  118.69   28.90
  -2  10   3   28.80   25.10
  -2  10   3   21.40   24.90
  -2  10   3  -12.70   18.50
  -2  10   3   26.80   15.50
  -1  10   3   11.30   20.10
  -1  10   3    1.60   17.60
  -1  10   3   14.60   17.70
  -1  10   3   31.90   21.60
  -1  10   3   39.10   22.60
   0 -10  -3   -1.30   21.90
   0  10   3  -21.40   16.80
   0  10   3  -14.50   19.60
   0  10   3   -7.20   18.20
   0  10   3   15.90   17.30
   0  10   3   44.40   24.50
  -1 -10  -3   26.00   26.00
   1  10   3    1.40   16.90
   1  10   3  -34.70   27.00
   1  10   3  -15.60   21.20
   1  10   3    1.20   20.20
   1  10   3   -6.70   20.10
   2  12  -4  158.98   38.30
   2  12  -4  168.38   49.99
   2  12  -4  250.27   32.80
   2  12  -4  219.68   36.10
  -2 -12   4  158.48   35.80
  -2 -12   4  226.98   47.60
   1  12  -4   -7.40   22.20
   1  12  -4   -0.50   13.00
   1  12  -4    2.30   25.80
   1  12  -4  -26.00   28.20
  -1 -12   4   27.20   20.40
  -1 -12   4   -7.70   22.40
   0  12  -4   30.60   24.70
   0  12  -4  -42.60   22.70
   0 -12   4   11.10   21.00
   0 -12   4   18.90   24.80
   0 -12   4    2.30   24.70
  -1  12  -4    6.00   23.50
   1 -12   4   36.40   26.00
   1 -12   4   23.90   22.80
   1 -12   4   49.10   27.80
  -2  12  -4   45.80   28.50
  -2  12  -4   85.59   39.20
   2 -12   4  111.19   35.60
   2 -12   4  102.39   32.40
   2 -12   4  125.89   33.90
   4  11  -4   26.60   16.70
  -4 -11   4   11.50   23.20
   3  11  -4  -33.70   21.10
   3  11  -4  -25.90   15.00
   3  11  -4   36.90   18.30
  -3 -11   4   52.19   30.60
   2  11  -4   -1.50   19.50
   2  11  -4  -28.40   24.40
   2  11  -4   26.10   17.50
  -2 -11   4  -26.00   12.30
  -2 -11   4  -31.90   18.00
   1  11  -4   66.69   16.00
   1  11  -4   41.10   22.90
   1  11  -4   54.29   26.50
   1  11  -4   13.00   24.60
  -1 -11   4   46.40   26.80
  -1 -11   4   65.99   25.90
  -1 -11   4  100.79   25.90
   0  11  -4   17.50   21.30
   0  11  -4   23.00   20.40
   0  11  -4  -26.20   21.30
   0 -11   4   15.20   23.30
   0 -11   4   21.70   22.80
   0 -11   4    9.30   16.70
  -1  11  -4  -19.70   20.90
  -1  11  -4   26.50   24.60
   1 -11   4  -17.40   16.90
   1 -11   4    4.90   19.80
   1 -11   4   37.90   24.20
  -2  11  -4   10.00    9.50
  -2  11  -4   45.20   26.40
  -2  11  -4   25.10   23.40
   2 -11   4    7.20   21.60
   2 -11   4   -3.80   23.00
   2 -11   4   19.00   23.50
  -3  11  -4  -15.60   12.40
  -3  11  -4  -27.90   20.90
  -3  11  -4   18.60   25.60
   3 -11   4   17.70   23.70
   3 -11   4  -14.60   20.10
  -4  11  -4  100.39   23.70
  -4  11  -4   17.80   30.20
  -4  11  -4   26.60   29.00
   4 -11   4  129.39   33.80
  -6 -10   4   26.60   27.60
   5  10  -4   46.60   27.60
   5  10  -4   -0.70   12.60
  -5 -10   4   22.50   22.40
   4  10  -4   -1.00   13.50
   4  10  -4   20.90   23.80
  -4 -10   4   -6.30   21.60
   3  10  -4   19.70   14.80
   3  10  -4  -11.00   21.30
  -3 -10   4   10.50   21.00
   2  10  -4   93.49   30.10
   2  10  -4   83.99   18.90
   2  10  -4  123.09   30.30
  -2 -10   4   82.39   20.10
  -2 -10   4   58.59   25.20
   1  10  -4   -7.10   18.90
   1  10  -4   27.70   18.30
   1  10  -4   12.70   11.30
  -1 -10   4  -25.30   11.40
  -1 -10   4   -2.30   17.00
  -1 -10   4  -15.20   15.00
   0  10  -4  158.48   31.40
   0  10  -4  181.78   34.70
   0  10  -4  161.88   38.00
   0 -10   4  116.49   37.50
   0 -10   4  105.69   30.50
   0 -10   4  172.28   31.70
  -1  10  -4   52.99   24.60
  -1  10  -4   13.50   21.90
  -1  10  -4   17.50    6.50
   1 -10   4   25.90   22.50
   1 -10   4   17.30   20.90
   1 -10   4   -3.20   28.30
  -2  10  -4  132.09   30.40
  -2  10  -4  199.78   38.50
  -2  10  -4  207.48   21.80
   2 -10   4  195.98   37.10
   2 -10   4  179.88   35.50
  -3  10  -4   83.99   18.80
  -3  10  -4   -1.10   21.50
  -3  10  -4   45.50   28.40
   3 -10   4   48.80   27.10
  -4  10  -4   73.89   28.60
  -4  10  -4  122.49   24.90
  -4  10  -4  125.09   33.50
   4 -10   4   78.39   30.60
  -5  10  -4    7.70   27.90
  -5  10  -4   17.60   19.70
  -5  10  -4   -7.20   20.90
   5 -10   4  -16.60   23.40
   7   9  -4    8.00   23.70
   7   9  -4   36.30   29.80
  -7  -9   4   -9.80   20.70
   6   9  -4    4.10   11.90
   6   9  -4   10.70   25.20
   6   9  -4  -14.20   27.00
  -6  -9   4   12.50   19.00
   5   9  -4   14.70   21.20
   5   9  -4    2.70   11.30
  -5  -9   4   -8.90   17.50
   4   9  -4   13.30   22.80
   4   9  -4  104.59   20.40
  -4  -9   4   48.50   23.80
   3   9  -4   34.80   16.30
   3   9  -4   -8.30   15.40
  -3  -9   4  -15.10   14.20
   2   9  -4  112.99   30.00
   2   9  -4  124.29   23.50
  -2  -9   4  112.49   22.20
  -2  -9   4   67.89   24.20
   1   9  -4   17.50   10.90
   1   9  -4   17.10   22.70
   1   9  -4   22.40   17.70
  -1  -9   4   24.20   17.10
  -1  -9   4    5.70   13.70
  -1  -9   4   12.60   14.60
   0   9  -4   16.60   17.00
   0   9  -4   30.00   22.30
   0   9  -4   14.90   13.70
   0  -9   4   61.49   21.40
   0  -9   4   26.70   18.30
   0  -9   4   66.89   24.40
  -1   9  -4  111.59   15.60
  -1   9  -4   79.49   25.30
  -1   9  -4   91.69   28.00
   1  -9   4   94.79   26.70
   1  -9   4  142.19   29.30
  -2   9  -4  167.08   21.60
  -2   9  -4  205.98   35.40
  -2   9  -4  169.08   34.10
   2  -9   4  161.68   30.70
   2  -9   4  185.38   39.20
  -3   9  -4   19.20   13.30
  -3   9  -4   -0.90   18.90
  -3   9  -4   26.70   19.00
  -4   9  -4  260.77   40.70
  -4   9  -4  257.67   40.60
  -4   9  -4  274.57   36.00
   4  -9   4  208.98   39.10
  -5   9  -4    4.30   24.00
  -5   9  -4    4.80   13.70
  -5   9  -4   -2.80   18.10
   5  -9   4   12.40   23.00
  -6   9  -4   14.70   22.30
  -6   9  -4   66.59   24.90
   6  -9   4   -8.20   22.40
   7   8  -4   29.00   27.40
   7   8  -4  106.59   31.20
  -7  -8   4   83.49   30.80
  -7  -8   4   83.89   15.60
   6   8  -4  -26.80   14.80
   6   8  -4    2.70    9.70
   6   8  -4    6.00   20.80
  -6  -8   4   53.59   28.50
   5   8  -4    9.90   10.20
   5   8  -4   32.00   21.30
  -5  -8   4    6.20   18.30
   4   8  -4  133.09   20.90
   4   8  -4   99.89   29.80
  -4  -8   4   87.89   28.30
   3   8  -4   17.50   18.00
   3   8  -4    1.90   12.40
  -3  -8   4    9.60    9.40
   2   8  -4   55.09   22.10
   2   8  -4   47.70   17.60
  -2  -8   4   69.19   17.40
  -2  -8   4   20.10   19.00
  -2  -8   4   59.89   21.20
   1   8  -4 1611.04   72.89
   1   8  -4 1641.44   82.09
  -1  -8   4 1577.24   93.39
  -1  -8   4 1599.64   73.79
  -1  -8   4 1689.73   69.39
   0   8  -4 1655.23   82.79
   0   8  -4 1508.45   72.79
   0  -8   4 1606.84   72.69
  -1   8  -4   45.90   18.90
  -1   8  -4    1.40   17.10
  -1   8  -4   15.50    9.70
   1  -8   4    8.70   14.30
   1  -8   4   46.00   19.50
  -2   8  -4   13.20   20.40
  -2   8  -4    8.60   14.90
  -2   8  -4   -8.50    9.00
   2  -8   4   -9.80   13.40
   2  -8   4   21.60   18.10
  -3   8  -4   45.80   33.60
  -3   8  -4   19.50   13.40
  -3   8  -4   33.60   22.80
   3  -8   4   42.40   21.40
  -4   8  -4  107.99   29.90
  -4   8  -4   77.59   25.40
  -4   8  -4   87.49   21.30
  -5   8  -4   -6.40   14.00
  -5   8  -4   -2.00   15.40
  -5   8  -4   14.70   24.40
   5  -8   4   17.70   19.00
  -6   8  -4   27.00   19.90
  -6   8  -4   51.49   24.60
   6  -8   4   39.30   23.70
  -7   8  -4    2.00   23.00
  -7   8  -4   21.20   23.80
   7  -8   4  -31.60   21.80
   8   7  -4   70.79   36.10
   8   7  -4  116.79   29.30
   8   7  -4   59.69   35.00
  -8  -7   4   55.39   28.40
  -8  -7   4  100.69   23.10
   7   7  -4   25.60   18.90
   7   7  -4  -12.40   20.00
   7   7  -4   12.00   22.80
  -7  -7   4   23.00   12.60
  -7  -7   4   23.50   21.10
   6   7  -4  -18.30   16.40
  -6  -7   4  -10.70   16.90
  -6  -7   4    9.00    8.80
   5   7  -4   75.79   15.10
   5   7  -4   53.79   23.90
  -5  -7   4   97.59   28.80
  -5  -7   4   61.89   11.30
   4   7  -4   43.50   20.60
   4   7  -4   33.10   13.30
  -4  -7   4   10.60   19.10
   3   7  -4   67.39   17.30
   3   7  -4   63.39   21.60
  -3  -7   4   66.79   12.00
  -3  -7   4   86.99   25.00
   2   7  -4  798.52   54.19
   2   7  -4  855.31   47.00
  -2  -7   4  776.42   52.59
  -2  -7   4  768.12   38.50
  -2  -7   4  808.62   49.00
   1   7  -4  148.59   24.10
   1   7  -4  159.78   29.30
  -1  -7   4  107.09   22.40
  -1  -7   4  129.19   25.90
   0   7  -4   -0.10   10.10
   0   7  -4    8.40    4.10
   0   7  -4   30.70   18.70
   0  -7   4   14.60   14.10
   0  -7   4   23.90   15.40
  -1   7  -4  115.79   15.50
  -1   7  -4  137.69   27.10
  -1   7  -4   59.79   22.00
   1  -7   4  103.49   23.00
   1  -7   4  129.59   22.30
  -2   7  -4   -7.90   15.10
  -2   7  -4   12.20   14.70
  -2   7  -4   -1.90    8.80
   2  -7   4   -0.60   10.50
   2  -7   4    8.50   11.00
   2  -7   4   -7.30    9.50
  -3   7  -4   19.80   20.20
  -3   7  -4    6.90   14.10
  -3   7  -4   -5.40   10.60
   3  -7   4    6.50   12.20
   3  -7   4   -7.00   13.70
  -4   7  -4   19.20   17.70
  -4   7  -4   33.20   20.80
  -4   7  -4   39.00   17.90
   4  -7   4   26.70   17.70
   4  -7   4   10.80   15.70
  -5   7  -4   70.89   23.10
   5  -7   4   63.69   22.80
   5  -7   4   55.39    7.90
  -6   7  -4   -2.10   19.30
  -6   7  -4   -3.50   18.50
   6  -7   4   13.70   19.20
   6  -7   4   -0.90   22.20
  -7   7  -4   21.30   24.80
  -7   7  -4    3.90   19.10
   7  -7   4   11.90   24.00
   9   6  -4   21.80   22.20
   9   6  -4   -5.90   25.80
   9   6  -4   29.20   32.90
  -9  -6   4  -31.30   17.80
   8   6  -4   33.50   25.70
   8   6  -4  105.79   35.80
   8   6  -4   86.19   24.30
  -8  -6   4  148.49   26.90
   7   6  -4  203.68   39.40
   7   6  -4  207.48   39.40
  -7  -6   4  190.78   26.60
   6   6  -4   54.29   12.90
   6   6  -4   58.49   24.00
  -6  -6   4   52.69   14.70
   5   6  -4   16.10   17.90
   5   6  -4   -9.10    7.80
  -5  -6   4    6.00    7.60
   4   6  -4   63.89   21.80
   4   6  -4   25.20   12.10
  -4  -6   4   34.70    8.20
  -4  -6   4   24.90   15.50
   3   6  -4   71.99   15.60
   3   6  -4   57.49   20.30
  -3  -6   4   43.60   17.40
  -3  -6   4   61.39    6.00
  -3  -6   4   62.99    9.50
   2   6  -4   -2.90    9.80
   2   6  -4    3.50   12.00
  -2  -6   4    8.70    7.70
  -2  -6   4   -5.10   10.50
  -2  -6   4    9.60   13.40
   1   6  -4   57.39   15.90
   1   6  -4   42.20   18.10
  -1  -6   4   53.99   18.30
  -1  -6   4   75.99   18.40
  -1  -6   4   56.89    5.80
   0   6  -4   50.69   16.50
   0   6  -4   33.70    8.50
   0   6  -4   49.20   16.50
   0  -6   4   71.79   16.80
   0  -6   4   70.89   10.70
   0  -6   4   21.40   14.90
  -1   6  -4  132.89   23.80
  -1   6  -4  173.68   17.90
  -1   6  -4  212.48   31.20
  -1   6  -4  202.78   27.50
   1  -6   4  162.48   27.30
   1  -6   4  164.58   19.00
   1  -6   4  162.78   21.40
  -2   6  -4   18.70   11.50
  -2   6  -4   32.30   17.70
  -2   6  -4   17.10   14.20
   2  -6   4   33.50   16.20
   2  -6   4   28.20   12.70
   2  -6   4   20.10   11.90
  -3   6  -4   64.09   17.70
  -3   6  -4   55.69   17.70
  -3   6  -4   30.30   19.40
   3  -6   4   39.50   19.20
   3  -6   4   38.10   16.50
  -4   6  -4  292.37   40.80
  -4   6  -4  305.97   33.70
  -4   6  -4  374.36   34.40
   4  -6   4  291.27   33.60
   4  -6   4  287.27   16.70
   4  -6   4  359.16   37.80
  -5   6  -4   34.90   18.40
  -5   6  -4   68.79   22.80
   5  -6   4    3.80   12.20
   5  -6   4   96.89   25.80
  -6   6  -4   35.50   20.50
  -6   6  -4   53.09   21.60
   6  -6   4   -7.00   14.60
   6  -6   4   58.99   23.20
  -7   6  -4  114.99   28.20
  -7   6  -4   66.29   26.00
  -7   6  -4   84.89   30.50
   7  -6   4  127.29   30.60
   7  -6   4   65.69   29.00
  -8   6  -4  322.07   44.90
  -8   6  -4  370.26   48.40
  -8   6  -4  304.77   37.60
  -8   6  -4  312.27   51.19
   8  -6   4  376.56   57.49
   8  -6   4  503.95   56.29
   9   5  -4   44.90   32.80
   9   5  -4    4.80   19.40
   9   5  -4   11.30   25.90
  -9  -5   4  -28.00   16.80
   8   5  -4   11.60   23.00
   8   5  -4   49.10   28.30
   8   5  -4   21.30   19.00
  -8  -5   4   41.30   18.60
   7   5  -4   37.80   22.20
   7   5  -4   40.70   22.90
   7   5  -4   23.50   16.10
  -7  -5   4   25.50   15.00
   6   5  -4  108.29   26.60
   6   5  -4  107.39   26.60
   6   5  -4   82.49   13.20
  -6  -5   4   84.59   18.40
   5   5  -4   -7.10    7.40
   5   5  -4   -9.00   14.20
  -5  -5   4    7.50    8.60
   4   5  -4   15.40   15.10
   4   5  -4   -2.90    8.00
  -4  -5   4   20.00    9.80
   3   5  -4   87.29   22.20
   3   5  -4  111.09   18.00
  -3  -5   4   83.89    7.20
  -3  -5   4   79.19   10.50
   2   5  -4   20.20   11.80
   2   5  -4   21.60   14.10
  -2  -5   4   29.30    6.40
  -2  -5   4   29.10   13.50
  -2  -5   4   35.70   16.80
   1   5  -4  308.77   27.90
   1   5  -4  282.87   29.10
  -1  -5   4  266.87   28.30
  -1  -5   4  282.57   16.00
  -1  -5   4  299.27   23.80
   0   5  -4   68.79   11.60
   0   5  -4   76.49   20.00
   0   5  -4   76.29   18.10
   0  -5   4   73.89   11.80
   0  -5   4   95.59   17.60
   0  -5   4   62.89   17.10
  -1   5  -4  105.39   20.20
  -1   5  -4   86.29   20.90
  -1   5  -4   94.69   20.80
  -1   5  -4   84.69   14.70
   1  -5   4  106.29   19.30
   1  -5   4   99.29   15.90
   1  -5   4   92.99   21.70
  -2   5  -4    9.70   12.40
  -2   5  -4   -9.90   12.40
  -2   5  -4   -5.50   10.80
  -2   5  -4    3.70    9.70
   2  -5   4   10.90   11.00
   2  -5   4   10.00    8.50
   2  -5   4   16.90   12.00
  -3   5  -4  253.17   27.20
  -3   5  -4  256.17   32.40
  -3   5  -4  299.87   28.60
  -3   5  -4  217.68   33.30
   3  -5   4  228.08   15.00
   3  -5   4  275.77   31.70
   3  -5   4  263.17   29.80
  -4   5  -4    1.70   12.70
  -4   5  -4   10.00   12.30
  -4   5  -4    4.50   14.40
   4  -5   4    9.60   14.70
   4  -5   4   14.90   15.90
   4  -5   4    8.50    8.10
  -5   5  -4    4.70   16.10
  -5   5  -4   17.00   16.30
  -5   5  -4    3.80   16.00
   5  -5   4   -2.10   17.00
  -6   5  -4  288.17   37.60
  -6   5  -4  312.17   39.20
  -6   5  -4  317.87   42.70
   6  -5   4  350.06   47.10
   6  -5   4  382.36   34.70
  -7   5  -4  104.29   28.50
  -7   5  -4   98.79   31.60
  -7   5  -4   91.29   24.80
   7  -5   4  109.39   32.60
   7  -5   4  126.79   25.60
   7  -5   4  132.99   32.20
  -8   5  -4   39.00   23.00
  -8   5  -4   92.39   27.10
  -8   5  -4   73.29   28.00
  -8   5  -4   51.39   21.00
   8  -5   4  194.28   41.70
   8  -5   4   49.40   28.60
   8  -5   4   84.59   24.40
   9   4  -4   30.50   19.20
   9   4  -4   26.70   24.30
   8   4  -4   53.19   25.10
   8   4  -4   79.29   22.10
  -8  -4   4   60.69   27.40
  -8  -4   4   64.49   10.80
   7   4  -4  -14.80   11.40
   7   4  -4   14.60   18.40
  -7  -4   4    6.70   12.70
   6   4  -4    3.10    8.50
   6   4  -4   76.59   29.30
   6   4  -4   27.20   18.50
  -6  -4   4   26.80   10.50
  -6  -4   4   43.00   14.40
   5   4  -4  189.38   19.60
   5   4  -4  204.88   31.00
   5   4  -4  206.48   31.60
  -5  -4   4  227.08   21.20
  -5  -4   4  236.38   23.40
   4   4  -4   -3.50    7.60
   4   4  -4   -5.70   10.50
  -4  -4   4    8.30    8.30
  -4  -4   4   11.20    9.20
   3   4  -4  247.88   26.50
   3   4  -4  237.78   22.20
  -3  -4   4  218.98   22.70
   2   4  -4 1264.07   55.69
   2   4  -4 1268.77   51.49
  -2  -4   4 1202.08   50.79
  -2  -4   4 1267.77   56.09
   1   4  -4  293.77   27.50
   1   4  -4  218.48   24.90
  -1  -4   4  287.97   18.60
  -1  -4   4  251.77   26.00
   0   4  -4  221.08   15.10
   0   4  -4  252.17   36.80
   0   4  -4  217.78   27.20
   0   4  -4  208.78   25.60
   0  -4   4  258.07   20.10
   0  -4   4  224.88   17.80
   0  -4   4  252.37   25.70
  -1   4  -4   94.79   16.40
  -1   4  -4   82.19   17.60
  -1   4  -4  103.39   20.20
   1  -4   4   95.99   20.30
   1  -4   4   85.09   12.30
   1  -4   4  100.89   16.60
  -2   4  -4  913.81   46.20
  -2   4  -4 1089.39   47.50
  -2   4  -4 1036.10   51.39
  -2   4  -4 1041.70   53.99
   2  -4   4 1108.79   49.90
   2  -4   4  958.50   52.89
   2  -4   4  982.60   34.30
  -3   4  -4  155.38   24.90
  -3   4  -4  142.79   21.10
  -3   4  -4  151.38   27.40
  -3   4  -4  155.98   25.40
   3  -4   4  185.38   27.30
   3  -4   4  149.79   26.30
   3  -4   4  144.59   23.60
  -4   4  -4   50.09   18.40
  -4   4  -4   26.60   14.20
  -4   4  -4   65.19   19.70
   4  -4   4   72.99   23.10
   4  -4   4   42.50   20.10
  -5   4  -4  196.18   30.00
  -5   4  -4  194.38   27.40
   5  -4   4  124.39   21.80
   5  -4   4  153.08   31.50
   5  -4   4  191.78   33.40
  -6   4  -4   80.39   20.90
  -6   4  -4   77.39   20.50
  -6   4  -4   89.59   27.20
  -6   4  -4  118.59   24.60
   6  -4   4   52.09   24.10
   6  -4   4  100.79   22.00
  -7   4  -4   24.60   17.30
  -7   4  -4   17.80   17.20
  -7   4  -4   -1.40   14.90
  -7   4  -4   -8.40   17.40
   7  -4   4  -10.10   19.50
   7  -4   4   32.70   16.20
  -8   4  -4    9.30   19.90
  -8   4  -4   17.70   18.50
  -8   4  -4  -10.90   14.70
   8  -4   4  -19.50   15.20
   8  -4   4  -16.40   21.40
   8  -4   4  -44.50   20.70
  10   3  -4   44.50   31.00
  10   3  -4   21.00   20.90
  10   3  -4   64.69   10.60
 -10  -3   4   66.79   29.50
 -10  -3   4   79.09   13.80
   9   3  -4   55.49   30.80
   9   3  -4   74.89   28.50
   9   3  -4   59.19   10.10
  -9  -3   4   59.79   13.40
   8   3  -4    9.80    5.40
   8   3  -4  -17.50   17.50
   8   3  -4  -13.70   11.10
  -8  -3   4  -11.80    8.40
  -8  -3   4   20.70   16.10
   7   3  -4   46.10   22.50
   7   3  -4  114.89   21.30
  -7  -3   4  112.59   17.30
  -7  -3   4  105.89   23.60
   6   3  -4  970.20   59.99
   6   3  -4  962.60   42.10
  -6  -3   4  948.11   43.30
  -6  -3   4 1039.60   53.09
   5   3  -4  105.19   15.80
   5   3  -4   81.89   20.90
   5   3  -4  131.59   24.00
  -5  -3   4  103.39   16.40
  -5  -3   4  105.39   18.30
   4   3  -4   30.40   11.10
   4   3  -4   35.60   15.40
   4   3  -4   41.30   17.70
  -4  -3   4   37.60   12.20
   3   3  -4    0.90   11.30
   3   3  -4   18.30    9.90
  -3  -3   4   14.80    3.90
  -3  -3   4    7.10   10.30
   2   3  -4  -11.60    8.90
   2   3  -4   -6.60    9.90
  -2  -3   4    5.20   10.70
  -2  -3   4    5.40   11.20
   1   3  -4 1335.37   52.79
   1   3  -4 1297.17   51.69
  -1  -3   4 1323.07   53.19
  -1  -3   4 1351.16   47.10
  -1  -3   4 1333.97   52.49
   0   3  -4  512.55   32.60
   0   3  -4  608.54   36.10
   0   3  -4  536.55   29.90
   0   3  -4  507.45   25.00
   0  -3   4  554.34   33.20
   0  -3   4  515.85   30.80
   0  -3   4  531.85   22.90
   0  -3   4  556.34   33.60
  -1   3  -4   17.90   13.50
  -1   3  -4   34.20   12.50
  -1   3  -4   12.00   13.60
   1  -3   4   20.10   12.30
   1  -3   4   19.80    5.70
   1  -3   4   18.00   13.20
  -2   3  -4  504.15   36.30
  -2   3  -4  478.15   34.00
  -2   3  -4  509.25   34.50
   2  -3   4  482.05   27.30
   2  -3   4  544.95   36.10
   2  -3   4  527.05   37.40
  -3   3  -4    0.00   11.00
  -3   3  -4   -6.00   10.80
  -3   3  -4    4.70    8.40
   3  -3   4    7.30   13.00
   3  -3   4    3.60    7.40
   3  -3   4    6.00   12.80
  -4   3  -4   54.79   18.80
  -4   3  -4   37.50   16.10
  -4   3  -4   80.89   16.60
   4  -3   4   68.29   21.20
   4  -3   4   71.19   19.90
  -5   3  -4   33.90   15.70
  -5   3  -4   34.80   31.20
  -5   3  -4   -0.50   12.00
   5  -3   4   24.60   12.30
   5  -3   4   -4.30   16.40
  -6   3  -4  123.69   28.10
  -6   3  -4  154.98   26.00
  -6   3  -4  159.28   27.40
  -6   3  -4  162.98   25.40
   6  -3   4  131.19   22.60
   6  -3   4  120.69   31.60
  -7   3  -4   15.60   17.00
  -7   3  -4   21.50   16.20
  -7   3  -4   29.60   17.30
  -7   3  -4   28.30   22.30
   7  -3   4    7.80   12.40
   7  -3   4  -13.70   17.80
  -8   3  -4   -3.70   16.80
  -8   3  -4    4.50   15.20
  -8   3  -4  -19.80   24.50
  -8   3  -4    9.90   16.00
   8  -3   4    5.50   20.60
   8  -3   4   25.80   22.80
   8  -3   4    0.60   14.10
  10   2  -4   13.80   16.00
  10   2  -4   18.20   11.80
  10   2  -4   16.40   26.90
 -10  -2   4    7.80   12.60
 -10  -2   4   32.90   24.10
   9   2  -4  -15.00   20.80
   9   2  -4   -8.80   12.30
   9   2  -4   11.30    9.70
  -9  -2   4    4.60   12.30
   8   2  -4   99.99   18.30
   8   2  -4  100.99   27.10
  -8  -2   4  121.19   28.10
  -8  -2   4   70.69   17.20
   7   2  -4  142.99   21.00
   7   2  -4  173.18   16.60
   7   2  -4  180.18   33.30
  -7  -2   4  174.38   29.40
  -7  -2   4  175.18   23.30
   6   2  -4  135.29   19.10
   6   2  -4  114.89   12.40
   6   2  -4  116.19   25.90
  -6  -2   4  113.79   19.00
  -6  -2   4  116.69   23.40
   5   2  -4   46.40   18.90
   5   2  -4   53.69   13.10
  -5  -2   4   35.90   12.10
  -5  -2   4   51.99   15.80
   4   2  -4   13.50   13.10
   4   2  -4   38.40   13.50
   4   2  -4   10.80    9.60
  -4  -2   4   10.10   10.50
   3   2  -4  271.97   23.20
   3   2  -4  270.97   26.60
   3   2  -4  230.28   22.20
  -3  -2   4  278.67   24.80
  -3  -2   4  245.08   15.00
   2   2  -4 2126.99   65.79
   2   2  -4 2132.49   69.59
  -2  -2   4 2145.39   70.29
  -2  -2   4 2038.20   65.79
   1   2  -4   42.50   12.00
   1   2  -4   45.20   13.60
  -1  -2   4   43.10   12.90
  -1  -2   4   46.10   14.60
   0   2  -4  -16.40    7.50
   0   2  -4  -14.20    8.90
   0   2  -4   -6.40    7.60
   0  -2   4   -5.20   11.50
   0  -2   4    9.30   10.50
   0  -2   4    7.90    9.60
  -1   2  -4   84.69   16.50
  -1   2  -4   77.39   13.40
  -1   2  -4   94.79   18.10
  -1   2  -4   67.59   16.40
   1  -2   4   99.89   18.20
   1  -2   4   90.29   16.80
   1  -2   4   76.29   16.30
  -2   2  -4   24.70   12.70
  -2   2  -4    6.00   10.80
  -2   2  -4   13.60    7.20
   2  -2   4   15.30    9.90
   2  -2   4   10.80   11.60
   2  -2   4   27.80   14.30
  -3   2  -4   22.80    9.20
  -3   2  -4   23.70   13.30
  -3   2  -4   14.60   12.50
   3  -2   4   17.80   10.70
   3  -2   4   23.10   15.50
   3  -2   4   11.30   13.40
  -4   2  -4   -9.50    9.10
  -4   2  -4   -3.10    8.70
  -4   2  -4    6.80   14.80
   4  -2   4    9.50   15.40
   4  -2   4    1.20    6.30
   4  -2   4   -3.60   12.70
  -5   2  -4  168.48   26.30
  -5   2  -4  224.38   22.60
  -5   2  -4  208.48   27.40
   5  -2   4  190.18   35.00
   5  -2   4  222.28   21.40
   5  -2   4  188.18   33.00
  -6   2  -4   75.29   18.70
  -6   2  -4  100.29   23.10
  -6   2  -4  110.89   20.00
   6  -2   4  134.39   21.60
   6  -2   4  122.09   27.30
   6  -2   4  113.69   30.50
  -7   2  -4   52.19   19.40
  -7   2  -4   40.80   17.50
  -7   2  -4   79.19   19.30
   7  -2   4   43.80   26.30
   7  -2   4   40.20   16.60
   7  -2   4   78.39   30.90
  -8   2  -4   15.80   16.60
  -8   2  -4   17.00   16.80
   8  -2   4   16.20   14.20
   8  -2   4   53.99   43.10
   8  -2   4   -0.80   23.80
  10   1  -4   -7.40   13.00
 -10  -1   4   29.80   25.20
 -10  -1   4  -26.40   13.60
   9   1  -4   32.10   14.80
   9   1  -4  -11.40   17.10
   9   1  -4  -10.80   10.20
  -9  -1   4   10.50   13.60
  -9  -1   4   11.30   17.30
   8   1  -4   17.50   10.70
   8   1  -4   12.00   11.50
   8   1  -4   24.50   20.90
  -8  -1   4   17.30   15.20
  -8  -1   4   23.60   15.10
   7   1  -4  195.38   21.30
   7   1  -4  189.68   19.60
   7   1  -4  169.78   33.10
  -7  -1   4  244.28   27.60
  -7  -1   4  241.08   34.30
   6   1  -4  152.58   16.30
   6   1  -4  105.99   24.30
  -6  -1   4  147.79   22.50
  -6  -1   4  156.18   26.70
   5   1  -4   64.59   14.30
   5   1  -4   76.89   20.00
   5   1  -4   63.09   12.10
  -5  -1   4   53.99   15.00
   4   1  -4   68.79   15.50
   4   1  -4   86.09   19.60
  -4  -1   4  112.29   18.70
   3   1  -4  234.98   25.10
   3   1  -4  266.17   20.10
   3   1  -4  221.38   22.50
  -3  -1   4  226.68   23.70
  -3  -1   4  198.08   17.30
   2   1  -4  380.86   27.80
   2   1  -4  410.96   27.60
   2   1  -4  370.86   21.00
  -2  -1   4  451.85   29.70
   1   1  -4  242.68   23.10
   1   1  -4  246.78   17.20
   1   1  -4  239.98   19.60
  -1  -1   4  256.77   22.40
  -1  -1   4  221.88   16.50
   0   1  -4   59.89   14.30
   0   1  -4   54.99   25.30
   0   1  -4   60.19   12.10
   0  -1   4   41.40   14.10
   0  -1   4   50.79   11.80
   0  -1   4   29.00   14.70
  -1   1  -4   45.10   13.70
  -1   1  -4   47.50   15.80
  -1   1  -4   55.49   14.30
   1  -1   4   25.40   13.30
   1  -1   4   64.49   14.70
   1  -1   4   14.70   11.20
   1  -1   4   48.60   15.90
   1  -1   4   41.10    4.90
  -2   1  -4 1250.87   34.60
  -2   1  -4 1278.17   57.19
  -2   1  -4 1277.57   51.69
   2  -1   4 1257.07   50.89
   2  -1   4 1321.67   53.89
   2  -1   4 1252.47   54.69
   2  -1   4 1211.68   56.59
  -3   1  -4  231.38   29.70
  -3   1  -4  225.68   23.70
  -3   1  -4  233.58   23.40
  -3   1  -4  192.88   13.60
  -3   1  -4  197.68   10.00
   3  -1   4  265.67   31.30
   3  -1   4  198.78   23.70
   3  -1   4  218.88   29.90
  -4   1  -4   24.00    8.50
  -4   1  -4   24.60   12.60
  -4   1  -4   11.70   11.60
  -4   1  -4   24.80   15.50
  -4   1  -4   35.50    8.30
   4  -1   4   35.10    8.60
   4  -1   4   17.30   13.80
   4  -1   4   17.40   17.00
  -5   1  -4  131.79   14.40
  -5   1  -4  153.88   22.30
  -5   1  -4  134.89   23.60
  -5   1  -4  170.98   25.00
   5  -1   4  104.89   15.30
   5  -1   4  156.78   32.30
   5  -1   4  134.29   28.60
  -6   1  -4  -10.80   10.20
  -6   1  -4   -5.10   12.90
  -6   1  -4   14.30    9.90
   6  -1   4   -2.20   18.30
   6  -1   4   21.50   20.80
   6  -1   4    8.10    9.80
  -7   1  -4   -6.90   11.00
  -7   1  -4   -5.30   18.40
  -7   1  -4   33.80   17.30
  -7   1  -4    7.20   11.40
   7  -1   4   12.40   20.20
   7  -1   4   -1.00   10.60
   7  -1   4   10.70   22.90
  -8   1  -4   27.10   25.60
  -8   1  -4   33.80   20.10
  -8   1  -4   21.20   13.40
  -8   1  -4   41.10   16.70
   8  -1   4   28.50   28.80
   8  -1   4   13.20   13.10
   8  -1   4   48.00   33.70
  10   0  -4    6.20   33.20
  10   0  -4   14.90   16.70
 -10   0   4   18.60   16.90
   9   0  -4  -29.90   12.40
   9   0  -4  -10.00   20.60
  -9   0   4    9.30   21.60
  -9   0   4   -8.60   13.20
   8   0  -4   72.59   18.40
   8   0  -4   56.19   23.50
  -8   0   4   56.69   18.40
  -8   0   4   86.59   25.90
   7   0  -4  393.36   31.50
   7   0  -4  402.36   42.10
  -7   0   4  391.96   41.80
  -7   0   4  333.17   32.80
   6   0  -4   67.19   10.00
   6   0  -4   84.39   21.60
   6   0  -4   84.19   17.70
  -6   0   4   52.29   17.30
  -6   0   4   81.39   23.00
  -6   0   4   65.79   17.50
   5   0  -4  116.99   22.80
   5   0  -4  128.69   19.30
  -5   0   4   95.79   23.50
  -5   0   4  110.69   19.50
   4   0  -4   70.39   14.50
   4   0  -4   75.89   18.50
   4   0  -4   77.19   16.00
  -4   0   4   90.99   18.00
  -4   0   4   64.49   17.90
   3   0  -4 1067.69   36.40
   3   0  -4 1115.59   48.80
   3   0  -4 1129.09   50.09
  -3   0   4 1030.20   49.00
  -3   0   4 1064.49   44.70
  -3   0   4 1111.29   49.70
   2   0  -4 1044.90   31.20
   2   0  -4 1080.39   44.10
   2   0  -4 1082.29   47.10
  -2   0   4 1086.09   47.70
  -2   0   4 1096.09   46.60
  -2   0   4 1113.49   46.20
   1   0  -4  151.48   11.60
   1   0  -4  146.39   19.80
   1   0  -4  167.88   19.00
   1   0  -4  138.79   15.00
  -1   0   4  182.88   22.40
  -1   0   4  149.29   11.20
   0   0  -4    6.40   11.80
   0   0  -4   12.30    5.70
   0   0  -4    7.40   10.80
   0   0   4    3.20    7.10
   0   0   4   42.10   15.90
   0   0   4    1.10   10.00
   0   0   4    5.90   11.20
  -1   0  -4 1341.67   55.19
  -1   0  -4 1335.77   57.19
  -1   0  -4 1327.27   51.59
   1   0   4 1299.17   55.09
   1   0   4 1380.46   57.69
   1   0   4 1336.77   50.09
   1   0   4 1348.37   52.49
  -2   0  -4 2166.28   71.89
  -2   0  -4 2232.58   76.39
  -2   0  -4 2277.57   82.19
  -2   0  -4 2149.78   57.29
   2   0   4 2275.87   77.89
   2   0   4 2181.48   79.09
   2   0   4 2368.66   84.09
   2   0   4 2200.68   71.99
  -3   0  -4   59.09   17.10
  -3   0  -4   43.20    8.90
  -3   0  -4   24.60   14.90
  -3   0  -4   31.40   11.50
   3   0   4   48.20   13.90
   3   0   4   26.70   13.70
   3   0   4   44.50   16.30
  -4   0  -4    4.90   13.10
  -4   0  -4    8.80    9.80
  -4   0  -4    2.60   12.50
  -4   0  -4   -3.20    7.90
   4   0   4    6.70   15.40
   4   0   4   23.00    6.40
   4   0   4   10.60   11.60
  -5   0  -4   18.90   11.80
  -5   0  -4    2.30   12.00
  -5   0  -4   12.00   16.90
  -5   0  -4   24.50   11.10
   5   0   4   22.70   12.10
   5   0   4    9.50   18.80
  -6   0  -4   50.39   14.40
  -6   0  -4   99.59   29.20
  -6   0  -4   35.50   13.00
  -6   0  -4   37.70   18.80
   6   0   4   37.70   11.30
   6   0   4   33.50   22.60
  -7   0  -4  -10.70    9.50
  -7   0  -4   -4.40   11.10
  -7   0  -4   33.50   18.30
  -7   0  -4    8.90   19.90
   7   0   4   16.50   11.20
   7   0   4   31.60   22.40
   7   0   4    0.30   18.80
  -8   0  -4   32.30   13.00
  -8   0  -4   44.70   30.10
  -8   0  -4   25.10   15.40
  -8   0  -4   29.30   22.00
   8   0   4   14.70   13.60
   8   0   4   23.30   26.30
   8   0   4   19.60   27.60
  10  -1  -4   51.89   24.70
  10  -1  -4    4.10   19.10
 -10   1   4  -32.00   18.70
 -10   1   4  -47.90   21.30
   9  -1  -4    5.40   19.10
   9  -1  -4   27.40   15.80
  -9   1   4    5.80   19.20
  -9   1   4   28.40   16.80
  -9   1   4   22.10   21.70
   8  -1  -4    9.20   13.40
   8  -1  -4   25.40   20.90
  -8   1   4   13.70   19.10
  -8   1   4    8.80   15.30
   7  -1  -4   21.20   14.30
   7  -1  -4   11.00   16.50
  -7   1   4   23.80   17.20
  -7   1   4   -0.10   15.50
  -7   1   4    6.50   12.60
   6  -1  -4   -5.60    9.70
   6  -1  -4   33.90   15.80
  -6   1   4    4.40   12.60
  -6   1   4   11.50   16.70
   5  -1  -4   11.30    3.10
   5  -1  -4    6.50   12.40
   5  -1  -4   20.20   12.70
  -5   1   4  -10.50   11.20
  -5   1   4   -1.30   13.80
   4  -1  -4  524.75   37.40
   4  -1  -4  496.65   33.00
  -4   1   4  472.55   36.60
  -4   1   4  524.55   36.50
   3  -1  -4 1366.56   56.09
   3  -1  -4 1293.77   54.89
   3  -1  -4 1289.97   54.49
  -3   1   4 1243.28   53.79
  -3   1   4 1355.76   56.69
  -3   1   4 1219.18   54.49
   2  -1  -4   62.79   13.90
   2  -1  -4   49.99   15.90
  -2   1   4   25.90   12.10
  -2   1   4   61.79   15.50
  -2   1   4   44.50   14.10
   1  -1  -4   11.90   11.00
   1  -1  -4   29.10   12.90
   1  -1  -4   30.30    9.70
   1  -1  -4   10.00   12.80
  -1   1   4   21.30    9.20
  -1   1   4   25.00   14.20
  -1   1   4   21.60   13.20
  -1   1   4   26.70    4.50
   0  -1  -4 1255.37   55.59
   0  -1  -4 1287.27   48.80
   0  -1  -4 1251.97   37.50
   0  -1  -4 1328.37   51.69
   0   1   4 1286.37   56.39
   0   1   4 1237.58   37.80
   0   1   4 1222.38   41.00
   0   1   4 1335.87   56.79
   0   1   4 1342.47   53.09
  -1  -1  -4  408.26   28.20
  -1  -1  -4  470.25   24.20
  -1  -1  -4  445.46   30.40
   1   1   4  445.86   29.60
   1   1   4  458.35   34.60
   1   1   4  431.26   33.80
  -2  -1  -4  130.29   21.00
  -2  -1  -4  149.88   15.00
  -2  -1  -4  204.98   27.80
  -2  -1  -4  123.79   17.80
   2   1   4  151.28   19.40
   2   1   4  177.68   25.30
   2   1   4  139.29   24.20
  -3  -1  -4   -6.90    6.90
  -3  -1  -4   -4.60    9.00
  -3  -1  -4  -12.40   11.30
  -3  -1  -4    1.10    8.20
   3   1   4   -4.50    8.60
   3   1   4   12.10   10.30
   3   1   4    8.00   14.60
  -4  -1  -4   66.89   14.20
  -4  -1  -4   84.79   22.20
  -4  -1  -4   80.69   15.20
  -4  -1  -4   74.49   19.20
   4   1   4   72.89    7.90
   4   1   4   63.09   21.10
   4   1   4   71.89   19.80
  -5  -1  -4  118.19   17.00
  -5  -1  -4  150.98   26.70
  -5  -1  -4  118.39   19.50
  -5  -1  -4  107.39   25.30
   5   1   4  120.49   13.00
   5   1   4  137.29   30.90
  -6  -1  -4   20.20   13.60
  -6  -1  -4   11.50    9.70
  -6  -1  -4    4.00   14.10
   6   1   4   43.80   23.70
   6   1   4   12.20    8.70
  -7  -1  -4   15.10   17.60
  -7  -1  -4   15.50   11.80
  -7  -1  -4    3.70    8.20
  -7  -1  -4    9.90   19.50
   7   1   4   28.40   25.30
   7   1   4   12.10   10.20
  -8  -1  -4   49.70   24.60
  -8  -1  -4   23.50   15.00
  -8  -1  -4   18.30   10.20
  -8  -1  -4  -18.50   24.30
   8   1   4   18.30   12.80
   8   1   4   -3.50   25.00
  10  -2  -4  -10.90   20.90
  10  -2  -4  -18.80   20.50
  10  -2  -4  -18.40   17.10
 -10   2   4   20.60   26.10
 -10   2   4   22.30   25.20
 -10   2   4   -4.90   16.90
   9  -2  -4  102.59   26.60
   9  -2  -4   48.30   26.40
   9  -2  -4  125.79   29.70
  -9   2   4   94.19   31.20
  -9   2   4  123.19   28.20
  -9   2   4   74.39   29.60
   8  -2  -4  197.38   32.80
   8  -2  -4  183.78   38.00
   8  -2  -4  216.28   34.40
  -8   2   4  157.38   29.90
  -8   2   4  209.08   39.60
   7  -2  -4  261.67   30.90
   7  -2  -4  229.48   33.70
  -7   2   4  344.67   46.60
  -7   2   4  322.97   38.10
   6  -2  -4   -8.80   10.90
   6  -2  -4    2.60   11.70
   6  -2  -4    0.10   10.00
  -6   2   4    3.60   13.20
  -6   2   4   -2.60   16.10
   5  -2  -4   87.09   21.20
   5  -2  -4  101.99   15.80
   5  -2  -4   60.19   18.90
  -5   2   4   56.49   20.20
  -5   2   4   74.79   18.80
   4  -2  -4    1.20    5.80
   4  -2  -4   -7.60   10.80
   4  -2  -4    1.00    9.90
  -4   2   4   -1.60   12.10
  -4   2   4  -19.50    9.50
   3  -2  -4   15.60   13.80
   3  -2  -4   34.90    4.40
   3  -2  -4   56.89   16.20
   3  -2  -4   29.40    6.50
  -3   2   4   37.10   15.10
  -3   2   4   40.60   15.60
  -3   2   4   45.40   15.00
   2  -2  -4  423.76   22.60
   2  -2  -4  429.06   32.10
   2  -2  -4  424.66   28.50
   2  -2  -4  402.16   31.50
  -2   2   4  442.26   30.10
  -2   2   4  386.36   32.00
  -2   2   4  372.56   32.40
   1  -2  -4  389.36   24.50
   1  -2  -4  360.06   31.50
   1  -2  -4  370.36   23.60
   1  -2  -4  415.06   29.80
  -1   2   4  382.26   31.10
  -1   2   4  364.46   24.30
  -1   2   4  355.06   29.60
  -1   2   4  338.47   13.10
   0  -2  -4 1950.70   65.69
   0  -2  -4 1827.52   66.29
   0  -2  -4 1988.80   75.79
   0  -2  -4 1864.81   54.19
   0   2   4 1816.92   66.49
   0   2   4 1866.71   55.09
   0   2   4 1885.41   73.09
   0   2   4 1891.71   74.69
  -1  -2  -4  168.28   23.20
  -1  -2  -4  169.68   20.70
  -1  -2  -4  192.08   20.70
   1   2   4  163.38   26.10
   1   2   4  152.98   10.80
   1   2   4  170.78   21.50
   1   2   4  180.48   25.60
  -2  -2  -4   -1.20   10.80
  -2  -2  -4   -7.90    7.50
  -2  -2  -4    6.50   11.90
  -2  -2  -4    6.30    9.70
   2   2   4    5.00    2.40
   2   2   4    3.90    2.40
   2   2   4    1.40   12.10
   2   2   4    7.00   12.40
   2   2   4   -2.40    8.70
  -3  -2  -4   44.70   16.70
  -3  -2  -4   79.69   15.90
  -3  -2  -4   67.59   14.10
  -3  -2  -4   23.20   15.20
   3   2   4   47.30   17.90
   3   2   4   52.69    4.60
   3   2   4   68.99   21.70
   3   2   4   50.79   13.20
   3   2   4   48.40    4.40
  -4  -2  -4  350.16   36.60
  -4  -2  -4  295.37   25.10
  -4  -2  -4  281.47   22.20
  -4  -2  -4  295.77   35.70
   4   2   4  291.07   34.40
   4   2   4  271.97   14.10
   4   2   4  347.67   37.60
  -5  -2  -4   19.10   16.10
  -5  -2  -4    4.20   16.70
  -5  -2  -4   11.80    8.10
  -5  -2  -4   -4.20   11.80
   5   2   4   -5.90   16.20
   5   2   4   -1.00    6.10
  -6  -2  -4  156.08   24.30
  -6  -2  -4  119.69   29.40
   6   2   4  195.48   36.30
   6   2   4  155.28   22.70
  -7  -2  -4   10.60   14.00
  -7  -2  -4    7.60   21.10
  -7  -2  -4   12.60   19.60
   7   2   4    0.10   20.80
   7   2   4   22.80   10.80
  -8  -2  -4    5.30   23.30
  -8  -2  -4    3.70   24.90
  -8  -2  -4   -9.00   14.90
   8   2   4  -10.60   24.90
   8   2   4   -0.30   11.00
  10  -3  -4   -7.00   19.80
  10  -3  -4    0.30   26.10
  10  -3  -4   24.60   23.50
 -10   3   4   24.60   29.50
 -10   3   4   -8.50   18.50
 -10   3   4  -25.70   24.40
   9  -3  -4   14.80   17.80
   9  -3  -4   41.30   25.30
   9  -3  -4    7.20   17.70
  -9   3   4   -6.10   18.60
  -9   3   4  -50.99   16.00
  -9   3   4   20.30   22.30
   8  -3  -4  223.88   36.90
   8  -3  -4  193.18   31.90
  -8   3   4  189.78   40.50
  -8   3   4  248.38   37.30
   7  -3  -4   -2.30   11.50
   7  -3  -4    6.10   13.40
  -7   3   4   11.60   16.70
  -7   3   4  -18.60   14.40
   6  -3  -4    7.30   15.10
   6  -3  -4    0.00   10.40
   6  -3  -4   -6.00   14.80
  -6   3   4  -10.50   12.20
  -6   3   4   -6.50   14.80
   5  -3  -4   39.50   11.10
   5  -3  -4   20.40   14.50
   5  -3  -4   62.49   17.90
  -5   3   4   17.30   15.80
  -5   3   4   49.99   18.10
   4  -3  -4   66.09   19.90
   4  -3  -4   49.60   16.80
   4  -3  -4   70.09   10.40
  -4   3   4   30.80   16.50
  -4   3   4   67.69   19.90
   3  -3  -4  357.36   33.40
   3  -3  -4  337.77   32.20
   3  -3  -4  352.06   30.10
   3  -3  -4  330.27   12.90
  -3   3   4  335.77   32.50
  -3   3   4  322.17   30.30
  -3   3   4  384.56   34.90
   2  -3  -4    5.50    9.90
   2  -3  -4    6.70   12.70
  -2   3   4   14.90   13.90
  -2   3   4   17.20   11.20
  -2   3   4    2.60   13.00
   1  -3  -4  517.55   38.60
   1  -3  -4  478.05   28.20
   1  -3  -4  467.35   29.00
  -1   3   4  486.15   19.90
  -1   3   4  447.86   33.50
  -1   3   4  508.35   30.80
  -1   3   4  488.85   36.90
   0  -3  -4  371.56   29.30
   0  -3  -4  352.96   27.30
   0  -3  -4  334.17   27.30
   0  -3  -4  332.57   32.80
   0   3   4  386.96   33.60
   0   3   4  394.26   34.90
   0   3   4  364.46   32.90
   0   3   4  370.86   23.30
   0   3   4  373.96   29.30
  -1  -3  -4   21.30   12.10
  -1  -3  -4   29.70   13.30
  -1  -3  -4   19.70   10.30
   1   3   4   24.50   14.70
   1   3   4   15.90    7.40
   1   3   4   15.30   10.60
   1   3   4   29.50   15.70
  -2  -3  -4    1.60   11.70
  -2  -3  -4   12.80    9.60
  -2  -3  -4   -2.40   10.60
   2   3   4   40.00   15.30
   2   3   4   11.40    9.80
   2   3   4   -5.80   12.10
   2   3   4   11.00    5.60
  -3  -3  -4   15.00   14.80
  -3  -3  -4  -11.60   12.00
  -3  -3  -4   16.90    9.90
  -3  -3  -4  -10.20   10.00
   3   3   4   28.20   16.60
   3   3   4    7.60    5.50
   3   3   4    8.50    5.40
   3   3   4   13.70   14.40
   3   3   4   16.90   10.30
  -4  -3  -4  121.89   16.10
  -4  -3  -4  137.19   27.60
  -4  -3  -4  108.49   22.10
   4   3   4  157.38   29.70
   4   3   4  143.99   12.90
   4   3   4  128.69   26.10
   4   3   4  115.89   16.10
  -5  -3  -4  119.89   27.70
  -5  -3  -4  103.19   27.10
  -5  -3  -4  138.69   25.40
   5   3   4  105.69   15.10
   5   3   4  122.79   30.60
  -6  -3  -4   54.29   22.00
  -6  -3  -4   -5.10   21.20
  -6  -3  -4   25.20   16.00
   6   3   4   18.50   18.30
   6   3   4  -31.70   18.90
   6   3   4    0.20    8.50
  -7  -3  -4  -17.40   21.10
  -7  -3  -4   27.60   16.10
   7   3   4   -3.30   24.50
   7   3   4   -7.20   25.50
   7   3   4   13.30   10.00
   9  -4  -4   56.89   24.50
   9  -4  -4   29.10   18.90
   9  -4  -4   33.10   20.10
  -9   4   4   44.70   26.70
  -9   4   4   27.70   24.50
  -9   4   4  -21.90   23.40
   8  -4  -4    6.40   30.80
   8  -4  -4   -5.30   16.10
   8  -4  -4   11.30   15.10
  -8   4   4   35.20   21.40
  -8   4   4   -7.00   19.80
  -8   4   4   -6.10   18.80
   7  -4  -4    4.80   13.20
  -7   4   4   -4.40   17.30
  -7   4   4  -16.60   15.30
  -7   4   4    6.80   18.10
   6  -4  -4  245.98   25.20
   6  -4  -4  304.97   41.60
   6  -4  -4  272.07   39.50
  -6   4   4  234.98   35.70
   5  -4  -4  483.35   28.10
   5  -4  -4  526.15   44.10
   5  -4  -4  443.96   40.10
  -5   4   4  582.84   46.10
  -5   4   4  467.45   44.30
   4  -4  -4   36.20   17.80
   4  -4  -4   23.10   15.90
   4  -4  -4   29.60   17.30
   4  -4  -4   37.40    8.70
  -4   4   4   37.20   17.90
  -4   4   4   35.30   18.20
   3  -4  -4  355.46   35.10
   3  -4  -4  352.66   16.80
   3  -4  -4  322.37   33.40
   3  -4  -4  387.96   33.30
  -3   4   4  332.07   35.40
  -3   4   4  331.17   34.60
  -3   4   4  397.46   34.90
   2  -4  -4  124.39   24.90
   2  -4  -4  137.29   22.10
  -2   4   4  151.18   27.60
  -2   4   4  166.88   11.80
  -2   4   4  202.48   26.90
  -2   4   4  131.49   24.40
   1  -4  -4 1271.87   63.59
   1  -4  -4 1314.17   53.49
  -1   4   4 1272.07   65.89
  -1   4   4 1232.98   51.19
  -1   4   4 1295.77   59.59
  -1   4   4 1291.27   42.70
  -1   4   4 1251.77   54.29
   0  -4  -4   -1.70   11.40
   0  -4  -4   -7.20    9.90
   0  -4  -4   -3.50   11.60
   0   4   4   12.60   13.10
   0   4   4   13.70   13.60
   0   4   4  -18.50    8.10
   0   4   4  -22.10   10.80
   0   4   4   -5.80    7.20
   0   4   4   -8.80    7.60
  -1  -4  -4   14.90   11.80
  -1  -4  -4    9.20   11.60
   1   4   4   -4.20    9.00
   1   4   4   17.70   13.80
   1   4   4   -0.10    6.90
   1   4   4   -4.70   12.10
   1   4   4    2.20    8.50
   1   4   4   -3.20   13.20
  -2  -4  -4    2.40   12.20
  -2  -4  -4    5.50   11.20
   2   4   4   -4.50   12.90
   2   4   4   26.90   15.90
   2   4   4   13.60   16.10
   2   4   4    8.90   10.10
   2   4   4   -4.10   11.00
   2   4   4    5.20    6.90
  -3  -4  -4  252.77   27.20
  -3  -4  -4  216.38   32.00
   3   4   4  223.98   22.20
   3   4   4  287.77   37.50
   3   4   4  222.08   35.60
   3   4   4  212.48   18.10
   3   4   4  224.98   32.90
  -4  -4  -4  397.36   34.90
  -4  -4  -4  338.17   65.79
  -4  -4  -4  445.66   40.10
   4   4   4  389.56   39.90
   4   4   4  376.66   28.60
   4   4   4  360.66   22.00
  -5  -4  -4   96.19   24.20
  -5  -4  -4   88.59   26.20
  -5  -4  -4   34.10   18.70
   5   4   4   68.99   24.40
   5   4   4   44.20   11.60
  -6  -4  -4  -21.50   18.20
  -6  -4  -4   12.50   17.30
   6   4   4   23.70   20.40
   6   4   4    4.60   24.50
   6   4   4   -1.40    8.30
  -7  -4  -4   13.20   15.70
  -7  -4  -4  -11.30   22.50
   7   4   4   35.10   27.50
   7   4   4    3.00    9.30
   7   4   4    8.10   24.20
   9  -5  -4  -26.90   20.50
   9  -5  -4   -5.40   25.00
   9  -5  -4   -6.70   18.20
  -9   5   4   15.90   29.40
  -9   5   4   13.40   23.70
  -9   5   4   21.90   24.30
   8  -5  -4    8.30   17.40
   8  -5  -4   10.00   20.30
   8  -5  -4   23.10   20.20
  -8   5   4   66.19   25.40
  -8   5   4   51.59   26.80
  -8   5   4   11.60   22.80
   7  -5  -4   27.20   14.80
   7  -5  -4   64.89   25.70
  -7   5   4   46.70   26.00
  -7   5   4   31.10   21.60
  -7   5   4   14.90   20.80
   6  -5  -4   90.99   24.50
   6  -5  -4   61.79   22.00
   6  -5  -4   83.59   17.90
  -6   5   4  108.79   27.10
  -6   5   4   82.29   27.50
   5  -5  -4  -26.40   15.60
   5  -5  -4   18.90   16.80
   5  -5  -4   10.20   14.70
   5  -5  -4   -5.70    7.80
  -5   5   4  -27.40   15.10
   4  -5  -4  118.19   25.70
   4  -5  -4  140.79   31.30
   4  -5  -4  169.58   30.40
  -4   5   4  141.19   27.80
  -4   5   4   81.89   23.90
   3  -5  -4   81.39   21.80
   3  -5  -4   67.59   20.10
   3  -5  -4   65.99   22.10
  -3   5   4   73.59   20.50
  -3   5   4   68.19   23.00
  -3   5   4   82.79   22.00
   2  -5  -4  142.59   24.20
   2  -5  -4  170.98   29.20
  -2   5   4  169.98   21.20
  -2   5   4  110.29   26.00
  -2   5   4  171.28   16.10
  -2   5   4  162.98   26.40
  -2   5   4  148.29   28.10
   1  -5  -4   99.29   24.50
  -1   5   4  120.89   19.70
  -1   5   4  125.39   24.20
  -1   5   4   92.49   20.60
  -1   5   4   54.79   21.40
  -1   5   4  100.69   15.40
   0  -5  -4   14.00   13.90
   0   5   4   42.80   16.50
   0   5   4    9.50   11.10
   0   5   4  -10.60    9.00
   0   5   4   53.29   17.30
   0   5   4    7.50   14.60
   0   5   4    8.00    9.70
   0   5   4   35.30   14.40
  -1  -5  -4   11.00   14.80
   1   5   4   13.60   12.40
   1   5   4   -0.80   13.90
   1   5   4    2.40   15.40
   1   5   4   17.40   13.50
   1   5   4    5.50    9.30
   1   5   4   -7.70   10.30
   1   5   4   17.60   10.30
  -2  -5  -4  -13.50   12.80
   2   5   4   -3.90   14.30
   2   5   4  -16.40   11.90
   2   5   4   18.60   18.70
   2   5   4    3.40    9.20
   2   5   4   12.40   11.80
   2   5   4    4.00   13.10
  -3  -5  -4   13.40   17.30
   3   5   4    6.10    8.60
   3   5   4   -8.10   16.70
   3   5   4    8.70   13.40
   3   5   4   12.70   10.70
   3   5   4   -6.70   14.40
   3   5   4   43.00   19.50
  -4  -5  -4    9.90   17.10
   4   5   4   16.40   20.90
   4   5   4    5.50    8.90
   4   5   4  -21.90    7.70
   4   5   4  -10.10   17.60
  -5  -5  -4   35.30   24.60
   5   5   4   15.20   10.60
   5   5   4   19.20    9.80
   5   5   4   71.79   24.10
   5   5   4   38.90   26.00
  -6  -5  -4   86.09   27.40
  -6  -5  -4  128.79   32.10
   6   5   4   56.19   29.20
   6   5   4   70.69   14.00
   6   5   4   81.09   14.40
   6   5   4   92.29   31.60
   8  -6  -4  199.58   43.00
   8  -6  -4  136.49   35.50
   8  -6  -4  143.59   26.80
  -8   6   4  235.38   48.20
  -8   6   4  117.69   34.30
   7  -6  -4  102.09   29.70
   7  -6  -4   61.79   27.10
   7  -6  -4   85.99   19.80
  -7   6   4   66.89   26.10
  -7   6   4  129.69   35.00
  -7   6   4  111.69   30.70
   6  -6  -4   31.70   22.80
   6  -6  -4   32.00   23.30
   6  -6  -4   -6.10   10.90
   6  -6  -4    4.40   15.10
  -6   6   4   33.80   22.00
  -6   6   4   25.10   21.10
   5  -6  -4   35.40   19.50
   5  -6  -4   31.30   22.90
   5  -6  -4   39.00   12.00
   5  -6  -4   -6.80   16.70
  -5   6   4   24.70   18.50
  -5   6   4  -14.30   12.60
   4  -6  -4   14.20   16.30
   4  -6  -4   -6.40   16.80
   4  -6  -4    9.70   15.50
   4  -6  -4   11.50    9.00
  -4   6   4   -1.70   14.80
  -4   6   4   15.00   15.70
   3  -6  -4   -5.60   11.10
   3  -6  -4   10.10   14.50
  -3   6   4   19.90   15.60
  -3   6   4   33.60   18.20
  -3   6   4  -10.20    8.20
   2  -6  -4  354.46   38.70
   2  -6  -4  348.87   33.40
  -2   6   4  397.56   36.70
  -2   6   4  354.56   38.20
  -2   6   4  368.86   36.10
  -2   6   4  479.25   45.20
  -2   6   4  371.16   28.40
   1  -6  -4  218.68   33.70
  -1   6   4  248.28   39.20
  -1   6   4  265.07   33.90
  -1   6   4  203.58   25.90
  -1   6   4  179.68   21.10
  -1   6   4  222.08   30.40
   0  -6  -4  147.69   29.80
   0   6   4   94.09   20.50
   0   6   4  117.29   22.70
   0   6   4   98.79   18.90
   0   6   4  103.99   26.50
   0   6   4  115.09   23.10
   0   6   4  127.59   24.80
  -1  -6  -4  136.69   29.30
   1   6   4  131.69   23.30
   1   6   4  115.99   28.80
   1   6   4  175.68   28.60
   1   6   4  177.38   23.90
   1   6   4  104.29   26.30
   1   6   4  158.88   25.90
   1   6   4  187.78   29.20
  -2  -6  -4  106.69   27.50
   2   6   4   82.69   22.10
   2   6   4  119.99   28.50
   2   6   4  143.49   28.70
   2   6   4   82.09   17.20
   2   6   4  123.09   29.90
   2   6   4  121.59   22.10
   2   6   4  127.99   24.80
  -3  -6  -4  102.19   27.60
   3   6   4  149.79   21.30
   3   6   4  180.08   31.70
   3   6   4  160.78   29.10
   3   6   4  158.98   31.30
   3   6   4  151.68   21.40
   3   6   4  145.69   34.40
   3   6   4  148.29   32.30
  -4  -6  -4   -1.40   17.70
   4   6   4   13.70   18.60
   4   6   4   12.70   19.30
   4   6   4   14.90    9.80
   4   6   4   -1.40   21.30
   4   6   4    7.00   11.60
   4   6   4   28.90   23.90
  -5  -6  -4   -1.00   17.20
   5   6   4  -31.80   17.10
   5   6   4   15.10   11.30
   5   6   4  -13.00   10.00
   5   6   4   -8.30   19.90
   5   6   4   21.30   25.30
   5   6   4  -35.10   19.70
   8  -7  -4  -17.40   15.60
   8  -7  -4   25.60   25.00
   8  -7  -4   -0.20   21.30
   8  -7  -4  -15.90   20.60
  -8   7   4   15.40   24.90
  -8   7   4   29.30   26.50
   7  -7  -4   68.49   31.70
   7  -7  -4   67.59   25.30
   7  -7  -4   54.49   18.60
  -7   7   4   46.40   26.80
  -7   7   4   32.80   24.80
  -7   7   4   35.80   26.60
   6  -7  -4   65.09   25.60
   6  -7  -4   22.80   23.20
   6  -7  -4   34.50   21.90
   6  -7  -4   45.40   14.80
  -6   7   4   11.20   22.50
  -6   7   4   66.29   25.90
  -6   7   4    4.00   20.70
   5  -7  -4   -1.80   18.60
   5  -7  -4    1.70   10.00
   5  -7  -4  -22.10   15.50
   5  -7  -4   25.30   23.80
  -5   7   4    2.50   17.10
  -5   7   4  -25.60   17.00
   4  -7  -4   12.60   15.90
   4  -7  -4   22.20   18.30
   4  -7  -4  -11.40    7.80
  -4   7   4   -9.60   14.20
  -4   7   4  -22.90   14.60
   3  -7  -4   50.69   19.70
   3  -7  -4   56.19   23.70
   3  -7  -4   29.40   19.70
  -3   7   4   76.29   27.10
  -3   7   4   64.99   15.00
  -3   7   4   57.59   23.70
  -3   7   4   65.39   15.00
   2  -7  -4  -11.10   15.20
  -2   7   4    5.40   19.20
  -2   7   4   10.30   10.70
  -2   7   4    9.90   11.30
  -2   7   4   28.60   18.30
  -2   7   4   14.40   19.30
  -1   7   4  186.08   27.30
  -1   7   4  187.58   30.30
  -1   7   4  144.19   27.40
  -1   7   4  182.68   30.90
  -1   7   4  159.68   34.10
  -1   7   4  180.58   24.00
   0  -7  -4   30.40   20.70
   0   7   4   45.10   18.10
   0   7   4   14.70   20.00
   0   7   4   44.90   16.70
   0   7   4   28.50   17.20
   0   7   4   42.00   20.20
   0   7   4   28.30   14.80
   0   7   4   34.60   16.60
  -1  -7  -4   -8.60   15.80
   1   7   4   -8.00   11.40
   1   7   4   11.90   13.10
   1   7   4  -16.80   11.40
   1   7   4  -18.50   13.30
   1   7   4   23.30   21.20
   1   7   4  -15.30   11.90
   1   7   4   -0.80   11.50
  -2  -7  -4  -10.80   16.50
   2   7   4   41.90   17.80
   2   7   4   -5.00   21.00
   2   7   4   18.20   16.90
   2   7   4    1.50   12.30
   2   7   4   22.80   12.40
   2   7   4   -4.50   17.40
   2   7   4   27.40   16.10
  -3  -7  -4   70.39   27.70
   3   7   4   49.40   24.00
   3   7   4   91.29   27.60
   3   7   4   21.60   23.90
   3   7   4   69.09   17.60
   3   7   4   51.29   24.40
   3   7   4   39.20   16.80
   3   7   4   59.39   22.50
  -4  -7  -4   16.20   21.80
   4   7   4   21.70   20.70
   4   7   4   29.60   23.40
   4   7   4   29.80   12.00
   4   7   4   52.19   29.90
   4   7   4   26.80   15.10
   4   7   4   -1.20   18.90
   4   7   4   30.80   24.80
  -5  -7  -4   -2.10   18.80
   5   7   4  -11.90   13.00
   5   7   4   28.00   23.50
   5   7   4  -31.50   27.20
   5   7   4   12.90   13.40
   5   7   4  -21.00   23.30
   5   7   4  -19.70   24.00
   7  -8  -4   21.10   22.70
   7  -8  -4   14.10   15.80
   7  -8  -4   37.10   25.00
   7  -8  -4   13.00   36.30
  -7   8   4  -16.10   24.00
  -7   8   4  -37.80   20.20
  -7   8   4  -24.20   23.30
   6  -8  -4    3.90   12.80
   6  -8  -4   19.00   24.90
   6  -8  -4   -0.20   18.50
  -6   8   4   41.30   26.60
  -6   8   4  -26.30   19.80
  -6   8   4    6.30   23.40
   5  -8  -4   63.49   25.00
   5  -8  -4   46.00   23.00
   5  -8  -4   49.99   15.10
   5  -8  -4   75.69   28.80
  -5   8   4   77.09   27.80
  -5   8   4   34.80   27.70
   4  -8  -4    4.00   19.20
   4  -8  -4   22.10   18.80
   4  -8  -4   34.10   19.00
  -4   8   4   36.30   20.40
  -4   8   4   22.60   10.90
  -4   8   4   25.40   22.50
   3  -8  -4   44.50   22.20
   3  -8  -4    8.60   15.70
  -3   8   4   45.50   21.50
  -3   8   4   36.30   15.40
  -3   8   4   41.80   13.60
  -3   8   4   27.60   18.40
  -2   8   4   18.00   19.60
  -2   8   4  -32.20   10.30
  -2   8   4  -16.30   17.60
  -2   8   4   -9.30   11.60
  -1   8   4  298.97   37.20
  -1   8   4  242.78   40.40
  -1   8   4  310.77   41.70
  -1   8   4  333.57   44.10
  -1   8   4  316.77   37.00
  -1   8   4  369.46   33.10
   0  -8  -4   20.90   21.30
   0   8   4   22.80   23.00
   0   8   4   35.70   17.50
   0   8   4   33.30   17.50
   0   8   4   42.50   20.50
   0   8   4   72.99   27.90
   0   8   4   35.20   17.50
  -1  -8  -4  123.09   32.30
   1   8   4  136.59   33.30
   1   8   4  159.38   26.20
   1   8   4  115.89   33.50
   1   8   4  124.69   28.00
   1   8   4  176.98   28.90
   1   8   4  145.89   27.90
   1   8   4  104.09   23.20
  -2  -8  -4  -14.30   18.20
   2   8   4   23.60   28.50
   2   8   4   19.40   15.60
   2   8   4   22.40   16.20
   2   8   4    4.60   17.10
   2   8   4   27.00   18.80
   2   8   4   -8.90   21.90
   2   8   4   55.39   26.60
  -3  -8  -4    8.70   19.90
   3   8   4    6.20   20.00
   3   8   4  -46.30   22.90
   3   8   4   17.50   14.60
   3   8   4   17.30   22.10
   3   8   4    1.80   19.20
   3   8   4  -11.10   23.30
   3   8   4   10.30   16.20
   5  -9  -4   25.10   20.50
   5  -9  -4   31.00   15.70
  -5   9   4   -4.30   21.10
  -5   9   4  -31.10   34.30
   4  -9  -4  -15.00   19.30
   4  -9  -4    2.20   16.70
  -4   9   4   14.00   15.00
  -4   9   4  -11.50   24.80
  -4   9   4   -4.80   10.00
  -4   9   4  -15.00   20.70
   3  -9  -4  135.39   37.30
  -3   9   4  196.78   41.20
  -3   9   4  116.29   23.20
  -3   9   4  140.39   36.10
  -3   9   4  161.08   24.60
  -2   9   4  149.29   35.20
  -2   9   4  210.88   29.90
  -2   9   4  164.58   27.10
  -2   9   4  216.78   38.90
  -1   9   4  -15.10   18.20
  -1   9   4   -5.20   14.90
  -1   9   4   13.40   28.60
  -1   9   4   -6.50   14.40
  -1   9   4   11.80   20.70
   0  -9  -4    8.90   21.20
   0   9   4   22.90   20.40
   0   9   4   18.50   25.00
   0   9   4   14.30   18.20
   0   9   4   31.40   19.50
   0   9   4   45.50   20.40
   0   9   4  -39.30   21.00
   0   9   4    5.40   18.50
  -1  -9  -4    7.20   21.40
   1   9   4   15.00   24.50
   1   9   4   -2.60   16.10
   1   9   4  -12.40   17.00
   1   9   4   -8.20   25.00
   1   9   4  -22.40   18.80
   1   9   4   26.50   29.80
   1   9   4   21.90   28.60
  -2  -9  -4    2.50   21.30
   2   9   4  -17.30   16.50
   2   9   4   -7.40   20.00
   2   9   4   17.30   24.20
   2   9   4   47.40   31.10
   2   9   4   -2.60   23.10
   2   9   4   15.60   17.20
  -3  10   4   91.29   22.10
  -3  10   4   67.49   21.60
  -3  10   4   14.40   30.10
  -3  10   4   68.49   28.70
  -2  10   4   16.10   23.30
  -2  10   4  -40.20   24.00
  -2  10   4   24.70   19.90
  -2  10   4  -12.40   17.40
  -2  10   4   11.20   22.90
  -1  10   4    2.30   21.10
  -1  10   4   22.80   23.80
  -1  10   4   41.30   23.40
  -1  10   4   62.19   26.00
  -1  10   4   10.50   24.20
   2  12  -5   26.10   26.40
   2  12  -5   16.30   16.70
   2  12  -5   18.00   27.10
   2  12  -5    7.50   22.50
  -2 -12   5  -40.10   21.90
  -2 -12   5   29.30   20.60
   1  12  -5  -14.00   19.00
   1  12  -5   42.00   28.90
  -1 -12   5  -15.40   23.60
  -1 -12   5  -21.00   17.50
  -1 -12   5   41.70   25.80
   0  12  -5   -4.90   30.70
   0  12  -5    8.40   22.60
   0 -12   5  -18.40   20.30
   0 -12   5  -42.90   20.40
   0 -12   5    3.80   17.70
  -1  12  -5   33.30   27.10
  -1  12  -5   22.00   26.70
   1 -12   5   32.90   29.50
   1 -12   5   18.00   23.70
   1 -12   5   16.50   24.00
  -2  12  -5   -7.20   29.20
  -2  12  -5   18.80   24.70
  -2  12  -5   13.20   26.90
   2 -12   5   27.20   24.10
   2 -12   5   -2.50   30.20
   2 -12   5  -23.50   21.10
   4  11  -5  -10.60   16.20
  -4 -11   5   -3.50   23.60
   3  11  -5   93.29   23.50
   3  11  -5  143.09   37.30
  -3 -11   5  102.39   33.00
   2  11  -5   70.49   22.50
   2  11  -5   38.20   27.90
   2  11  -5   60.29   18.40
  -2 -11   5   69.59   30.40
  -2 -11   5   40.90   18.70
   1  11  -5    9.70   19.90
   1  11  -5   55.19   30.10
   1  11  -5   25.70   15.30
   1  11  -5   17.30   22.80
  -1 -11   5   44.30   24.70
  -1 -11   5   62.79   26.60
  -1 -11   5   10.00   17.20
   0  11  -5   27.30   25.70
   0  11  -5    6.60   18.90
   0  11  -5   24.00   20.90
   0 -11   5   32.30   24.50
   0 -11   5   25.20   19.50
   0 -11   5  -42.10   19.00
  -1  11  -5   80.89   32.10
  -1  11  -5   49.50   24.80
  -1  11  -5   70.99   31.00
   1 -11   5  115.09   31.40
   1 -11   5   86.79   29.40
   1 -11   5   89.39   29.30
  -2  11  -5   41.10   12.40
  -2  11  -5  -63.89   19.70
  -2  11  -5   -4.50   26.50
  -2  11  -5  -34.50   23.30
   2 -11   5   17.60   23.60
  -3  11  -5   34.20   29.00
  -3  11  -5   93.29   32.20
  -3  11  -5   57.59   31.40
  -3  11  -5  100.19   20.20
   3 -11   5   58.49   26.90
  -4  11  -5   36.20   32.50
  -4  11  -5   31.10   47.80
  -4  11  -5   -9.60   24.60
   4 -11   5  -20.70   22.80
   6  10  -5    0.30   27.40
   6  10  -5    4.90   13.10
  -6 -10   5    7.40   23.10
   5  10  -5  -17.40   25.00
   5  10  -5  -33.10   12.50
  -5 -10   5   17.80   23.90
   4  10  -5   17.10   15.40
   4  10  -5   27.90   24.90
  -4 -10   5   20.90   24.40
   3  10  -5  -10.50   18.10
   3  10  -5   28.10   25.40
  -3 -10   5    6.90   20.00
  -3 -10   5   20.00   12.60
   2  10  -5   16.30   22.50
   2  10  -5   14.90   16.10
  -2 -10   5    4.90   13.30
  -2 -10   5   -0.20   16.70
  -2 -10   5    9.50   20.50
   1  10  -5   45.00   26.50
   1  10  -5   69.09   23.20
  -1 -10   5    4.60   18.80
  -1 -10   5   31.40   16.80
   0  10  -5  210.68   37.20
   0  10  -5  258.07   42.50
   0  10  -5  199.38   35.60
   0 -10   5  292.57   42.10
   0 -10   5  283.17   34.50
  -1  10  -5  191.18   32.90
  -1  10  -5  190.88   37.00
  -1  10  -5  193.68   39.40
   1 -10   5  136.09   33.70
  -2  10  -5   56.79   28.20
  -2  10  -5   40.20   26.90
  -2  10  -5   37.50   13.40
  -2  10  -5   45.80   24.90
   2 -10   5   37.30   24.30
   2 -10   5   42.60   23.30
  -3  10  -5   92.49   32.10
  -3  10  -5  150.48   33.60
  -3  10  -5  131.59   24.90
  -3  10  -5  130.99   34.70
   3 -10   5  147.39   36.00
  -4  10  -5   57.39   27.80
  -4  10  -5   46.30   28.10
  -4  10  -5   60.69   31.50
  -5  10  -5   85.99   24.70
  -5  10  -5   70.99   26.70
  -5  10  -5  102.29   34.70
   5 -10   5   83.79   36.80
   7   9  -5   66.99   33.60
   7   9  -5   67.29   29.70
  -7  -9   5   37.80   28.10
   6   9  -5   21.20   12.90
   6   9  -5  -49.30   17.50
  -6  -9   5   -3.20   19.20
   5   9  -5   26.30   22.40
   5   9  -5  -17.70   12.90
  -5  -9   5   32.40   25.30
   4   9  -5   -9.00   13.20
   4   9  -5    2.40   13.90
  -4  -9   5  -16.90   15.20
   3   9  -5    0.80   16.30
  -3  -9   5   -1.30    8.90
  -3  -9   5    6.80   17.70
   2   9  -5   17.80   15.40
   2   9  -5   13.50   20.90
  -2  -9   5    6.60   14.80
  -2  -9   5   25.00   13.20
   1   9  -5  185.68   36.70
   1   9  -5  237.18   34.20
  -1  -9   5  263.77   34.40
  -1  -9   5  172.08   31.90
   0   9  -5   53.29   21.10
   0   9  -5   22.40   21.40
   0   9  -5    0.50   15.30
   0  -9   5   20.00   20.00
  -1   9  -5  328.57   41.80
  -1   9  -5  270.27   40.60
  -1   9  -5  260.57   41.20
  -1   9  -5  288.87   22.20
   1  -9   5  334.37   41.50
  -2   9  -5   16.90   22.60
  -2   9  -5    0.70   17.10
  -2   9  -5  -16.30   17.60
  -2   9  -5    8.20   11.40
   2  -9   5   23.50   17.60
  -3   9  -5   42.40   16.80
  -3   9  -5   31.80   19.90
  -3   9  -5   20.50   23.20
   3  -9   5    5.60   19.00
  -4   9  -5    5.00   18.40
  -4   9  -5   -1.90   22.50
  -4   9  -5  -12.10   15.90
  -4   9  -5   25.80   17.50
   4  -9   5   13.60   20.30
  -5   9  -5   15.00   22.60
  -5   9  -5   10.60   23.20
  -5   9  -5   35.40   29.30
  -5   9  -5   38.00   20.30
  -6   9  -5  -22.30   21.20
  -6   9  -5    0.20   24.70
  -6   9  -5   33.70   24.70
   6  -9   5   27.60   28.50
   7   8  -5   20.70   20.30
   7   8  -5   -9.00   20.40
  -7  -8   5   20.70   24.00
  -7  -8   5   -0.90   10.50
   6   8  -5    4.90   11.30
   6   8  -5    2.40   21.20
  -6  -8   5  -12.60   14.80
  -6  -8   5   11.40    9.30
   5   8  -5   22.10   13.40
   5   8  -5   22.00   20.70
  -5  -8   5   23.20   21.60
   4   8  -5   65.49   18.60
   4   8  -5   42.70   22.60
  -4  -8   5   14.60   17.90
   3   8  -5   48.50   23.60
   3   8  -5   67.99   18.20
  -3  -8   5   71.49   23.70
   2   8  -5   83.09   22.30
  -2  -8   5   58.29   22.90
  -2  -8   5  109.09   26.20
  -2  -8   5   51.39   15.40
   1   8  -5   15.60   16.30
   1   8  -5   26.40   20.00
  -1  -8   5    4.70   14.60
  -1  -8   5    3.00   15.50
   0   8  -5   41.60   21.80
   0   8  -5   37.40   22.70
   0  -8   5   71.39   21.50
   0  -8   5   31.70   15.50
  -1   8  -5    7.10    8.80
  -1   8  -5   -2.00   15.80
  -1   8  -5   -4.00   16.70
   1  -8   5  -11.10   11.60
   1  -8   5   -0.60    8.30
   1  -8   5   -5.80   13.40
  -2   8  -5  -25.80   14.20
  -2   8  -5    3.20   16.00
  -2   8  -5   22.70   18.70
  -2   8  -5    5.50   10.80
   2  -8   5   22.90   15.90
   2  -8   5   -4.30   10.40
  -3   8  -5  204.18   29.60
  -3   8  -5  243.38   40.40
   3  -8   5  263.87   30.30
  -4   8  -5   18.60   15.40
  -4   8  -5    2.10   13.60
  -4   8  -5    3.20   20.80
  -4   8  -5   31.10   18.50
   4  -8   5   -1.20   16.30
   4  -8   5  -20.70   18.70
  -5   8  -5  141.69   29.80
  -5   8  -5  196.88   36.60
  -5   8  -5  143.09   31.70
   5  -8   5  260.77   39.10
   5  -8   5  182.58   41.30
  -6   8  -5   -7.70   20.10
  -6   8  -5   -2.00   19.70
  -6   8  -5    5.90   21.00
   6  -8   5   16.90   24.30
   6  -8   5   -4.10   22.40
   8   7  -5  -50.69   25.10
   8   7  -5   15.90   25.80
   8   7  -5  -56.49   21.20
  -8  -7   5   17.20   16.40
   7   7  -5   -4.00   16.80
   7   7  -5   21.00   23.70
   7   7  -5   37.30   23.90
   7   7  -5    9.50   10.20
  -7  -7   5   19.00   12.90
   6   7  -5    0.90    9.50
   6   7  -5   -1.90   17.30
  -6  -7   5   20.80   17.00
  -6  -7   5   13.10    9.70
   5   7  -5   40.40   13.90
   5   7  -5   51.89   23.60
  -5  -7   5   34.50   14.10
  -5  -7   5   31.80   22.40
   4   7  -5   70.69   27.20
   4   7  -5   78.09   18.50
  -4  -7   5   67.39    7.70
  -4  -7   5   96.19   25.60
   3   7  -5  269.47   29.00
   3   7  -5  265.27   37.40
  -3  -7   5  236.08   18.20
  -3  -7   5  258.07   35.80
   2   7  -5  170.28   32.60
   2   7  -5   91.39   21.00
  -2  -7   5  121.99   25.60
  -2  -7   5  120.79   27.10
   1   7  -5  523.15   40.30
   1   7  -5  509.45   44.50
  -1  -7   5  605.14   39.90
  -1  -7   5  519.25   43.80
  -1  -7   5  520.45   20.10
   0   7  -5  118.19   26.60
   0   7  -5  158.98   27.30
   0  -7   5  196.18   32.70
   0  -7   5  131.49   23.20
   0  -7   5  135.29   15.60
  -1   7  -5   26.40   18.10
  -1   7  -5   26.80   12.10
  -1   7  -5   12.40   17.50
  -1   7  -5   15.80   16.50
   1  -7   5   27.10   12.30
   1  -7   5   38.80   17.60
   1  -7   5   60.09   15.90
  -2   7  -5  -27.10   11.80
  -2   7  -5    1.70   10.50
  -2   7  -5  -14.10   11.40
  -2   7  -5   -0.30   15.70
   2  -7   5   -1.80   11.00
   2  -7   5  -26.30   10.90
   2  -7   5   -9.50    9.90
  -3   7  -5    9.40   15.20
  -3   7  -5   15.30   16.50
  -3   7  -5   13.30   12.30
  -3   7  -5   35.30   16.30
   3  -7   5   12.30   14.30
  -4   7  -5  305.87   44.90
  -4   7  -5  298.27   39.40
  -4   7  -5  316.57   35.30
  -4   7  -5  301.17   41.10
   4  -7   5  322.17   37.90
  -5   7  -5   20.40   18.20
  -5   7  -5   48.10   33.60
  -5   7  -5   59.99   32.40
   5  -7   5   60.89   23.60
  -6   7  -5   14.90   19.40
  -6   7  -5   16.60   17.90
  -6   7  -5   27.20   22.70
   6  -7   5  -52.09   19.80
   6  -7   5    8.80    8.50
   6  -7   5    2.10   20.10
  -7   7  -5  162.88   33.50
  -7   7  -5  134.99   31.30
   7  -7   5   94.59   30.40
   7  -7   5  142.39   36.10
   9   6  -5  112.49   38.70
   9   6  -5   36.60   26.00
  -9  -6   5   82.79   27.10
   8   6  -5   31.70   26.20
   8   6  -5   46.80   26.00
   8   6  -5   21.20   19.70
  -8  -6   5   16.70   17.10
   7   6  -5    6.20    9.20
   7   6  -5   -2.60   17.50
   7   6  -5   18.50   22.20
  -7  -6   5    6.50   12.50
   6   6  -5  -13.40    8.30
   6   6  -5   15.00   16.60
  -6  -6   5   -5.00    9.20
   5   6  -5  191.78   33.40
   5   6  -5  187.18   23.70
  -5  -6   5  201.68   20.00
   4   6  -5  324.77   36.20
   4   6  -5  240.58   26.10
  -4  -6   5  279.27   19.90
   3   6  -5   62.59   16.80
   3   6  -5   83.29   22.10
  -3  -6   5   54.99    9.10
  -3  -6   5   48.00    8.70
  -3  -6   5   29.50   15.70
  -3  -6   5   56.69    9.00
   2   6  -5   27.10   16.90
   2   6  -5   38.50   14.90
  -2  -6   5   26.60   16.30
  -2  -6   5   42.00   15.30
  -2  -6   5   51.59    8.40
   1   6  -5   22.30   13.50
   1   6  -5   12.50   14.30
  -1  -6   5   17.60   12.80
  -1  -6   5    6.60    6.80
  -1  -6   5   24.10   15.20
   0   6  -5  100.49   21.80
   0   6  -5   85.89    9.20
   0   6  -5   61.69   20.10
   0  -6   5   71.99   16.10
   0  -6   5   68.29   19.80
  -1   6  -5   61.49   18.00
  -1   6  -5   35.50   19.00
  -1   6  -5   52.09   17.40
  -1   6  -5   42.10   12.90
   1  -6   5   41.70   14.10
   1  -6   5   52.39   15.00
   1  -6   5   36.50   17.90
  -2   6  -5    3.80   13.10
  -2   6  -5    7.40   15.50
  -2   6  -5   -4.90   12.70
  -2   6  -5    8.30   11.50
   2  -6   5   -4.70    9.00
   2  -6   5   -1.40   11.20
   2  -6   5    3.80   14.60
  -3   6  -5   59.79   22.90
  -3   6  -5   36.30   16.20
  -3   6  -5   19.90   19.80
  -3   6  -5   39.00   16.30
   3  -6   5   31.00   15.60
  -4   6  -5    2.80   14.00
  -4   6  -5   12.50   19.70
  -4   6  -5   17.10   15.40
  -4   6  -5  -14.10   13.00
   4  -6   5   14.90    7.50
   4  -6   5   -0.50   14.70
  -5   6  -5   16.70   15.10
  -5   6  -5  -13.50   15.60
  -5   6  -5  -23.80   13.60
   5  -6   5   44.70   22.00
   5  -6   5    5.90    8.00
  -6   6  -5   53.79   21.00
  -6   6  -5   77.29   27.50
   6  -6   5   37.20   12.60
   6  -6   5   39.90   19.20
   6  -6   5   33.40   24.50
  -7   6  -5   43.50   24.80
  -7   6  -5   57.99   24.90
  -7   6  -5   36.70   20.90
   7  -6   5    3.80   12.90
   7  -6   5    4.20   22.40
   7  -6   5   61.19   28.00
   9   5  -5  -21.50   28.80
   9   5  -5   -1.40   23.30
  -9  -5   5   15.80   20.00
   8   5  -5  -22.80   19.10
   8   5  -5    5.40   16.70
   8   5  -5  -34.10   18.20
  -8  -5   5   10.60   15.60
   7   5  -5   22.40   21.60
   7   5  -5    7.10   17.60
   7   5  -5    5.00    9.50
  -7  -5   5   33.30   11.50
  -7  -5   5   26.20   15.30
   6   5  -5  202.98   35.50
   6   5  -5  174.38   21.70
   6   5  -5  137.79   31.60
  -6  -5   5  219.28   23.20
  -6  -5   5  194.08   26.30
   5   5  -5  289.17   34.70
   5   5  -5  269.07   26.80
  -5  -5   5  280.67   24.80
  -5  -5   5  297.77   27.50
   4   5  -5   43.40   14.10
   4   5  -5   69.59   19.90
  -4  -5   5   52.59   11.60
  -4  -5   5   60.09   15.60
   3   5  -5 1009.20   49.80
   3   5  -5 1023.80   55.29
  -3  -5   5 1040.60   50.69
   2   5  -5   58.39   16.40
   2   5  -5   59.49   18.90
  -2  -5   5   47.70   17.10
  -2  -5   5   80.79   12.50
   1   5  -5 1100.69   55.69
   1   5  -5  994.10   52.29
  -1  -5   5 1052.19   53.99
  -1  -5   5 1100.79   47.20
  -1  -5   5 1074.89   41.00
   0   5  -5   -2.50   12.30
   0   5  -5    2.10   11.90
   0   5  -5   -2.00    5.40
   0  -5   5  -10.10    9.80
   0  -5   5   -2.90    7.90
   0  -5   5   -4.50    7.60
  -1   5  -5  155.58   21.40
  -1   5  -5  160.98   27.10
  -1   5  -5  148.09   25.00
   1  -5   5  159.98   21.70
   1  -5   5  160.98   16.10
   1  -5   5  172.18   27.90
  -2   5  -5  105.69   20.50
  -2   5  -5  120.29   21.40
  -2   5  -5   99.19   23.20
  -2   5  -5   96.39   22.70
   2  -5   5   89.89   24.10
   2  -5   5  119.09   21.80
  -3   5  -5   87.59   24.10
  -3   5  -5   88.69   19.40
  -3   5  -5   89.59   21.90
  -3   5  -5   75.69   20.70
   3  -5   5   66.09   23.00
   3  -5   5  108.29   23.30
   3  -5   5   72.59   11.70
  -4   5  -5  389.06   38.10
  -4   5  -5  451.95   41.00
  -4   5  -5  411.46   34.00
   4  -5   5  424.76   44.70
   4  -5   5  400.06   26.70
   4  -5   5  459.65   43.20
  -5   5  -5  241.18   32.00
  -5   5  -5  220.58   35.40
  -5   5  -5  226.68   34.10
   5  -5   5  182.88   36.50
   5  -5   5  173.68   22.90
  -6   5  -5   50.69   22.60
  -6   5  -5   32.20   18.50
  -6   5  -5   29.40   18.30
   6  -5   5   16.30   12.60
   6  -5   5   73.09   28.00
  -7   5  -5   47.60   21.10
  -7   5  -5   29.10   19.60
  -7   5  -5    9.90   21.90
   7  -5   5   16.40   31.40
   7  -5   5   65.39   32.40
   7  -5   5   33.50   16.80
  -8   5  -5  -39.30   23.20
  -8   5  -5    1.40   17.70
  -8   5  -5   50.09   23.30
  -8   5  -5  -11.50   22.70
   8  -5   5   50.49   21.40
   8  -5   5   -1.60   26.90
   9   4  -5    7.00   25.10
   9   4  -5  -11.70   21.50
   9   4  -5   25.20   17.30
  -9  -4   5  -15.10    8.80
   8   4  -5   67.59   27.50
   8   4  -5   -8.90   18.60
   8   4  -5    5.40   17.40
  -8  -4   5   50.39   19.70
  -8  -4   5   41.50   13.20
   7   4  -5    9.90   16.20
  -7  -4   5    6.50   11.00
  -7  -4   5    8.00   13.40
   6   4  -5   90.29   25.60
   6   4  -5   55.09   15.20
   6   4  -5   67.69   21.70
  -6  -4   5   74.39   16.40
  -6  -4   5   87.29   20.10
   5   4  -5  190.18   31.00
   5   4  -5  213.38   24.10
   5   4  -5  206.08   31.40
  -5  -4   5  193.98   22.80
  -5  -4   5  194.48   24.30
   4   4  -5   13.80   13.30
   4   4  -5   -5.30    9.30
  -4  -4   5    2.80   10.70
   3   4  -5  324.97   30.20
   3   4  -5  346.97   28.60
  -3  -4   5  330.37   28.80
   2   4  -5   91.29   19.40
   2   4  -5   63.29   16.20
  -2  -4   5   45.60   14.70
  -2  -4   5   53.19   15.60
   1   4  -5  102.69   19.90
   1   4  -5  105.39   19.90
  -1  -4   5  101.89   19.30
  -1  -4   5   60.99   17.10
  -1  -4   5   93.09   18.00
   0   4  -5   82.69   19.20
   0   4  -5  113.79   21.10
   0   4  -5   96.49   14.20
   0  -4   5  109.19   14.60
   0  -4   5   73.69   18.20
   0  -4   5  119.99   18.70
  -1   4  -5   -9.30   10.70
  -1   4  -5    9.40   13.20
  -1   4  -5    3.70   10.20
   1  -4   5    1.30   11.30
   1  -4   5    2.60    5.70
   1  -4   5  -10.10    9.80
  -2   4  -5    4.10   11.30
  -2   4  -5   14.10   11.40
  -2   4  -5   24.90   11.50
  -2   4  -5    1.50   13.30
   2  -4   5    0.40   13.80
   2  -4   5   25.60   14.80
  -3   4  -5  762.32   47.20
  -3   4  -5  747.33   39.40
  -3   4  -5  719.23   47.00
   3  -4   5  698.13   47.60
   3  -4   5  716.33   36.10
   3  -4   5  713.33   50.39
  -4   4  -5  118.99   24.90
  -4   4  -5   98.49   23.40
  -4   4  -5   85.59   18.50
   4  -4   5   62.99   28.40
   4  -4   5   95.79   25.00
   4  -4   5   59.79   15.10
  -5   4  -5  432.16   34.70
  -5   4  -5  454.35   41.40
  -5   4  -5  417.26   42.00
   5  -4   5  435.86   46.90
   5  -4   5  392.46   32.80
   5  -4   5  350.76   46.50
  -6   4  -5   36.50   15.60
  -6   4  -5   -5.00   17.90
  -6   4  -5  -14.30   12.50
  -6   4  -5  -16.70   13.50
   6  -4   5   -9.30   11.60
   6  -4   5  -45.00   17.80
   6  -4   5  -50.49   16.20
  -7   4  -5   53.79   27.30
  -7   4  -5   70.79   20.90
  -7   4  -5   43.60   21.90
  -7   4  -5   30.90   20.60
   7  -4   5   67.69   31.00
   7  -4   5   61.89   29.50
  -8   4  -5    6.30   19.90
  -8   4  -5  -19.00   17.00
  -8   4  -5    8.30   29.50
   8  -4   5    6.80   32.30
   8  -4   5   -9.00   25.80
  10   3  -5  -11.10   27.10
  10   3  -5   27.70   19.50
 -10  -3   5    8.40   13.20
 -10  -3   5  -14.00   20.70
   9   3  -5   63.19   26.70
   9   3  -5  143.69   24.80
  -9  -3   5  101.69   19.30
   8   3  -5   12.30   20.40
   8   3  -5   14.30   13.20
  -8  -3   5   39.30   19.00
  -8  -3   5   20.00   12.50
   7   3  -5  579.74   38.50
   7   3  -5  529.55   49.99
  -7  -3   5  611.74   38.30
  -7  -3   5  595.54   45.10
   6   3  -5  252.37   34.80
   6   3  -5  300.77   27.90
   6   3  -5  206.48   39.80
  -6  -3   5  269.17   27.70
  -6  -3   5  292.57   30.40
   5   3  -5   21.40   16.60
   5   3  -5   22.70   14.40
   5   3  -5   48.80   14.60
  -5  -3   5   29.80   14.30
   4   3  -5  -11.80   11.10
   4   3  -5   -5.50   10.70
   4   3  -5   23.60   11.30
  -4  -3   5    8.20   11.80
   3   3  -5 1292.37   55.29
   3   3  -5 1296.87   54.89
  -3  -3   5 1349.07   56.89
   2   3  -5  417.56   29.70
   2   3  -5  426.06   31.70
  -2  -3   5  447.96   30.50
  -2  -3   5  475.95   34.10
   1   3  -5 2067.29   75.59
   1   3  -5 2172.48   73.09
  -1  -3   5 2105.79   71.19
  -1  -3   5 2123.29   76.29
  -1  -3   5 2190.38   72.99
   0   3  -5  415.86   30.70
   0   3  -5  431.66   33.20
   0   3  -5  418.06   27.40
   0  -3   5  405.76   32.50
   0  -3   5  396.16   30.30
   0  -3   5  463.75   31.10
  -1   3  -5   11.80   10.50
  -1   3  -5    2.70   11.70
  -1   3  -5   25.10   18.00
  -1   3  -5    9.70   12.00
   1  -3   5    3.00   11.80
   1  -3   5    7.20    3.70
   1  -3   5   13.90   11.80
   1  -3   5   15.00   13.60
  -2   3  -5   58.29   17.00
  -2   3  -5   72.19   18.80
  -2   3  -5   59.79   17.60
   2  -3   5   72.09   14.20
   2  -3   5   56.99   18.40
   2  -3   5   85.19   20.40
  -3   3  -5   61.19   17.60
  -3   3  -5   42.60   11.60
  -3   3  -5   56.89   17.70
   3  -3   5   48.60   17.90
   3  -3   5   56.39   18.80
   3  -3   5   28.30   12.00
  -4   3  -5    4.70   14.10
  -4   3  -5   14.40   13.90
  -4   3  -5   12.40   10.00
   4  -3   5   -6.30   14.70
   4  -3   5  -13.70    9.00
   4  -3   5   13.20   15.00
  -5   3  -5   14.20   14.70
  -5   3  -5    4.60   11.20
  -5   3  -5   46.60   22.30
   5  -3   5   15.80   13.80
   5  -3   5    8.30   17.30
   5  -3   5    5.20   19.00
  -6   3  -5   33.60   17.30
  -6   3  -5    7.10   13.20
  -6   3  -5   24.10   19.20
  -6   3  -5  -16.00   11.20
  -6   3  -5   15.80    7.10
   6  -3   5   36.40   22.70
   6  -3   5   16.90   14.30
   6  -3   5    7.00   20.00
  -7   3  -5   22.10   18.30
  -7   3  -5  -19.30   20.20
  -7   3  -5    3.50   13.80
  -7   3  -5   16.50   16.30
  -7   3  -5   -6.80    8.50
   7  -3   5  -34.90   18.20
   7  -3   5  -15.20   16.20
  -8   3  -5   40.20   32.60
  -8   3  -5   14.30   16.90
  -8   3  -5  -42.30   17.50
  -8   3  -5  -30.20   16.10
   8  -3   5   11.00   27.80
   8  -3   5   53.49   36.40
  10   2  -5   27.30   16.60
  10   2  -5   39.30   15.10
  10   2  -5  -10.80   22.10
 -10  -2   5   12.80   16.20
 -10  -2   5   47.00   27.70
   9   2  -5  -24.30   22.00
   9   2  -5   15.80   12.80
  -9  -2   5    1.60   14.10
  -9  -2   5   19.00   19.30
   8   2  -5  201.88   38.80
   8   2  -5  218.88   25.30
   8   2  -5  210.48   19.50
  -8  -2   5  242.48   29.50
  -8  -2   5  240.28   36.60
   7   2  -5  361.76   41.60
   7   2  -5  291.27   26.00
  -7  -2   5  336.17   35.80
  -7  -2   5  294.47   30.50
   6   2  -5    9.40   12.90
   6   2  -5   11.40   11.80
  -6  -2   5   21.90   14.00
  -6  -2   5    2.00   11.50
   5   2  -5   -3.70   10.20
   5   2  -5   -4.30    9.00
   5   2  -5    4.20   11.50
  -5  -2   5   -1.70   10.90
   4   2  -5    0.70    9.80
   4   2  -5   -5.00   11.00
   4   2  -5   16.30   10.60
  -4  -2   5   10.10    6.90
  -4  -2   5   -3.70   10.70
   3   2  -5   81.19   15.50
   3   2  -5   43.90   14.50
   3   2  -5   74.19   17.60
  -3  -2   5   40.20   14.90
  -3  -2   5   48.80   11.20
   2   2  -5  692.93   38.20
   2   2  -5  743.33   41.00
  -2  -2   5  711.43   40.90
  -2  -2   5  677.73   33.70
   1   2  -5  165.28   23.10
   1   2  -5  177.78   21.20
  -1  -2   5  145.89   22.40
  -1  -2   5  163.98   17.70
  -1  -2   5  144.99   21.30
   0   2  -5  164.08   21.20
   0   2  -5  127.79   21.20
   0   2  -5  109.99   18.20
   0  -2   5  138.99   20.00
   0  -2   5  136.49   22.00
   0  -2   5  140.59   21.50
  -1   2  -5   -5.40    8.20
  -1   2  -5   15.70   10.00
  -1   2  -5   -0.90   10.50
  -1   2  -5   -1.10   10.20
   1  -2   5    9.40   11.20
   1  -2   5    3.60   12.00
   1  -2   5    1.60   11.00
   1  -2   5   12.70   10.80
  -2   2  -5  187.98   27.30
  -2   2  -5  221.38   27.30
  -2   2  -5  195.58   14.90
   2  -2   5  191.48   28.20
   2  -2   5  228.38   24.20
   2  -2   5  178.18   26.30
   2  -2   5  186.78   25.10
  -3   2  -5   51.49    9.90
  -3   2  -5   39.10   17.40
  -3   2  -5   33.60   14.50
   3  -2   5   58.39   19.00
   3  -2   5   42.70   14.10
   3  -2   5   -2.20   12.70
  -4   2  -5  -10.90    6.40
  -4   2  -5  -10.90   11.10
  -4   2  -5    5.10   12.70
   4  -2   5  -12.30    9.60
   4  -2   5   21.10   15.80
   4  -2   5  -11.20   14.40
  -5   2  -5   14.30   13.00
  -5   2  -5   34.60    5.40
  -5   2  -5   15.40   10.00
  -5   2  -5   15.70   14.10
  -5   2  -5   -5.60   15.90
   5  -2   5    5.10   13.30
   5  -2   5   14.00   19.30
   5  -2   5   38.00   19.00
  -6   2  -5   48.00   13.90
  -6   2  -5   82.19   22.20
  -6   2  -5   26.10    8.60
  -6   2  -5   63.59   19.90
   6  -2   5  -12.50   19.00
   6  -2   5   37.00   25.60
   6  -2   5   43.10   22.30
  -7   2  -5   92.99   16.40
  -7   2  -5  102.79   24.80
  -7   2  -5  144.69   25.90
  -7   2  -5   73.59   29.70
   7  -2   5  135.19   38.10
   7  -2   5   87.19   32.20
   7  -2   5   16.80   24.20
  -8   2  -5   33.20   28.50
  -8   2  -5  -16.30   19.60
  -8   2  -5  -49.30   17.50
  -8   2  -5  -19.00   13.40
   8  -2   5    2.10   28.50
   8  -2   5   13.90   27.10
  10   1  -5  -16.00   11.80
  10   1  -5  -21.80   23.80
 -10  -1   5   -1.20   16.00
   9   1  -5   18.50   10.50
   9   1  -5   65.09   17.80
   9   1  -5   27.50   23.50
  -9  -1   5   27.60   19.60
  -9  -1   5   30.90   18.60
   8   1  -5   64.99   15.50
   8   1  -5   64.29   24.80
   8   1  -5   66.69   13.30
  -8  -1   5   46.90   18.20
  -8  -1   5   55.89   21.10
   7   1  -5   19.00    9.90
   7   1  -5   10.90    9.90
   7   1  -5   11.40   15.90
  -7  -1   5   14.10   14.80
   6   1  -5    4.10   13.00
   6   1  -5    6.80    8.80
  -6  -1   5   -6.00   11.40
   5   1  -5    2.20   10.20
   5   1  -5   10.60   11.00
  -5  -1   5   10.90   13.80
   4   1  -5   11.50    8.60
   4   1  -5    9.00   12.70
   4   1  -5   -5.30    9.20
  -4  -1   5   13.00   12.20
  -4  -1   5    0.40    7.40
   3   1  -5  357.46   29.70
   3   1  -5  343.47   29.40
   3   1  -5  358.36   21.90
  -3  -1   5  329.57   30.40
  -3  -1   5  349.77   25.60
   2   1  -5  214.58   23.00
   2   1  -5  232.58   25.30
   2   1  -5  242.98   17.50
  -2  -1   5  215.58   16.50
  -2  -1   5  198.78   25.30
   1   1  -5  207.08   25.20
   1   1  -5  214.98   25.40
   1   1  -5  218.28   26.20
   1   1  -5  211.58   17.80
  -1  -1   5  204.48   25.50
  -1  -1   5  219.38   17.80
  -1  -1   5  174.48   24.10
   0   1  -5  146.79   22.10
   0   1  -5  132.79   20.90
   0   1  -5  162.08   13.90
   0   1  -5  150.48   19.70
   0  -1   5  133.09   21.80
   0  -1   5  161.98   24.10
   0  -1   5  177.08   18.90
  -1   1  -5  927.91   46.30
  -1   1  -5  974.10   47.10
  -1   1  -5  892.81   48.60
   1  -1   5  942.51   44.30
   1  -1   5  975.60   48.00
   1  -1   5  948.51   47.10
   1  -1   5  956.70   50.19
  -2   1  -5  916.61   46.70
  -2   1  -5  856.31   49.90
  -2   1  -5  852.11   25.10
   2  -1   5  920.41   46.30
   2  -1   5  917.11   51.89
   2  -1   5  933.21   48.40
   2  -1   5  883.91   46.90
  -3   1  -5    0.40   11.00
  -3   1  -5  -11.00   11.40
  -3   1  -5   28.00   17.20
   3  -1   5   -5.50    8.60
   3  -1   5   13.50   14.70
   3  -1   5   -3.90   11.40
  -4   1  -5   91.19   21.20
  -4   1  -5   73.79    8.00
  -4   1  -5   85.69   23.20
  -4   1  -5   90.79   19.70
   4  -1   5   85.49   20.80
   4  -1   5   67.09   21.90
   4  -1   5   80.59   22.80
  -5   1  -5  112.69   21.80
  -5   1  -5  122.69   12.00
  -5   1  -5  135.09   31.40
   5  -1   5  121.39   29.70
   5  -1   5  105.29   24.10
   5  -1   5  147.49   32.70
  -6   1  -5   16.00   13.50
  -6   1  -5   10.60    9.30
  -6   1  -5   10.80   14.20
   6  -1   5  -11.50   14.40
   6  -1   5   12.40   18.90
   6  -1   5   22.80   21.60
  -7   1  -5   -1.50   10.70
  -7   1  -5  -10.20   21.00
  -7   1  -5  -18.20   18.40
  -7   1  -5  -14.60   13.60
   7  -1   5   -8.40   22.00
   7  -1   5  -23.40   21.90
   7  -1   5   -0.60    8.70
   7  -1   5  -21.00   17.90
  -8   1  -5  -28.90   24.70
  -8   1  -5   -8.00   17.60
  -8   1  -5   38.80   21.00
  -8   1  -5  -23.20   11.80
   8  -1   5    7.30   11.10
   8  -1   5   14.80   24.80
   8  -1   5   24.70   28.00
   8  -1   5  -38.30   23.90
  10   0  -5    5.50   17.00
  10   0  -5   29.50   28.70
 -10   0   5   64.39   39.60
 -10   0   5   14.70   22.80
   9   0  -5   18.50   25.10
   9   0  -5   40.30   17.20
  -9   0   5   53.09   24.30
  -9   0   5   -0.30   14.80
   8   0  -5  286.57   30.00
  -8   0   5  350.76   34.50
   7   0  -5   19.10   12.00
   7   0  -5   19.30    6.60
  -7   0   5   27.90   16.50
  -7   0   5   27.90   17.80
  -7   0   5   11.20   20.90
   6   0  -5   89.79   18.80
   6   0  -5   75.69   21.30
  -6   0   5  102.59   20.90
  -6   0   5   61.19   20.00
   5   0  -5   54.79   14.90
   5   0  -5   56.69   18.20
   5   0  -5   31.30   13.20
  -5   0   5   37.40   16.50
  -5   0   5   41.00   18.40
   4   0  -5  147.39   15.00
   4   0  -5  195.88   25.40
   4   0  -5  134.59   22.60
  -4   0   5  128.79   23.80
  -4   0   5  123.09   19.20
  -4   0   5   99.09   20.60
   3   0  -5    5.50   10.30
   3   0  -5    8.90    5.60
   3   0  -5    0.60   11.70
  -3   0   5   14.50   11.50
  -3   0   5    5.20   13.50
  -3   0   5   18.20   12.80
   2   0  -5   15.60   11.00
   2   0  -5   23.90   13.20
   2   0  -5   13.40    5.20
  -2   0   5    2.90   10.70
  -2   0   5   28.30   13.70
   1   0  -5   -5.20   10.00
   1   0  -5    0.60   11.30
   1   0  -5    5.10    7.80
  -1   0   5   19.20   13.20
  -1   0   5    9.80    5.90
   0   0  -5   68.19   17.70
   0   0  -5   33.80    7.20
   0   0  -5   44.80   14.20
   0   0   5   43.40   11.30
   0   0   5   39.70   15.00
   0   0   5   40.70   16.70
   0   0   5   21.20   12.00
  -1   0  -5 1130.99   54.19
  -1   0  -5 1084.19   50.19
   1   0   5 1092.19   50.79
   1   0   5 1062.09   53.29
   1   0   5 1160.28   57.59
   1   0   5 1085.19   46.70
  -2   0  -5  170.38   24.70
  -2   0  -5  155.88   26.20
  -2   0  -5  177.98   23.20
   2   0   5  154.98   24.10
   2   0   5  161.18   25.20
   2   0   5  167.78   26.90
   2   0   5  149.79   22.00
  -3   0  -5  168.98   22.50
  -3   0  -5  197.28   27.70
  -3   0  -5  193.88   30.40
  -3   0  -5  163.68   13.00
   3   0   5  142.79   21.50
   3   0   5  190.88   30.60
   3   0   5  173.08   30.00
   3   0   5  140.79   24.90
  -4   0  -5   16.20   11.40
  -4   0  -5   10.90   15.60
  -4   0  -5   15.10    8.40
   4   0   5   18.70   20.80
   4   0   5    4.80   14.40
   4   0   5    6.80   13.50
  -5   0  -5  135.79   27.50
  -5   0  -5  138.99   22.00
  -5   0  -5  152.68   31.40
  -5   0  -5  141.29   22.20
   5   0   5  176.68   34.30
   5   0   5  182.98   32.00
   5   0   5   91.69   26.70
  -6   0  -5   -3.50   16.00
  -6   0  -5  -25.40   10.70
  -6   0  -5   -0.90   10.10
  -6   0  -5   16.10   18.40
   6   0   5   39.90   22.70
   6   0   5    4.80   19.70
  -7   0  -5   36.50   19.90
  -7   0  -5   45.50   16.40
  -7   0  -5   33.50   23.90
  -7   0  -5   46.20   15.20
   7   0   5   70.19   25.10
   7   0   5  133.79   36.00
   7   0   5   92.09   30.70
  -8   0  -5    9.90   14.00
  -8   0  -5   30.50   21.00
  -8   0  -5   37.80   15.30
  -8   0  -5   16.80   30.30
   8   0   5   48.10   30.30
   8   0   5  -16.00   24.50
   8   0   5   79.29   34.30
   8   0   5   13.40    9.90
  10  -1  -5    7.10   18.60
  10  -1  -5   53.29   25.80
 -10   1   5   19.80   19.30
 -10   1   5   33.80   28.10
   9  -1  -5   -3.60   19.80
   9  -1  -5    3.10   16.20
  -9   1   5   61.39   25.40
  -9   1   5    9.20   17.90
  -9   1   5   26.00   24.20
   8  -1  -5    4.10   12.50
  -8   1   5    7.80   16.40
  -8   1   5   29.60   18.40
   7  -1  -5   77.39   20.30
  -7   1   5   51.39   20.50
  -7   1   5   81.59   27.20
  -7   1   5   86.69   23.00
   6  -1  -5   36.50   17.70
   6  -1  -5   71.19   18.80
  -6   1   5   61.19   22.50
  -6   1   5   68.89   19.90
   5  -1  -5   22.40   13.50
   5  -1  -5    6.40   14.00
  -5   1   5   13.90   17.00
  -5   1   5   10.90   12.80
   4  -1  -5 1197.68   57.99
   4  -1  -5 1269.47   60.39
   4  -1  -5 1287.37   39.60
  -4   1   5 1286.17   61.19
  -4   1   5 1300.67   61.79
  -4   1   5 1247.78   57.99
   3  -1  -5   16.80   12.40
   3  -1  -5   -1.10   11.30
  -3   1   5   24.60   13.60
  -3   1   5   26.30   13.30
  -3   1   5    8.30   11.40
   2  -1  -5  420.96   35.10
   2  -1  -5  342.77   26.50
   2  -1  -5  366.56   31.40
  -2   1   5  401.96   28.50
  -2   1   5  405.06   33.00
  -2   1   5  405.06   33.60
   1  -1  -5  682.83   40.10
   1  -1  -5  718.23   35.40
   1  -1  -5  714.73   44.20
  -1   1   5  726.93   32.50
  -1   1   5  669.23   22.90
  -1   1   5  709.43   41.90
   0  -1  -5  175.68   12.70
   0  -1  -5  165.28   21.10
   0  -1  -5  183.48   23.50
   0  -1  -5  186.08   27.80
   0   1   5  202.78   28.50
   0   1   5  178.18   26.30
   0   1   5  175.28   16.30
   0   1   5  166.08   24.20
  -1  -1  -5   29.20   14.10
  -1  -1  -5    0.10   10.20
   1   1   5   15.50   10.30
   1   1   5    5.10   13.80
   1   1   5   21.30   12.60
   1   1   5    7.00   11.80
  -2  -1  -5   13.80   12.00
  -2  -1  -5   19.50    9.40
  -2  -1  -5   10.70    9.50
  -2  -1  -5    0.80   12.40
   2   1   5   11.40   14.00
   2   1   5    6.40   12.70
   2   1   5    4.20   11.40
  -3  -1  -5   10.70   11.60
  -3  -1  -5   32.70   16.60
   3   1   5   -7.70   14.70
   3   1   5    9.80   11.60
   3   1   5  -12.30   11.40
  -4  -1  -5  473.75   41.50
  -4  -1  -5  475.35   27.80
  -4  -1  -5  515.65   45.30
  -4  -1  -5  475.35   32.60
   4   1   5  498.45   47.10
  -5  -1  -5   20.90   18.40
  -5  -1  -5   19.70   11.70
  -5  -1  -5    7.50   11.20
  -5  -1  -5   24.00   19.00
   5   1   5   68.99   22.00
   5   1   5   34.70   23.30
  -6  -1  -5   55.39   24.90
  -6  -1  -5    6.80   18.60
  -6  -1  -5   -5.00   11.10
  -6  -1  -5    2.70   10.30
   6   1   5   36.40   23.20
   6   1   5   -8.80   16.60
  -7  -1  -5    8.60   11.20
  -7  -1  -5   26.10   14.40
  -7  -1  -5   27.40   38.20
  -7  -1  -5   32.20   21.60
   7   1   5   -9.70   24.70
   7   1   5   49.20   25.20
  10  -2  -5  -36.60   23.40
  10  -2  -5   11.60   20.20
 -10   2   5  -50.29   18.60
 -10   2   5   -0.10   26.60
 -10   2   5   56.19   28.50
   9  -2  -5   17.30   22.10
   9  -2  -5   43.40   24.60
   9  -2  -5   35.30   19.60
  -9   2   5   36.80   22.70
  -9   2   5   50.19   24.00
  -9   2   5   43.40   20.30
   8  -2  -5   45.60   19.50
   8  -2  -5   55.49   22.10
  -8   2   5   34.40   25.80
  -8   2   5   56.39   23.80
   7  -2  -5  109.69   21.80
   7  -2  -5  114.99   25.80
  -7   2   5   91.99   24.90
  -7   2   5   83.49   27.70
   6  -2  -5   76.39   21.30
   6  -2  -5   87.09   17.10
  -6   2   5   90.79   23.80
  -6   2   5   84.29   26.50
   5  -2  -5  -20.40    9.00
   5  -2  -5   16.90   12.70
   5  -2  -5    4.60    7.20
  -5   2   5    7.90   13.70
  -5   2   5    7.80   15.50
   4  -2  -5   13.20    4.70
   4  -2  -5   -1.40    9.70
   4  -2  -5   13.20    5.00
   4  -2  -5   11.20   11.90
  -4   2   5   15.80   14.10
  -4   2   5   -3.50   12.90
  -4   2   5    9.20   12.70
   3  -2  -5   77.89   11.70
   3  -2  -5   78.59   18.20
   3  -2  -5   51.19   15.50
   3  -2  -5   48.30   19.10
  -3   2   5   77.29   18.40
  -3   2   5   30.20   16.00
  -3   2   5   57.49   16.40
   2  -2  -5  309.67   32.20
   2  -2  -5  324.87   26.20
   2  -2  -5  326.17   30.00
   2  -2  -5  304.07   22.40
  -2   2   5  280.67   31.20
  -2   2   5  356.16   27.60
  -2   2   5  339.37   31.80
   1  -2  -5  242.08   31.70
   1  -2  -5  284.97   23.30
   1  -2  -5  250.27   26.80
   1  -2  -5  270.47   20.80
  -1   2   5  242.28   11.50
  -1   2   5  253.97   28.40
  -1   2   5  240.08   11.50
  -1   2   5  246.88   29.80
   0  -2  -5  120.69   19.70
   0  -2  -5  121.69   20.90
   0  -2  -5  109.49   12.20
   0  -2  -5  124.59   23.30
   0   2   5   91.79   12.10
   0   2   5   98.99   22.90
   0   2   5  117.09   21.00
   0   2   5  147.29   25.60
  -1  -2  -5   88.19   19.00
  -1  -2  -5   86.09   17.60
   1   2   5   81.09    6.80
   1   2   5   49.99   18.90
   1   2   5   57.99   16.20
   1   2   5   65.59   18.60
  -2  -2  -5   34.20   13.80
  -2  -2  -5   42.70   13.50
  -2  -2  -5   30.20   13.50
   2   2   5   35.80   18.40
   2   2   5   27.80   13.40
   2   2   5   12.30   14.60
  -3  -2  -5    0.30   11.20
  -3  -2  -5   49.30   19.20
  -3  -2  -5   18.10   11.80
  -3  -2  -5   -0.20   12.90
   3   2   5   26.80   15.60
   3   2   5   47.00   14.40
   3   2   5   30.30   19.40
  -4  -2  -5   -0.80   14.40
  -4  -2  -5  -23.70    9.90
  -4  -2  -5  -24.40   12.60
  -4  -2  -5   -0.30   10.10
   4   2   5   -1.90   10.40
   4   2   5    3.10   10.10
   4   2   5   -5.80   24.90
  -5  -2  -5   16.60   13.80
  -5  -2  -5    8.80   11.00
  -5  -2  -5    3.20   15.80
   5   2   5  -14.50   16.60
  -6  -2  -5   32.10   14.80
  -6  -2  -5   25.80   24.60
  -6  -2  -5   17.70   10.40
  -6  -2  -5   -0.80   16.50
   6   2   5    3.90   20.00
   6   2   5   30.80   23.40
  -7  -2  -5  -22.50   24.10
  -7  -2  -5   20.80   21.20
  -7  -2  -5    7.50   14.00
   7   2   5  -15.90   20.50
   7   2   5   -6.00   25.00
  10  -3  -5    5.50   22.50
   9  -3  -5   48.60   35.60
  -9   3   5   31.10   22.10
  -9   3   5  -10.30   17.30
   8  -3  -5    9.30   17.90
   8  -3  -5   10.40   14.10
  -8   3   5    5.90   16.80
  -8   3   5    0.90   20.30
   7  -3  -5   15.00   11.50
   7  -3  -5   28.20   18.90
  -7   3   5   31.80   23.20
  -7   3   5   14.90   17.50
   6  -3  -5   -6.50    8.40
   6  -3  -5    7.50   15.30
   6  -3  -5   14.30   16.00
  -6   3   5   18.10   16.60
  -6   3   5  -10.10   18.70
   5  -3  -5   20.50    7.30
   5  -3  -5   13.80   15.60
   5  -3  -5   35.10   17.90
  -5   3   5   33.40   19.40
  -5   3   5   10.20   16.00
   4  -3  -5   39.60   16.30
   4  -3  -5   44.80   18.20
  -4   3   5    8.10   13.60
  -4   3   5   24.20   17.40
  -4   3   5    6.90   12.40
   3  -3  -5   62.89   16.90
   3  -3  -5  117.69   25.00
  -3   3   5   70.59   19.10
  -3   3   5  104.49   22.40
  -3   3   5  111.89   23.20
   2  -3  -5    4.40    8.20
   2  -3  -5   15.20   12.20
  -2   3   5   23.50   12.50
  -2   3   5    3.90   12.40
  -2   3   5   32.60   15.40
   1  -3  -5  304.67   26.60
   1  -3  -5  385.86   33.10
   1  -3  -5  331.17   24.70
   1  -3  -5  343.17   32.40
  -1   3   5  302.87   30.80
  -1   3   5  380.06   27.20
  -1   3   5  335.47   15.60
  -1   3   5  310.47   33.90
   0  -3  -5   51.49   16.20
   0  -3  -5   45.90   15.10
   0  -3  -5   49.40   19.40
   0   3   5   51.69   16.40
   0   3   5   37.90   19.90
   0   3   5   55.49   19.70
   0   3   5   40.10   10.20
   0   3   5   29.40   17.20
  -1  -3  -5  264.87   26.70
  -1  -3  -5  231.08   24.50
  -1  -3  -5  273.87   25.60
   1   3   5  192.58   30.60
   1   3   5  218.28   31.70
   1   3   5  285.57   28.90
   1   3   5  239.98   16.30
  -2  -3  -5   27.00   17.10
  -2  -3  -5   28.80   14.30
  -2  -3  -5   45.30   14.50
   2   3   5   25.60   17.20
   2   3   5   23.20    4.70
   2   3   5    7.10   12.40
   2   3   5   30.50   14.10
  -3  -3  -5   26.10   26.80
  -3  -3  -5    6.80   11.00
  -3  -3  -5   33.40   14.90
   3   3   5   22.50   16.20
   3   3   5   43.80   21.10
   3   3   5    4.50   12.10
  -4  -3  -5   30.00   18.00
  -4  -3  -5   17.90   17.70
  -4  -3  -5   20.60   13.40
  -4  -3  -5    8.40    9.90
   4   3   5  -15.80   16.00
   4   3   5  -13.60    9.30
  -5  -3  -5   30.70   15.50
  -5  -3  -5   28.80   21.10
   5   3   5  -26.80   18.60
   5   3   5   42.80   25.90
  -6  -3  -5   34.50   21.90
  -6  -3  -5   45.60   25.50
  -6  -3  -5    2.60   14.70
   6   3   5   16.10   22.20
   6   3   5  -13.60   22.30
  -7  -3  -5  -14.00   15.90
  -7  -3  -5   19.50   26.60
  -7  -3  -5    0.10   24.60
   7   3   5   10.70   30.60
   7   3   5   56.19   32.70
   9  -4  -5   38.80   24.00
   9  -4  -5  -45.10   16.70
   9  -4  -5    4.70   18.70
  -9   4   5   -9.30   22.30
  -9   4   5   32.60   25.50
  -9   4   5   28.30   24.00
   8  -4  -5  -25.30   11.40
   8  -4  -5    4.40   18.90
   8  -4  -5   23.50   19.60
  -8   4   5   30.60   25.90
  -8   4   5  -39.30   17.40
  -8   4   5  -12.40   18.60
   7  -4  -5   13.00   18.40
   7  -4  -5   -0.20   10.50
   7  -4  -5   24.00   17.70
  -7   4   5  -13.20   17.10
  -7   4   5   20.20   19.90
  -7   4   5   25.10   22.70
   6  -4  -5    2.00   13.70
   6  -4  -5   -4.40    8.10
   6  -4  -5    9.00   14.00
  -6   4   5   17.60   16.90
  -6   4   5   -3.80   15.10
   5  -4  -5   30.80    8.50
   5  -4  -5   68.69   22.20
  -5   4   5   46.40   19.70
  -5   4   5    9.50   18.60
   4  -4  -5   92.19   24.10
   4  -4  -5  113.59   24.10
   4  -4  -5  102.69   26.10
  -4   4   5   97.59   24.30
  -4   4   5   58.89   22.40
  -4   4   5   50.79   20.60
   3  -4  -5  160.48   26.50
   3  -4  -5  141.59   28.50
  -3   4   5   86.19   25.80
  -3   4   5  107.49   22.90
  -3   4   5  136.69   26.80
   2  -4  -5   82.89   18.10
   2  -4  -5  119.59   26.20
  -2   4   5  105.79   21.50
  -2   4   5   92.19   22.50
  -2   4   5  113.99   26.60
   1  -4  -5  105.09   18.50
   1  -4  -5   97.09   17.90
   1  -4  -5   76.39   20.30
  -1   4   5   86.59   21.40
  -1   4   5   72.79   22.40
  -1   4   5   78.69   10.80
  -1   4   5  117.49   19.50
   0  -4  -5    8.50   11.70
   0  -4  -5   18.60   17.40
   0   4   5   43.20   19.60
   0   4   5   25.10   13.30
   0   4   5    4.70   15.40
   0   4   5   33.90   15.20
   0   4   5   22.40   11.40
   0   4   5   60.89   19.70
  -1  -4  -5   30.00   15.40
  -1  -4  -5   58.89   18.40
   1   4   5   49.99   19.60
   1   4   5   14.20   13.80
   1   4   5   23.30   18.10
  -2  -4  -5  -18.00   11.00
  -2  -4  -5    6.60   10.30
   2   4   5    3.40   16.00
   2   4   5    3.50    6.30
   2   4   5   15.40   17.60
   2   4   5   37.00   15.10
   2   4   5    3.30   15.40
  -3  -4  -5    9.80   14.40
  -3  -4  -5  -11.40   14.20
   3   4   5   14.70    5.70
   3   4   5   13.00    5.50
   3   4   5   17.20   18.70
   3   4   5   18.10   12.60
  -4  -4  -5    9.60   15.30
  -4  -4  -5   -7.30   14.00
   4   4   5    8.60   20.50
   4   4   5  -16.50    9.70
  -5  -4  -5   -0.20   17.90
  -5  -4  -5   16.50   19.70
  -5  -4  -5  -10.80   12.90
   5   4   5  -11.90   20.00
   5   4   5  -18.20   18.40
  -6  -4  -5  -29.60   20.70
   6   4   5  -16.70   23.90
   6   4   5  -10.30   21.10
   9  -5  -5   31.70   26.00
   9  -5  -5    5.50   21.80
   9  -5  -5  -23.70   16.70
  -9   5   5  -38.20   26.10
  -9   5   5    1.10   28.60
  -9   5   5  -49.60   23.00
   8  -5  -5   36.60   23.60
   8  -5  -5   31.80   16.60
  -8   5   5   30.10   24.20
  -8   5   5   41.10   25.50
   7  -5  -5   42.90   22.70
   7  -5  -5   65.79   26.70
   7  -5  -5   27.70   12.40
  -7   5   5    7.10   23.60
  -7   5   5   72.99   26.50
  -7   5   5   13.00   22.10
   6  -5  -5   98.89   27.20
   6  -5  -5   86.79   14.60
  -6   5   5   90.59   27.90
  -6   5   5   80.99   25.80
   5  -5  -5  170.38   33.00
   5  -5  -5  166.48   14.20
   5  -5  -5  144.29   29.70
   5  -5  -5  208.98   37.00
  -5   5   5  167.28   33.30
  -5   5   5  197.58   35.20
   4  -5  -5  420.26   38.80
   4  -5  -5  394.66   42.20
  -4   5   5  397.06   39.70
  -4   5   5  397.36   51.59
   3  -5  -5  283.87   39.70
   3  -5  -5  339.87   35.10
  -3   5   5  307.97   33.60
  -3   5   5  311.37   37.40
  -3   5   5  381.46   44.70
   2  -5  -5   34.00   19.10
   2  -5  -5   11.50   12.70
  -2   5   5   14.40   16.00
  -2   5   5   21.80   14.20
  -2   5   5   14.90    5.70
  -2   5   5   21.70   15.10
   1  -5  -5  211.08   33.00
  -1   5   5  234.48   32.20
  -1   5   5  228.08   29.80
  -1   5   5  188.58   32.20
  -1   5   5  182.38   29.70
  -1   5   5  194.08   17.70
   0   5   5   46.10   17.10
   0   5   5   37.70   13.00
   0   5   5   39.30   19.40
   0   5   5   57.39   21.10
   0   5   5   25.90   11.60
   0   5   5   54.69   23.20
  -1  -5  -5  -17.70   11.70
   1   5   5   -1.40   14.70
   1   5   5   -1.70   11.00
   1   5   5   -8.10   15.40
   1   5   5   20.00   15.30
   1   5   5    0.30    8.90
   1   5   5   -7.80   16.50
  -2  -5  -5  112.19   24.60
   2   5   5  107.49   25.60
   2   5   5   86.59   19.80
   2   5   5  127.49   30.60
   2   5   5   83.09   25.20
   2   5   5   99.59   15.90
  -3  -5  -5   22.30   17.30
   3   5   5  -14.20   23.20
   3   5   5   24.40   14.80
   3   5   5   27.40   20.00
   3   5   5    8.30   19.10
   3   5   5   34.20   15.10
  -4  -5  -5    0.50   15.30
   4   5   5  -11.80   17.70
   4   5   5   10.60   12.00
   4   5   5   -8.30   20.20
   4   5   5   -2.10    9.00
   4   5   5  -23.80   18.90
   4   5   5   -3.50    6.10
  -5  -5  -5  167.18   32.10
   5   5   5  125.29    8.70
   5   5   5  131.49    9.80
   5   5   5   99.99   33.70
   5   5   5  134.39   34.60
   5   5   5  121.59   33.00
   8  -6  -5   41.10   26.80
   8  -6  -5   -1.50   13.10
   8  -6  -5   28.00   24.60
  -8   6   5   41.00   27.50
  -8   6   5    4.10   23.80
  -8   6   5   23.10   32.30
   7  -6  -5   57.19   14.40
   7  -6  -5   41.60   23.00
   7  -6  -5   21.50   21.90
   7  -6  -5   53.69   24.40
  -7   6   5   47.50   27.50
  -7   6   5   79.79   29.10
  -7   6   5   96.19   31.80
   6  -6  -5   97.09   30.40
   6  -6  -5  151.38   17.60
   6  -6  -5  169.88   34.30
   6  -6  -5  171.68   33.60
  -6   6   5  170.38   35.50
  -6   6   5  145.79   32.20
   5  -6  -5  124.39   29.80
   5  -6  -5   99.89   31.70
  -5   6   5   98.99   28.00
  -5   6   5  133.09   30.90
   4  -6  -5   -5.40   13.20
   4  -6  -5   -2.60   19.20
  -4   6   5   14.80   20.40
  -4   6   5   -1.20   17.50
   3  -6  -5   -4.50   13.70
   3  -6  -5   29.70   17.30
  -3   6   5   -0.90   17.00
  -3   6   5   -0.10   17.10
   2  -6  -5   60.99   27.00
  -2   6   5  152.68   28.20
  -2   6   5  129.99   47.70
  -2   6   5  172.48   16.00
   1  -6  -5  -27.20   15.10
  -1   6   5   14.70   14.00
  -1   6   5  -13.20   13.50
  -1   6   5   -5.80    8.80
  -1   6   5    8.80   13.50
  -1   6   5   12.30   15.60
   0   6   5  113.89   25.30
   0   6   5   65.49   18.70
   0   6   5   44.40   23.20
   0   6   5   92.89   20.00
   0   6   5  107.99   25.00
   0   6   5   78.09   17.30
   0   6   5   46.30   19.90
  -1  -6  -5  -11.10   15.30
   1   6   5   -4.30   14.30
   1   6   5    5.40   12.20
   1   6   5    6.70   17.80
   1   6   5    2.30   16.00
   1   6   5   -5.30    9.30
   1   6   5  -26.10   12.40
  -2  -6  -5  -14.50   16.10
   2   6   5    5.50   16.00
   2   6   5  -14.30   16.50
   2   6   5    2.50   10.90
   2   6   5  -23.00    9.80
   2   6   5   -0.10   14.10
   2   6   5   10.80   21.50
  -3  -6  -5   46.70   22.90
   3   6   5   61.19   13.80
   3   6   5   88.29   33.60
   3   6   5   39.20   16.00
   3   6   5   69.39   25.50
   3   6   5   11.10   17.80
   3   6   5   50.09   25.60
  -4  -6  -5   26.00   21.50
   4   6   5  -15.20   19.70
   4   6   5  -31.40   23.10
   4   6   5   12.00   11.90
   4   6   5    8.90   18.30
   4   6   5   -1.30    9.00
  -5  -6  -5   27.60   20.50
   5   6   5    7.00   16.00
   5   6   5   -7.80   27.70
   5   6   5   11.30   25.50
   5   6   5    2.80   10.10
   7  -7  -5    9.20   12.10
   7  -7  -5   29.90   26.40
   7  -7  -5  -44.70   20.00
   7  -7  -5  -41.90   20.00
  -7   7   5   41.50   31.20
  -7   7   5  -23.40   20.60
  -7   7   5   24.80   29.30
   6  -7  -5   21.70   23.00
   6  -7  -5   23.80   10.90
   6  -7  -5   69.89   26.80
   6  -7  -5   27.40   22.70
  -6   7   5   10.80   24.70
  -6   7   5   30.60   25.10
   5  -7  -5  -33.60   19.70
   5  -7  -5   -8.40   17.60
   5  -7  -5   -9.10   18.70
  -5   7   5   43.60   22.20
  -5   7   5    3.50   22.40
   4  -7  -5  -27.90   14.20
   4  -7  -5   -0.10   19.10
  -4   7   5   -5.90   15.00
  -4   7   5   29.10   20.80
   3  -7  -5   -2.90   16.20
   3  -7  -5  -15.20   13.90
  -3   7   5   -7.60   16.40
  -3   7   5    8.40   17.00
  -3   7   5    8.60    8.40
   2  -7  -5   -5.00   16.90
  -2   7   5    3.30   18.70
  -2   7   5   -7.10   10.70
  -2   7   5   -2.30   15.00
  -2   7   5  -37.00   13.60
  -1   7   5  112.19   24.00
  -1   7   5   22.10   23.00
  -1   7   5   58.29   27.80
  -1   7   5  100.79   24.50
  -1   7   5   76.09   16.00
  -1   7   5   62.59   23.10
   0   7   5   37.50   23.30
   0   7   5   28.50   19.60
   0   7   5   16.30   13.80
   0   7   5   32.20   20.80
   0   7   5   -8.50   13.10
   0   7   5   49.90   17.10
  -1  -7  -5   -8.00   15.10
   1   7   5    5.70   14.50
   1   7   5   -1.60   17.00
   1   7   5    0.20   14.70
   1   7   5   -5.30   12.80
   1   7   5   27.40   20.50
   1   7   5   -8.70   19.90
  -2  -7  -5   19.70   19.40
   2   7   5  -52.59   20.50
   2   7   5   26.70   19.30
   2   7   5   -4.50   15.80
   2   7   5    0.70   15.20
   2   7   5   -5.00   11.30
   2   7   5    8.90   18.40
   2   7   5   46.30   25.00
  -3  -7  -5   28.60   21.60
   3   7   5   20.40   17.10
   3   7   5   35.50   24.20
   3   7   5   10.70   12.10
   3   7   5   24.80   27.40
   3   7   5   52.19   25.40
   3   7   5   42.00   27.50
  -4  -7  -5   96.19   30.50
   4   7   5   67.49   15.60
   4   7   5   47.50   30.30
   4   7   5   38.70   14.90
   4   7   5   37.10   28.30
   4   7   5   -8.90   35.40
   6  -8  -5   45.80   13.50
   6  -8  -5   12.30   24.80
   6  -8  -5   20.40   25.90
  -6   8   5    7.50   34.70
  -6   8   5   48.70   26.90
   5  -8  -5  -32.70   17.70
   5  -8  -5  -32.50   18.60
   5  -8  -5   21.60   22.10
  -5   8   5   -6.70   26.00
  -5   8   5  -14.70   18.40
   4  -8  -5  -14.10   19.10
   4  -8  -5  -11.30   16.90
   4  -8  -5   23.70   19.50
  -4   8   5  -41.60   15.80
  -4   8   5   16.70   23.00
   3  -8  -5    7.10   20.50
  -3   8   5   13.50    9.90
  -3   8   5  -16.90   17.30
  -3   8   5   45.10   20.20
  -2   8   5   15.20   20.80
  -2   8   5   -5.30   11.10
  -2   8   5  -19.60   23.20
  -2   8   5   13.00   14.80
  -2   8   5    0.50   16.30
  -1   8   5   54.79   16.50
  -1   8   5   14.70   22.40
  -1   8   5   54.09   21.90
  -1   8   5   11.20   31.90
  -1   8   5   44.20   18.60
  -1   8   5   45.70   25.90
   0   8   5   10.10   17.10
   0   8   5  -32.10   21.00
   0   8   5  -19.60   14.80
   0   8   5   11.40   18.30
   0   8   5  -33.10   17.40
   0   8   5   42.70   27.10
   0   8   5  -15.90   16.40
  -1  -8  -5   -8.50   16.90
   1   8   5   31.00   21.10
   1   8   5   14.10   16.80
   1   8   5   -0.20   25.70
   1   8   5   32.80   26.80
   1   8   5  -26.20   16.20
   1   8   5    2.00   16.50
   1   8   5   11.00   17.70
  -2  -8  -5   85.89   29.20
   2   8   5   82.39   21.70
   2   8   5   83.19   31.30
   2   8   5  105.29   26.40
   2   8   5  104.89   28.00
   2   8   5   47.30   25.20
   2   8   5  104.19   34.90
   4  -9  -5   30.90   23.00
  -4   9   5  -41.20   20.40
  -3   9   5   11.20   11.80
  -3   9   5  -37.60   21.50
  -3   9   5  -10.00   20.80
  -2   9   5  178.38   38.30
  -2   9   5  128.99   21.40
  -2   9   5  130.99   26.10
  -2   9   5   66.29   27.90
  -2   9   5  200.68   36.00
  -1   9   5  124.09   30.90
  -1   9   5  166.28   30.10
  -1   9   5   88.29   33.80
  -1   9   5  155.58   33.30
  -1   9   5  168.48   32.40
  -1   9   5  163.28   26.10
   0   9   5   22.40   20.50
   0   9   5   28.60   28.20
   0   9   5   -0.50   19.40
   0   9   5   11.80   21.60
   0   9   5   19.20   22.30
   0   9   5    8.20   22.40
   1  12  -6    0.80   29.20
   1  12  -6  -20.80   23.90
   1  12  -6   43.10   26.70
  -1 -12   6   30.50   31.60
  -1 -12   6   17.30   23.60
  -1 -12   6   31.20   21.00
   0  12  -6  -28.80   28.10
   0  12  -6  -24.20   22.30
   0  12  -6  -14.20   24.00
   0 -12   6  -28.00   27.80
   0 -12   6    7.20   23.10
   0 -12   6   14.20   21.80
  -1  12  -6   56.09   32.60
  -1  12  -6   19.90   29.30
  -1  12  -6  -57.09   23.60
   1 -12   6  -24.50   20.40
   1 -12   6   24.40   22.30
   4  11  -6   56.59   30.50
   4  11  -6   98.39   25.10
  -4 -11   6   57.09   29.90
   3  11  -6   -2.60   19.00
   3  11  -6   29.30   26.50
  -3 -11   6   27.40   15.70
  -3 -11   6  -41.70   18.10
   2  11  -6   -3.00   11.90
   2  11  -6   35.30   21.60
   2  11  -6    6.90   19.00
  -2 -11   6   23.90   28.10
  -2 -11   6   10.70   16.40
  -2 -11   6   40.00   25.70
   1  11  -6   24.10   25.60
   1  11  -6    8.90   15.10
   1  11  -6   11.10   22.50
  -1 -11   6   18.20   25.80
  -1 -11   6    1.40   16.40
   0  11  -6   29.20   23.00
   0  11  -6  -16.80   19.90
   0  11  -6    8.50   21.00
   0 -11   6   -8.30   15.30
   0 -11   6  -12.50   18.80
  -1  11  -6   22.80   21.80
  -1  11  -6  -54.29   22.40
  -1  11  -6   -3.00   23.40
   1 -11   6  -10.10   18.70
   1 -11   6  -16.50   26.30
  -2  11  -6   29.30   13.00
  -2  11  -6   38.80   24.10
  -2  11  -6  -24.60   23.70
  -2  11  -6   -2.20   24.70
   2 -11   6   44.30   27.10
   2 -11   6   19.20   26.90
  -3  11  -6   17.20   15.20
  -3  11  -6   33.10   26.10
  -3  11  -6  -12.30   23.50
   3 -11   6   27.10   27.40
   5  10  -6   39.10   19.10
   5  10  -6   55.49   28.90
  -5 -10   6    5.70   17.70
   4  10  -6    9.10   17.30
   4  10  -6   45.40   20.60
  -4 -10   6   19.30   19.80
   3  10  -6    3.40   15.10
   3  10  -6  -19.70   20.40
  -3 -10   6    1.40   18.40
  -3 -10   6    8.30   10.20
   2  10  -6   70.39   27.60
   2  10  -6   52.19   20.10
  -2 -10   6   54.99   17.50
  -2 -10   6   43.10   24.30
  -2 -10   6   45.90   23.10
   1  10  -6    4.20   16.20
   1  10  -6   -6.50   20.20
   1  10  -6    7.50    5.90
  -1 -10   6   -4.50   19.70
  -1 -10   6  -16.90   12.80
   0  10  -6   97.69   28.60
   0  10  -6   97.79   27.40
   0  10  -6   45.20   26.20
   0 -10   6   85.59   36.90
   0 -10   6   37.00   23.80
  -1  10  -6  -29.70   17.20
  -1  10  -6   11.00   21.10
  -1  10  -6  -32.80   16.50
   1 -10   6   -7.50   19.60
   1 -10   6  -10.60   17.70
  -2  10  -6  -16.00   12.30
  -2  10  -6    6.20   23.40
  -2  10  -6  -20.00   17.60
  -2  10  -6    6.70   22.60
   2 -10   6   17.10   19.60
   2 -10   6   27.70   20.40
  -3  10  -6   59.59   18.50
  -3  10  -6   28.50   26.90
  -3  10  -6   60.49   27.40
  -4  10  -6   51.29   21.40
  -4  10  -6  -18.00   23.50
  -4  10  -6   36.90   24.50
  -4  10  -6   15.00   26.40
   4 -10   6    3.40   24.50
   7   9  -6   19.70   12.50
   7   9  -6   21.70   24.00
  -7  -9   6   23.00   25.30
   6   9  -6   11.60   12.80
   6   9  -6   -9.00   23.30
  -6  -9   6   -4.90   20.20
   5   9  -6  -31.40   21.10
   5   9  -6   19.80   15.30
  -5  -9   6    0.90   18.90
   4   9  -6   25.10   15.20
   4   9  -6   36.20   23.10
  -4  -9   6    1.50   19.30
   3   9  -6  -47.70   16.30
  -3  -9   6    9.20   10.20
  -3  -9   6   -4.40   18.50
   2   9  -6   71.59   21.70
   2   9  -6   -9.30   19.50
  -2  -9   6   17.60   23.70
  -2  -9   6   43.30   15.70
   1   9  -6  147.09   31.20
   1   9  -6  129.49   30.70
  -1  -9   6  115.19   27.40
   0   9  -6   -1.20   17.90
   0   9  -6   -1.50   18.40
   0  -9   6   -3.20   18.20
  -1   9  -6  573.84   50.99
  -1   9  -6  564.94   53.89
  -1   9  -6  538.45   51.29
   1  -9   6  555.54   32.50
   1  -9   6  551.14   42.00
  -2   9  -6  142.29   33.50
  -2   9  -6  119.49   21.20
  -2   9  -6  133.99   34.80
  -2   9  -6   85.39   26.50
   2  -9   6  129.39   25.60
   2  -9   6   94.09   20.10
  -3   9  -6   33.90   25.00
  -3   9  -6   83.39   29.30
  -3   9  -6   63.79   25.60
  -3   9  -6   71.89   19.50
   3  -9   6   42.50   20.90
   3  -9   6   44.90   18.90
  -4   9  -6   -7.30   21.00
  -4   9  -6   11.40   21.00
  -4   9  -6  -12.10   14.50
  -4   9  -6   52.29   24.20
   4  -9   6   22.20   21.90
   4  -9   6   13.90   22.60
  -5   9  -6   -8.90   20.40
  -5   9  -6   23.30   22.40
  -5   9  -6    6.50   22.70
   5  -9   6  -22.40   19.80
   5  -9   6   14.40   21.60
   7   8  -6   62.59   31.30
   7   8  -6  -20.40   23.80
   7   8  -6    0.80   11.70
  -7  -8   6   17.10   11.20
  -7  -8   6    7.20   21.40
   6   8  -6   -7.40   20.60
   6   8  -6  -31.90   11.70
  -6  -8   6   -0.90   20.20
   5   8  -6   51.09   21.20
   5   8  -6   28.00   15.50
  -5  -8   6   33.60   23.10
   4   8  -6  203.28   29.80
   4   8  -6  182.68   34.10
  -4  -8   6  197.28   36.00
   3   8  -6  176.98   34.60
   3   8  -6  111.29   24.10
  -3  -8   6  164.08   32.70
   2   8  -6   73.79   22.20
   2   8  -6   37.40   20.90
  -2  -8   6   65.69   22.00
  -2  -8   6   76.99   22.90
   1   8  -6  525.85   57.79
   1   8  -6  674.43   59.19
  -1  -8   6  656.93   52.39
  -1  -8   6  603.64   24.00
  -1  -8   6  655.13   46.20
   0   8  -6  513.35   48.20
   0   8  -6  567.44   47.30
   0  -8   6  518.95   48.10
   0  -8   6  527.35   39.50
  -1   8  -6  145.19   31.40
  -1   8  -6  154.38   30.10
  -1   8  -6  127.89   20.00
  -1   8  -6  172.48   32.00
   1  -8   6  139.09   21.00
   1  -8   6  154.38   26.90
  -2   8  -6   23.80   14.10
  -2   8  -6   23.00   19.10
  -2   8  -6   23.40   21.90
   2  -8   6    5.30   13.10
   2  -8   6  -12.70   11.80
  -3   8  -6  228.98   32.40
  -3   8  -6  169.38   34.40
  -3   8  -6  174.18   37.70
   3  -8   6  248.68   34.10
  -4   8  -6  -18.10   16.70
  -4   8  -6   24.70   23.10
  -4   8  -6    9.60   17.80
  -4   8  -6   12.20   16.80
   4  -8   6   44.20   20.00
   4  -8   6   12.00   24.70
  -5   8  -6   15.40   20.40
  -5   8  -6   36.20   21.30
  -5   8  -6   44.30   23.60
   5  -8   6   35.10   22.10
   5  -8   6   25.20   23.90
  -6   8  -6    1.70   24.40
  -6   8  -6    3.40   20.80
  -6   8  -6    0.50   25.50
   6  -8   6   37.40   25.80
   6  -8   6   17.10   26.60
   8   7  -6  -47.60   25.00
   8   7  -6    0.70   20.90
   8   7  -6  -37.60   21.00
  -8  -7   6   16.80   16.50
   7   7  -6    6.70   23.40
   7   7  -6   55.19   29.20
   7   7  -6   15.40   12.70
  -7  -7   6    7.30   11.90
   6   7  -6  -12.00   10.70
   6   7  -6    7.30   18.60
  -6  -7   6    9.10    9.80
   5   7  -6    0.30   15.80
   5   7  -6   14.00   13.00
  -5  -7   6   13.30    8.20
   4   7  -6    9.00   12.30
  -4  -7   6  -10.40   16.20
  -4  -7   6   11.50    7.40
  -4  -7   6    4.60    6.80
   3   7  -6  108.59   25.40
   3   7  -6   93.89   22.00
  -3  -7   6   58.49   21.70
  -3  -7   6   56.49   21.60
  -3  -7   6   78.29   10.10
   2   7  -6  775.22   50.09
   2   7  -6  799.32   55.99
  -2  -7   6  749.62   29.50
  -2  -7   6  802.12   57.59
  -2  -7   6  764.92   47.90
   1   7  -6   68.29   22.80
   1   7  -6   40.80   17.90
  -1  -7   6   88.99   21.80
  -1  -7   6   66.29   23.00
  -1  -7   6   41.40   10.90
   0   7  -6   21.70    5.30
   0   7  -6   15.80   18.80
   0   7  -6   27.50   16.10
   0  -7   6   29.10   15.20
   0  -7   6   19.30   11.10
   0  -7   6   54.99   25.80
  -1   7  -6   -5.60   11.60
  -1   7  -6  -10.80   10.80
  -1   7  -6    9.80   17.20
  -1   7  -6    0.90   10.70
   1  -7   6   12.80   12.10
   1  -7   6    2.80   10.80
   1  -7   6   -6.00   14.50
  -2   7  -6  -25.10   13.90
  -2   7  -6    8.50   12.70
   2  -7   6   -6.20   12.10
   2  -7   6   -9.60   10.60
   2  -7   6   -2.10   12.70
  -3   7  -6    6.90   13.90
  -3   7  -6   15.20   17.80
  -3   7  -6  -36.40   13.30
   3  -7   6    4.30   16.60
  -4   7  -6    6.80   14.90
  -4   7  -6   -8.30   16.00
  -4   7  -6   32.00   20.10
   4  -7   6   11.70   18.10
  -5   7  -6   19.80   20.60
  -5   7  -6   -4.80   20.40
  -5   7  -6   21.20   20.60
   5  -7   6   10.20   20.30
   5  -7   6   19.40   21.20
  -6   7  -6   59.89   25.00
  -6   7  -6  112.69   32.90
  -6   7  -6   42.50   26.40
   6  -7   6  113.69   33.80
   6  -7   6   58.19   14.00
   6  -7   6  118.99   32.80
   9   6  -6  -41.30   28.50
   9   6  -6   43.10   33.70
   9   6  -6    0.50   21.70
  -9  -6   6    4.40   18.90
   8   6  -6   -9.60   25.90
   8   6  -6   48.10   28.60
   8   6  -6  -10.40   19.70
  -8  -6   6  -16.50   14.00
   7   6  -6   21.60   25.00
   7   6  -6  -11.70   20.60
   7   6  -6  -16.00   10.30
  -7  -6   6    3.90   12.60
   6   6  -6   23.80   13.80
   6   6  -6   28.20   21.10
  -6  -6   6   69.89   16.80
   5   6  -6   90.49   20.60
   5   6  -6  133.19   29.90
  -5  -6   6  153.08   19.80
   4   6  -6    0.10   16.40
   4   6  -6   13.50   13.10
   3   6  -6  340.07   36.30
   3   6  -6  282.87   30.40
  -3  -6   6  343.27   36.80
   2   6  -6  -22.60    9.50
   2   6  -6   -2.70   15.40
  -2  -6   6   25.00   15.40
  -2  -6   6    8.90    8.90
  -2  -6   6   14.50   13.50
   1   6  -6  133.29   25.30
   1   6  -6  110.89   25.10
  -1  -6   6  121.39   24.30
  -1  -6   6  133.49   21.40
  -1  -6   6  107.79   16.20
   0   6  -6   20.40   15.50
   0   6  -6    7.00   14.90
   0   6  -6   18.80    7.90
   0  -6   6   10.00   10.90
   0  -6   6   16.10   12.10
   0  -6   6   21.20   15.70
  -1   6  -6   13.90   12.40
  -1   6  -6   68.19   22.00
  -1   6  -6   17.90   15.70
  -1   6  -6   25.80   13.10
   1  -6   6    4.80   11.90
   1  -6   6   38.70   13.30
   1  -6   6  -16.90    8.50
  -2   6  -6    9.80   11.60
  -2   6  -6    6.20   12.80
  -2   6  -6  -13.40   11.30
   2  -6   6  -14.50   12.30
  -3   6  -6   -1.50   14.40
  -3   6  -6   13.80   12.50
  -3   6  -6    7.50   14.20
   3  -6   6    0.40   13.30
   3  -6   6   35.50   19.50
  -4   6  -6   20.90   20.10
  -4   6  -6   20.10   17.60
  -4   6  -6   14.30   14.30
   4  -6   6  -10.70   17.90
   4  -6   6    6.60    8.80
   4  -6   6    8.70   17.50
  -5   6  -6  -14.10   14.00
  -5   6  -6    4.80   17.90
   5  -6   6    6.40   22.40
   5  -6   6  -16.90   16.90
   5  -6   6   13.90   10.80
  -6   6  -6  207.78   36.20
  -6   6  -6   92.19   22.80
  -6   6  -6  155.78   34.50
   6  -6   6  105.49   19.00
   6  -6   6  121.59   31.50
   6  -6   6  118.09   38.00
  -7   6  -6   16.50   24.60
  -7   6  -6   36.60   19.80
  -7   6  -6  100.49   34.40
  -7   6  -6   19.10   24.30
   7  -6   6    1.90   27.10
   7  -6   6    6.40   14.30
   7  -6   6   20.90   28.10
   9   5  -6  -25.40   21.20
   9   5  -6   -2.40   25.00
  -9  -5   6   21.90   27.00
   8   5  -6    7.80   16.30
   8   5  -6    6.70   21.30
   8   5  -6    4.50   25.10
  -8  -5   6   23.40   13.20
   7   5  -6    6.50   17.50
   7   5  -6    1.00   10.90
   7   5  -6  -43.60   14.20
  -7  -5   6   12.30   12.40
  -7  -5   6   17.90   15.00
   6   5  -6   13.00   12.00
   6   5  -6    7.20   14.70
  -6  -5   6    6.00   11.80
  -6  -5   6   -0.40   11.50
   5   5  -6  377.26   31.90
   5   5  -6  342.47   37.00
  -5  -5   6  318.97   32.40
  -5  -5   6  323.47   27.90
   4   5  -6    3.80   13.10
   4   5  -6   17.00   12.30
  -4  -5   6    0.30   11.20
   3   5  -6  107.99   23.20
   3   5  -6  123.79   22.50
  -3  -5   6  137.89   24.80
  -3  -5   6  126.19   22.80
   2   5  -6 1379.36   63.99
   2   5  -6 1427.86   66.09
  -2  -5   6 1314.37   52.09
  -2  -5   6 1421.46   64.59
  -2  -5   6 1285.57   62.59
   1   5  -6  157.78   26.60
   1   5  -6  153.88   26.00
  -1  -5   6  157.38   20.20
  -1  -5   6  137.19   25.60
  -1  -5   6  175.18   19.00
   0   5  -6   68.79   13.00
   0   5  -6   76.69   21.10
   0   5  -6   66.49   19.60
   0  -5   6   70.89   16.10
   0  -5   6  130.99   25.00
   0  -5   6   64.49   18.60
  -1   5  -6   26.80   17.00
  -1   5  -6    5.90   14.60
  -1   5  -6    8.00   11.60
   1  -5   6   13.60   14.10
   1  -5   6   11.60    8.10
   1  -5   6   17.80   13.70
  -2   5  -6   12.10   12.30
  -2   5  -6   35.60   17.90
  -2   5  -6   24.00   15.20
  -2   5  -6    2.80   15.70
   2  -5   6   32.80   15.10
   2  -5   6   26.20   16.50
  -3   5  -6    0.50   11.50
  -3   5  -6  -13.30   16.40
  -3   5  -6   26.40   14.90
  -3   5  -6    1.70   15.50
   3  -5   6   -9.70   12.90
   3  -5   6   21.00   21.00
   3  -5   6   -2.10    7.60
  -4   5  -6   20.60   17.10
  -4   5  -6   12.20   16.70
  -4   5  -6   32.30   14.90
   4  -5   6  -16.20   14.40
   4  -5   6    7.70   10.70
   4  -5   6   13.90   19.50
  -5   5  -6   53.69   17.50
  -5   5  -6   81.09   24.90
  -5   5  -6   32.70   18.20
   5  -5   6   54.39   25.90
   5  -5   6   43.90   15.00
   5  -5   6   43.70   23.80
  -6   5  -6   55.09   26.30
  -6   5  -6   56.29   19.80
   6  -5   6   20.50   24.70
   6  -5   6   12.20   15.10
   6  -5   6   39.40   27.50
  -7   5  -6  206.88   38.30
  -7   5  -6  207.28   31.70
  -7   5  -6  240.18   44.30
  -7   5  -6  172.48   30.90
   7  -5   6   72.99   37.80
   7  -5   6  209.88   44.50
   9   4  -6   20.10   17.30
   9   4  -6  -20.30   33.10
   9   4  -6   63.09   28.20
  -9  -4   6  -11.20   12.80
   8   4  -6   52.79   18.30
   8   4  -6   62.49   25.40
   8   4  -6   41.60   27.00
  -8  -4   6   55.89   22.40
  -8  -4   6   61.69   17.60
   7   4  -6  417.96   33.40
   7   4  -6  494.65   54.99
  -7  -4   6  450.15   36.10
  -7  -4   6  393.56   37.40
   6   4  -6  437.26   35.10
   6   4  -6  498.15   42.30
  -6  -4   6  445.66   36.50
  -6  -4   6  486.95   37.80
   5   4  -6  544.85   37.60
   5   4  -6  572.64   45.40
   5   4  -6  495.55   39.70
  -5  -4   6  494.15   36.80
   4   4  -6  301.07   29.10
   4   4  -6  269.47   30.50
  -4  -4   6  260.57   28.80
  -4  -4   6  241.78   14.00
   3   4  -6  335.87   30.80
   3   4  -6  286.37   29.90
  -3  -4   6  266.47   28.20
  -3  -4   6  373.36   33.10
   2   4  -6  874.81   48.50
   2   4  -6  864.91   46.80
  -2  -4   6  811.72   48.30
  -2  -4   6  835.62   42.20
  -2  -4   6  822.72   45.60
   1   4  -6  325.47   31.60
   1   4  -6  212.08   27.70
  -1  -4   6  252.07   24.30
  -1  -4   6  231.88   26.50
  -1  -4   6  213.68   25.20
   0   4  -6   -2.60    8.20
   0   4  -6    4.70   13.60
   0   4  -6    2.60    8.60
   0  -4   6   -0.80   12.10
   0  -4   6    2.70    6.80
   0  -4   6    6.80   11.00
   0  -4   6  -24.30    8.00
  -1   4  -6    2.20   10.60
  -1   4  -6   15.90   13.40
  -1   4  -6  -12.70   10.60
   1  -4   6    7.00   11.50
   1  -4   6   -1.20   12.80
   1  -4   6   -5.70    5.10
  -2   4  -6  347.07   35.80
  -2   4  -6  333.87   26.70
  -2   4  -6  312.97   31.80
  -2   4  -6  382.96   36.40
   2  -4   6  331.07   34.60
   2  -4   6  363.46   35.10
  -3   4  -6  123.39   19.20
  -3   4  -6  156.78   27.70
  -3   4  -6   95.19   23.90
   3  -4   6  158.48   28.70
   3  -4   6  170.28   29.80
   3  -4   6  113.49   19.40
  -4   4  -6  337.77   42.70
  -4   4  -6  353.36   28.70
  -4   4  -6  345.97   41.40
   4  -4   6  362.66   41.10
   4  -4   6  355.16   31.40
   4  -4   6  386.76   42.80
  -5   4  -6   30.30   19.80
  -5   4  -6    6.60   16.90
  -5   4  -6   19.80   13.50
   5  -4   6   -0.10   19.20
   5  -4   6    9.00   14.60
   5  -4   6   21.50   21.70
  -6   4  -6   27.60   21.90
  -6   4  -6   17.10   20.60
  -6   4  -6   74.59   23.60
  -6   4  -6   66.79   18.10
   6  -4   6   66.49   19.40
   6  -4   6   91.29   32.50
   6  -4   6   72.19   28.20
  -7   4  -6   -0.90   16.30
  -7   4  -6   -7.80   23.30
  -7   4  -6   20.40   18.20
   7  -4   6   31.20   29.90
   7  -4   6  -40.30   20.40
   7  -4   6    9.10   19.30
  10   3  -6  -13.30   25.50
  10   3  -6   -5.70   23.20
  10   3  -6    7.90   28.50
 -10  -3   6   30.60   18.50
 -10  -3   6   41.10   25.60
   9   3  -6  -22.50   13.60
   9   3  -6    4.60   17.60
   9   3  -6    5.20   19.30
  -9  -3   6   13.00   19.80
  -9  -3   6   10.10   15.60
   8   3  -6   -6.80   19.30
   8   3  -6   -2.40   12.10
   8   3  -6   35.10   21.10
  -8  -3   6    6.60   17.10
  -8  -3   6  -13.50   13.20
   7   3  -6   37.60   15.70
   7   3  -6   41.90   21.10
  -7  -3   6   54.49   19.30
  -7  -3   6   22.10   17.10
   6   3  -6   94.69   25.80
   6   3  -6  112.69   24.70
   6   3  -6  143.29   23.50
  -6  -3   6   95.69   21.10
   5   3  -6   35.40   15.00
   5   3  -6   52.19   16.30
   5   3  -6   22.30   17.10
  -5  -3   6   72.69   18.80
   4   3  -6    9.30   11.40
   4   3  -6   -5.70    9.70
   4   3  -6   -3.70   10.50
  -4  -3   6   -7.40   12.10
  -4  -3   6    3.20    6.80
   3   3  -6   20.00   11.60
   3   3  -6   -3.80   11.20
   3   3  -6  -13.50   10.20
  -3  -3   6   15.50   12.80
   2   3  -6   13.00   11.20
   2   3  -6    1.10   10.40
  -2  -3   6    2.20   13.00
  -2  -3   6   -1.90    8.20
   1   3  -6   97.59   20.30
   1   3  -6   79.99   17.20
   1   3  -6   96.59   17.90
  -1  -3   6   77.99   17.90
  -1  -3   6   75.59   19.80
  -1  -3   6   68.89   15.90
   0   3  -6   18.50   14.00
   0   3  -6   37.60   15.10
   0   3  -6   22.80   12.30
   0  -3   6   41.60   15.20
   0  -3   6   27.60   15.90
   0  -3   6   22.50   12.10
  -1   3  -6    6.70   11.10
  -1   3  -6   14.80   13.90
  -1   3  -6   -2.20    8.80
  -1   3  -6  -10.00   11.40
   1  -3   6    6.70   12.00
   1  -3   6  -11.20   12.00
   1  -3   6   13.80   11.60
  -2   3  -6  264.67   30.20
  -2   3  -6  257.07   29.80
  -2   3  -6  325.77   32.20
   2  -3   6  280.57   32.50
   2  -3   6  292.07   31.90
   2  -3   6  284.97   26.50
  -3   3  -6   65.89   20.40
  -3   3  -6   34.70   18.00
   3  -3   6   31.90   14.60
   3  -3   6   22.10   17.50
   3  -3   6   39.10   18.60
  -4   3  -6   41.10   18.70
  -4   3  -6   52.79   13.30
  -4   3  -6   12.60   15.00
   4  -3   6   23.10   15.60
   4  -3   6   20.00   19.50
   4  -3   6   68.19   24.20
  -5   3  -6   -6.70   16.10
  -5   3  -6   15.50   10.30
  -5   3  -6    9.80   14.60
   5  -3   6   -9.70   14.10
   5  -3   6    5.10   12.80
   5  -3   6   50.49   23.70
  -6   3  -6   -5.50   10.80
  -6   3  -6    1.70   15.90
  -6   3  -6   24.30   24.00
  -6   3  -6    1.10   13.70
   6  -3   6   -4.50   20.30
   6  -3   6   14.20   23.00
   6  -3   6   39.30   18.80
  -7   3  -6  -14.70   19.50
  -7   3  -6  -13.60   21.70
  -7   3  -6   -3.50   12.50
  -7   3  -6   11.70   19.20
   7  -3   6    9.10   23.10
   7  -3   6    7.70   25.50
  10   2  -6   33.50   15.80
  10   2  -6   -7.80   25.10
 -10  -2   6  136.09   41.30
 -10  -2   6   84.79   23.80
   9   2  -6  169.58   40.40
   9   2  -6  141.39   20.70
  -9  -2   6  154.58   26.40
  -9  -2   6  158.58   32.80
   8   2  -6   55.99   14.80
  -8  -2   6   48.90   19.40
  -8  -2   6  121.19   27.80
   7   2  -6    9.80   15.40
  -7  -2   6   31.10   16.70
   6   2  -6   96.69   20.50
   6   2  -6  108.19   32.00
   6   2  -6   98.19   21.60
  -6  -2   6  109.29   22.90
   5   2  -6   32.30   13.40
   5   2  -6   18.50   16.10
   5   2  -6   64.69   18.30
  -5  -2   6   24.00   16.70
   4   2  -6   26.20   12.70
   4   2  -6    7.90   12.70
   4   2  -6   17.40   10.90
  -4  -2   6    2.40    7.40
  -4  -2   6  -10.60   11.80
   3   2  -6   64.09   16.80
   3   2  -6   56.19   12.70
   3   2  -6   61.09   17.40
  -3  -2   6   37.20   16.80
  -3  -2   6   69.59   15.20
   2   2  -6    1.60   10.50
   2   2  -6    5.60    7.90
   2   2  -6   -4.20   10.70
  -2  -2   6   -0.40   12.40
  -2  -2   6   -1.90    7.60
   1   2  -6   -0.50   11.60
   1   2  -6    5.70    8.50
   1   2  -6    0.00    9.90
  -1  -2   6   13.50   14.60
  -1  -2   6   15.10   13.60
  -1  -2   6  -11.60    6.50
   0   2  -6   51.89   16.80
   0   2  -6   44.40   15.20
   0   2  -6   38.40   13.70
   0  -2   6   61.39   18.50
   0  -2   6   57.09   14.50
   0  -2   6   50.69   17.30
  -1   2  -6  300.27   30.60
  -1   2  -6  312.67   28.90
  -1   2  -6  317.17   31.80
   1  -2   6  300.37   28.60
   1  -2   6  263.17   29.90
   1  -2   6  306.17   28.20
   1  -2   6  312.37   31.80
  -2   2  -6  403.26   19.10
  -2   2  -6  418.26   35.70
  -2   2  -6  372.26   35.90
   2  -2   6  448.06   40.00
   2  -2   6  405.76   33.90
   2  -2   6  413.66   35.50
   2  -2   6  438.86   36.30
  -3   2  -6  -19.20   11.60
  -3   2  -6    8.20   13.90
  -3   2  -6   -0.50    5.00
   3  -2   6   12.80   17.50
   3  -2   6   -3.50   10.80
   3  -2   6   -8.70   11.10
  -4   2  -6   51.19    9.20
  -4   2  -6   34.60   17.10
  -4   2  -6   63.39   23.00
  -4   2  -6   57.79   22.10
   4  -2   6  -12.20   32.10
   4  -2   6   57.99   18.10
  -5   2  -6  145.39   29.70
  -5   2  -6  102.89   24.50
   5  -2   6  127.29   30.50
   5  -2   6  156.88   28.90
   5  -2   6  106.59   30.40
  -6   2  -6   38.10   20.30
  -6   2  -6   41.80   21.80
  -6   2  -6   28.60   23.50
   6  -2   6   16.50   21.60
   6  -2   6   41.50   26.20
   6  -2   6   23.00   19.80
  -7   2  -6   19.10   19.50
  -7   2  -6   32.80   24.60
  -7   2  -6   41.40   25.50
   7  -2   6  -20.40   19.70
   7  -2   6   49.70   26.80
   7  -2   6    2.00   22.90
  10   1  -6   10.40   29.60
 -10  -1   6    7.50   25.80
 -10  -1   6  -14.00   24.10
   9   1  -6   28.50   28.80
   9   1  -6   63.59   12.90
  -9  -1   6   69.29   26.50
  -9  -1   6   97.89   23.60
   8   1  -6    3.60    7.20
  -8  -1   6  -19.10   13.20
  -7  -1   6   -8.80   13.20
  -7  -1   6    1.50   13.60
   6   1  -6   70.99   17.60
   6   1  -6   76.89   19.20
  -6  -1   6   34.30   17.80
   5   1  -6   33.70   17.80
   5   1  -6   37.40   12.70
   5   1  -6   28.40   13.80
  -5  -1   6   32.90   17.40
   4   1  -6    8.40   11.90
   4   1  -6    2.90   12.50
  -4  -1   6   -8.70    8.20
  -4  -1   6  -10.60   11.10
   3   1  -6  433.66   32.90
   3   1  -6  419.36   23.60
   3   1  -6  424.96   33.90
  -3  -1   6  427.06   35.80
  -3  -1   6  427.96   32.00
   2   1  -6    2.30    9.50
   2   1  -6   15.70   13.20
   2   1  -6    1.10    6.80
   2   1  -6  -16.10    9.20
  -2  -1   6   -8.90   12.20
  -2  -1   6    6.70    6.80
   1   1  -6   23.80   10.20
   1   1  -6   45.00   10.70
   1   1  -6   40.00   15.30
   1   1  -6   22.60   13.70
  -1  -1   6   39.30   13.20
  -1  -1   6   20.60   14.90
  -1  -1   6   31.50   16.20
   0   1  -6  484.45   36.20
   0   1  -6  454.65   23.30
   0   1  -6  428.46   34.70
   0  -1   6  506.35   30.40
   0  -1   6  485.65   39.00
   0  -1   6  457.25   36.30
  -1   1  -6   12.70   12.90
  -1   1  -6   32.10    5.50
  -1   1  -6   18.20    5.20
  -1   1  -6   22.50   13.80
   1  -1   6   14.10   16.30
   1  -1   6   21.80   13.20
   1  -1   6   11.20   13.80
   1  -1   6   33.30   14.90
  -2   1  -6  194.48   27.30
  -2   1  -6  198.48   30.60
   2  -1   6  196.88   27.40
   2  -1   6  172.98   26.70
   2  -1   6  172.18   29.30
   2  -1   6  173.08   26.00
  -3   1  -6  499.85   39.20
  -3   1  -6  572.94   46.30
  -3   1  -6  517.05   38.80
   3  -1   6  507.25   46.30
   3  -1   6  499.35   38.60
   3  -1   6  613.44   44.40
   3  -1   6  634.44   45.90
  -4   1  -6  247.18   30.70
  -4   1  -6  172.78   36.40
   4  -1   6  172.58   38.70
   4  -1   6  172.28   33.60
   4  -1   6  121.69   25.30
  -5   1  -6  152.28   28.70
  -5   1  -6  102.59   23.80
   5  -1   6  171.28   34.10
   5  -1   6   75.19   26.00
   5  -1   6   99.09   26.50
  -6   1  -6   12.70   18.90
  -6   1  -6   10.60   16.20
  -6   1  -6   26.80   21.70
   6  -1   6   37.00   20.90
   6  -1   6   -5.40   21.90
  -7   1  -6   11.00   18.10
  -7   1  -6    5.30   25.30
  -7   1  -6  -23.50   21.60
  -7   1  -6   19.90   11.50
   7  -1   6   35.70   30.10
   7  -1   6   59.09   30.80
   7  -1   6   44.20   24.10
  10   0  -6  -15.10   15.20
  10   0  -6   29.40   28.90
 -10   0   6   15.30   22.30
 -10   0   6  -13.30   22.80
   9   0  -6  120.99   37.30
   9   0  -6  112.59   23.70
  -9   0   6  148.69   30.40
  -9   0   6  110.29   30.40
   8   0  -6  443.56   18.80
   8   0  -6  480.05   38.10
  -8   0   6  446.56   42.30
   7   0  -6  108.49   21.30
   7   0  -6   99.59   10.60
  -7   0   6   95.69   23.90
  -6   0   6   10.00   15.40
  -6   0   6   21.90   18.50
   5   0  -6   14.20   11.90
   5   0  -6    9.30   11.10
   5   0  -6    5.10    9.10
  -5   0   6   12.90   14.30
  -5   0   6  -12.70   13.10
   4   0  -6   18.60   15.00
   4   0  -6   14.00    7.40
   4   0  -6    7.20   12.90
  -4   0   6   32.30   16.50
  -4   0   6   13.20   15.50
  -4   0   6    9.90   11.60
   3   0  -6    6.80   11.80
   3   0  -6   16.40   11.70
   3   0  -6    8.90    5.00
  -3   0   6   13.80   15.00
  -3   0   6   -1.90   10.30
   2   0  -6 1341.97   61.79
   2   0  -6 1331.97   53.69
   2   0  -6 1311.37   62.99
  -2   0   6 1391.26   63.59
  -2   0   6 1289.67   38.70
  -2   0   6 1363.26   63.49
   1   0  -6  594.84   41.70
   1   0  -6  599.84   40.30
   1   0  -6  601.64   30.50
  -1   0   6  625.24   27.00
  -1   0   6  627.14   42.30
  -1   0   6  627.34   44.10
   0   0  -6  407.86   34.00
   0   0  -6  402.56   33.20
   0   0  -6  430.46   20.20
   0   0   6  440.76   27.00
   0   0   6  463.75   37.90
   0   0   6  414.36   35.30
  -1   0  -6   62.29   16.30
  -1   0  -6   30.90   17.30
  -1   0  -6   41.40   15.70
   1   0   6  103.79   22.40
   1   0   6   42.10   13.60
   1   0   6   34.70   16.20
   1   0   6   24.60   15.10
  -2   0  -6  128.59   26.50
  -2   0  -6  105.39   21.70
  -2   0  -6  136.19   23.20
   2   0   6  101.49   23.00
   2   0   6  113.59   22.80
   2   0   6   87.29   22.20
   2   0   6  132.09   24.80
  -3   0  -6  451.45   51.29
  -3   0  -6  507.45   41.80
  -3   0  -6  469.15   37.60
   3   0   6  500.05   43.50
   3   0   6  482.95   44.80
   3   0   6  493.45   41.60
   3   0   6  493.95   37.80
  -4   0  -6    2.40   13.00
  -4   0  -6  -13.60   14.40
  -4   0  -6  -14.60   11.30
   4   0   6  -26.70   17.10
   4   0   6    7.40   13.10
   4   0   6    0.60   19.50
  -5   0  -6    0.20   14.10
  -5   0  -6   25.00   15.80
  -5   0  -6    3.90    8.00
  -5   0  -6   10.80   17.20
   5   0   6   51.59   25.20
   5   0   6   25.60   20.70
   5   0   6  -14.90   16.70
  -6   0  -6  119.89   17.00
  -6   0  -6   90.19   29.30
  -6   0  -6   92.79   21.90
  -6   0  -6  109.59   33.10
   6   0   6  102.49   33.00
   6   0   6  110.59   29.40
   6   0   6   61.49   29.50
  -7   0  -6  -40.80   23.80
  -7   0  -6   15.90   16.40
  -7   0  -6   29.40   22.20
   7   0   6   20.00   25.60
   7   0   6   84.49   33.40
  10  -1  -6   13.50   19.20
  10  -1  -6   38.20   27.40
 -10   1   6   52.59   28.50
 -10   1   6   36.20   22.30
   9  -1  -6   73.99   23.20
   9  -1  -6   41.40   23.10
  -9   1   6   96.39   31.40
  -9   1   6  131.89   33.80
  -9   1   6   66.09   24.70
   8  -1  -6  127.69   25.70
  -8   1   6  124.79   26.20
  -8   1   6  120.49   28.40
  -8   1   6   85.69   31.00
   7  -1  -6  174.58   34.90
   7  -1  -6  181.78   29.10
  -7   1   6  160.18   30.60
  -7   1   6  168.18   35.00
   6  -1  -6    9.00   13.00
   6  -1  -6   10.70   16.80
  -6   1   6    9.70   16.50
  -6   1   6    1.90   16.10
   5  -1  -6   31.70   18.70
   5  -1  -6   16.10    7.40
   5  -1  -6   13.80   14.70
  -5   1   6   10.70   15.10
  -5   1   6    4.60   13.90
  -5   1   6   14.30   15.70
   4  -1  -6  258.27   33.30
   4  -1  -6  251.17   10.80
   4  -1  -6  241.68   31.20
  -4   1   6  246.68   32.60
  -4   1   6  242.28   32.40
  -4   1   6  283.07   30.90
   3  -1  -6  362.46   33.60
   3  -1  -6  365.56   36.60
   3  -1  -6  401.16   31.50
  -3   1   6  367.36   36.10
  -3   1   6  373.56   34.80
  -3   1   6  346.37   31.90
   2  -1  -6  617.04   35.50
   2  -1  -6  666.13   45.30
   2  -1  -6  672.13   43.90
  -2   1   6  684.93   37.50
  -2   1   6  626.14   44.60
  -2   1   6  695.33   45.10
   1  -1  -6    3.90    6.90
   1  -1  -6    5.10   11.50
   1  -1  -6    6.30    9.60
   1  -1  -6   -7.80   10.80
  -1   1   6   -1.50    4.40
  -1   1   6    1.20   13.50
  -1   1   6    5.80   12.10
   0  -1  -6   19.70   15.10
   0  -1  -6   -0.40    4.70
   0  -1  -6   25.10   13.10
   0  -1  -6   10.40   10.70
   0   1   6  -14.10    9.30
   0   1   6   -4.90   10.90
   0   1   6    3.50   15.80
   0   1   6    4.60    8.60
  -1  -1  -6   24.40   14.70
  -1  -1  -6   11.80   12.70
   1   1   6   43.50   19.40
   1   1   6   42.10   16.60
   1   1   6   44.30   14.40
   1   1   6   43.80   16.30
  -2  -1  -6   -3.70   11.30
  -2  -1  -6    6.90   11.10
   2   1   6  -10.40   11.60
   2   1   6   -6.10   11.30
   2   1   6    8.60   14.70
   2   1   6   -2.00   12.00
  -3  -1  -6   14.80   13.60
  -3  -1  -6   50.89   22.50
  -3  -1  -6   21.50   16.80
   3   1   6   28.00   15.20
   3   1   6   24.90   17.20
   3   1   6   13.90   16.40
   3   1   6    2.30   18.10
  -4  -1  -6  161.78   24.70
  -4  -1  -6  169.48   19.70
  -4  -1  -6  179.88   31.30
  -4  -1  -6  148.79   33.90
   4   1   6  223.78   38.40
   4   1   6  152.38   31.20
  -5  -1  -6    8.70   11.10
  -5  -1  -6   18.10   19.10
  -5  -1  -6   -3.30   11.80
  -5  -1  -6   18.10   19.30
   5   1   6   -2.10   20.50
   5   1   6    7.50   17.40
   5   1   6   10.50   22.50
  -6  -1  -6   11.80   22.40
  -6  -1  -6   -1.70   11.70
  -6  -1  -6   -0.70   17.90
  -6  -1  -6   25.60   13.90
   6   1   6   24.20   25.10
   6   1   6   -7.20   24.70
  -7  -1  -6   29.80   15.20
  -7  -1  -6   38.40   29.60
  -7  -1  -6    5.50   30.10
  -7  -1  -6   21.10   14.10
   7   1   6   28.10   28.50
   7   1   6   10.20   25.30
   7   1   6   10.10   30.30
   9  -2  -6   29.30   41.60
   9  -2  -6   97.09   26.60
   9  -2  -6   51.79   21.40
  -9   2   6   99.49   31.60
  -9   2   6   56.59   27.10
   8  -2  -6    5.20   16.30
   8  -2  -6   27.90   18.70
   8  -2  -6    7.50   12.50
  -8   2   6   24.70   17.80
  -8   2   6   44.10   26.00
  -8   2   6   16.00   20.60
   7  -2  -6  177.68   30.80
   7  -2  -6  159.78   22.00
  -7   2   6  139.69   33.50
  -7   2   6  164.48   31.60
   6  -2  -6   20.60    9.80
   6  -2  -6    7.90   15.00
   6  -2  -6    5.80   14.80
  -6   2   6   18.00   17.70
  -6   2   6    9.40   21.40
   5  -2  -6   73.59    8.70
   5  -2  -6   38.70   18.70
   5  -2  -6   56.49    6.80
   5  -2  -6   57.89    7.70
  -5   2   6   94.89   23.30
  -5   2   6   89.69   24.50
   4  -2  -6  -10.20   10.40
   4  -2  -6   14.00    6.90
  -4   2   6    5.90   13.80
  -4   2   6   22.10   17.30
  -4   2   6  -29.50   10.50
   3  -2  -6   -5.60   13.40
   3  -2  -6    7.90    8.10
   3  -2  -6   17.00   13.80
   3  -2  -6   -6.50    9.90
  -3   2   6    4.00   14.60
  -3   2   6    5.80   12.60
  -3   2   6    9.20   13.10
   2  -2  -6   18.80   10.40
   2  -2  -6   -3.30    7.70
   2  -2  -6  -28.60   10.70
   2  -2  -6    6.70   13.50
  -2   2   6   -5.90   12.50
  -2   2   6    8.00   13.10
  -2   2   6   -6.20    9.80
   1  -2  -6  168.88   23.10
   1  -2  -6  126.79   16.70
   1  -2  -6  151.58   25.20
   1  -2  -6  115.69   24.80
  -1   2   6  136.59   18.50
  -1   2   6  165.58   28.20
  -1   2   6  116.19   26.50
  -1   2   6  128.59    9.30
  -1   2   6  137.79   25.00
   0  -2  -6    9.50   10.80
   0  -2  -6    9.40   15.10
   0  -2  -6    0.90   12.10
   0   2   6    3.00   14.40
   0   2   6   25.10   17.30
   0   2   6    8.50    6.90
   0   2   6   41.40   16.70
  -1  -2  -6   29.60   15.40
  -1  -2  -6   62.99   18.40
   1   2   6   56.79   19.10
   1   2   6   49.30   20.50
   1   2   6   56.99   15.60
   1   2   6   18.30   14.10
  -2  -2  -6   24.20   13.80
  -2  -2  -6   35.10   17.20
   2   2   6   43.20   21.00
   2   2   6   35.20   17.60
   2   2   6   32.90   15.80
  -3  -2  -6   90.59   17.50
  -3  -2  -6   82.59   19.40
  -3  -2  -6   79.39   20.60
   3   2   6   13.70   18.20
   3   2   6   55.49   18.00
   3   2   6   44.70   25.00
  -4  -2  -6   56.49   21.30
  -4  -2  -6   57.99   16.10
  -4  -2  -6   82.89   18.50
   4   2   6   48.80   25.70
   4   2   6   64.29   17.10
  -5  -2  -6   55.19   15.60
  -5  -2  -6   46.60   14.70
  -5  -2  -6   59.19   22.30
  -5  -2  -6   23.60   21.10
   5   2   6  105.59   28.00
   5   2   6  -17.90   19.30
  -6  -2  -6   35.40   13.60
  -6  -2  -6  -26.30   12.50
  -6  -2  -6   28.30   21.80
   6   2   6    7.60   25.30
   9  -3  -6   19.80   20.80
   9  -3  -6  -51.19   17.60
   9  -3  -6   16.30   16.70
  -9   3   6   14.60   22.10
  -9   3   6   -9.30   20.50
   8  -3  -6   11.80   16.80
   8  -3  -6   -5.40   11.30
   8  -3  -6  -22.20   15.50
  -8   3   6    3.70   20.50
  -8   3   6   27.00   24.10
  -8   3   6  -27.40   15.80
   7  -3  -6   33.90   26.90
   7  -3  -6   64.79   13.80
  -7   3   6   57.89   24.70
  -7   3   6   82.99   26.90
   6  -3  -6   16.70    8.00
   6  -3  -6   -5.40   14.10
   6  -3  -6    8.10   16.70
  -6   3   6  -33.30   15.80
  -6   3   6   19.10   18.20
   5  -3  -6    3.80   14.50
   5  -3  -6  -11.10   13.20
  -5   3   6   15.00   15.70
   4  -3  -6  112.99   27.40
   4  -3  -6  137.79   25.80
   4  -3  -6  113.99   13.70
  -4   3   6   52.99   22.00
  -4   3   6  142.49   27.00
  -4   3   6  163.38   29.10
   3  -3  -6  248.68   21.30
   3  -3  -6  251.77   37.10
   3  -3  -6  247.78   30.90
  -3   3   6  261.87   34.90
  -3   3   6  220.68   30.30
  -3   3   6  272.57   38.70
   2  -3  -6  253.27   36.40
   2  -3  -6  312.67   27.00
   2  -3  -6  339.27   26.30
   2  -3  -6  287.07   35.60
  -2   3   6  322.67   36.30
  -2   3   6  230.38   34.90
  -2   3   6  301.67   29.10
   1  -3  -6    8.70   13.80
   1  -3  -6   -0.60    8.20
   1  -3  -6    2.30    9.20
   1  -3  -6   24.40   15.70
  -1   3   6   -2.10    3.90
  -1   3   6    2.70   16.00
  -1   3   6   -7.30    8.40
  -1   3   6    2.70    4.00
  -1   3   6   14.30   14.30
  -1   3   6   21.20   14.90
   0  -3  -6   71.89   19.40
   0  -3  -6   70.79   18.80
   0  -3  -6   35.20   21.30
   0   3   6   80.99   23.50
   0   3   6  112.99   27.60
   0   3   6   56.89   12.10
   0   3   6   64.99   22.90
   0   3   6  118.49   23.70
  -1  -3  -6   91.59   22.40
  -1  -3  -6  119.39   22.70
   1   3   6  117.99   27.20
   1   3   6  112.29   10.20
   1   3   6  133.89   24.80
   1   3   6  102.59   24.40
  -2  -3  -6   52.29   16.60
  -2  -3  -6   23.80   14.90
   2   3   6   20.40   15.30
   2   3   6   14.60   19.30
  -3  -3  -6    7.30   12.00
  -3  -3  -6   16.60   13.60
  -3  -3  -6   10.70   12.00
   3   3   6  -16.50   12.70
   3   3   6    3.60   17.40
  -4  -3  -6   67.99   23.10
  -4  -3  -6   71.39   16.60
  -4  -3  -6   72.29   18.10
   4   3   6   29.60   23.80
   4   3   6   85.29   25.40
   4   3   6   63.09   16.80
  -5  -3  -6   16.10   23.70
  -5  -3  -6   61.69   25.10
  -5  -3  -6   46.90   17.50
  -5  -3  -6   33.60   13.30
   5   3   6   59.89   27.60
   5   3   6   64.59   29.70
  -6  -3  -6   33.20   25.20
  -6  -3  -6    7.10   25.10
  -6  -3  -6   12.40   16.20
   6   3   6   15.30   25.10
   6   3   6  -32.70   26.70
   9  -4  -6   91.19   36.60
   9  -4  -6   86.59   22.00
   9  -4  -6   80.39   30.60
  -9   4   6  142.89   39.70
  -9   4   6  114.59   35.30
  -9   4   6  118.99   32.30
   8  -4  -6   50.09   22.20
   8  -4  -6    7.80   12.10
   8  -4  -6   37.10   24.50
  -8   4   6  -28.70   31.30
  -8   4   6   50.39   29.90
  -8   4   6   38.00   22.20
   7  -4  -6   11.50    8.50
   7  -4  -6   19.10   18.80
   7  -4  -6   15.70   17.70
  -7   4   6   37.30   23.20
  -7   4   6  -17.20   15.60
   6  -4  -6   63.09   25.60
   6  -4  -6   55.99    8.60
  -6   4   6  119.69   28.70
  -6   4   6   64.09   25.00
   5  -4  -6  332.37   55.19
   5  -4  -6  306.37   41.40
   5  -4  -6  342.17   41.60
  -5   4   6  259.57   40.20
  -5   4   6  362.96   53.09
   4  -4  -6  392.16   43.40
   4  -4  -6  393.56   38.40
  -4   4   6  354.46   45.00
  -4   4   6  376.06   42.30
  -4   4   6  422.86   40.90
   3  -4  -6  368.26   40.50
   3  -4  -6  348.27   33.00
  -3   4   6  357.36   36.50
  -3   4   6  317.97   36.60
  -3   4   6  381.36   41.10
   2  -4  -6   71.19   18.00
   2  -4  -6   92.39   18.60
   2  -4  -6  121.89   26.90
  -2   4   6   68.49   20.80
  -2   4   6   94.69   25.70
  -2   4   6   87.59   19.90
   1  -4  -6  213.28   34.30
   1  -4  -6  278.37   25.50
   1  -4  -6  287.67   28.60
  -1   4   6  260.07   35.10
  -1   4   6  199.58   33.20
  -1   4   6  201.58   33.10
  -1   4   6  271.97   15.20
  -1   4   6  285.47   26.70
   0  -4  -6   24.20   15.40
   0   4   6   40.30   12.30
   0   4   6   62.59   19.90
   0   4   6   33.30   13.40
   0   4   6   -1.20   15.50
   0   4   6   32.50   20.40
   0   4   6   12.00   16.00
  -1  -4  -6   15.90   14.60
   1   4   6   -2.20   16.30
   1   4   6   18.30   20.40
   1   4   6   24.70   17.20
   1   4   6    4.40    6.80
  -2  -4  -6  187.88   31.00
  -2  -4  -6  163.38   27.60
   2   4   6  174.18   32.10
   2   4   6  117.79    6.90
   2   4   6  144.99   25.20
   2   4   6   78.49   25.20
  -3  -4  -6   16.60   13.20
  -3  -4  -6   18.10   14.40
   3   4   6   16.50   20.80
   3   4   6    1.20   14.70
  -4  -4  -6   10.90   19.20
  -4  -4  -6   37.00   18.00
   4   4   6    6.40   16.80
   4   4   6   58.69   27.00
   4   4   6   17.00   22.40
  -5  -4  -6  176.38   29.70
  -5  -4  -6  188.18   34.30
   5   4   6  159.58   37.40
   5   4   6  179.78   40.80
   8  -5  -6   32.20   24.80
   8  -5  -6   35.30   13.60
   8  -5  -6   64.29   29.10
  -8   5   6   55.99   27.10
  -8   5   6   31.40   24.40
  -8   5   6   94.99   32.90
   7  -5  -6   23.60   22.60
   7  -5  -6   -5.20   13.00
   7  -5  -6   23.40   20.70
  -7   5   6   47.80   26.40
  -7   5   6   34.70   22.70
   6  -5  -6   90.99   29.80
   6  -5  -6  115.09   30.30
   6  -5  -6   82.29   26.60
  -6   5   6  118.39   29.80
  -6   5   6   97.49   28.40
   5  -5  -6   98.09   28.60
   5  -5  -6   95.49   25.60
   5  -5  -6   86.49   27.60
  -5   5   6   65.79   25.50
  -5   5   6   70.29   24.70
   4  -5  -6   24.90   17.20
   4  -5  -6   49.50   22.50
  -4   5   6   35.00   24.70
  -4   5   6   50.49   21.30
  -4   5   6   43.40   21.30
   3  -5  -6   40.40   21.60
   3  -5  -6   38.10   17.00
  -3   5   6    9.10   16.30
  -3   5   6   22.10   18.00
  -3   5   6   26.50   20.60
   2  -5  -6    7.90   12.90
   2  -5  -6   20.50   19.00
  -2   5   6   38.20   15.80
   1  -5  -6   11.60   16.30
  -1   5   6   12.60   12.20
  -1   5   6  -19.20   11.60
  -1   5   6    6.50    6.80
  -1   5   6    1.40   18.10
   0  -5  -6   27.10   16.20
   0   5   6    3.60   10.20
   0   5   6   25.60   18.30
   0   5   6   25.80   22.60
   0   5   6   35.90   22.20
   0   5   6   33.30   11.60
  -1  -5  -6   24.20   17.00
   1   5   6   48.90   12.30
   1   5   6   93.59   27.90
   1   5   6   15.40   13.60
   1   5   6   33.10   22.80
   1   5   6   51.79   18.60
   1   5   6   39.20   21.40
  -2  -5  -6   24.30   18.20
  -2  -5  -6   16.40   16.60
   2   5   6   -0.80   14.80
   2   5   6   10.60   20.50
   2   5   6    5.20   18.20
   2   5   6   10.70    7.80
   2   5   6   -0.10   22.80
  -3  -5  -6   30.00   20.70
  -3  -5  -6    1.40   17.70
   3   5   6   19.60   15.40
   3   5   6    6.70   21.00
   3   5   6  -18.10   21.00
   3   5   6   16.40   24.10
  -4  -5  -6    0.70   15.90
   4   5   6  -24.90   21.20
   4   5   6   38.40   27.30
   4   5   6   25.80   23.60
   4   5   6  -15.40   13.10
   8  -6  -6   19.60   27.20
   7  -6  -6   42.30   26.70
   7  -6  -6  -29.20   18.20
  -7   6   6    1.10   25.70
  -7   6   6  -33.60   20.30
   6  -6  -6  -21.00   15.70
   6  -6  -6   -3.40   19.70
   6  -6  -6  -14.70   19.20
  -6   6   6  -14.30   19.30
  -6   6   6   -5.30   19.30
   5  -6  -6   63.89   26.40
   5  -6  -6   56.99   26.60
  -5   6   6  114.39   30.60
  -5   6   6   76.49   27.30
   4  -6  -6   -7.00   14.30
   4  -6  -6   -9.30   15.30
  -4   6   6    6.60   18.00
  -4   6   6    1.90   19.80
   3  -6  -6   51.29   19.90
   3  -6  -6   39.20   21.60
  -3   6   6   31.70   19.20
  -3   6   6   20.40   20.10
   2  -6  -6    8.90   18.70
  -2   6   6   43.60   18.40
  -2   6   6   39.10   19.70
   1  -6  -6   36.20   21.70
  -1   6   6   29.20   15.40
  -1   6   6   54.69   23.70
  -1   6   6   21.90   26.70
  -1   6   6    7.30   18.10
  -1   6   6   38.40   12.20
   0   6   6   16.60   18.60
   0   6   6  -12.60   19.60
   0   6   6    0.30   16.80
   0   6   6   17.30   12.70
   0   6   6   21.00   12.30
   1   6   6   11.60   15.90
   1   6   6  -16.10   16.80
   1   6   6   23.10   13.00
   1   6   6  -12.40   25.40
   1   6   6   22.70   15.60
   1   6   6   11.20   20.00
  -2  -6  -6  -12.00   15.50
   2   6   6   20.40   18.00
   2   6   6   37.40   28.70
   2   6   6   19.10   16.60
   2   6   6    9.10   10.60
   2   6   6    9.80   21.70
   2   6   6   12.00   19.40
  -3  -6  -6  103.89   27.30
   3   6   6   93.99   12.30
   3   6   6  101.99   30.50
   3   6   6  110.89   32.10
   3   6   6  107.49   37.00
   3   6   6  124.59   24.40
   3   6   6   94.89   34.50
  -4  -6  -6  176.38   35.00
   6  -7  -6  -23.70   20.50
   6  -7  -6    9.70   27.20
   6  -7  -6   -7.30   21.40
  -6   7   6   -4.30   23.70
  -6   7   6   41.00   35.40
   5  -7  -6  -17.90   18.20
  -5   7   6   31.40   21.70
  -5   7   6  -12.50   21.90
   4  -7  -6   10.20   19.60
  -4   7   6    9.60   19.30
  -4   7   6   16.20   19.10
   3  -7  -6   52.59   25.30
  -3   7   6  -10.90   17.80
  -3   7   6   25.20   19.90
  -3   7   6   40.20   22.10
   2  -7  -6   20.00   21.90
  -2   7   6   -4.60   17.80
  -2   7   6  -10.70   17.40
  -2   7   6   30.20   24.90
  -2   7   6    2.20    5.90
  -2   7   6  -10.20   15.70
  -1   7   6   33.80   22.80
  -1   7   6    4.40   21.40
  -1   7   6    7.20   16.20
  -1   7   6   11.20   10.60
  -1   7   6  -23.10   23.70
   0   7   6   26.70   15.70
   0   7   6   40.40   27.60
   0   7   6   32.10   17.60
   0   7   6   44.30   24.30
   0   7   6    5.60   17.90
   1   7   6   55.19   22.00
   1   7   6    9.80   12.80
   1   7   6  -15.30   24.50
   1   7   6   -5.40   32.50
   1   7   6   -6.80   16.40
   1   7   6  -12.40   18.70
  -2  -7  -6   59.39   25.20
   2   7   6  -20.10   27.70
   2   7   6   -4.20   23.10
   2   7   6   40.40   15.20
   2   7   6   50.69   23.60
   2   7   6   88.69   25.50
   2   7   6   17.30   30.30
   5  -8  -6    0.80   22.70
  -5   8   6  -35.30   23.80
  -5   8   6  -19.10   22.00
   4  -8  -6   -4.40   23.90
  -4   8   6   29.90   23.60
  -4   8   6   22.70   23.20
   3  -8  -6   25.40   25.30
  -3   8   6   15.60   21.90
  -3   8   6   51.89   26.90
  -2   8   6  -27.50   18.50
  -2   8   6   71.29   30.10
  -2   8   6   15.80   19.80
  -2   8   6   52.39   25.20
  -1   8   6   18.10   27.60
  -1   8   6  -29.40   20.20
  -1   8   6    1.70   11.40
  -1   8   6   28.70   20.10
  -1   8   6   19.80   19.60
   0   8   6   12.10   21.30
   0   8   6  -48.00   27.50
   0   8   6   -7.90   21.00
   0   8   6   36.70   17.10
   0   8   6   39.30   18.70
   1   8   6   44.10   30.70
   1   8   6   38.80   19.50
   1   8   6   32.50   31.50
   4  11  -7   59.39   30.20
   4  11  -7   61.49   26.30
  -4 -11   7   43.60   26.30
   3  11  -7   81.89   25.80
  -3 -11   7   81.39   16.20
  -3 -11   7   21.10   25.10
   2  11  -7  -33.70   18.20
   2  11  -7    6.10   22.20
  -2 -11   7   -2.10   15.50
  -2 -11   7    1.50   19.40
  -2 -11   7   30.20   28.40
   1  11  -7   18.70   24.20
   1  11  -7   51.19   26.80
  -1 -11   7    6.40   17.60
  -1 -11   7   -2.20   22.60
  -1 -11   7   12.00   24.30
   0  11  -7    2.10   22.40
   0  11  -7    8.00   26.40
   0  11  -7   19.90   28.00
   0 -11   7   28.50   23.90
   0 -11   7   12.10   24.20
  -1  11  -7   26.70   24.10
  -1  11  -7    4.80   28.40
  -1  11  -7  -16.30   21.10
   1 -11   7  -24.00   18.20
   1 -11   7   19.30   26.80
  -2  11  -7  -30.10   25.10
  -2  11  -7   23.60   24.80
  -2  11  -7   25.50   35.80
   2 -11   7    1.20   23.80
   2 -11   7    8.80   24.80
   5  10  -7   27.20   31.70
   5  10  -7   19.70   17.30
  -5 -10   7   52.79   27.20
   4  10  -7  -37.30   21.00
   4  10  -7   18.10   19.10
  -4 -10   7   14.20   22.60
   3  10  -7   38.50   25.30
   3  10  -7   24.90   18.80
  -3 -10   7   31.10   21.70
  -3 -10   7    6.60   12.20
   2  10  -7    1.50   17.80
   2  10  -7   15.50   20.10
  -2 -10   7   18.10   19.90
  -2 -10   7   -7.60   20.00
  -2 -10   7   -9.60   12.40
   1  10  -7    9.80   22.50
   1  10  -7   11.60   19.20
  -1 -10   7  -28.20   18.90
  -1 -10   7   18.00   21.80
   0  10  -7   28.80   23.40
   0  10  -7   35.40   23.00
   0  10  -7   36.40   23.70
   0 -10   7   20.90   22.20
   0 -10   7   47.00   26.70
  -1  10  -7   82.39   27.90
  -1  10  -7  127.39   33.90
  -1  10  -7   42.90   30.30
   1 -10   7  134.09   34.00
   1 -10   7   93.29   25.90
  -2  10  -7  -10.20   13.10
  -2  10  -7   12.90   21.80
  -2  10  -7   55.09   25.40
   2 -10   7   19.10   19.70
   2 -10   7   17.90   16.10
  -3  10  -7  -17.00   20.90
  -3  10  -7   20.40   15.80
  -3  10  -7  -25.30   18.10
  -3  10  -7    7.30   20.60
   3 -10   7   27.40   24.10
   3 -10   7   -0.90   16.50
  -4  10  -7  145.09   33.70
  -4  10  -7   58.39   33.00
  -4  10  -7  126.59   43.60
  -4  10  -7  116.89   30.10
   4 -10   7  172.68   33.50
   4 -10   7  121.09   42.40
   6   9  -7  -11.80   27.40
   6   9  -7   28.70   16.10
  -6  -9   7   17.60   24.50
   5   9  -7   56.79   30.30
   5   9  -7   54.89   19.70
  -5  -9   7   10.30   23.00
   4   9  -7   61.79   26.70
   4   9  -7   32.60   19.90
  -4  -9   7   46.30   23.00
   3   9  -7  -13.90   15.00
   3   9  -7   13.60   21.30
  -3  -9   7    1.80    9.10
  -3  -9   7   35.30   22.60
  -3  -9   7   -3.90   17.70
   2   9  -7   57.09   21.80
   2   9  -7   75.39   25.90
  -2  -9   7  107.89   52.59
  -2  -9   7   64.49   25.20
   1   9  -7   77.09   23.80
   1   9  -7   81.99   29.10
   1   9  -7  100.19   11.70
  -1  -9   7  115.39   30.10
  -1  -9   7  108.29   11.00
  -1  -9   7  110.89   26.80
   0   9  -7  186.08   37.80
   0   9  -7  266.17   40.70
   0  -9   7  219.38   39.70
   0  -9   7  227.38   34.90
   0  -9   7  231.28   21.30
  -1   9  -7   -4.50   17.50
  -1   9  -7   54.59   22.40
  -1   9  -7   46.20   25.00
   1  -9   7   47.70   15.30
   1  -9   7   35.10   20.30
   1  -9   7   -2.00   17.10
  -2   9  -7   48.90   23.90
  -2   9  -7   11.20   22.70
  -2   9  -7   54.89   17.30
  -2   9  -7   16.10   21.10
   2  -9   7   35.40   18.20
   2  -9   7  115.19   33.80
   2  -9   7   46.00   19.30
  -3   9  -7  182.38   35.80
  -3   9  -7  268.77   46.50
  -3   9  -7   92.09   30.30
  -3   9  -7  191.78   37.10
   3  -9   7  199.08   42.10
   3  -9   7  165.78   31.90
  -4   9  -7  163.28   31.50
  -4   9  -7  172.08   38.40
  -4   9  -7   81.89   27.90
  -4   9  -7  170.98   36.80
   4  -9   7  130.79   32.80
   4  -9   7  171.58   41.30
  -5   9  -7   13.30   24.70
  -5   9  -7   34.90   24.70
  -5   9  -7   60.29   33.30
   5  -9   7    2.00   22.70
   7   8  -7    3.30   15.80
   7   8  -7  -42.30   24.20
   7   8  -7   -2.70   21.90
  -7  -8   7    9.90   24.90
  -7  -8   7   -4.20   10.90
   6   8  -7   -2.60   23.30
   6   8  -7   25.10   17.00
  -6  -8   7   -1.80   21.20
  -6  -8   7   -7.80    8.00
   5   8  -7   26.30   15.50
   5   8  -7   -5.00   20.90
  -5  -8   7   16.80    7.30
  -5  -8   7   -6.50   17.90
  -5  -8   7   -8.60    6.70
   4   8  -7   42.60   22.40
  -4  -8   7   29.70    6.60
  -4  -8   7   25.90   19.70
  -4  -8   7   31.40    6.50
   3   8  -7   28.90   21.00
   3   8  -7   29.60   22.10
  -3  -8   7   49.50   21.50
  -3  -8   7   69.29   24.50
  -3  -8   7   42.40    7.40
   2   8  -7  211.98   34.10
   2   8  -7  221.48   37.60
  -2  -8   7  228.28   17.10
  -2  -8   7  176.28   33.30
  -2  -8   7  277.77   37.90
   1   8  -7   12.40   17.90
   1   8  -7    8.40    8.50
   1   8  -7   10.90   15.90
  -1  -8   7   20.10   16.30
  -1  -8   7    5.80   17.10
  -1  -8   7   19.30   15.30
   0   8  -7   60.09   25.00
   0   8  -7   48.90   22.50
   0  -8   7   60.69   24.10
   0  -8   7   83.49   21.20
   0  -8   7   99.19   17.50
  -1   8  -7  -10.10   17.00
  -1   8  -7   54.19   23.40
  -1   8  -7   -8.20   24.60
   1  -8   7   -4.80   13.90
   1  -8   7   -8.30   11.40
   1  -8   7   10.50   16.10
  -2   8  -7  -11.60   25.40
  -2   8  -7  -27.40   11.00
  -2   8  -7   19.20   19.00
   2  -8   7   11.80   14.20
   2  -8   7  -11.20   16.80
  -3   8  -7   44.70   24.00
  -3   8  -7   -9.60   15.90
  -3   8  -7   34.90   20.40
   3  -8   7   60.39   27.90
   3  -8   7   30.50   21.20
  -4   8  -7  -28.00   16.00
  -4   8  -7   -8.00   17.60
  -4   8  -7  -35.60   17.40
  -4   8  -7   11.60   20.50
   4  -8   7    9.80   25.30
   4  -8   7    9.60   19.30
  -5   8  -7  -33.10   23.90
  -5   8  -7    0.20   19.70
  -5   8  -7   13.50   21.10
   5  -8   7   26.80   25.60
   5  -8   7   -7.00   23.90
   8   7  -7   94.99   31.90
   8   7  -7   -6.20   31.20
   8   7  -7   26.20   14.80
  -8  -7   7   17.70   17.30
   7   7  -7  -43.30   19.80
   7   7  -7  -45.30   21.10
   7   7  -7    9.10   13.40
  -7  -7   7   18.50   14.00
   6   7  -7   20.80   14.20
   6   7  -7   36.30   21.00
  -6  -7   7    3.20   10.60
   5   7  -7   26.80   17.60
   5   7  -7   55.79   24.50
  -5  -7   7   41.10   12.10
   4   7  -7  134.29   26.40
   4   7  -7  164.48   32.30
  -4  -7   7  179.08   20.40
   3   7  -7  203.48   31.00
   3   7  -7  198.98   35.20
  -3  -7   7  173.38   31.50
  -3  -7   7  219.88   34.90
   2   7  -7   61.89   23.20
  -2  -7   7   44.50   18.50
  -2  -7   7   19.90   10.70
  -2  -7   7   40.90   18.30
   1   7  -7   90.59   25.00
   1   7  -7   94.99   21.00
   1   7  -7   79.09   23.10
  -1  -7   7   81.59   19.90
  -1  -7   7   53.49   21.00
  -1  -7   7   82.99   15.90
   0   7  -7   29.80   20.70
   0   7  -7   32.40   19.10
   0   7  -7   12.10    7.50
   0  -7   7   31.80   18.50
   0  -7   7   20.60   13.30
   0  -7   7   10.20   14.10
  -1   7  -7   61.89   18.00
  -1   7  -7   60.89   20.40
  -1   7  -7   52.49   24.20
   1  -7   7   88.09   19.90
   1  -7   7   56.19   15.40
   1  -7   7   79.79   25.10
  -2   7  -7   -7.00   14.80
  -2   7  -7    1.30   14.20
  -2   7  -7    5.50   18.70
   2  -7   7   26.10   18.00
   2  -7   7    6.60   15.10
  -3   7  -7   21.10   19.90
  -3   7  -7   -0.50   13.10
   3  -7   7   25.90   24.10
   3  -7   7   37.30   19.30
  -4   7  -7   -7.10   14.50
  -4   7  -7  -13.00   20.10
  -4   7  -7   -2.80   17.20
   4  -7   7    7.20   21.50
   4  -7   7   17.60   19.40
  -5   7  -7  -15.20   23.10
  -5   7  -7  -14.70   18.40
  -5   7  -7   52.99   23.10
   5  -7   7   -9.10   23.10
  -6   7  -7    7.90   42.10
  -6   7  -7   22.50   21.30
  -6   7  -7    5.50   26.40
   6  -7   7  -15.90   23.90
   6  -7   7  -14.50   29.50
   6  -7   7  -10.60   10.80
   8   6  -7  -29.20   23.60
   8   6  -7  -19.20   13.20
   8   6  -7  -26.10   19.10
  -8  -6   7   -7.80   16.70
   7   6  -7  -22.00   17.00
   7   6  -7   -5.30   20.40
   7   6  -7  -22.10   14.00
  -7  -6   7   17.20   13.50
  -7  -6   7   22.20   14.10
   6   6  -7  150.48   31.70
   6   6  -7  108.19   22.40
  -6  -6   7  133.59   21.30
  -6  -6   7  128.19   23.60
   5   6  -7   26.20   14.90
   5   6  -7   37.20   21.60
  -5  -6   7   49.50   18.30
   4   6  -7  -10.10   15.20
   4   6  -7    2.60   13.80
  -4  -6   7   30.60   16.50
   3   6  -7  434.36   41.70
   3   6  -7  522.85   41.50
  -3  -6   7  485.65   32.00
  -3  -6   7  505.95   41.30
  -3  -6   7  470.15   42.30
   2   6  -7   21.60   18.30
   2   6  -7   10.60   15.60
  -2  -6   7   29.70   17.80
  -2  -6   7   11.50   10.80
  -2  -6   7   29.50   16.10
   1   6  -7   44.80   20.30
   1   6  -7   55.59   14.30
   1   6  -7   34.90   18.70
  -1  -6   7   28.70   13.90
  -1  -6   7   34.50   16.60
  -1  -6   7   54.59   16.80
   0   6  -7    0.70   16.50
   0  -6   7  -11.80    8.90
   0  -6   7   12.40   12.60
   0  -6   7   -2.10   12.80
  -1   6  -7    4.20   12.20
  -1   6  -7   15.00   17.40
  -1   6  -7   -1.30   10.90
  -1   6  -7   10.60   13.70
   1  -6   7  -13.30   11.30
   1  -6   7   -4.10    9.00
  -2   6  -7   63.59   18.10
  -2   6  -7   18.50   16.30
  -2   6  -7   29.50   16.40
   2  -6   7   15.30   16.70
   2  -6   7   24.80   17.70
  -3   6  -7  -23.10   13.20
  -3   6  -7  -40.10   15.90
  -3   6  -7    0.30   12.60
  -3   6  -7   -9.80   15.90
   3  -6   7  -25.20   12.10
   3  -6   7   21.40   18.80
  -4   6  -7   13.20   18.10
  -4   6  -7   31.90   15.90
   4  -6   7   17.30   21.00
   4  -6   7  -20.30   18.50
  -5   6  -7   91.39   28.80
  -5   6  -7   46.40   20.70
  -5   6  -7   82.59   27.60
   5  -6   7  152.18   39.00
   5  -6   7   75.99   17.40
   5  -6   7  107.29   30.00
  -6   6  -7    5.00   17.90
   6  -6   7   44.20   26.70
   6  -6   7  -20.60   25.10
   6  -6   7   19.70   13.80
   9   5  -7   -4.50   28.60
   9   5  -7  -20.30   21.90
  -9  -5   7  -21.40   15.00
   8   5  -7   74.59   27.30
   8   5  -7   13.20   14.70
   8   5  -7   37.40   28.80
  -8  -5   7   14.60   18.30
  -8  -5   7   51.39   18.90
   7   5  -7    1.50   18.10
   7   5  -7   47.70   17.20
  -7  -5   7   46.20   17.60
  -7  -5   7   42.80   18.00
   6   5  -7  132.99   24.10
   6   5  -7  175.48   31.90
  -6  -5   7  135.99   23.90
  -6  -5   7   96.79   21.80
   5   5  -7  213.88   32.70
   5   5  -7  191.18   33.60
   5   5  -7  234.78   31.50
  -5  -5   7  228.78   32.20
   4   5  -7   50.09   19.20
   4   5  -7   37.90   17.40
  -4  -5   7   58.79   10.00
  -4  -5   7   83.19   20.00
   3   5  -7  147.89   26.30
   3   5  -7  148.89   25.10
  -3  -5   7  143.09   21.40
  -3  -5   7  155.58   27.10
  -3  -5   7  159.88   28.30
   2   5  -7  191.28   29.70
   2   5  -7  225.28   31.90
  -2  -5   7  174.08   27.40
  -2  -5   7  184.48   24.70
  -2  -5   7  207.88   30.50
   1   5  -7   17.70   15.60
   1   5  -7   -1.50   15.20
   1   5  -7    9.20   11.50
  -1  -5   7  -33.90   10.70
  -1  -5   7    7.80   11.50
  -1  -5   7   -4.00    9.90
   0   5  -7  234.18   23.50
   0   5  -7  225.68   32.30
   0   5  -7  222.68   32.20
   0  -5   7  253.57   26.10
   0  -5   7  257.97   28.80
   0  -5   7  256.27   35.30
  -1   5  -7   74.49   20.20
  -1   5  -7   85.79   23.70
  -1   5  -7   83.59   23.60
   1  -5   7   81.69   11.20
   1  -5   7  104.89   22.70
   1  -5   7   92.49   22.80
  -2   5  -7   25.40   16.70
  -2   5  -7    8.30   11.20
  -2   5  -7    3.80   14.00
  -2   5  -7    2.70   13.60
   2  -5   7    3.60   13.80
  -3   5  -7  121.99   27.90
  -3   5  -7  128.69   29.40
  -3   5  -7  112.79   19.90
   3  -5   7   87.69   25.40
   3  -5   7  143.89   29.80
  -4   5  -7  413.56   43.30
  -4   5  -7  344.87   46.20
  -4   5  -7  423.96   33.60
   4  -5   7  342.87   30.50
   4  -5   7  290.17   42.60
   4  -5   7  351.76   41.10
  -5   5  -7  293.87   44.90
  -5   5  -7  257.27   28.90
   5  -5   7  258.77   43.10
   5  -5   7  226.78   29.80
   5  -5   7  293.27   45.30
  -6   5  -7   16.60   22.10
  -6   5  -7   50.99   18.60
   6  -5   7   16.10   17.90
   6  -5   7   99.39   32.00
   6  -5   7   74.39   33.10
   9   4  -7  -37.20   24.50
   9   4  -7  -10.10   16.00
   9   4  -7   46.50   25.50
  -9  -4   7  -26.80   19.10
  -9  -4   7   -0.60   16.00
   8   4  -7   13.00   19.10
   8   4  -7   35.20   24.20
  -8  -4   7   45.90   20.10
  -8  -4   7   40.10   19.10
   7   4  -7   -5.30   12.50
   7   4  -7   19.60   17.10
  -7  -4   7   27.80   16.20
  -7  -4   7   14.30   16.90
   6   4  -7  -15.50   11.90
   6   4  -7  -23.50   13.00
   6   4  -7  -14.20   12.20
  -6  -4   7   -7.10   14.30
   5   4  -7  244.38   31.70
   5   4  -7  324.07   34.00
   5   4  -7  283.57   39.90
  -5  -4   7  246.58   32.10
   4   4  -7   92.69   21.10
   4   4  -7  134.09   24.70
   4   4  -7  126.29   27.20
  -4  -4   7  111.99   24.40
   3   4  -7  235.08   30.80
   3   4  -7  219.08   26.40
  -3  -4   7  177.58   29.20
  -3  -4   7  208.38   29.20
   2   4  -7   73.99   20.50
   2   4  -7   79.29   19.20
  -2  -4   7   41.80   16.30
  -2  -4   7   71.29   17.60
  -2  -4   7   67.99   17.50
   1   4  -7  105.49   20.20
   1   4  -7   70.69   19.00
   1   4  -7  107.19   22.90
  -1  -4   7   94.29   21.90
  -1  -4   7   74.29   19.90
  -1  -4   7  113.69   21.80
   0   4  -7   49.20   17.30
   0   4  -7   55.19   15.20
   0   4  -7   10.80   14.40
   0  -4   7   47.70   17.40
   0  -4   7   63.89   21.00
   0  -4   7    9.70   13.50
   0  -4   7   54.79   11.70
  -1   4  -7    0.10   13.60
  -1   4  -7   -6.40   13.50
  -1   4  -7   17.00   14.60
   1  -4   7    1.10   14.90
   1  -4   7   17.30   15.20
  -2   4  -7   83.09   21.10
  -2   4  -7   64.29   15.10
  -2   4  -7   97.79   25.10
  -2   4  -7  106.79   25.00
   2  -4   7   69.69   23.10
   2  -4   7   72.79   23.10
  -3   4  -7  297.27   24.40
  -3   4  -7  295.97   39.00
  -3   4  -7  288.27   39.50
   3  -4   7  250.87   29.00
   3  -4   7  315.27   42.00
   3  -4   7  246.38   38.20
  -4   4  -7  -13.20   13.80
  -4   4  -7  -27.80   14.00
  -4   4  -7    6.40   10.40
   4  -4   7  -14.00   11.30
   4  -4   7   -0.40   15.70
   4  -4   7  -21.30   19.40
  -5   4  -7   73.69   15.80
  -5   4  -7   98.59   27.20
  -5   4  -7   32.10   23.30
   5  -4   7   43.30   27.50
   5  -4   7  114.29   32.40
   5  -4   7   35.30   17.30
  -6   4  -7    7.80   16.30
  -6   4  -7    2.60   11.90
   6  -4   7   29.70   18.50
   6  -4   7   -4.80   27.60
   6  -4   7  -33.30   18.90
   9   3  -7   12.40   25.50
   9   3  -7   31.20   22.70
   9   3  -7   41.80   16.40
  -9  -3   7   -2.20   18.90
  -9  -3   7   28.00   19.50
   8   3  -7  128.99   31.90
   8   3  -7  291.07   42.70
  -8  -3   7  236.58   37.00
  -8  -3   7  263.37   35.10
   7   3  -7   27.90   15.90
   7   3  -7   -1.90   15.60
  -7  -3   7  -15.20   13.60
  -7  -3   7   50.79   19.30
   6   3  -7  765.12   49.30
   6   3  -7  762.42   49.90
   6   3  -7  777.22   57.39
  -6  -3   7  708.23   49.50
   5   3  -7  391.16   39.30
   5   3  -7  376.86   33.60
   5   3  -7  361.66   36.50
  -5  -3   7  392.36   37.40
   4   3  -7   29.70   13.90
   4   3  -7   21.60   13.90
   4   3  -7   16.30   16.90
  -4  -3   7   -5.20   14.10
  -4  -3   7   10.10   10.10
   3   3  -7  305.07   27.00
   3   3  -7  255.77   32.50
   3   3  -7  277.47   33.80
  -3  -3   7  240.68   32.50
  -3  -3   7  239.68   26.00
   2   3  -7   42.10   13.70
   2   3  -7   54.49   18.20
  -2  -3   7   42.40   16.60
  -2  -3   7   18.50   11.80
  -2  -3   7   60.29   19.90
   1   3  -7   16.40   11.80
   1   3  -7   14.50   12.40
   1   3  -7    7.50   12.70
  -1  -3   7    6.80   14.90
  -1  -3   7    7.80   14.40
  -1  -3   7   10.50   11.70
   0   3  -7   -0.40   10.20
   0   3  -7   18.20   12.60
   0   3  -7    0.80   12.00
   0  -3   7   19.00   13.80
   0  -3   7   24.30   16.60
   0  -3   7   -9.20   12.90
  -1   3  -7   11.00   12.60
  -1   3  -7    8.10   13.70
  -1   3  -7   11.20   14.70
   1  -3   7  -14.70   11.40
   1  -3   7  -17.80   11.30
   1  -3   7  -18.10   10.20
  -2   3  -7  211.08   32.40
  -2   3  -7  151.08   27.90
  -2   3  -7  130.79   16.30
   2  -3   7  160.78   28.90
   2  -3   7  168.38   30.10
   2  -3   7  172.88   26.10
  -3   3  -7  330.57   36.90
  -3   3  -7  241.98   34.80
  -3   3  -7  291.17   20.10
   3  -3   7  294.77   48.20
   3  -3   7  229.08   43.20
   3  -3   7  298.67   32.10
  -4   3  -7  -21.40   14.90
  -4   3  -7   -5.80    6.70
  -4   3  -7    1.60   16.10
   4  -3   7   10.60   19.10
   4  -3   7  -18.50   15.10
   4  -3   7   -4.20   12.40
  -5   3  -7  -25.10   18.30
  -5   3  -7   -3.60    7.70
  -5   3  -7   -3.60   15.50
  -5   3  -7    2.10   17.20
   5  -3   7   15.80   20.30
   5  -3   7  -28.40   17.00
  -6   3  -7   20.70   16.80
  -6   3  -7   87.59   26.40
   6  -3   7   -0.60   18.70
   6  -3   7   12.80   22.00
   6  -3   7   56.59   25.20
   9   2  -7   -3.80   19.80
   9   2  -7   28.40   13.30
   9   2  -7   -8.10   26.40
  -9  -2   7    8.80   22.90
   8   2  -7  109.19   18.40
   8   2  -7   82.79   23.60
  -8  -2   7  145.99   26.70
   7   2  -7  146.09   27.20
   7   2  -7  135.89   24.60
  -7  -2   7   79.49   23.50
   6   2  -7   11.40   15.20
   6   2  -7  -12.00   14.10
   6   2  -7   19.00   13.90
  -6  -2   7  -23.40   13.00
   5   2  -7   14.70   15.40
   5   2  -7   28.20   14.30
   5   2  -7   28.20   14.00
  -5  -2   7   49.80   13.50
  -5  -2   7   32.40   18.70
   4   2  -7   45.00   19.60
   4   2  -7   78.49   20.20
   4   2  -7   47.20   13.90
  -4  -2   7   45.90   14.40
  -4  -2   7   44.40   18.10
   3   2  -7   12.10   12.60
   3   2  -7    2.70    8.90
   3   2  -7    8.30   13.20
  -3  -2   7   11.00   15.70
   2   2  -7   32.70   13.20
   2   2  -7   27.70   15.20
   2   2  -7   58.29   14.20
   2   2  -7   51.79   18.60
  -2  -2   7   44.20   11.70
  -2  -2   7   48.20   18.80
  -2  -2   7   33.90   17.90
   1   2  -7  182.38   21.20
   1   2  -7  145.09   25.70
   1   2  -7  221.98   29.50
   1   2  -7  203.58   21.20
  -1  -2   7  178.28   21.10
  -1  -2   7  198.28   29.30
  -1  -2   7  171.18   27.60
   0   2  -7  158.98   26.00
   0   2  -7  137.69   17.30
   0   2  -7  135.59   21.10
   0   2  -7  124.29   24.20
   0  -2   7  125.49   26.00
   0  -2   7  140.89   26.60
   0  -2   7  140.19   22.70
  -1   2  -7   99.29   21.20
  -1   2  -7  102.09   23.50
   1  -2   7  128.39   23.30
   1  -2   7   93.89   23.60
   1  -2   7   75.29   21.50
  -2   2  -7   75.59   23.20
  -2   2  -7   31.20    5.70
  -2   2  -7   36.70   17.60
   2  -2   7   83.69   21.10
   2  -2   7   26.00   20.00
   2  -2   7   60.69   19.10
   2  -2   7    6.80   15.80
  -3   2  -7   36.50   18.00
  -3   2  -7   90.19   25.90
   3  -2   7   47.70   17.50
   3  -2   7   51.99   21.10
   3  -2   7    4.80   29.10
  -4   2  -7  386.86   38.00
  -4   2  -7  274.77   44.70
  -4   2  -7  330.97   41.30
   4  -2   7  384.56   42.20
   4  -2   7  431.96   41.20
   4  -2   7  364.46   48.70
  -5   2  -7   26.80   19.50
  -5   2  -7   55.49   25.60
  -5   2  -7   73.89   23.80
   5  -2   7   19.90   20.80
   5  -2   7   51.29   21.80
   5  -2   7    6.10   19.90
  -6   2  -7  -20.80   16.70
  -6   2  -7   12.50   19.80
  -6   2  -7   -9.60   23.50
   6  -2   7   13.70   23.50
   6  -2   7   31.30   25.00
   9   1  -7   28.30   42.30
   9   1  -7   74.69   12.30
  -9  -1   7   45.60   23.30
  -9  -1   7   80.89   27.70
   8   1  -7   71.69   21.40
   8   1  -7   57.29   11.90
   8   1  -7   15.50   19.30
  -8  -1   7   31.00   21.90
  -8  -1   7   47.00   30.60
   7   1  -7   86.59   20.40
  -7  -1   7  128.09   26.10
   6   1  -7   14.70   13.10
   6   1  -7   13.10   12.90
   6   1  -7   33.20   18.80
  -6  -1   7   -8.30   14.30
   5   1  -7   35.80   11.90
   5   1  -7   63.09   21.10
   5   1  -7   85.59   21.80
  -5  -1   7   33.60   18.00
  -5  -1   7   20.50   13.70
   4   1  -7  244.48   32.40
   4   1  -7  312.27   33.50
   4   1  -7  281.57   32.10
  -4  -1   7  269.37   28.20
  -4  -1   7  318.57   35.00
   3   1  -7    3.30    6.80
   3   1  -7   -5.90   11.50
   3   1  -7    2.00   11.90
  -3  -1   7   -5.10   10.10
  -3  -1   7   -6.50   13.10
   2   1  -7   -2.20   11.90
   2   1  -7    8.60   14.60
   2   1  -7   -4.30    7.20
   2   1  -7   15.00   10.70
  -2  -1   7    9.60   11.80
   1   1  -7  438.36   27.70
   1   1  -7  450.35   38.30
   1   1  -7  503.85   39.40
  -1  -1   7  444.36   27.50
  -1  -1   7  438.16   40.00
  -1  -1   7  485.35   41.90
   0   1  -7   76.19   20.90
   0   1  -7   70.69   19.60
   0   1  -7   73.59   11.40
   0  -1   7   98.49   23.30
   0  -1   7   64.19   20.60
   0  -1   7   79.69   16.40
  -1   1  -7    9.00    3.60
  -1   1  -7   11.50    3.10
  -1   1  -7   11.90   15.50
  -1   1  -7    8.70   14.20
   1  -1   7   19.70   16.00
   1  -1   7   28.70   14.60
   1  -1   7   12.10   15.40
   1  -1   7    2.20   13.90
  -2   1  -7  663.03   60.69
  -2   1  -7  716.23   48.50
   2  -1   7  760.72   51.89
   2  -1   7  702.93   54.89
   2  -1   7  780.12   48.30
   2  -1   7  805.82   51.39
  -3   1  -7    1.00   13.10
  -3   1  -7   16.20   17.20
   3  -1   7   15.40   16.80
   3  -1   7   40.90   23.40
   3  -1   7   -4.40   14.30
   3  -1   7   19.10   16.80
  -4   1  -7   76.99   22.60
  -4   1  -7   66.09   22.30
   4  -1   7   70.19   22.40
   4  -1   7   89.39   26.60
   4  -1   7   68.89   23.60
  -5   1  -7  -22.30   15.60
  -5   1  -7   22.90   18.60
  -5   1  -7    7.70   16.50
   5  -1   7  -30.10   15.90
   5  -1   7   41.30   24.40
  -6   1  -7   23.30   26.40
  -6   1  -7   -0.70   34.70
  -6   1  -7   15.30   20.40
   6  -1   7   25.80   26.50
   6  -1   7   12.40   26.90
   6  -1   7   24.70   21.40
   9   0  -7   17.60   30.00
  -9   0   7   -0.30   21.80
  -9   0   7    4.20   18.60
   8   0  -7    5.30    4.20
   8   0  -7   -9.00   12.80
   8   0  -7   40.50   24.10
  -8   0   7   -8.20   17.10
  -8   0   7   29.20   22.00
   7   0  -7  102.99   20.40
  -7   0   7   93.69   33.70
   6   0  -7  129.39   26.80
   6   0  -7  152.28   20.30
   6   0  -7  153.08   30.30
  -6   0   7  191.08   33.70
   5   0  -7   12.30    8.00
   5   0  -7   46.40   18.80
   5   0  -7  -10.00   11.50
  -5   0   7    8.10   13.60
  -5   0   7   24.40   16.90
   4   0  -7   87.09   20.50
   4   0  -7   80.39   22.10
   4   0  -7   48.60    8.40
  -4   0   7   26.80   18.60
  -4   0   7   26.90   15.20
   3   0  -7   44.10   17.80
   3   0  -7   28.20    6.00
   3   0  -7   46.10   15.40
   3   0  -7   29.10   18.00
  -3   0   7   31.30   16.60
  -3   0   7   33.50   15.90
   2   0  -7    2.70   14.90
   2   0  -7   -1.00   11.40
   2   0  -7    7.00    9.50
  -2   0   7    7.10   15.20
  -2   0   7    7.70   14.30
  -2   0   7    6.70    5.50
   1   0  -7  201.58   30.80
   1   0  -7  188.28   18.40
   1   0  -7  172.88   27.50
  -1   0   7  107.59   25.20
  -1   0   7  165.38   29.90
  -1   0   7  191.18   17.30
   0   0  -7   95.89   21.50
   0   0  -7  105.59   10.80
   0   0  -7  117.69   25.60
   0   0   7   82.49   15.80
   0   0   7   88.99   23.80
   0   0   7   43.70   19.90
  -1   0  -7  675.73   43.40
  -1   0  -7  532.25   42.70
   1   0   7  575.84   45.60
   1   0   7  598.74   48.80
   1   0   7  609.64   48.30
   1   0   7  701.93   40.90
  -2   0  -7  522.65   40.60
  -2   0  -7  521.85   41.60
   2   0   7  575.44   49.30
   2   0   7  568.44   50.69
   2   0   7  574.54   45.30
   2   0   7  532.75   40.30
  -3   0  -7    5.60   14.40
  -3   0  -7   13.80   13.00
   3   0   7   -4.40   15.30
   3   0   7   -2.60   12.40
   3   0   7   39.20   17.90
   3   0   7   -6.80   19.00
  -4   0  -7  133.29   28.90
  -4   0  -7  151.68   26.80
   4   0   7  123.39   29.70
   4   0   7   99.59   29.30
   4   0   7  165.18   36.50
  -5   0  -7   35.00   16.40
  -5   0  -7   16.40   16.90
  -5   0  -7    0.70   19.80
   5   0   7   -3.90   21.40
   5   0   7  -12.40   17.70
   5   0   7   30.20   23.20
  -6   0  -7   17.00   21.40
  -6   0  -7   39.90   20.80
  -6   0  -7    9.10   23.50
   6   0   7   -9.30   28.50
   6   0   7   24.30   24.70
   6   0   7   84.59   29.20
   9  -1  -7   17.20   21.40
  -9   1   7   22.40   21.90
  -9   1   7    4.60   26.90
   8  -1  -7   44.80   27.00
  -8   1   7   94.99   31.30
  -8   1   7  105.59   29.20
   7  -1  -7    6.30    9.70
  -7   1   7   -9.30   16.50
  -7   1   7   26.60   20.80
   6  -1  -7   20.80    6.10
   6  -1  -7   13.30    8.50
   6  -1  -7   -3.50   16.20
  -6   1   7   30.50   20.80
  -6   1   7   25.30   19.50
   5  -1  -7   -0.90    4.40
   5  -1  -7   -2.20    3.60
   5  -1  -7   -6.10   13.40
   5  -1  -7    4.80   15.00
  -5   1   7   13.20   15.30
  -5   1   7    2.80   13.70
  -5   1   7   13.90   17.10
   4  -1  -7   -6.00   16.40
   4  -1  -7   18.40   14.30
  -4   1   7    1.70   17.30
  -4   1   7   31.80   16.30
  -4   1   7   -0.60   14.20
   3  -1  -7   17.60   13.60
   3  -1  -7   27.60   13.40
   3  -1  -7   12.50   16.20
  -3   1   7   34.20   16.40
  -3   1   7   16.00   16.90
  -3   1   7   39.80   18.40
   2  -1  -7  171.28   22.90
   2  -1  -7  161.38   29.00
   2  -1  -7  183.38   33.20
   2  -1  -7  188.88   21.80
  -2   1   7  159.48   29.30
  -2   1   7  162.28   30.10
   1  -1  -7   39.30   15.80
   1  -1  -7   33.10   10.50
   1  -1  -7   50.29   14.50
   1  -1  -7   43.40   20.00
  -1   1   7   41.50   20.50
  -1   1   7   15.30   17.00
  -1   1   7   24.90    7.60
   0  -1  -7   21.90   16.40
   0  -1  -7   29.30   19.10
   0  -1  -7   22.60   15.30
   0  -1  -7   21.80    6.40
   0   1   7   -8.80   15.50
   0   1   7   23.60   16.50
   0   1   7   34.30   11.00
  -1  -1  -7  124.29   23.20
  -1  -1  -7   78.49   20.60
   1   1   7   86.29   22.80
   1   1   7  115.79   26.90
   1   1   7  124.79   21.30
   1   1   7  141.79   39.60
  -2  -1  -7  -34.80   13.20
  -2  -1  -7    4.80   13.00
   2   1   7    7.10   15.90
   2   1   7  -11.20   13.30
   2   1   7    0.00   16.20
   2   1   7   14.60   14.10
  -3  -1  -7   71.79   20.20
  -3  -1  -7   48.20   19.70
   3   1   7   70.49   24.00
   3   1   7   27.50   17.60
   3   1   7   57.79   22.60
   3   1   7   62.69   25.30
  -4  -1  -7    8.60   15.90
  -4  -1  -7   46.20   21.80
  -4  -1  -7   -8.20   18.70
   4   1   7   24.30   18.40
   4   1   7   -4.40   21.70
   4   1   7    1.20   17.10
   4   1   7    1.10   13.40
  -5  -1  -7    1.30   21.10
  -5  -1  -7   29.40   18.20
  -5  -1  -7    6.20   22.30
   5   1   7   43.20   23.60
   5   1   7   16.40   20.80
   5   1   7   34.10   24.30
  -6  -1  -7  -24.90   20.60
  -6  -1  -7    9.50   16.90
  -6  -1  -7   20.60   30.60
   6   1   7   42.30   25.60
   6   1   7    2.80   25.80
   9  -2  -7  -13.80   17.50
   9  -2  -7  -12.80   13.70
   9  -2  -7  -55.99   19.50
  -9   2   7   31.10   21.20
  -9   2   7  -20.30   25.00
  -9   2   7  -10.10   24.80
   8  -2  -7   51.79   15.50
   8  -2  -7   51.39   26.10
   8  -2  -7   18.70   25.10
  -8   2   7   26.60   23.50
  -8   2   7   84.09   28.50
   7  -2  -7   -6.60    8.30
   7  -2  -7    6.90   11.10
   7  -2  -7    8.50   17.80
  -7   2   7   -4.80   18.60
  -7   2   7  -37.30   15.20
   6  -2  -7   -0.80    4.30
   6  -2  -7   -5.30   14.60
   6  -2  -7   -0.90    4.90
  -6   2   7   25.00   18.30
  -6   2   7   -2.40   15.50
   5  -2  -7   19.30    7.80
   5  -2  -7   20.20   18.70
  -5   2   7   27.20   19.20
  -5   2   7   48.70   20.60
  -5   2   7   81.19   22.80
   4  -2  -7   39.30   18.70
   4  -2  -7   21.00    9.80
   4  -2  -7   37.00   18.00
   4  -2  -7   20.70   17.10
  -4   2   7   57.39   22.50
  -4   2   7   40.60   18.20
  -4   2   7   55.19   22.00
   3  -2  -7  114.29   19.10
   3  -2  -7  187.18   27.10
   3  -2  -7  140.99   31.50
  -3   2   7  161.78   30.70
  -3   2   7  161.98   27.20
  -3   2   7  123.89   27.60
   2  -2  -7    1.40   15.70
   2  -2  -7   12.60   11.00
   2  -2  -7   49.00   14.50
   2  -2  -7   10.50   15.50
  -2   2   7   37.60   20.70
  -2   2   7   49.20   15.50
  -2   2   7   15.50   18.20
   1  -2  -7   13.50    9.10
   1  -2  -7   11.20   16.90
   1  -2  -7   -3.00   14.20
   1  -2  -7    3.70   10.90
  -1   2   7   24.80   21.10
  -1   2   7   -7.70   14.80
  -1   2   7    7.50    4.70
  -1   2   7    6.80   16.60
  -1   2   7    6.80    9.30
   0  -2  -7   65.99   20.20
   0  -2  -7   43.60   17.40
   0  -2  -7   67.49   24.60
   0   2   7   50.09   23.60
   0   2   7   79.59   22.10
   0   2   7   44.70   18.90
   0   2   7   72.59   13.80
  -1  -2  -7   29.70   17.60
  -1  -2  -7   47.80   18.10
   1   2   7   28.20   38.60
   1   2   7   10.60   12.60
   1   2   7   38.80   20.70
   1   2   7   36.20   19.10
  -2  -2  -7  -17.80   13.70
  -2  -2  -7   18.50   16.30
   2   2   7   36.20   18.00
   2   2   7   22.50   16.90
   2   2   7   54.09   23.00
   2   2   7   -3.00   17.90
  -3  -2  -7   29.70   15.30
  -3  -2  -7   49.60   18.40
   3   2   7   61.89   25.10
   3   2   7   23.00   22.90
   3   2   7    9.70   16.60
   3   2   7   11.50   15.40
  -4  -2  -7   22.40   15.80
  -4  -2  -7   48.50   22.40
   4   2   7  -17.10   20.20
   4   2   7   -1.20   21.80
   4   2   7   72.09   24.00
   4   2   7   21.20   16.60
  -5  -2  -7   55.19   24.80
  -5  -2  -7   49.10   18.80
   5   2   7   49.80   28.30
   5   2   7    2.90   23.50
   9  -3  -7    2.90   13.40
   9  -3  -7   41.70   28.60
   9  -3  -7   -5.80   19.40
  -9   3   7   12.40   27.80
  -9   3   7   15.20   24.40
  -9   3   7  -46.20   20.40
   8  -3  -7   27.70   23.00
   8  -3  -7   -7.20    8.90
   8  -3  -7   14.50   19.90
  -8   3   7  -21.50   17.70
  -8   3   7   -0.30   21.30
   7  -3  -7   83.79   10.90
   7  -3  -7   89.19   29.60
   7  -3  -7   84.99   11.60
  -7   3   7  106.09   30.60
  -7   3   7   67.79   29.10
   6  -3  -7    0.20   17.80
  -6   3   7   29.70   23.50
  -6   3   7  -29.40   15.70
   5  -3  -7  -14.50   18.40
   5  -3  -7    3.90   14.10
  -5   3   7  -17.60   13.70
  -5   3   7   25.90   18.90
  -5   3   7   22.20   17.00
   4  -3  -7  221.78   20.10
   4  -3  -7  187.38   35.10
   4  -3  -7  183.68   30.40
  -4   3   7  199.98   35.90
  -4   3   7  215.38   34.50
  -4   3   7  237.18   35.30
   3  -3  -7  -19.90    8.10
   3  -3  -7   11.10   14.00
  -3   3   7   -4.20   14.10
  -3   3   7   16.20   15.20
   2  -3  -7  455.25   41.70
   2  -3  -7  444.46   34.20
   2  -3  -7  485.75   34.50
  -2   3   7  508.35   37.10
  -2   3   7  484.65   45.90
  -2   3   7  484.65   48.10
   1  -3  -7  174.28   38.00
   1  -3  -7  169.38   21.00
   1  -3  -7  104.79   22.40
  -1   3   7  114.39   34.80
  -1   3   7  130.99    6.40
  -1   3   7  174.88   22.00
  -1   3   7  119.29   28.70
  -1   3   7  142.19   26.70
   0  -3  -7   12.70   16.30
   0  -3  -7   33.60   17.60
   0  -3  -7   44.20   17.20
   0   3   7   18.30   25.20
   0   3   7   28.70   11.00
   0   3   7   16.60    8.90
   0   3   7   44.40   20.00
  -1  -3  -7    7.20   16.60
  -1  -3  -7   50.59   18.00
   1   3   7   15.80   18.20
   1   3   7   35.70   21.80
   1   3   7   33.30   14.40
  -2  -3  -7   11.50   14.30
  -2  -3  -7   32.30   17.30
   2   3   7   58.29   18.60
   2   3   7   28.40   19.50
   2   3   7    0.10   15.30
  -3  -3  -7   -3.70   14.20
  -3  -3  -7    4.50   14.50
   3   3   7    2.80   13.80
   3   3   7    9.00   21.40
   3   3   7    6.90   19.50
  -4  -3  -7    5.90   17.50
  -4  -3  -7   19.80   16.00
   4   3   7   -5.70   15.00
   4   3   7  -15.80   20.70
   4   3   7   20.80   23.10
  -5  -3  -7    3.10   22.20
  -5  -3  -7   22.50   16.80
  -5  -3  -7    0.20   14.40
   5   3   7  -24.90   27.00
   5   3   7    5.90   25.10
   8  -4  -7   71.89   28.40
   8  -4  -7   25.50   21.00
  -8   4   7   -2.80   23.10
  -8   4   7    5.50   25.30
   7  -4  -7   27.10   19.80
   7  -4  -7   22.40   20.00
  -7   4   7   76.29   31.60
  -7   4   7   10.50   21.80
   6  -4  -7   -0.90   21.80
  -6   4   7    0.00   17.40
  -6   4   7    9.60   19.70
   5  -4  -7   -4.20   17.10
   5  -4  -7   27.70   18.90
  -5   4   7   48.30   24.00
  -5   4   7    8.40   17.60
   4  -4  -7   28.80   19.90
   4  -4  -7   52.79   19.60
  -4   4   7   45.50   27.70
  -4   4   7   45.50   20.60
  -4   4   7   26.10   22.00
   3  -4  -7    2.80   10.30
   3  -4  -7  -18.30    9.70
   3  -4  -7   11.60   12.60
  -3   4   7   -1.30   13.50
  -3   4   7    6.60   15.50
  -3   4   7  -12.30   15.70
   2  -4  -7  -11.50   10.40
   2  -4  -7   -4.10    9.60
   2  -4  -7  -12.60   15.30
  -2   4   7   -4.00   11.30
  -2   4   7    6.30   13.40
  -2   4   7    6.30   11.90
   1  -4  -7   52.29   18.60
   1  -4  -7   63.09   23.60
  -1   4   7   46.30   24.00
  -1   4   7   65.99   16.30
   0  -4  -7   17.00   18.40
   0   4   7   11.50    9.60
   0   4   7    1.20   16.00
   0   4   7  -23.10   15.60
   0   4   7   -3.40    8.40
   0   4   7    0.20   11.60
  -1  -4  -7   -7.20   13.60
   1   4   7   10.90   17.50
   1   4   7   23.30   20.40
   1   4   7    9.30    5.50
   1   4   7  -31.80   14.50
  -2  -4  -7   14.70   18.50
   2   4   7  -42.20   19.90
   2   4   7    9.90   16.60
   2   4   7  -10.30   15.50
   2   4   7  -16.50   14.60
  -3  -4  -7   22.30   22.60
   3   4   7   30.70   22.10
   3   4   7   33.00   19.20
   3   4   7   42.40   20.40
   3   4   7   20.80   21.90
  -4  -4  -7   38.90   24.60
  -4  -4  -7   40.70   19.30
   4   4   7   66.89   31.20
   4   4   7   28.90   20.10
   4   4   7   27.40   27.50
   8  -5  -7  100.29   34.80
   8  -5  -7  123.89   38.30
   8  -5  -7   43.00   28.30
  -8   5   7   58.59   31.40
  -8   5   7  104.69   44.40
   7  -5  -7   14.20   22.10
   7  -5  -7  -11.90   18.00
   7  -5  -7   -3.80   21.80
  -7   5   7  -23.80   19.60
  -7   5   7  -15.00   22.70
   6  -5  -7   26.80   21.80
   6  -5  -7    8.00   20.80
  -6   5   7  -12.50   21.50
  -6   5   7   46.00   23.10
   5  -5  -7   63.69   26.90
  -5   5   7  -23.60   14.50
  -5   5   7    7.60   17.70
   4  -5  -7  293.37   46.20
   4  -5  -7  221.78   34.80
  -4   5   7  185.18   54.29
  -4   5   7  233.48   43.20
  -4   5   7  223.18   38.50
   3  -5  -7  109.29   31.70
   3  -5  -7  159.68   27.90
  -3   5   7   82.59   28.40
  -3   5   7  201.08   33.20
  -3   5   7  105.19   30.50
   2  -5  -7  167.48   25.90
   2  -5  -7  191.58   36.60
  -2   5   7  234.38   36.20
  -2   5   7  136.89   31.90
  -2   5   7  229.38   31.50
   1  -5  -7   18.80   20.70
   1  -5  -7   -0.30   12.70
  -1   5   7   31.10   13.90
  -1   5   7   16.90   19.10
  -1   5   7   26.50   21.50
   0  -5  -7   33.00   18.70
   0   5   7   50.09   13.60
   0   5   7   70.49   24.90
   0   5   7   52.19   13.40
   0   5   7   84.69   24.70
   0   5   7   39.00   24.10
  -1  -5  -7   13.10   15.90
   1   5   7    4.40   25.10
   1   5   7   71.49   18.20
   1   5   7   -4.90   21.30
   1   5   7   40.00   26.70
  -2  -5  -7    2.30   16.00
   2   5   7   14.40   22.90
   2   5   7   -9.60   17.60
   2   5   7  -26.80   19.40
   2   5   7   16.70   28.60
   2   5   7    7.80   16.30
  -3  -5  -7   18.30   24.70
   3   5   7  -32.40   27.40
   3   5   7   -1.10   24.30
   3   5   7  -23.80   20.20
   3   5   7   -3.30   18.00
   7  -6  -7  -24.40   19.00
   7  -6  -7   -3.90   23.10
  -7   6   7   16.80   26.00
  -7   6   7   17.10   20.50
   6  -6  -7  -28.60   19.80
   6  -6  -7   42.70   25.40
  -6   6   7   -7.40   19.00
  -6   6   7   -4.10   23.00
   5  -6  -7   59.19   25.80
   5  -6  -7   20.50   21.60
  -5   6   7   44.80   24.50
  -5   6   7   31.70   24.00
   4  -6  -7    3.40   19.70
   4  -6  -7    7.40   27.00
  -4   6   7   14.30   20.20
  -4   6   7   -8.80   21.10
  -4   6   7    7.30   18.00
   3  -6  -7   38.80   23.00
  -3   6   7   21.20   21.50
  -3   6   7   16.70   24.00
   2  -6  -7   -0.70   20.90
  -2   6   7   -7.80   20.40
  -2   6   7  -18.10   16.90
  -2   6   7    7.30   17.50
  -2   6   7    4.40   14.80
  -1   6   7   80.59   20.20
  -1   6   7   38.70   23.70
  -1   6   7   61.99    8.50
  -1   6   7  153.48   30.40
  -1   6   7   69.89   31.30
   0   6   7   15.40   20.40
   0   6   7    4.70   12.40
   0   6   7  -43.10   20.90
   0   6   7   -4.90   10.00
   0   6   7  -27.80   23.40
   1   6   7  -34.50   17.10
   1   6   7  -14.10   13.60
   1   6   7    1.50   23.80
   1   6   7   -6.50    8.90
   1   6   7   13.80   22.00
   2   6   7   49.40   27.50
   2   6   7   22.60   20.90
   2   6   7   40.70   21.90
   2   6   7  -34.20   23.30
   2   6   7   28.10   33.00
   5  -7  -7   87.29   33.10
   5  -7  -7   68.79   26.70
  -5   7   7   42.30   32.30
  -5   7   7   33.60   25.10
   4  -7  -7  -15.40   21.20
   4  -7  -7    9.60   19.30
  -4   7   7    5.70   20.10
  -4   7   7    6.00   19.00
   3  -7  -7  -15.70   19.60
  -3   7   7   18.90   18.20
  -3   7   7   -5.20   17.60
  -3   7   7  -12.80   21.40
   2  -7  -7   24.10   24.50
  -2   7   7   72.69   35.90
  -2   7   7   -1.00   30.40
  -2   7   7   29.20   24.50
  -2   7   7   29.30   25.20
  -1   7   7  -23.70   19.60
  -1   7   7   23.50    7.90
  -1   7   7   67.69   31.20
  -1   7   7    3.90   21.90
  -1   7   7   13.60   20.00
   0   7   7   62.19   16.00
   0   7   7   60.99   26.90
   0   7   7   35.30   18.10
   0   7   7   51.69   24.00
   0   7   7   62.69   26.90
   1   7   7  -10.40   26.90
   1   7   7    6.60   12.80
   1   7   7  -28.20   30.50
   1   7   7    1.20   16.70
   1   7   7    8.30   23.80
   3  11  -8   20.20   26.50
   3  11  -8   16.60   24.70
  -3 -11   8   -1.30   21.60
  -3 -11   8   18.60   14.10
   2  11  -8    6.30   22.80
   2  11  -8  -11.50   29.10
  -2 -11   8   -6.90   28.80
  -2 -11   8  -12.70   16.40
  -2 -11   8  -18.70   18.80
   1  11  -8   63.29   39.70
  -1 -11   8   -2.10   22.00
  -1 -11   8   79.99   35.10
   0  11  -8   21.60   26.50
   0  11  -8  -13.30   34.10
   0  11  -8  -28.70   17.60
   0 -11   8   34.50   24.60
   0 -11   8   25.10   28.50
  -1  11  -8   10.80   26.10
  -1  11  -8    9.20   29.10
   1 -11   8    3.80   21.40
   1 -11   8   42.00   37.60
   5  10  -8  -31.10   33.80
   5  10  -8  -30.70   17.40
  -5 -10   8   17.50   27.10
   4  10  -8   22.70   26.20
   4  10  -8    9.90   22.20
  -4 -10   8   19.40   23.30
   3  10  -8   38.30   25.90
   3  10  -8   33.60   22.30
  -3 -10   8   21.30   13.70
  -3 -10   8   41.10   23.70
   2  10  -8   56.69   26.40
   2  10  -8   19.50   22.90
  -2 -10   8  -23.90   23.40
  -2 -10   8   22.00   21.30
   1  10  -8   -1.40   20.60
   1  10  -8    4.40   22.80
  -1 -10   8   -4.40   23.70
  -1 -10   8    3.30   21.40
   0  10  -8   19.30   21.90
   0  10  -8   -4.50   21.90
   0  10  -8   -1.80   21.20
   0 -10   8   16.20   10.80
   0 -10   8   -1.20   18.30
  -1  10  -8   22.20   23.70
  -1  10  -8   30.90   26.40
  -1  10  -8   23.40   35.80
   1 -10   8   24.60   28.40
   1 -10   8    8.90   18.70
   1 -10   8    5.60   14.50
  -2  10  -8    1.00   25.40
  -2  10  -8   23.30   25.40
  -2  10  -8   36.20   24.90
   2 -10   8   26.60   18.30
   2 -10   8   21.40   23.90
  -3  10  -8  -35.40   21.40
  -3  10  -8  -16.30   26.00
  -3  10  -8   34.10   29.00
  -3  10  -8   18.80   19.60
   3 -10   8  -21.70   21.70
   3 -10   8  -19.00   29.50
   6   9  -8  -14.30   23.20
   6   9  -8   -8.30   18.10
  -6  -9   8   24.20   23.90
   5   9  -8  -10.50   16.90
   5   9  -8  -10.00   22.10
  -5  -9   8   40.00   25.20
   4   9  -8    4.40   21.20
   4   9  -8   29.80   19.00
  -4  -9   8   31.30   22.90
   3   9  -8   39.40   27.10
   3   9  -8   -1.10   19.70
  -3  -9   8  -26.90   15.70
  -3  -9   8   -3.40   18.20
   2   9  -8   -7.80   18.00
   2   9  -8   31.80   25.80
  -2  -9   8  -33.90   18.50
  -2  -9   8   11.90    7.20
   1   9  -8   16.40   20.40
   1   9  -8   19.90    8.00
   1   9  -8   51.49   23.80
  -1  -9   8   12.10   11.10
  -1  -9   8   -3.00   16.20
  -1  -9   8   15.50   18.90
   0   9  -8    3.50   21.90
   0   9  -8   34.20   23.90
   0  -9   8  -15.30   15.40
   0  -9   8   -6.60   12.20
   0  -9   8  -20.30   20.40
  -1   9  -8  125.69   34.90
  -1   9  -8   75.69   30.90
  -1   9  -8   66.39   25.10
   1  -9   8   86.59   22.20
   1  -9   8   84.29   30.80
   1  -9   8   60.59   21.80
  -2   9  -8   87.99   29.90
  -2   9  -8  104.79   24.80
  -2   9  -8   69.09   27.50
  -2   9  -8  160.88   36.70
   2  -9   8  163.98   36.40
   2  -9   8  162.68   29.40
  -3   9  -8  -33.80   22.10
  -3   9  -8  -36.60   21.00
  -3   9  -8   13.30   19.80
  -3   9  -8   40.30   20.60
   3  -9   8   22.40   19.40
  -4   9  -8   -9.80   24.70
  -4   9  -8   -4.70   21.00
  -4   9  -8  -61.49   25.60
  -4   9  -8   37.20   23.20
   4  -9   8   -6.10   23.60
   4  -9   8   19.70   28.00
   7   8  -8    6.80   17.70
   7   8  -8  -19.70   27.60
   7   8  -8    2.30   24.80
  -7  -8   8   26.30   14.00
   6   8  -8   45.60   24.30
   6   8  -8    5.30   16.30
  -6  -8   8    7.30   10.40
  -6  -8   8   -4.00   10.30
   5   8  -8  -37.20   15.80
   5   8  -8    1.60   16.60
  -5  -8   8   -0.60    8.70
  -5  -8   8    7.00   10.10
  -5  -8   8   13.00   20.00
   4   8  -8   -6.80   21.60
   4   8  -8    4.10   17.90
  -4  -8   8   22.70   19.10
  -4  -8   8   30.70    7.70
   3   8  -8   19.00   17.90
   3   8  -8    5.20   23.30
  -3  -8   8   38.80   21.20
  -3  -8   8   25.00   33.30
  -3  -8   8   26.80   14.60
   2   8  -8    4.50   20.30
   2   8  -8   48.60   22.50
  -2  -8   8   42.40   19.60
  -2  -8   8  -10.10    9.40
  -2  -8   8  -17.70   16.60
   1   8  -8   18.20   18.70
   1   8  -8   19.10   21.10
  -1  -8   8   -7.90   14.80
  -1  -8   8   18.70   12.30
  -1  -8   8   -2.00   17.10
   0   8  -8   55.99   23.50
   0   8  -8   85.99   27.50
   0  -8   8   82.19   21.10
   0  -8   8   65.89   17.70
   0  -8   8   57.09   22.40
  -1   8  -8  440.26   50.59
  -1   8  -8  453.25   45.10
   1  -8   8  431.26   31.20
   1  -8   8  336.57   47.50
   1  -8   8  386.56   37.60
  -2   8  -8  232.08   33.00
  -2   8  -8  210.88   34.60
  -2   8  -8  154.18   33.30
  -2   8  -8  233.38   41.10
   2  -8   8  185.08   38.90
   2  -8   8  224.88   33.50
  -3   8  -8   10.90   22.10
  -3   8  -8   26.70   16.80
  -3   8  -8    3.80   21.00
  -3   8  -8   -5.30   15.90
   3  -8   8   17.10   19.60
   3  -8   8  -22.60   22.60
  -4   8  -8   -7.00   25.60
  -4   8  -8   16.30   19.50
  -4   8  -8   36.60   22.20
   4  -8   8    7.00   24.60
   4  -8   8   58.79   26.30
   7   7  -8  -11.90   21.50
   7   7  -8  -19.30   15.80
   7   7  -8  -31.50   18.70
  -7  -7   8  -12.40   13.80
   6   7  -8   18.00   20.90
   6   7  -8   28.70   16.40
   6   7  -8   -1.90   20.00
  -6  -7   8    8.40   11.80
   5   7  -8  -18.50   14.40
   5   7  -8  -16.90   15.50
   4   7  -8   32.40   20.40
   4   7  -8   27.30   19.00
  -4  -7   8   47.10   15.20
   3   7  -8  444.46   45.00
   3   7  -8  473.45   43.80
  -3  -7   8  473.65   41.70
  -3  -7   8  446.96   31.80
  -3  -7   8  471.05   45.40
   2   7  -8    0.30   15.30
  -2  -7   8   20.00   12.80
  -2  -7   8   -4.00   14.70
  -2  -7   8   16.20   18.90
   1   7  -8   51.79   21.20
   1   7  -8   37.60   24.70
   1   7  -8    9.90   11.10
  -1  -7   8   22.10   15.70
  -1  -7   8   38.90   20.30
  -1  -7   8   40.10   16.00
   0   7  -8   19.80   21.10
   0   7  -8   38.10   22.70
   0  -7   8    1.80   17.80
   0  -7   8   34.40   14.50
   0  -7   8   41.20   15.90
  -1   7  -8    8.90   21.90
  -1   7  -8   -6.10   14.60
   1  -7   8    6.50   15.80
   1  -7   8  -21.10   13.10
   1  -7   8    8.60   13.40
  -2   7  -8    1.60   15.80
  -2   7  -8    0.80   15.50
  -2   7  -8   27.50   35.00
  -2   7  -8    1.70   18.00
   2  -7   8   -6.20   15.90
   2  -7   8    5.00   16.40
  -3   7  -8  -21.20   16.40
  -3   7  -8   -3.10   14.30
  -3   7  -8   25.20   21.20
  -3   7  -8   14.00   21.60
   3  -7   8  -16.60   18.10
   3  -7   8  -18.70   19.60
  -4   7  -8   -0.70   19.00
  -4   7  -8    3.30   16.20
  -4   7  -8  -47.20   17.80
   4  -7   8  -23.00   19.20
   4  -7   8   22.20   23.30
  -5   7  -8   20.80   28.10
  -5   7  -8   85.69   23.60
  -5   7  -8  116.59   31.30
   5  -7   8   81.29   33.30
   5  -7   8   84.09   30.60
   8   6  -8    9.80   19.90
   8   6  -8   -2.80   22.70
  -8  -6   8   10.00   17.20
  -8  -6   8    8.20   17.10
   7   6  -8    7.00   16.10
   7   6  -8   17.40   23.60
   7   6  -8    7.50   19.90
  -7  -6   8   27.80   16.80
  -7  -6   8   15.70   15.60
   6   6  -8    3.90   18.60
   6   6  -8   17.50   22.30
   6   6  -8  -14.70   17.30
  -6  -6   8    2.20   12.00
  -6  -6   8    3.00   14.30
   5   6  -8   90.29   24.60
  -5  -6   8   60.89   21.80
   4   6  -8  107.69   26.80
   4   6  -8   92.09   26.00
  -4  -6   8  127.49   22.10
  -4  -6   8  127.99   26.90
   3   6  -8  151.68   28.90
   3   6  -8  131.69   27.70
  -3  -6   8  184.38   31.70
  -3  -6   8  151.68   28.10
  -3  -6   8  185.88   25.90
   2   6  -8   39.70   19.20
   2   6  -8   47.00   20.20
  -2  -6   8   54.29   22.40
  -2  -6   8   83.09   19.50
   1   6  -8  138.59   29.80
   1   6  -8  144.39   28.60
   1   6  -8  105.49   19.50
  -1  -6   8  113.89   21.30
  -1  -6   8  129.39   27.30
  -1  -6   8  129.99   23.10
   0   6  -8  181.88   22.00
   0   6  -8  130.09   29.00
   0  -6   8  165.68   37.30
   0  -6   8  120.89   23.80
   0  -6   8  167.38   21.70
  -1   6  -8   64.19   18.70
   1  -6   8   61.69   20.70
   1  -6   8   70.89   12.30
   1  -6   8  105.19   27.30
  -2   6  -8   44.30   16.50
  -2   6  -8   12.40   19.20
  -2   6  -8   10.90   19.10
   2  -6   8   -2.60   17.30
   2  -6   8   33.50   19.60
  -3   6  -8   -6.90   17.60
  -3   6  -8  -10.00   12.10
  -3   6  -8   30.60   20.00
   3  -6   8    9.90   19.60
   3  -6   8   14.70   20.00
  -4   6  -8   12.80   14.70
  -4   6  -8   34.10   22.00
  -4   6  -8  -16.00   18.30
   4  -6   8  -26.10   21.60
   4  -6   8   32.80   22.30
  -5   6  -8    9.40   23.10
  -5   6  -8   24.80   17.40
  -5   6  -8   20.70   24.80
   5  -6   8   33.10   26.40
   5  -6   8   94.39   32.10
   8   5  -8  -18.80   14.90
   8   5  -8   39.90   24.10
   8   5  -8  -11.50   25.30
  -8  -5   8   10.40   18.00
  -8  -5   8   27.70   18.00
   7   5  -8   87.39   28.90
   7   5  -8   90.79   26.20
   7   5  -8   54.09   21.40
  -7  -5   8  164.28   34.90
  -7  -5   8  118.39   25.50
   6   5  -8  -17.50   16.40
   6   5  -8   -8.30   14.70
   6   5  -8    3.60   18.10
  -6  -5   8    0.30   16.10
   5   5  -8  296.07   34.50
   5   5  -8  234.38   38.10
  -5  -5   8  341.77   37.40
  -5  -5   8  246.48   14.30
   4   5  -8   93.99   24.50
  -4  -5   8   70.19   23.50
   3   5  -8   69.99   21.50
  -3  -5   8   45.30   21.70
  -3  -5   8   51.39   18.10
  -3  -5   8   60.19   19.00
   2   5  -8   65.49   20.30
   2   5  -8   86.59   25.60
  -2  -5   8   48.50   18.80
  -2  -5   8   27.50   16.30
  -2  -5   8   75.29   21.70
   1   5  -8  212.98   31.50
   1   5  -8  241.98   27.10
   1   5  -8  197.68   32.80
  -1  -5   8  228.58   32.50
  -1  -5   8  203.98   29.00
  -1  -5   8  186.78   30.70
   0   5  -8    9.70   11.30
   0   5  -8   -6.10   13.20
   0   5  -8  -12.10   10.40
   0  -5   8  -21.50    8.00
   0  -5   8  -20.60   15.00
   0  -5   8    6.90   13.60
   0  -5   8   -7.20   13.80
  -1   5  -8   -8.30   15.20
  -1   5  -8    0.70   14.80
   1  -5   8    4.90   17.90
   1  -5   8   28.30   19.00
  -2   5  -8   16.10   15.80
  -2   5  -8   15.00   13.00
  -2   5  -8   11.20   14.80
   2  -5   8  -11.20   16.70
   2  -5   8    6.50   15.60
  -3   5  -8    9.60   17.20
  -3   5  -8   -0.10   10.80
   3  -5   8    0.40   18.20
   3  -5   8    3.20   17.40
  -4   5  -8   32.60   15.10
  -4   5  -8   53.49   22.50
  -4   5  -8    6.40   18.40
   4  -5   8   11.90   21.20
   4  -5   8   19.50   14.90
   4  -5   8   45.20   26.50
  -5   5  -8   10.40   14.00
  -5   5  -8   -9.40   21.70
  -5   5  -8   40.70   23.80
   5  -5   8   10.00   16.50
   5  -5   8   27.90   24.40
   5  -5   8   27.00   24.60
  -6   5  -8    4.80   22.20
   6  -5   8   -6.30   19.40
   6  -5   8   49.10   29.10
   9   4  -8   -7.40   22.00
   9   4  -8    2.80   25.50
   9   4  -8    4.60   18.40
  -9  -4   8    3.00   20.30
  -9  -4   8   -8.00   19.40
   8   4  -8  104.89   32.20
   8   4  -8  -13.90   15.40
   8   4  -8   15.90   19.40
  -8  -4   8   29.70   31.90
   7   4  -8  244.48   43.50
   7   4  -8  243.98   34.30
   7   4  -8  227.58   34.90
  -7  -4   8  325.07   36.70
   6   4  -8  216.28   32.40
   6   4  -8  171.38   34.40
  -6  -4   8  167.88   31.20
   5   4  -8   29.40   21.10
   5   4  -8   21.00   15.80
  -5  -4   8   37.50   20.80
   4   4  -8  216.68   30.30
   4   4  -8  239.78   40.40
   4   4  -8  239.68   35.50
  -4  -4   8  238.88   34.60
  -4  -4   8  290.97   25.30
   3   4  -8    8.10   12.30
   3   4  -8   -8.40   13.50
   3   4  -8   23.60   16.00
  -3  -4   8    6.30   12.10
  -3  -4   8   -9.70   14.00
  -3  -4   8    9.00   14.30
   2   4  -8  319.77   46.60
   2   4  -8  308.37   31.20
   2   4  -8  306.67   31.50
  -2  -4   8  236.88   35.00
  -2  -4   8  300.27   30.00
  -2  -4   8  311.67   34.20
   1   4  -8   63.59   19.30
   1   4  -8   67.79   19.00
  -1  -4   8   15.70   17.20
  -1  -4   8   30.90   15.70
  -1  -4   8   25.40   19.70
   0   4  -8   11.50   15.00
   0   4  -8   -4.40   12.60
   0   4  -8  -10.20   13.30
   0  -4   8    0.30   13.70
   0  -4   8   16.20    9.00
   0  -4   8   15.40   13.90
   0  -4   8    2.10   15.00
  -1   4  -8  -24.40   12.70
  -1   4  -8    8.50   15.40
   1  -4   8   17.10   16.00
   1  -4   8   38.70   17.80
   1  -4   8  -15.50   19.00
  -2   4  -8    2.50   16.30
  -2   4  -8   -2.60    9.40
  -2   4  -8  -31.40   13.80
   2  -4   8   11.50   20.00
   2  -4   8    7.40   20.60
  -3   4  -8  288.97   41.60
  -3   4  -8  365.36   45.50
  -3   4  -8  360.66   25.40
   3  -4   8  418.96   37.10
   3  -4   8  366.16   43.50
   3  -4   8  445.76   46.90
  -4   4  -8  391.16   45.60
  -4   4  -8  310.27   24.00
   4  -4   8  319.57   35.40
   4  -4   8  276.97   44.20
   4  -4   8  335.17   48.20
  -5   4  -8    4.30   23.30
  -5   4  -8  -26.70   16.80
  -5   4  -8   16.80   15.50
   5  -4   8   12.60   22.70
   5  -4   8   13.90   25.40
   5  -4   8  -13.40   16.50
  -6   4  -8   -5.40   24.20
  -6   4  -8   22.90   23.90
  -6   4  -8   25.00   27.90
   6  -4   8   53.19   33.10
   6  -4   8  -28.40   25.30
   6  -4   8   26.60   21.80
   9   3  -8   10.10   14.90
   9   3  -8   64.59   26.60
   9   3  -8   11.30   25.10
  -9  -3   8    7.20   21.60
  -9  -3   8   -7.20   18.50
   8   3  -8   26.80   18.40
   8   3  -8   -7.60   29.90
   8   3  -8   24.30   20.20
  -8  -3   8   15.20   19.00
   7   3  -8   30.90   21.80
   7   3  -8    4.30   16.00
   7   3  -8   12.70   15.60
   6   3  -8   46.80   22.70
   6   3  -8   33.00   19.30
   6   3  -8   47.30   16.80
  -6  -3   8   28.80   18.70
   5   3  -8  105.89   21.90
   5   3  -8  135.89   30.10
  -5  -3   8   94.39   24.80
  -5  -3   8  132.19   19.60
   4   3  -8  125.79   26.50
   4   3  -8  130.79   27.50
   4   3  -8  164.88   25.00
  -4  -3   8  150.48   28.80
  -4  -3   8  135.69   22.10
   3   3  -8   81.49   18.20
   3   3  -8   97.79   23.00
   3   3  -8   49.40   17.90
  -3  -3   8   66.49   17.00
  -3  -3   8   55.49   22.20
   2   3  -8    9.60   12.50
   2   3  -8   -4.00   11.00
   2   3  -8    9.70   13.20
   2   3  -8    2.50   14.70
  -2  -3   8   -2.40   13.90
  -2  -3   8  -14.90   14.00
  -2  -3   8  -10.50    9.90
   1   3  -8   30.40   16.50
   1   3  -8   26.50   14.70
   1   3  -8   11.70   15.60
   1   3  -8   19.30   12.60
  -1  -3   8   25.50   19.60
  -1  -3   8   45.90   15.70
  -1  -3   8   34.10   19.20
   0   3  -8   72.89   19.90
   0   3  -8  100.29   22.60
   0  -3   8   92.19   20.60
   0  -3   8   73.59   24.10
   0  -3   8   74.49   22.80
  -1   3  -8  139.19   28.20
  -1   3  -8  124.49   18.60
   1  -3   8   80.19   24.30
   1  -3   8  115.19   23.60
   1  -3   8  124.09   27.30
  -2   3  -8    5.40   15.00
  -2   3  -8   -6.80   14.90
  -2   3  -8   25.00    8.60
   2  -3   8   42.80   18.90
   2  -3   8   20.60   21.10
   2  -3   8   33.70   27.30
  -3   3  -8   57.69   23.50
  -3   3  -8   19.50   18.10
  -3   3  -8   10.50    5.70
   3  -3   8   -3.40   17.40
   3  -3   8   14.80   17.40
   3  -3   8    6.20   17.10
  -4   3  -8   44.40   25.70
  -4   3  -8   16.70   18.90
   4  -3   8   25.90   20.80
   4  -3   8    1.20   20.50
   4  -3   8   -3.70   18.30
  -5   3  -8   16.60   29.10
  -5   3  -8   -5.50   16.70
   5  -3   8    0.50   22.90
   5  -3   8   18.60   20.00
   5  -3   8    7.10   23.00
  -6   3  -8   24.20   25.50
  -6   3  -8   24.70   31.60
   6  -3   8   50.89   27.90
   6  -3   8   -7.40   27.00
   6  -3   8   10.00   30.80
   9   2  -8  826.02   60.49
   9   2  -8  835.42   70.59
   9   2  -8  796.12   41.50
  -9  -2   8  797.12   62.29
  -9  -2   8  778.72   65.09
   8   2  -8  -14.00   20.60
   8   2  -8   -7.20   14.70
  -8  -2   8   14.90   19.40
   7   2  -8   43.20   19.30
   7   2  -8    8.30   14.50
   7   2  -8   43.60   19.70
  -7  -2   8   50.69   22.00
   6   2  -8    6.20   17.20
   6   2  -8   -8.60   16.30
   6   2  -8   10.90   12.40
  -6  -2   8   47.30   24.70
   5   2  -8   -8.20   13.00
   5   2  -8   -3.00   28.50
   5   2  -8   21.80   12.60
  -5  -2   8    5.20   11.90
  -5  -2   8   13.40   19.30
   4   2  -8   35.80   12.30
   4   2  -8   83.99   22.90
  -4  -2   8   -7.30   12.70
  -4  -2   8   13.90   18.90
   3   2  -8   34.10   17.00
   3   2  -8   29.00   18.00
   3   2  -8   44.50   13.00
  -3  -2   8   43.60   20.50
   2   2  -8  -16.70    9.00
   2   2  -8   -4.90   13.20
   2   2  -8   -1.40    8.90
   2   2  -8   11.50   15.60
  -2  -2   8    8.30   17.90
  -2  -2   8   -5.00    8.50
  -2  -2   8   16.50   17.70
   1   2  -8  353.96   27.60
   1   2  -8  367.56   36.20
   1   2  -8  361.66   36.80
   1   2  -8  369.06   29.50
  -1  -2   8  414.36   41.00
  -1  -2   8  374.06   41.30
  -1  -2   8  316.17   28.40
   0   2  -8  -13.20   14.30
   0   2  -8   -6.40   12.70
   0   2  -8   -5.70    8.10
   0  -2   8   14.30   17.60
   0  -2   8  -10.00   16.20
   0  -2   8    7.60   12.10
  -1   2  -8  132.59   12.20
  -1   2  -8  110.09   12.20
   1  -2   8  117.99   23.80
   1  -2   8  132.19   26.70
   1  -2   8  117.59   26.90
  -2   2  -8  819.52   55.89
   2  -2   8  953.00   59.79
   2  -2   8  805.92   55.19
   2  -2   8  899.01   63.09
   2  -2   8  852.31   55.89
  -3   2  -8   56.39   24.90
  -3   2  -8   27.90   14.90
  -3   2  -8   14.90   17.10
   3  -2   8   64.09   26.20
   3  -2   8   25.90   20.50
   3  -2   8   80.09   39.90
  -4   2  -8   37.10   23.50
  -4   2  -8   39.40   19.70
  -4   2  -8   53.89   22.60
   4  -2   8   57.29   25.90
   4  -2   8   11.20   17.50
   4  -2   8   39.00   23.50
  -5   2  -8   -2.10   19.40
  -5   2  -8   80.99   48.80
  -5   2  -8   -4.00   19.30
   5  -2   8   16.80   22.60
   5  -2   8  -14.70   23.60
  -6   2  -8   39.30   28.20
   6  -2   8   46.60   33.00
   6  -2   8   55.49   28.40
   6  -2   8   51.59   26.20
   9   1  -8   30.40   20.30
   9   1  -8   24.10    9.20
   9   1  -8    2.90   27.40
  -9  -1   8   55.89   36.70
  -9  -1   8  -21.50   19.60
   8   1  -8   33.40   16.60
   8   1  -8    2.70   18.80
  -8  -1   8   25.10   19.60
   7   1  -8   -4.10   14.40
   7   1  -8    4.70   14.90
   7   1  -8    6.30   11.40
  -7  -1   8    7.40   18.20
   6   1  -8   28.70   17.30
   6   1  -8   28.10   17.90
   6   1  -8   32.80   13.30
  -6  -1   8    2.60   17.70
   5   1  -8  101.39   16.00
   5   1  -8   99.59   28.50
   5   1  -8  117.39   25.80
  -5  -1   8   88.79   21.10
  -5  -1   8   86.79   30.20
   4   1  -8   17.70   15.90
   4   1  -8    4.30    7.50
   4   1  -8    7.60   15.60
  -4  -1   8   25.70   16.00
  -4  -1   8   16.80   17.40
   3   1  -8    7.70   12.50
   3   1  -8    0.50    7.20
   3   1  -8  -23.50   13.40
  -3  -1   8   -3.10   13.40
  -3  -1   8    0.50   15.90
   2   1  -8    5.90   13.90
   2   1  -8   -0.30   10.50
   2   1  -8   29.60   17.50
  -2  -1   8   13.80   17.80
  -2  -1   8    8.50   16.40
  -2  -1   8    1.20    8.00
   1   1  -8  164.18   28.80
   1   1  -8  168.08   30.40
   1   1  -8  200.48   20.50
  -1  -1   8  159.88   30.70
  -1  -1   8  128.59   29.30
  -1  -1   8  211.48   21.30
   0   1  -8   16.80    8.10
   0   1  -8   15.30   15.50
   0   1  -8  -12.90   11.20
   0  -1   8    3.80   10.90
   0  -1   8    7.90   16.10
   0  -1   8   -6.60   16.10
  -1   1  -8   -3.20   16.00
   1  -1   8   16.50   14.30
   1  -1   8   -1.80   16.10
  -2   1  -8   -9.50   14.90
   2  -1   8  -26.80   13.30
   2  -1   8   -7.60   15.80
   2  -1   8   27.60   16.70
   2  -1   8   -3.40   13.70
  -3   1  -8   89.69   25.20
  -3   1  -8  106.99   24.50
   3  -1   8   65.09   25.00
   3  -1   8   77.09   24.30
   3  -1   8   69.29   27.20
   3  -1   8  122.39   33.20
  -4   1  -8    3.90   17.70
  -4   1  -8  -37.10   13.90
  -4   1  -8  -14.90   16.10
   4  -1   8   16.70   24.00
   4  -1   8  -35.20   15.10
  -5   1  -8    5.90   20.10
  -5   1  -8   14.80   23.90
  -5   1  -8  -12.70   18.50
   5  -1   8    1.50   22.70
   5  -1   8   32.60   27.90
   5  -1   8   29.20   24.50
   9   0  -8   -5.20   16.70
   9   0  -8   62.39   29.40
  -9   0   8   82.39   30.00
  -9   0   8   28.20   25.90
   8   0  -8  -10.00   19.60
   8   0  -8   -5.70    3.60
   8   0  -8    2.90   13.10
  -8   0   8  -16.50   18.70
   7   0  -8   12.40   10.50
   7   0  -8   12.20   17.10
  -7   0   8  -24.70   14.30
   6   0  -8   57.49   23.20
  -6   0   8   34.70   22.40
   5   0  -8   24.50   17.20
   5   0  -8   -0.40    5.50
  -5   0   8   10.90   17.00
  -5   0   8    3.30   14.40
   4   0  -8   17.50   18.30
   4   0  -8   24.70   17.90
   4   0  -8   15.10   15.20
  -4   0   8   12.90   15.90
  -4   0   8   27.20   26.10
   3   0  -8  146.69   24.60
   3   0  -8  158.68   28.30
   3   0  -8  112.39   28.80
  -3   0   8   72.49   23.80
  -3   0   8  109.59   24.70
   2   0  -8   91.39   17.90
   2   0  -8  118.99   28.60
  -2   0   8   81.09   26.10
  -2   0   8   62.89    9.60
  -2   0   8   64.09   23.50
  -2   0   8   99.69   24.70
   1   0  -8  192.68   33.00
   1   0  -8  182.18   19.10
  -1   0   8  146.59   29.80
  -1   0   8  208.58   34.60
  -1   0   8  184.18   18.80
   0   0  -8   88.49   22.10
   0   0  -8   60.19   21.60
   0   0  -8   50.49    8.30
   0   0  -8   48.30   25.40
   0   0   8   42.40   19.90
   0   0   8   -1.20   22.20
   0   0   8   66.89   15.60
  -1   0  -8  111.49   28.00
   1   0   8   68.29   18.30
   1   0   8   65.79   24.80
   1   0   8   81.29   24.20
   1   0   8   86.29   25.20
  -2   0  -8   99.29   24.10
  -2   0  -8   27.40   30.90
   2   0   8   45.00   17.90
   2   0   8   29.50   20.50
   2   0   8   83.09   27.50
   2   0   8   51.19   21.30
  -3   0  -8   47.00   21.50
  -3   0  -8   23.30   18.40
   3   0   8   34.80   18.40
   3   0   8   41.00   26.80
  -4   0  -8   13.60   20.30
  -4   0  -8   14.40   21.40
  -4   0  -8   68.79   21.50
   4   0   8   18.30   22.30
   4   0   8   50.59   23.80
   4   0   8   29.90   23.40
  -5   0  -8   64.49   25.60
  -5   0  -8   25.90   22.80
  -5   0  -8    9.10   20.70
   5   0   8    8.80   23.90
   5   0   8   -6.80   22.80
   5   0   8   -4.00   21.70
   9  -1  -8   10.90   15.40
   9  -1  -8  -18.10   13.90
   9  -1  -8   18.40   26.30
  -9   1   8   30.40   25.50
  -9   1   8   11.90   26.60
   8  -1  -8    5.30   11.60
   8  -1  -8    4.20   11.80
   8  -1  -8   19.50   23.80
  -8   1   8   36.30   24.60
   7  -1  -8   47.70   23.70
   7  -1  -8   71.99   13.00
  -7   1   8   48.20   24.60
   6  -1  -8   16.10   17.20
  -6   1   8   34.30   20.50
  -6   1   8   41.40   22.50
   5  -1  -8   -3.40   17.50
   5  -1  -8   -2.50    7.40
   5  -1  -8   -2.20   15.80
  -5   1   8  -30.70   15.10
  -5   1   8   29.50   20.40
   4  -1  -8   30.40   19.50
   4  -1  -8    3.70    9.20
   4  -1  -8   13.90   14.50
  -4   1   8   26.90   18.60
  -4   1   8  -33.30   11.30
   3  -1  -8  794.42   48.40
   3  -1  -8  874.61   44.70
  -3   1   8  936.61   61.79
   2  -1  -8  282.37   28.40
   2  -1  -8  228.68   32.60
   2  -1  -8  199.48   37.00
   2  -1  -8  233.48   24.80
  -2   1   8  170.58   52.79
  -2   1   8  216.78   36.40
   1  -1  -8   61.19   20.90
   1  -1  -8   47.70   16.60
   1  -1  -8   48.50   25.20
   1  -1  -8   26.30   10.60
  -1   1   8   35.60    8.50
  -1   1   8   73.19   23.60
  -1   1   8   35.20   31.70
   0  -1  -8   36.60   25.70
   0  -1  -8   37.00   22.10
   0  -1  -8   50.19   18.50
   0   1   8    1.80    9.30
   0   1   8   56.49   22.00
   0   1   8   24.80   19.70
  -1  -1  -8    8.70   15.30
  -1  -1  -8   10.30   17.40
   1   1   8  -11.80   14.30
   1   1   8    0.10   12.10
   1   1   8  -19.60   13.80
   1   1   8    1.50   17.60
  -2  -1  -8   16.60   14.60
  -2  -1  -8   -5.60   17.70
   2   1   8    9.40   13.70
   2   1   8    3.90   21.10
   2   1   8   23.80   19.00
  -3  -1  -8   20.80   18.70
  -3  -1  -8    0.80   16.90
   3   1   8   22.60   17.50
   3   1   8  -21.10   21.30
   3   1   8  -14.80   19.20
  -4  -1  -8    7.10   19.20
  -4  -1  -8   13.90   18.50
   4   1   8  -18.70   18.40
   4   1   8  -11.60   23.50
  -5  -1  -8   61.39   23.60
  -5  -1  -8   65.39   31.10
  -5  -1  -8   84.79   33.10
   5   1   8   65.29   30.90
   5   1   8    8.30   27.70
   9  -2  -8   88.69   18.10
   9  -2  -8   49.99   16.40
   9  -2  -8   56.39   31.70
  -9   2   8  106.39   35.90
  -9   2   8   54.69   29.80
   8  -2  -8   19.10   23.80
  -8   2   8   44.40   25.30
  -8   2   8  -50.49   19.00
   7  -2  -8   -5.00   17.30
  -7   2   8   64.59   26.60
  -7   2   8   11.80   21.30
   6  -2  -8   -5.60    4.20
  -6   2   8   17.40   20.10
  -6   2   8   -3.30   18.80
   5  -2  -8   37.40   10.80
   5  -2  -8   -9.10   18.30
   5  -2  -8   67.89   23.00
  -5   2   8    1.20   17.60
  -5   2   8   16.80   17.70
  -5   2   8    7.00   19.10
   4  -2  -8   46.00   13.40
   4  -2  -8   52.99   18.70
   4  -2  -8  110.99   30.90
  -4   2   8   89.89   25.80
  -4   2   8   51.49   20.70
  -4   2   8   21.00   19.80
   3  -2  -8   22.60   20.50
   3  -2  -8   35.20   17.90
   3  -2  -8   18.80   14.50
   3  -2  -8   36.70   13.20
  -3   2   8   48.40   24.90
  -3   2   8    1.90   14.10
  -3   2   8    0.80   18.20
   2  -2  -8    6.00   10.60
   2  -2  -8   22.60   17.00
   2  -2  -8   51.29   21.20
   2  -2  -8   47.90   17.60
  -2   2   8   53.69   24.30
  -2   2   8   36.30   23.10
  -2   2   8   24.10   19.20
   1  -2  -8   10.10   13.50
   1  -2  -8   14.40   14.50
   1  -2  -8   12.90    9.60
   1  -2  -8   14.20   18.10
  -1   2   8    9.60   20.60
  -1   2   8   20.20   19.50
  -1   2   8    6.70    4.70
   0  -2  -8    3.80   14.50
   0  -2  -8   21.60   20.00
   0  -2  -8   -4.00   14.20
   0   2   8   42.10   23.90
   0   2   8   21.00   21.20
   0   2   8   -0.60    8.70
  -1  -2  -8   18.50   16.30
  -1  -2  -8   18.90   16.70
   1   2   8   18.10   21.70
   1   2   8   16.50   20.20
   1   2   8   32.20   14.50
  -2  -2  -8   35.90   19.90
  -2  -2  -8   41.10   18.90
   2   2   8    3.70   16.60
   2   2   8   33.50   22.90
   2   2   8  -39.20   16.80
   2   2   8   12.60   14.70
  -3  -2  -8   52.19   21.30
  -3  -2  -8   12.10   23.50
   3   2   8   30.60   20.90
   3   2   8   18.60   26.00
   3   2   8  -20.30   18.40
   3   2   8   24.50   18.40
  -4  -2  -8    5.10   21.40
  -4  -2  -8   31.70   22.50
   4   2   8   -1.00   27.50
   4   2   8  -25.80   19.30
   4   2   8   34.90   31.10
   4   2   8    7.00   20.50
   8  -3  -8   52.59   25.50
  -8   3   8  -13.90   20.10
  -8   3   8   17.80   24.30
   7  -3  -8   -7.50   20.50
  -7   3   8  -29.60   20.80
  -7   3   8   10.80   19.00
   6  -3  -8   17.80   21.70
  -6   3   8   -3.10   19.80
  -6   3   8   23.10   19.80
   5  -3  -8   75.59   28.40
   5  -3  -8   29.60    9.80
   5  -3  -8    3.20   17.10
  -5   3   8    2.60   20.60
  -5   3   8   75.79   25.10
   4  -3  -8  105.79   17.50
   4  -3  -8   93.79   28.60
   4  -3  -8  165.18   27.80
  -4   3   8  126.19   37.90
  -4   3   8  183.18   35.10
  -4   3   8  135.79   29.00
   3  -3  -8  383.26   31.30
   3  -3  -8  406.26   46.00
   3  -3  -8  381.26   34.80
  -3   3   8  375.46   37.30
  -3   3   8  327.77   43.70
   2  -3  -8   23.90   15.00
   2  -3  -8   31.30   23.20
   2  -3  -8   61.99   21.90
   2  -3  -8   28.50   13.00
  -2   3   8   22.50   15.70
  -2   3   8   36.50   20.20
  -2   3   8   27.60   22.50
   1  -3  -8   18.40   17.50
   1  -3  -8   13.90    9.60
   1  -3  -8  -30.00   16.40
   1  -3  -8  -10.70   11.90
  -1   3   8    3.90   10.50
  -1   3   8   33.50   19.20
  -1   3   8    4.50   18.10
   0  -3  -8    5.90   17.80
   0  -3  -8   19.50   15.50
   0  -3  -8   -6.90   15.00
   0   3   8   -1.10   17.50
   0   3   8    4.40   19.40
   0   3   8    7.40    8.90
  -1  -3  -8  253.97   36.10
  -1  -3  -8  266.57   37.60
   1   3   8  311.07   28.60
   1   3   8  271.97   41.30
   1   3   8  237.98   63.19
   1   3   8  232.28   39.40
  -2  -3  -8   23.90   21.50
  -2  -3  -8   30.10   19.90
   2   3   8   43.10   26.40
   2   3   8   75.59   27.10
   2   3   8  108.69   24.00
  -3  -3  -8    2.20   17.50
  -3  -3  -8   16.20   17.10
   3   3   8   32.70   28.60
   3   3   8    2.50   24.10
   3   3   8  -18.60   20.90
   3   3   8  -47.20   15.00
  -4  -3  -8   48.10   27.10
  -4  -3  -8   14.00   21.00
   4   3   8  -58.29   22.00
   4   3   8   27.00   20.70
   4   3   8   21.20   29.70
   7  -4  -8  161.98   36.90
   7  -4  -8  156.48   39.40
  -7   4   8  148.39   36.50
  -7   4   8  147.59   34.30
   6  -4  -8   11.60   19.70
   6  -4  -8   43.40   26.40
  -6   4   8  -10.30   21.80
  -6   4   8   29.80   21.40
   5  -4  -8  -12.30   18.80
   5  -4  -8  -12.60   14.50
  -5   4   8   -8.80   20.40
  -5   4   8  -29.70   18.00
  -5   4   8  -25.40   17.10
   4  -4  -8   60.39   20.40
   4  -4  -8   57.29   27.20
  -4   4   8   34.70   20.90
  -4   4   8   37.40   25.50
  -4   4   8   61.29   30.70
   3  -4  -8  361.06   32.30
   3  -4  -8  359.96   35.60
   3  -4  -8  298.07   46.10
  -3   4   8  272.77   49.10
  -3   4   8  365.66   37.80
  -3   4   8  378.26   48.30
   2  -4  -8   62.59   25.00
   2  -4  -8   62.79   17.00
   2  -4  -8   66.59   19.00
  -2   4   8   67.19   28.60
  -2   4   8   25.00   20.60
  -2   4   8    5.40   20.70
  -2   4   8  112.19   22.70
   1  -4  -8    8.30   17.60
   1  -4  -8  -16.50   13.80
  -1   4   8  -14.40   14.30
  -1   4   8   16.60   22.80
  -1   4   8   -0.80   10.70
   0  -4  -8   10.60   15.90
   0   4   8   40.80   12.30
   0   4   8   15.40   18.10
   0   4   8   13.90   19.40
   0   4   8  -16.50   17.20
  -1  -4  -8   15.00   18.20
   1   4   8    5.30   26.60
   1   4   8    6.80   12.50
   1   4   8   19.30   21.50
   1   4   8   32.10   22.70
   1   4   8  -15.80   18.50
  -2  -4  -8   59.49   23.50
   2   4   8  -10.80   25.00
   2   4   8  -27.40   14.40
   2   4   8   51.49   21.90
   2   4   8   17.70   29.20
   2   4   8    5.60   24.10
  -3  -4  -8   29.40   27.90
   3   4   8   20.80   24.20
   3   4   8    2.10   23.60
   3   4   8   37.30   24.60
   3   4   8  -20.10   21.40
   3   4   8   40.10   27.80
   7  -5  -8   -4.70   24.30
  -7   5   8    1.70   26.20
  -7   5   8   41.40   25.00
   6  -5  -8   -6.90   18.40
   6  -5  -8    3.00   20.30
  -6   5   8  -43.50   22.30
  -6   5   8   -3.50   20.20
   5  -5  -8   44.50   22.10
   5  -5  -8   74.69   33.10
  -5   5   8   88.69   31.10
  -5   5   8   35.70   29.10
  -5   5   8   37.70   26.10
   4  -5  -8   28.30   22.60
   4  -5  -8   64.09   29.60
  -4   5   8   23.90   30.40
  -4   5   8   45.60   22.00
  -4   5   8   64.89   27.10
   3  -5  -8  -14.90   22.00
   3  -5  -8  -12.20   25.00
  -3   5   8  -11.60   15.00
  -3   5   8   32.00   22.40
  -3   5   8   18.70   17.40
   2  -5  -8  -22.70   20.20
  -2   5   8   -3.70   20.80
  -2   5   8    8.30   15.50
  -2   5   8  -33.30   19.10
  -2   5   8   -7.30   23.80
   1  -5  -8   55.39   21.10
   1  -5  -8   53.89   27.30
  -1   5   8   56.29   26.70
  -1   5   8   77.39   27.10
  -1   5   8   27.10   15.30
  -1   5   8   34.80   27.10
   0  -5  -8   24.00   19.50
   0   5   8   -4.80   12.20
   0   5   8    1.00    9.40
   0   5   8   43.90   22.40
   0   5   8  -10.70   21.80
  -1  -5  -8  -19.20   17.60
   1   5   8   16.30   21.70
   1   5   8  -10.40   13.40
   1   5   8   50.09   30.70
   1   5   8  -30.60   20.50
   1   5   8   16.80   14.80
   1   5   8    1.00   25.20
  -2  -5  -8   -3.70   18.20
   2   5   8   -7.50   17.00
   2   5   8    6.00   21.60
   2   5   8  -12.00   30.30
   2   5   8  -34.40   26.20
   2   5   8  -15.40   17.60
   5  -6  -8    7.00   25.70
   5  -6  -8    3.40   24.10
  -5   6   8   29.60   23.60
  -5   6   8   62.79   30.80
   4  -6  -8    9.90   20.50
  -4   6   8  -49.10   17.20
  -4   6   8   13.30   27.00
  -4   6   8  -47.30   17.90
   3  -6  -8    3.30   24.60
   3  -6  -8  -37.10   14.40
  -3   6   8   -3.70   28.20
  -3   6   8    9.40   22.80
  -3   6   8   -5.20   23.30
  -3   6   8  -13.10   17.80
   2  -6  -8   42.80   27.80
  -2   6   8   27.20   26.90
  -2   6   8    1.40   16.80
  -2   6   8    3.90   23.90
  -2   6   8   10.40   25.40
  -1   6   8   34.10   24.90
  -1   6   8  -62.39   22.80
  -1   6   8   -6.20   23.00
  -1   6   8    3.60   15.40
   0   6   8  112.79   31.70
   0   6   8   39.30   15.50
   0   6   8   13.30   16.50
   0   6   8   13.70   12.10
   0   6   8   48.80   23.30
   0   6   8    2.80   29.20
   4  10  -9  -13.20   21.20
  -4 -10   9   -0.80    6.10
  -4 -10   9   27.70   25.40
   3  10  -9   38.10   26.30
   3  10  -9   23.40   24.30
  -3 -10   9  -10.40   19.00
  -3 -10   9   35.50   28.40
   2  10  -9   92.99   33.70
   2  10  -9   48.20   14.70
   2  10  -9   53.19   26.50
  -2 -10   9   37.30   25.70
  -2 -10   9  110.59   30.90
  -2 -10   9   51.79   11.40
   1  10  -9   -5.00   30.10
   1  10  -9    9.50   24.90
  -1 -10   9   20.60   11.20
  -1 -10   9   35.50   23.50
  -1 -10   9   -5.30   20.30
   0  10  -9   25.30   22.70
   0  10  -9    5.80   24.30
   0  10  -9  -23.60   24.00
   0 -10   9   21.60   14.00
   0 -10   9    8.30   24.30
   0 -10   9   17.30   22.70
  -1  10  -9   46.00   26.00
  -1  10  -9  -22.30   28.70
   1 -10   9  -13.60   26.30
   1 -10   9    8.70   19.00
   1 -10   9   19.00   18.60
   5   9  -9   13.90   24.00
   5   9  -9    7.00   22.00
  -5  -9   9   -8.80   13.00
  -5  -9   9    9.10   20.90
  -5  -9   9    2.90   10.70
   4   9  -9   33.10   23.60
   4   9  -9   41.80   26.50
  -4  -9   9   16.30   12.40
  -4  -9   9   17.80    7.70
  -4  -9   9   34.20   16.20
  -4  -9   9    1.30   22.70
   3   9  -9   33.80   23.30
   3   9  -9   20.90   23.80
  -3  -9   9  -22.80   20.90
  -3  -9   9   32.10   23.00
   2   9  -9  -16.10   17.40
   2   9  -9   15.80   14.00
   2   9  -9   12.70   22.90
  -2  -9   9    6.90   24.10
  -2  -9   9   32.80   12.80
   1   9  -9  -10.70   20.00
   1   9  -9   -6.50   11.20
   1   9  -9    1.90   20.20
  -1  -9   9   23.40   18.20
  -1  -9   9   11.40   21.50
  -1  -9   9    8.60   12.90
   0   9  -9   70.49   30.00
   0   9  -9   55.49   30.20
   0  -9   9   62.09   19.00
   0  -9   9   58.49   21.00
   0  -9   9   49.30   27.20
  -1   9  -9  224.58   43.30
  -1   9  -9  199.48   39.70
  -1   9  -9  204.58   36.10
   1  -9   9  203.38   27.70
   1  -9   9  160.78   46.50
   1  -9   9  181.98   30.00
  -2   9  -9   38.90   26.20
  -2   9  -9  -42.70   19.60
  -2   9  -9  -29.20   24.40
   2  -9   9   36.30   30.00
   2  -9   9   16.10   24.90
  -3   9  -9   67.29   30.70
  -3   9  -9   14.20   19.90
  -3   9  -9  -21.60   20.50
   3  -9   9   -5.60   22.10
   3  -9   9   21.90   24.30
   6   8  -9   38.50   21.30
   6   8  -9  -19.50   24.40
   6   8  -9   21.90   23.90
  -6  -8   9   10.10   12.70
  -6  -8   9   15.10   14.20
   5   8  -9  -41.20   19.50
   5   8  -9  -17.50   18.40
  -5  -8   9   -5.40   10.50
  -5  -8   9   10.30   13.10
  -5  -8   9    2.60   19.50
   4   8  -9   48.30   22.90
   4   8  -9   50.29   24.80
  -4  -8   9   20.60   12.70
  -4  -8   9    0.00   19.00
   3   8  -9   51.09   22.80
   3   8  -9   15.70   19.90
  -3  -8   9   32.70   23.50
  -3  -8   9   32.40   15.30
   2   8  -9  -10.90   16.10
   2   8  -9    0.80   13.00
   2   8  -9   30.40   21.70
  -2  -8   9   20.80   20.40
  -2  -8   9   -5.70   11.90
  -2  -8   9   13.60   17.00
   1   8  -9   -1.40   19.00
   1   8  -9   32.30   20.30
   1   8  -9   11.60   12.30
  -1  -8   9  -22.80   18.70
  -1  -8   9   16.10   15.80
  -1  -8   9   20.10   17.40
   0   8  -9   33.10   25.10
   0   8  -9   19.80   24.60
   0  -8   9   35.80   17.60
   0  -8   9   64.19   20.40
   0  -8   9   82.09   26.80
  -1   8  -9   36.00   20.10
  -1   8  -9   10.10   20.30
  -1   8  -9   38.10   24.00
   1  -8   9    6.70   18.70
   1  -8   9   10.30   19.30
   1  -8   9    7.90   12.50
  -2   8  -9    2.00   24.00
  -2   8  -9   18.00   18.80
   2  -8   9  -12.40   20.60
   2  -8   9   18.40   17.80
  -3   8  -9  -11.30   20.30
  -3   8  -9   13.20   18.80
  -3   8  -9   41.30   28.10
  -3   8  -9   20.80   23.30
   3  -8   9   67.69   26.00
   3  -8   9   37.30   28.20
   7   7  -9   -6.10   18.70
   7   7  -9   46.70   29.00
   7   7  -9  -52.29   19.20
  -7  -7   9   -1.10   14.50
   6   7  -9  -13.20   20.50
   6   7  -9   22.50   17.50
   6   7  -9  -25.90   22.50
  -6  -7   9  -12.90   12.90
  -6  -7   9    0.60   16.10
   5   7  -9   76.79   24.00
   5   7  -9   55.89   25.90
  -5  -7   9   64.69   22.90
  -5  -7   9   69.19   20.40
   4   7  -9   19.80   18.60
   4   7  -9    7.20   19.30
  -4  -7   9    8.80   13.80
   3   7  -9  285.77   40.90
   3   7  -9  224.98   36.70
  -3  -7   9  261.27   29.30
  -3  -7   9  234.88   38.00
  -3  -7   9  248.18   37.40
   2   7  -9    7.20   18.30
   2   7  -9   11.30   14.50
   2   7  -9  -22.20   16.10
  -2  -7   9  -16.60   15.10
  -2  -7   9   14.90   12.90
  -2  -7   9   13.90   15.20
   1   7  -9  -23.30   16.70
   1   7  -9  -26.40   18.20
   1   7  -9    9.60   13.30
  -1  -7   9  -14.20   14.10
  -1  -7   9   27.40   15.20
   0   7  -9  137.39   30.70
   0   7  -9  146.09   20.70
   0  -7   9  159.08   21.50
   0  -7   9   89.19   26.30
   0  -7   9   84.29   22.90
  -1   7  -9  -20.20   20.40
  -1   7  -9  -24.90   13.30
  -1   7  -9   40.30   23.10
   1  -7   9  -14.40   19.30
   1  -7   9   33.70   10.90
   1  -7   9   58.29   19.60
  -2   7  -9  -22.50   18.10
  -2   7  -9  -25.60   12.10
  -2   7  -9  -11.80   16.40
   2  -7   9  -17.20   21.40
   2  -7   9   37.70   19.90
  -3   7  -9   -7.40   23.40
  -3   7  -9   -8.40   14.00
  -3   7  -9    0.90   20.00
   3  -7   9   16.70   19.70
   3  -7   9   10.40   23.30
  -4   7  -9   -1.00   22.80
  -4   7  -9   15.40   22.80
  -4   7  -9  -18.20   15.40
   4  -7   9   25.40   23.50
   4  -7   9   62.29   31.90
   8   6  -9  -33.70   23.20
   8   6  -9   50.69   36.40
   8   6  -9   11.50   21.10
  -8  -6   9  -29.30   17.10
  -8  -6   9   22.60   22.30
   7   6  -9   53.59   21.10
   7   6  -9    2.50   20.60
   7   6  -9   12.40   23.90
  -7  -6   9  -10.40   17.50
  -7  -6   9  -14.90   16.30
   6   6  -9   15.50   24.40
   6   6  -9   37.40   18.10
   6   6  -9   33.90   21.20
   5   6  -9   10.90   19.90
   5   6  -9   15.20   18.80
   5   6  -9   17.70   19.80
  -5  -6   9   11.10    6.30
  -5  -6   9   -2.40   17.20
   4   6  -9   46.20   22.10
   4   6  -9   63.89   22.00
  -4  -6   9   48.20   23.30
  -4  -6   9   -2.30   16.20
   3   6  -9   34.70   19.40
   3   6  -9   29.70   20.30
  -3  -6   9   57.49   24.20
  -3  -6   9   27.50   20.40
  -3  -6   9   57.29   17.40
   2   6  -9   57.49   20.20
   2   6  -9   48.40   22.50
   2   6  -9   16.80   18.10
  -2  -6   9   38.00   17.40
  -2  -6   9   11.00   18.10
  -2  -6   9   40.00   19.30
   1   6  -9   20.50   18.00
   1   6  -9   32.00   15.90
   1   6  -9   31.50   19.30
  -1  -6   9   -0.60   13.30
  -1  -6   9   49.70   16.20
  -1  -6   9   30.70   19.40
   0   6  -9   58.59   16.90
   0   6  -9    0.80   22.40
   0  -6   9   28.10   19.70
   0  -6   9   -1.50   16.40
  -1   6  -9   33.80   21.50
  -1   6  -9   41.40   18.40
   1  -6   9   25.80   20.10
   1  -6   9   77.79   24.80
  -2   6  -9   41.10   21.60
  -2   6  -9  -18.00   16.60
  -2   6  -9   15.70   14.30
   2  -6   9    8.70   19.00
   2  -6   9   21.10   19.30
  -3   6  -9   11.00   14.80
  -3   6  -9   52.09   24.30
  -3   6  -9    0.00   18.00
   3  -6   9   -4.20   20.60
   3  -6   9    7.40   22.70
  -4   6  -9   67.59   40.50
  -4   6  -9   55.09   27.10
   4  -6   9   51.59   31.70
   8   5  -9  -15.40   21.00
   8   5  -9  -35.40   17.30
   8   5  -9   20.10   29.10
  -8  -5   9   -8.80   19.00
   7   5  -9   -0.90   19.00
   7   5  -9   -7.70   18.10
   7   5  -9  -11.90   22.90
  -7  -5   9   -8.40   17.40
   6   5  -9  -20.40   15.10
   6   5  -9   -5.50   21.10
   6   5  -9   34.10   21.00
  -6  -5   9   16.60   19.40
   5   5  -9   34.80   17.80
   5   5  -9  -21.50   12.70
  -5  -5   9  -10.80    7.70
  -5  -5   9    0.40   15.90
   4   5  -9   83.89   23.60
   4   5  -9   60.29   23.00
   4   5  -9   73.79   23.90
  -4  -5   9   84.49   23.10
  -4  -5   9  100.09   24.70
   3   5  -9  433.66   43.60
   3   5  -9  496.15   42.70
  -3  -5   9  539.15   44.70
  -3  -5   9  461.85   47.70
  -3  -5   9  479.25   42.00
   2   5  -9  116.99   25.00
   2   5  -9  103.79   25.80
   2   5  -9  132.59   25.80
  -2  -5   9   83.99   21.80
  -2  -5   9  103.59   24.80
  -2  -5   9  120.19   29.00
   1   5  -9   54.79   18.50
   1   5  -9   45.30   20.40
  -1  -5   9   46.70   19.70
  -1  -5   9   87.79   22.80
  -1  -5   9    5.80   18.90
   0   5  -9  -15.90   14.40
   0   5  -9   -0.50   13.10
   0  -5   9  -15.10   29.00
   0  -5   9  -10.60   18.60
   0  -5   9   10.50    9.80
   0  -5   9   19.50   18.00
  -1   5  -9   10.20   12.30
   1  -5   9  -15.80   27.90
   1  -5   9  -21.70   13.30
  -2   5  -9   -2.80   10.80
  -2   5  -9  -11.90   18.30
   2  -5   9    2.50   17.00
   2  -5   9   20.90   18.30
  -3   5  -9    8.50   20.20
  -3   5  -9  -44.50   16.10
  -3   5  -9   17.80   11.90
   3  -5   9   23.20   21.10
   3  -5   9   -3.90   20.20
  -4   5  -9   41.00   24.50
  -4   5  -9   -5.60   10.90
  -4   5  -9   14.70   23.10
   4  -5   9    1.30   23.80
   4  -5   9  -10.80   25.80
  -5   5  -9   21.90   27.80
  -5   5  -9   -4.80   10.90
   5  -5   9    0.40   19.20
   5  -5   9    2.10   29.70
   8   4  -9   22.60   21.40
   8   4  -9   96.89   33.60
   8   4  -9   65.69   25.10
  -8  -4   9   81.09   27.70
  -8  -4   9  192.48   35.00
   7   4  -9    6.60   21.60
   7   4  -9  -15.50   17.00
   7   4  -9   13.70   19.00
  -7  -4   9   19.30   22.00
   6   4  -9   -0.10   13.40
   6   4  -9   17.20   20.60
   6   4  -9    9.80   16.30
  -6  -4   9  -31.20   16.10
   5   4  -9   40.20   17.90
   5   4  -9   76.89   26.10
   5   4  -9   57.29   23.90
  -5  -4   9   35.90   13.50
  -5  -4   9   77.19   23.20
   4   4  -9  108.09   26.80
   4   4  -9   82.69   20.40
   4   4  -9   71.79   23.30
  -4  -4   9  100.59   27.80
  -4  -4   9   76.59   19.40
   3   4  -9  -35.30   11.90
   3   4  -9   46.60   20.40
   3   4  -9  -13.10   12.00
  -3  -4   9   46.30   21.40
  -3  -4   9   -8.60   11.80
  -3  -4   9   -8.10   16.20
   2   4  -9   88.09   23.00
   2   4  -9  121.99   27.00
   2   4  -9   92.49   21.80
   2   4  -9   99.69   26.10
  -2  -4   9   94.49   24.20
  -2  -4   9   69.49   23.40
  -2  -4   9   90.29   20.90
   1   4  -9   38.40   18.90
   1   4  -9    5.40   14.90
  -1  -4   9  -11.00   17.30
  -1  -4   9   33.10   19.90
  -1  -4   9   46.90   18.30
   0   4  -9   19.30   13.70
   0   4  -9   46.60   19.30
   0   4  -9   48.00   18.90
   0  -4   9   24.70   21.10
   0  -4   9   39.70   17.70
   0  -4   9   39.70   10.70
   0  -4   9   31.50   20.50
  -1   4  -9   -8.60    9.20
   1  -4   9    9.30   26.60
   1  -4   9   -2.60   17.10
   1  -4   9   55.19   22.80
  -2   4  -9   49.70   11.80
   2  -4   9   49.00   21.60
   2  -4   9   28.70   22.20
  -3   4  -9   70.19   24.80
  -3   4  -9   92.99   28.30
  -3   4  -9   67.99   19.40
   3  -4   9   87.69   27.40
   3  -4   9   40.30   27.30
  -4   4  -9   12.90    5.50
  -4   4  -9   26.00   22.30
  -4   4  -9   -4.10   21.40
   4  -4   9  -14.10   25.30
   4  -4   9   41.30   19.90
   4  -4   9   29.80   24.40
  -5   4  -9   27.90   25.10
  -5   4  -9   20.80   22.50
  -5   4  -9  -20.10   25.70
   5  -4   9   46.40   27.40
   5  -4   9   23.50   26.60
   8   3  -9   -5.20   14.60
   8   3  -9   11.50   20.80
   8   3  -9    9.40   30.30
  -8  -3   9   17.00   20.00
   7   3  -9    8.30   15.60
   7   3  -9   28.60   23.40
   7   3  -9   13.90   17.00
  -7  -3   9  -29.60   18.60
   6   3  -9  149.39   25.70
   6   3  -9   90.09   25.10
  -6  -3   9  127.89   29.20
   5   3  -9   24.70   19.80
   5   3  -9   93.99   26.70
   5   3  -9   81.69   20.00
  -5  -3   9   66.19   17.80
  -5  -3   9   63.29   23.00
   4   3  -9  153.88   23.50
   4   3  -9  116.99   26.30
   4   3  -9  158.98   31.50
  -4  -3   9  130.09   24.70
  -4  -3   9  145.29   30.70
   3   3  -9   36.50   20.50
   3   3  -9  101.29   24.60
   3   3  -9   36.60   17.80
   3   3  -9   54.49   16.20
  -3  -3   9   51.49   22.30
  -3  -3   9   16.30   17.00
  -3  -3   9   33.40   15.40
   2   3  -9   21.20   15.60
   2   3  -9   24.20   13.90
   2   3  -9   22.50   17.60
  -2  -3   9   -1.10   10.30
  -2  -3   9   13.40   17.70
  -2  -3   9   69.19   23.60
   1   3  -9   19.30   12.50
   1   3  -9    1.30   16.10
   1   3  -9   16.70   14.10
   1   3  -9   -4.60   15.10
  -1  -3   9    0.00   17.10
  -1  -3   9  -22.80    9.20
  -1  -3   9   39.50   20.80
   0   3  -9   13.10   11.40
   0   3  -9   34.60   19.80
   0   3  -9   10.50   18.50
   0  -3   9   -8.30   16.80
   0  -3   9   10.70   13.10
  -1   3  -9    3.60    8.00
  -1   3  -9   15.70   19.90
   1  -3   9    4.50   19.40
   1  -3   9  -32.70   11.50
   1  -3   9    2.30   18.20
  -2   3  -9  260.07   14.10
  -2   3  -9  269.17   14.60
   2  -3   9  219.58   35.40
   2  -3   9  235.98   34.30
   2  -3   9  227.68   39.90
  -3   3  -9   12.20   20.50
   3  -3   9   25.90   18.20
   3  -3   9   13.10   24.20
   3  -3   9  -31.00   16.40
  -4   3  -9   44.70   25.90
  -4   3  -9  101.79   27.20
   4  -3   9  -14.40   24.90
   4  -3   9   23.90   22.50
   4  -3   9   30.00   23.50
  -5   3  -9  -34.30   22.30
  -5   3  -9   23.00   22.90
  -5   3  -9  -28.20   20.60
   5  -3   9   22.50   22.60
   5  -3   9   24.20   30.10
   9   2  -9   23.60   29.10
   9   2  -9   -9.40   23.40
   9   2  -9    8.30   13.40
  -9  -2   9    3.60   23.00
  -9  -2   9   -9.40   27.70
   8   2  -9    6.30   20.30
   8   2  -9    9.10   14.60
  -8  -2   9   13.40   21.80
   7   2  -9   -1.40   12.90
   7   2  -9   20.40   20.30
   7   2  -9   36.80   19.90
  -7  -2   9   13.60   22.70
   6   2  -9  128.59   29.50
   6   2  -9  168.08   23.90
  -6  -2   9  171.68   33.00
  -6  -2   9  168.38   25.90
   5   2  -9   29.20   19.90
   5   2  -9   44.40   14.50
   5   2  -9   44.60   20.30
  -5  -2   9   36.70   16.70
  -5  -2   9   70.99   26.20
   4   2  -9   19.10   15.20
   4   2  -9   -1.80   15.00
   4   2  -9   -8.00    9.60
  -4  -2   9   17.00   15.10
  -4  -2   9   -1.90   15.50
   3   2  -9   -0.50   14.00
   3   2  -9   33.30   19.60
   3   2  -9  -12.70    8.70
  -3  -2   9   29.70   21.60
  -3  -2   9    5.40   16.80
  -3  -2   9    7.10   17.90
   2   2  -9  -14.10   10.60
   2   2  -9    3.10    9.70
   2   2  -9    7.60   14.30
  -2  -2   9   19.30   18.60
  -2  -2   9   28.80   20.70
  -2  -2   9    8.60    9.70
   1   2  -9    7.40   10.50
   1   2  -9    4.60   14.60
   1   2  -9    4.50   17.30
  -1  -2   9   14.20   20.00
  -1  -2   9   37.20   40.50
  -1  -2   9   -6.60   10.20
   0   2  -9  126.89   16.60
   0   2  -9  137.59   28.50
   0   2  -9   86.79   24.90
   0  -2   9  180.48   33.60
   0  -2   9  144.19   25.10
   0  -2   9  155.38   31.80
  -1   2  -9  -24.10   15.00
  -1   2  -9    2.20    4.00
  -1   2  -9   -5.10    3.50
   1  -2   9   15.00   19.60
   1  -2   9    8.30   17.80
   1  -2   9   31.60   15.70
  -2   2  -9    1.90   20.90
   2  -2   9   13.10   19.80
   2  -2   9   -7.40   19.20
   2  -2   9   29.40   21.40
  -3   2  -9  375.26   46.30
   3  -2   9  379.96   43.30
   3  -2   9  363.06   43.60
   3  -2   9  253.27   42.30
  -4   2  -9   25.30   25.50
  -4   2  -9   35.00   36.00
  -4   2  -9   19.30   20.90
   4  -2   9   11.80   21.80
   4  -2   9   43.50   23.70
   4  -2   9   24.40   26.50
  -5   2  -9   -7.70   23.10
  -5   2  -9   29.20   23.50
   5  -2   9  -23.40   40.00
   5  -2   9   -2.70   22.90
   5  -2   9  -14.20   27.50
   9   1  -9   96.29   25.10
   9   1  -9   61.89   36.60
  -9  -1   9  115.79   36.20
  -9  -1   9   80.99   31.70
   8   1  -9    1.80   13.50
  -8  -1   9   16.00   22.70
   7   1  -9   28.70   23.30
   7   1  -9   39.00   22.00
   7   1  -9    0.20   11.60
  -7  -1   9   26.00   22.80
   6   1  -9  131.89   29.80
   6   1  -9  140.99   18.70
  -6  -1   9  137.49   31.40
  -6  -1   9  115.29   26.20
   5   1  -9    9.10   16.20
   5   1  -9    4.50   16.00
  -5  -1   9   33.60   20.60
  -5  -1   9   37.00   18.90
   4   1  -9    4.60    7.50
   4   1  -9   10.40   17.30
   4   1  -9   13.10   15.10
   4   1  -9   20.50   18.20
  -4  -1   9  -16.40   14.20
  -4  -1   9   -5.00   17.00
   3   1  -9   15.00   25.50
   3   1  -9   16.00   13.90
  -3  -1   9   21.40   20.10
  -3  -1   9   62.49   25.10
   2   1  -9  351.96   46.00
   2   1  -9  288.77   27.40
  -2  -1   9  245.48   38.90
  -2  -1   9  268.17   40.80
   1   1  -9  345.17   26.00
   1   1  -9  318.57   40.90
   1   1  -9  366.76   40.90
  -1  -1   9  300.37   43.60
  -1  -1   9  386.56   46.40
  -1  -1   9  354.26   27.80
   0   1  -9  121.39   28.40
   0   1  -9   77.99   11.10
   0  -1   9   59.19   24.70
   0  -1   9   89.79   18.60
   0  -1   9   65.99   24.60
  -1   1  -9   29.20   15.70
  -1   1  -9   34.40   19.60
   1  -1   9   49.70   21.50
   1  -1   9   19.50   21.90
   1  -1   9   57.99   18.30
  -2   1  -9   -5.40   18.00
  -2   1  -9   12.80   15.50
   2  -1   9  -14.60   12.70
   2  -1   9  -23.30   17.70
   2  -1   9  -24.00   18.00
   2  -1   9   20.70   19.70
  -3   1  -9  322.37   44.80
   3  -1   9  272.37   46.30
   3  -1   9  264.77   46.00
   3  -1   9  320.37   41.70
   3  -1   9  262.07   38.60
  -4   1  -9   50.09   25.00
   4  -1   9   51.19   26.50
   4  -1   9  102.09   32.90
   4  -1   9   48.50   25.00
   8   0  -9   29.20   13.30
   8   0  -9   31.20    6.00
  -8   0   9   32.00   25.40
   7   0  -9   68.09   27.90
  -7   0   9   37.00   25.20
   6   0  -9   60.59   23.60
   6   0  -9   38.70    7.40
  -6   0   9   56.89   25.00
  -6   0   9   69.19   25.30
   5   0  -9    8.50   17.30
   5   0  -9    5.00   19.60
  -5   0   9    7.40   16.50
  -5   0   9  -23.90   16.60
   4   0  -9   44.70   25.00
   4   0  -9  -12.10   14.50
  -4   0   9  -33.30   14.40
  -4   0   9   35.20   20.20
   3   0  -9   11.70   16.90
   3   0  -9   27.40   15.40
  -3   0   9   20.40   18.90
  -3   0   9    3.90   19.70
   2   0  -9   28.50   20.20
   2   0  -9   26.60   18.90
   2   0  -9   21.80   12.20
  -2   0   9  -20.00   16.80
  -2   0   9   -9.90    5.10
  -2   0   9  -31.00   17.10
  -2   0   9   -6.20   14.50
   1   0  -9   14.90    8.90
   1   0  -9    3.40   15.10
   1   0  -9   -3.50   14.00
   1   0  -9    2.00   19.10
  -1   0   9   13.80    8.90
  -1   0   9   21.00   21.80
  -1   0   9   10.50   17.00
   0   0  -9    0.00   17.20
   0   0  -9   -1.70   12.10
   0   0  -9   10.30    3.90
   0   0  -9   12.40   19.00
   0   0   9   -2.10   10.00
   0   0   9  -26.60   17.10
   0   0   9   12.50   17.90
  -1   0  -9   -4.90   16.10
  -1   0  -9   61.39   22.30
   1   0   9  -11.80   15.90
   1   0   9   20.80   18.80
   1   0   9   52.69   16.40
  -2   0  -9  112.59   27.40
  -2   0  -9  144.79   29.10
   2   0   9   83.79   27.80
   2   0   9   40.50   26.40
   2   0   9  153.78   27.90
   2   0   9   58.69   25.40
  -3   0  -9   43.10   23.40
   3   0   9   43.00   22.90
   3   0   9   29.20   26.30
   3   0   9   78.89   25.30
   3   0   9    6.10   23.90
   4   0   9   14.60   27.50
   4   0   9   12.30   20.90
   8  -1  -9   26.20   27.00
   8  -1  -9   98.99   17.30
  -8   1   9  105.49   34.70
   7  -1  -9   15.30   21.10
   7  -1  -9   15.50    5.40
  -7   1   9   43.00   28.00
   6  -1  -9   21.10    9.30
   6  -1  -9  -13.90   17.80
  -6   1   9   -2.90   18.10
  -6   1   9   -4.40   18.70
   5  -1  -9   31.80   22.50
   5  -1  -9   -5.80   14.10
   5  -1  -9    6.10   20.40
   5  -1  -9   -8.80    8.90
  -5   1   9   -1.10   19.50
  -5   1   9   14.80   18.40
   4  -1  -9  113.09   24.10
   4  -1  -9   90.39   17.50
   4  -1  -9   58.09   27.70
  -4   1   9   33.80   21.50
  -4   1   9   59.19   25.90
   3  -1  -9  -30.30   15.90
   3  -1  -9    3.70   13.20
   3  -1  -9  -13.30   11.80
  -3   1   9  -25.50   16.90
  -3   1   9   -6.70   17.70
   2  -1  -9  461.95   37.90
   2  -1  -9  418.56   48.20
   2  -1  -9  420.36   31.40
  -2   1   9  380.46   51.69
  -2   1   9  429.76   48.70
  -2   1   9  343.77   46.30
   1  -1  -9  -24.70   14.70
   1  -1  -9   -7.10   16.90
   1  -1  -9  -11.90    7.00
  -1   1   9   12.00    7.30
  -1   1   9  -11.30   21.30
  -1   1   9   -5.60   18.50
   0  -1  -9   10.50   18.90
   0  -1  -9   22.30   22.60
   0  -1  -9   37.00   19.00
   0   1   9   43.00   20.90
   0   1   9    3.40   10.30
   0   1   9   -9.40   17.80
  -1  -1  -9   44.60   22.80
  -1  -1  -9   28.60   20.40
   1   1   9   29.20   22.20
   1   1   9   20.90   14.40
   1   1   9   -3.20   21.40
  -2  -1  -9    2.30   22.40
  -2  -1  -9   -1.20   16.60
   2   1   9  -19.50   17.20
   2   1   9  -18.50   19.80
   2   1   9   15.10   25.50
   2   1   9    1.90   15.90
  -3  -1  -9    2.40   18.70
   3   1   9   57.29   20.80
   3   1   9   -6.20   23.70
   3   1   9   -4.70   26.50
   3   1   9   43.60   22.20
  -4  -1  -9   29.90   27.00
   4   1   9   66.89   26.90
   4   1   9   -1.80   24.30
   4   1   9   58.49   32.90
   8  -2  -9   33.30   27.50
  -8   2   9  -40.90   24.30
   7  -2  -9   29.60   21.70
  -7   2   9   49.50   27.30
  -7   2   9   10.60   24.30
   6  -2  -9   65.89   27.70
   6  -2  -9   41.20   25.80
  -6   2   9   58.89   24.40
  -6   2   9   34.10   25.70
   5  -2  -9   14.90   21.80
   5  -2  -9   -2.70    9.80
   5  -2  -9    4.90   17.00
  -5   2   9  -16.00   21.40
  -5   2   9   -9.10   18.80
   4  -2  -9  511.05   44.20
   4  -2  -9  541.95   54.39
   4  -2  -9  489.95   34.30
  -4   2   9  404.16   51.59
   3  -2  -9   37.70   15.70
   3  -2  -9   -4.60   13.10
   3  -2  -9   88.39   23.10
   3  -2  -9   59.09   27.10
  -3   2   9   13.50   22.80
   2  -2  -9   21.50   19.90
   2  -2  -9   32.40   15.40
   2  -2  -9   36.50   14.00
  -2   2   9   45.70   25.20
  -2   2   9   -2.30   19.90
   1  -2  -9   39.30   24.20
   1  -2  -9  -16.20   12.30
   1  -2  -9   -2.90    7.60
  -1   2   9   12.70   24.10
  -1   2   9   20.20   18.80
  -1   2   9   28.30   21.60
   0  -2  -9   20.50   17.70
   0  -2  -9  -10.90   19.40
   0   2   9   24.10   21.40
   0   2   9   15.70   19.80
   0   2   9  -10.40    8.70
   0   2   9   22.00   22.30
  -1  -2  -9  -29.50   15.70
   1   2   9   -9.80   23.90
   1   2   9   -6.10   12.50
   1   2   9   -0.80   19.50
  -2  -2  -9    3.40   20.40
   2   2   9    4.70   22.30
   2   2   9    2.50   22.90
   2   2   9  -13.90   20.90
   2   2   9    9.10   14.70
  -3  -2  -9  -34.40   19.90
   3   2   9  -14.60   24.80
   3   2   9   23.50   22.20
   3   2   9   18.00   20.40
   7  -3  -9   81.59   28.30
   7  -3  -9    3.40   30.20
  -7   3   9   61.79   26.80
  -7   3   9  -32.70   27.40
   6  -3  -9  -29.60   22.70
   6  -3  -9   83.29   26.40
  -6   3   9   23.60   23.20
  -6   3   9   26.30   25.40
   5  -3  -9   49.80   27.80
   5  -3  -9   11.60   18.50
   5  -3  -9   20.40   11.70
  -5   3   9   19.80   21.50
  -5   3   9   62.19   25.40
  -5   3   9    8.80   23.70
   4  -3  -9  157.98   31.10
   4  -3  -9  246.28   41.60
   4  -3  -9  205.78   25.70
  -4   3   9  211.08   40.60
  -4   3   9  170.78   30.80
  -4   3   9  190.58   38.90
   3  -3  -9    8.00   23.20
   3  -3  -9   84.49   20.20
   3  -3  -9   48.30   18.90
   3  -3  -9   67.69   27.40
  -3   3   9   28.90   23.80
  -3   3   9   65.79   27.50
  -3   3   9   45.10   18.10
  -3   3   9   54.29   26.70
   2  -3  -9   11.50   12.20
   2  -3  -9  -36.90   16.90
   2  -3  -9   25.30   21.40
   2  -3  -9   -1.80   14.90
  -2   3   9  -48.20   15.60
  -2   3   9  -19.20   22.30
  -2   3   9  -44.00   19.20
   1  -3  -9   -9.10   21.40
   1  -3  -9   -0.60   13.90
   1  -3  -9   21.70   18.60
  -1   3   9   -6.60   21.80
  -1   3   9   -3.90   18.50
  -1   3   9  -26.90   17.10
   0  -3  -9    7.60   23.10
   0  -3  -9   43.70   22.10
   0   3   9   28.20   24.50
   0   3   9   94.59   28.30
   0   3   9   -0.50   21.60
  -1  -3  -9   35.70   21.70
   1   3   9   23.20   21.30
   1   3   9   -7.40   29.10
   1   3   9   73.39   16.80
   1   3   9   37.20   27.60
  -2  -3  -9    7.80   17.80
   2   3   9  -53.99   25.40
   2   3   9  -22.20   24.40
   2   3   9   -8.70   15.20
   2   3   9  -44.50   30.00
   6  -4  -9   63.09   34.30
   6  -4  -9   29.80   24.30
  -6   4   9   24.60   24.40
   5  -4  -9  109.29   32.30
  -5   4   9   45.00   23.80
  -5   4   9   35.30   27.90
  -5   4   9   83.69   29.80
   4  -4  -9   50.69   21.40
   4  -4  -9   52.79   30.00
  -4   4   9   98.49   31.20
  -4   4   9   69.59   33.20
  -4   4   9  115.09   25.80
   3  -4  -9   11.80   22.20
   3  -4  -9   11.80   15.00
   3  -4  -9   13.60   15.50
  -3   4   9  -10.20   23.50
  -3   4   9   18.60   18.20
  -3   4   9    3.30   21.10
  -3   4   9   37.40   27.50
   2  -4  -9   -0.80   12.60
   2  -4  -9   18.70   17.20
   2  -4  -9   22.50   17.80
  -2   4   9   42.60   24.50
  -2   4   9   35.90   26.80
  -2   4   9  -22.30   18.60
  -2   4   9   31.80   17.70
   1  -4  -9   30.90   20.60
   1  -4  -9   33.60   23.20
  -1   4   9   17.20   23.10
  -1   4   9   -8.90   21.10
   0  -4  -9   15.30   19.90
   0   4   9   24.80    8.80
   0   4   9   40.20   24.00
   0   4   9   22.40   14.50
   0   4   9    4.20   23.90
   0   4   9  -27.10   22.50
  -1  -4  -9   30.90   22.20
   1   4   9   13.10   13.10
   1   4   9   13.90   12.80
   1   4   9   37.10   31.50
   1   4   9   48.10   25.20
   1   4   9   30.10   27.70
   5  -5  -9   -7.30   29.40
   5  -5  -9  -17.70   22.00
  -5   5   9   30.60   24.60
  -5   5   9   -5.10   28.10
  -5   5   9    2.90   29.10
   4  -5  -9  -15.10   26.60
  -4   5   9  -15.70   26.80
  -4   5   9   19.30   22.70
  -4   5   9  -13.20   31.30
   3  -5  -9   37.50   18.40
   3  -5  -9   15.40   21.80
  -3   5   9   13.50   22.00
  -3   5   9  -31.10   25.70
  -3   5   9   12.00   25.10
  -3   5   9  -20.40   26.20
   2  -5  -9   -8.90   24.90
  -2   5   9    2.40   27.50
  -2   5   9    9.60   22.60
  -2   5   9   20.40   17.80
  -2   5   9   46.30   28.90
   1  -5  -9   -8.90   18.90
  -1   5   9    0.20   25.90
  -1   5   9  -11.50   27.90
  -1   5   9   12.20   12.80
  -1   5   9    6.40   25.50
   0  -5  -9  -25.30   19.70
   0   5   9    4.50    5.10
   0   5   9  -12.30   22.30
   0   5   9   -2.00    8.20
   2  10 -10   24.80   14.00
  -2 -10  10   25.10   24.00
   4   9 -10   20.80   24.40
   4   9 -10   90.69   33.70
  -4  -9  10   44.00   15.20
  -4  -9  10   44.10   26.00
   3   9 -10   -6.30   27.00
   3   9 -10   25.90   26.90
  -3  -9  10   34.50   24.80
  -3  -9  10   27.00   15.00
   2   9 -10   -1.50   14.30
   2   9 -10   39.10   25.60
  -2  -9  10   11.40   14.70
  -2  -9  10   36.30   29.70
   1   9 -10    1.10   11.80
   1   9 -10   20.30   24.60
   1   9 -10   -7.10   22.50
  -1  -9  10   13.20   30.20
  -1  -9  10   23.60   17.20
  -1  -9  10   32.70   19.90
   0   9 -10  -47.20   21.30
   0   9 -10   33.90   28.30
   0   9 -10   28.60   22.50
   0  -9  10   72.79   35.00
   0  -9  10    3.00   19.20
   0  -9  10   22.80   18.70
  -1   9 -10   10.90   26.40
  -1   9 -10  -43.80   19.40
  -1   9 -10   25.80   26.60
   1  -9  10    1.40   20.90
   1  -9  10   17.30   25.70
   5   8 -10   22.50   25.70
   5   8 -10   64.69   25.50
  -5  -8  10    9.20   15.30
   4   8 -10   75.99   28.30
   4   8 -10  112.69   30.20
  -4  -8  10   52.49   26.90
  -4  -8  10   44.40   17.30
   3   8 -10  104.69   30.60
   3   8 -10   57.19   27.00
  -3  -8  10   25.90   24.60
  -3  -8  10   39.00   24.70
  -3  -8  10   43.00   18.80
   2   8 -10  129.09   32.00
   2   8 -10   96.89   29.80
   2   8 -10  117.29   23.10
  -2  -8  10   89.29   31.90
  -2  -8  10  147.59   29.50
  -2  -8  10   74.19   20.90
   1   8 -10   18.30   15.10
   1   8 -10  -34.80   19.10
   1   8 -10  -14.00   20.20
  -1  -8  10   11.30   17.10
  -1  -8  10  -13.30   21.80
  -1  -8  10  -15.30   16.20
   0   8 -10   44.40   24.90
   0  -8  10   35.90   25.00
   0  -8  10   19.60   16.40
   0  -8  10   48.90   20.80
  -1   8 -10   28.00   23.60
  -1   8 -10    7.40   21.40
  -1   8 -10   39.00   26.80
   1  -8  10    7.70   24.30
   1  -8  10   46.00   22.60
  -2   8 -10   85.29   31.70
  -2   8 -10   95.39   25.20
  -2   8 -10  101.39   32.70
   2  -8  10   48.50   31.40
   2  -8  10   28.70   25.20
   6   7 -10   20.70   21.10
   6   7 -10  -40.80   18.40
   6   7 -10  -48.50   21.10
  -6  -7  10   -4.10   20.50
  -6  -7  10   -8.20   18.40
   5   7 -10   95.49   29.50
   5   7 -10   60.39   24.10
   5   7 -10   68.89   26.90
  -5  -7  10   35.20    9.90
  -5  -7  10   20.80   23.70
  -5  -7  10   54.39   21.50
   4   7 -10  216.88   38.00
   4   7 -10  186.98   38.00
  -4  -7  10  178.38   29.30
  -4  -7  10  218.88   36.20
   3   7 -10   61.49   23.50
   3   7 -10   21.30   19.70
   3   7 -10    0.20   18.20
  -3  -7  10  -17.00   14.50
  -3  -7  10   -1.60   17.30
  -3  -7  10   25.20   20.60
   2   7 -10  -32.70   17.90
   2   7 -10   -2.30   15.30
   2   7 -10    5.00   19.60
  -2  -7  10  -20.90   13.90
  -2  -7  10   17.70   19.80
  -2  -7  10   13.70   14.80
   1   7 -10    9.10   25.00
   1   7 -10   27.40   15.70
   1   7 -10   -5.40   20.80
  -1  -7  10   21.10   18.50
  -1  -7  10  -21.30   13.90
  -1  -7  10  -40.60   15.30
   0   7 -10   86.69   29.90
   0   7 -10   84.19   31.10
   0  -7  10   68.09   27.30
   0  -7  10   82.99   17.50
  -1   7 -10  -14.20   21.90
  -1   7 -10   16.50   14.80
   1  -7  10  -20.00   20.80
   1  -7  10   -3.30   18.40
  -2   7 -10    6.20   22.20
  -2   7 -10  -28.50   20.00
  -2   7 -10   29.60   19.20
   2  -7  10   25.00   23.40
   2  -7  10   -1.90   25.10
  -3   7 -10  -11.70   22.40
  -3   7 -10   23.50   17.40
   3  -7  10    9.80   25.20
   3  -7  10   13.40   25.90
   7   6 -10    1.50   25.80
   7   6 -10  -20.80   19.50
   7   6 -10  -17.60   21.60
  -7  -6  10    7.70   22.60
   6   6 -10  -13.50   18.80
   6   6 -10    0.40   19.70
   6   6 -10   13.10   24.10
  -6  -6  10  -10.90   20.10
   5   6 -10   20.80   22.00
   5   6 -10   36.10   24.10
   5   6 -10   31.30   22.00
  -5  -6  10   52.39   25.50
  -5  -6  10   24.90   11.10
  -5  -6  10   40.50   19.40
   4   6 -10   25.20   20.20
   4   6 -10   36.10   23.20
  -4  -6  10   32.50   21.00
  -4  -6  10   25.20   21.50
   3   6 -10   65.69   22.40
   3   6 -10   64.19   39.00
   3   6 -10   90.69   24.30
  -3  -6  10   35.00   25.30
  -3  -6  10   23.30   20.80
  -3  -6  10   76.89   21.70
   2   6 -10  -19.50   26.20
   2   6 -10  -10.30   15.20
   2   6 -10   -1.10   17.30
  -2  -6  10  -20.60   15.20
  -2  -6  10   25.00   17.80
  -2  -6  10  -26.10   18.20
   1   6 -10   14.70   19.50
   1   6 -10   28.40   16.90
   1   6 -10   18.70   18.90
  -1  -6  10  -20.50   16.10
  -1  -6  10   10.40   13.50
  -1  -6  10    2.40   20.50
  -1  -6  10   56.39   19.70
   0   6 -10   68.79   23.20
   0   6 -10   97.09   28.30
   0   6 -10   44.70   18.90
   0  -6  10  120.09   16.30
   0  -6  10  110.19   28.10
   0  -6  10   77.09   27.10
  -1   6 -10    8.40   20.90
  -1   6 -10   20.10   22.00
  -1   6 -10   12.90   14.30
   1  -6  10   32.30   22.00
   1  -6  10   19.10   22.20
  -2   6 -10  -21.70   12.70
  -2   6 -10   34.70   29.80
   2  -6  10   -7.20   21.70
   2  -6  10  -11.70   21.60
  -3   6 -10   23.00   14.40
  -3   6 -10   69.79   29.30
   3  -6  10   64.49   30.30
   3  -6  10   27.70   31.80
   7   5 -10   -7.10   21.50
   7   5 -10  -20.50   23.80
   7   5 -10    1.30   18.60
  -7  -5  10  -56.09   19.70
   6   5 -10  -16.80   21.80
   6   5 -10   -3.90   18.90
  -6  -5  10   23.60   23.50
   5   5 -10   57.79   23.80
   5   5 -10   58.29   25.30
   5   5 -10   87.29   23.90
  -5  -5  10   60.29   25.50
  -5  -5  10   55.99   15.90
   4   5 -10  100.39   29.10
   4   5 -10  143.09   28.10
   4   5 -10  118.69   30.10
  -4  -5  10  142.99   28.30
  -4  -5  10  139.49   32.50
   3   5 -10   84.09   25.10
   3   5 -10   71.89   22.60
   3   5 -10   85.79   21.90
   3   5 -10   62.69   24.50
  -3  -5  10   76.99   27.90
  -3  -5  10   66.29   25.10
  -3  -5  10  106.09   24.70
   2   5 -10   10.80   17.40
   2   5 -10   31.80   19.40
   2   5 -10    3.80   18.70
   2   5 -10   41.60   23.00
  -2  -5  10    8.00   18.90
  -2  -5  10   32.60   18.60
  -2  -5  10   19.90   20.50
   1   5 -10   35.90   19.40
   1   5 -10   12.00   15.40
  -1  -5  10   -5.30   20.60
  -1  -5  10   -9.30   13.80
  -1  -5  10   36.70   22.90
   0   5 -10  109.09   43.50
   0   5 -10  101.39   25.10
   0  -5  10   90.89   25.30
   0  -5  10  132.69   14.10
   0  -5  10  105.79   28.60
   0  -5  10  132.19   31.90
  -1   5 -10   11.60   12.80
  -1   5 -10   47.40   22.30
   1  -5  10   22.90   18.10
   1  -5  10   15.90   21.30
  -2   5 -10   40.40   15.30
  -2   5 -10  104.39   31.30
   2  -5  10   57.19   31.60
   2  -5  10   34.70   24.60
  -3   5 -10    1.60   24.90
  -3   5 -10    1.60   10.10
   3  -5  10   49.30   27.10
   3  -5  10   -0.60   22.00
   8   4 -10   10.40   23.00
   8   4 -10   32.90   22.60
   8   4 -10  -17.90   27.20
  -8  -4  10   20.20   22.60
   7   4 -10   42.10   34.60
   7   4 -10    9.50   23.00
   7   4 -10   24.60   18.60
  -7  -4  10  -13.20   20.50
   6   4 -10   61.09   19.40
   6   4 -10   28.80   22.80
   6   4 -10   48.80   26.80
  -6  -4  10   46.50   14.70
  -6  -4  10   50.09   26.70
   5   4 -10  476.65   40.40
   5   4 -10  459.95   48.80
  -5  -4  10  528.15   38.90
  -5  -4  10  562.84   53.09
   4   4 -10   22.90   15.50
   4   4 -10   30.70   19.50
   4   4 -10   -7.40   17.80
  -4  -4  10  -28.50   16.10
  -4  -4  10    9.60   15.60
  -4  -4  10   53.39   24.60
   3   4 -10   10.60   22.10
   3   4 -10   16.60   17.80
   3   4 -10    1.10   14.00
   3   4 -10  -17.30   16.40
  -3  -4  10    5.00   19.30
  -3  -4  10    0.20   13.40
  -3  -4  10    7.60   29.90
   2   4 -10   77.19   23.00
   2   4 -10   73.99   19.60
   2   4 -10   28.20   15.90
  -2  -4  10   47.80   22.60
  -2  -4  10    9.00   20.00
  -2  -4  10   45.80   17.70
   1   4 -10   20.70   16.20
   1   4 -10   12.00   18.20
   1   4 -10   48.40   17.50
  -1  -4  10   59.59   24.00
  -1  -4  10   27.30   15.40
  -1  -4  10   32.00   20.60
   0   4 -10   22.10   17.30
   0   4 -10  -12.40   14.60
   0   4 -10   22.80   12.80
   0   4 -10   48.10   22.20
   0  -4  10   28.20    9.20
   0  -4  10   34.50   22.40
   0  -4  10   46.00   25.30
   0  -4  10   17.70   17.90
  -1   4 -10   35.50   12.00
  -1   4 -10    9.40   20.00
  -1   4 -10   19.10   11.20
   1  -4  10    2.30   19.40
   1  -4  10   40.60   20.40
   1  -4  10    1.30   19.80
  -2   4 -10   41.80   23.10
   2  -4  10   20.10   20.70
   2  -4  10  -16.60   20.10
  -3   4 -10   20.60   22.10
   3  -4  10   -8.80   19.40
   3  -4  10  -47.90   21.80
  -4   4 -10    7.90   17.20
   8   3 -10  -23.90   24.00
   8   3 -10  -27.00   22.60
   8   3 -10   26.50   19.00
  -8  -3  10    2.20   25.20
   7   3 -10   20.10   22.20
   7   3 -10   26.60   17.90
   7   3 -10    8.00   23.30
  -7  -3  10   21.80   23.90
   6   3 -10  -21.50   19.10
   6   3 -10  -25.90   16.50
   6   3 -10  -21.10   12.60
  -6  -3  10   15.10   22.20
  -6  -3  10  -12.10   13.40
   5   3 -10   12.20   20.30
   5   3 -10  -15.10   11.60
  -5  -3  10   -2.20   15.60
  -5  -3  10    3.30   22.80
   4   3 -10   38.50   19.90
   4   3 -10  -32.50   17.10
   4   3 -10   17.60   13.80
   4   3 -10   -0.80   19.50
  -4  -3  10  -39.20   16.90
  -4  -3  10    0.80   18.80
  -4  -3  10   11.20   16.60
   3   3 -10  -16.60   17.30
   3   3 -10    5.80   13.00
   3   3 -10   -8.60   18.10
   3   3 -10  -11.50   12.80
  -3  -3  10  -22.20   17.70
  -3  -3  10    3.70   11.20
  -3  -3  10  -10.00   17.40
   2   3 -10    3.70   34.60
   2   3 -10   -0.90   13.30
   2   3 -10  -20.70    9.80
  -2  -3  10    8.90   21.90
  -2  -3  10   -5.70   16.80
  -2  -3  10   -4.40   11.20
   1   3 -10   45.60   15.00
   1   3 -10   14.60   15.20
   1   3 -10   49.90   21.50
  -1  -3  10  -10.90   20.50
  -1  -3  10    8.00   20.40
  -1  -3  10   10.60   13.60
   0   3 -10    0.70   18.80
   0   3 -10   16.10   20.50
   0   3 -10   -3.00    9.50
   0  -3  10  -17.80   20.60
   0  -3  10  -19.20   12.70
   0  -3  10  -39.80   14.70
  -1   3 -10  -25.00   18.00
  -1   3 -10    2.90    6.90
   1  -3  10  -23.10   14.20
   1  -3  10   33.70   25.60
   1  -3  10    0.00   18.70
  -2   3 -10  165.88   35.90
   2  -3  10  114.19   27.60
   2  -3  10  124.59   32.60
   2  -3  10  134.59   38.50
  -3   3 -10   27.70   16.80
  -3   3 -10   30.90   27.70
   3  -3  10    0.70   20.70
   3  -3  10   41.90   30.30
   4  -3  10   67.59   28.40
   8   2 -10   24.70   27.90
   8   2 -10   -8.50   22.50
   8   2 -10    7.80   17.00
  -8  -2  10  -10.10   25.90
   7   2 -10   18.90   20.30
   7   2 -10  -16.80   11.80
   7   2 -10   41.00   26.10
  -7  -2  10   -0.40   22.50
   6   2 -10   -2.70   11.30
   6   2 -10   11.80   19.60
   6   2 -10   28.10   23.60
  -6  -2  10   25.20   21.10
  -6  -2  10    4.90   17.00
   5   2 -10    1.00   16.20
   5   2 -10   45.00   19.90
   5   2 -10    0.60   10.10
  -5  -2  10    2.50   18.60
  -5  -2  10    2.60   15.50
   4   2 -10   40.00   20.50
   4   2 -10   39.50   22.70
   4   2 -10   22.50   11.40
  -4  -2  10   31.40   18.40
  -4  -2  10   49.99   22.50
   3   2 -10   14.90   14.60
   3   2 -10   -2.70   20.20
   3   2 -10   17.50   10.90
  -3  -2  10   10.60   21.30
  -3  -2  10   30.20   23.40
  -3  -2  10   33.70   26.40
   2   2 -10   83.29   20.40
   2   2 -10  142.89   31.50
  -2  -2  10  126.69   29.60
  -2  -2  10   68.69   16.10
  -2  -2  10  135.29   29.90
   1   2 -10   33.30   19.80
   1   2 -10   19.80   11.70
   1   2 -10   -0.10   16.80
  -1  -2  10    7.30   21.00
  -1  -2  10  -23.20   18.50
  -1  -2  10   -4.10   10.70
   0   2 -10   -4.60   18.70
   0   2 -10    4.80   18.80
   0  -2  10    1.40   16.30
   0  -2  10    4.30   21.70
   0  -2  10    0.90   13.00
  -1   2 -10   96.09   25.80
   1  -2  10   -0.90   15.10
   1  -2  10   79.89   25.50
   1  -2  10   42.20   27.50
  -2   2 -10   48.20   25.40
  -2   2 -10   40.20   22.80
   2  -2  10   35.50   25.20
   2  -2  10   56.59   21.90
   2  -2  10   33.20   24.10
  -3   2 -10   82.89   27.00
  -3   2 -10   93.29   27.90
   3  -2  10   22.80   28.10
   3  -2  10   -6.60   21.70
   8   1 -10   10.80   13.50
   8   1 -10   -2.10   24.20
  -8  -1  10   49.90   27.00
   7   1 -10   14.20   21.70
   7   1 -10    3.50    9.80
   7   1 -10   15.80   24.00
  -7  -1  10   11.10   21.50
   6   1 -10   26.40   20.40
   6   1 -10  -29.10   17.50
  -6  -1  10  -11.40   18.80
  -6  -1  10   -1.60   21.00
   5   1 -10   22.90   23.10
   5   1 -10   26.40   18.90
   5   1 -10   29.60   22.40
   5   1 -10   23.80    7.30
  -5  -1  10   21.50   23.50
  -5  -1  10    9.30   23.10
   4   1 -10   41.30   26.00
   4   1 -10   74.29   27.90
   4   1 -10   46.80   20.60
  -4  -1  10   52.29   25.30
  -4  -1  10   60.19   25.10
   3   1 -10    9.70   16.50
   3   1 -10    6.10   15.80
  -3  -1  10    6.50   19.70
  -3  -1  10   29.00   21.40
  -3  -1  10   48.90   23.00
   2   1 -10   12.60   20.10
   2   1 -10    5.70   11.80
   2   1 -10   20.50   18.00
  -2  -1  10   -3.90   18.50
  -2  -1  10    3.20    8.70
  -2  -1  10   21.70   22.70
   1   1 -10   23.20   11.00
   1   1 -10   24.00   20.60
   1   1 -10   52.79   25.20
  -1  -1  10   54.69   26.60
  -1  -1  10   29.20   12.70
  -1  -1  10   14.70   21.80
   0   1 -10  -18.30   18.30
   0   1 -10   20.70   16.30
   0   1 -10   -9.30    3.70
   0  -1  10   -2.20   12.20
   0  -1  10   -8.70   18.60
   0  -1  10  -14.10   17.10
  -1   1 -10   39.60   21.40
  -1   1 -10   -5.60   18.10
   1  -1  10   19.40   22.20
   1  -1  10    3.10   23.30
   1  -1  10  -19.70   12.20
  -2   1 -10  186.98   36.80
  -2   1 -10  196.58   37.40
   2  -1  10  219.28   37.50
   2  -1  10  158.18   38.10
   2  -1  10  269.97   37.60
  -3   1 -10   34.70   23.20
   3  -1  10   47.80   23.90
   3  -1  10   28.40   24.60
   3  -1  10    5.60   23.80
   8   0 -10    5.40    7.20
   8   0 -10   -0.90   17.30
   8   0 -10   30.30   26.90
  -8   0  10  -46.70   28.80
   7   0 -10   49.70   27.50
   7   0 -10   11.10   35.10
  -7   0  10   23.90   27.00
   6   0 -10   26.50   21.80
   6   0 -10  -21.00   16.60
   6   0 -10   17.60   22.70
  -6   0  10   11.00   25.10
  -6   0  10   32.00   22.80
   5   0 -10   15.20   25.20
   5   0 -10  -12.00   18.60
   5   0 -10  -22.70   15.10
  -5   0  10  -26.00   18.20
  -5   0  10    0.30   20.70
   4   0 -10   20.10   25.10
   4   0 -10  128.39   35.10
   4   0 -10  100.69   25.40
  -4   0  10   73.19   27.60
  -4   0  10  116.09   32.30
   3   0 -10  108.89   29.50
   3   0 -10   75.69   19.40
  -3   0  10  119.49   31.90
  -3   0  10  127.99   33.70
  -3   0  10   54.59   37.50
   2   0 -10   -1.30   18.80
   2   0 -10    9.00   15.80
   2   0 -10   -2.60   16.70
   2   0 -10   21.30   11.60
  -2   0  10   31.90   24.10
  -2   0  10   23.70   20.30
   1   0 -10   43.20   21.70
   1   0 -10   26.50   18.60
   1   0 -10   46.60   20.80
   1   0 -10   46.10   11.10
  -1   0  10   23.20   21.60
  -1   0  10   16.20   10.40
  -1   0  10   29.50   25.30
   0   0 -10   72.39   24.20
   0   0 -10   78.79   24.50
   0   0 -10   92.29   25.90
   0   0  10   98.59   18.40
   0   0  10  123.39   30.60
   0   0  10   44.90   25.30
  -1   0 -10   23.80   21.40
  -1   0 -10    9.90   19.80
   1   0  10    9.80   23.00
   1   0  10  -21.60   19.20
   1   0  10    9.30   14.90
  -2   0 -10   16.30   23.40
  -2   0 -10   18.10   23.30
   2   0  10   52.69   35.90
   2   0  10  -32.20   17.70
   2   0  10   30.00   26.90
  -3   0 -10    0.80   22.60
  -3   0 -10  -13.30   23.10
   3   0  10    0.20   25.40
   3   0  10    3.60   28.80
   3   0  10   -0.50   23.80
   3   0  10   41.70   21.40
   7  -1 -10   19.00   22.20
  -7   1  10   95.99   33.50
   6  -1 -10   -1.10   21.90
   6  -1 -10   49.40   13.10
   6  -1 -10   13.20   21.40
  -6   1  10   49.00   24.80
   5  -1 -10   21.30   24.00
   5  -1 -10   17.50   22.70
   5  -1 -10   10.90   12.50
   5  -1 -10   -8.50   17.80
  -5   1  10   27.60   25.70
   4  -1 -10   69.09   18.40
   4  -1 -10   72.99   39.20
   4  -1 -10  141.39   35.00
   4  -1 -10   24.40   18.30
  -4   1  10   44.50   27.90
   3  -1 -10   -0.30   12.70
   3  -1 -10   -4.20   20.20
   3  -1 -10   -2.40   11.10
   3  -1 -10   18.80   20.50
  -3   1  10   16.20   23.40
  -3   1  10   -9.50   24.50
  -3   1  10   39.30   24.00
   2  -1 -10   -0.70    9.70
   2  -1 -10  -16.10   14.50
   2  -1 -10  -27.90   13.50
   2  -1 -10   12.80   20.00
  -2   1  10  -10.50   22.70
  -2   1  10    9.40   21.40
  -2   1  10   -1.80   21.00
   1  -1 -10    3.50   15.90
   1  -1 -10   -5.10   19.70
   1  -1 -10  -13.40    9.30
   1  -1 -10    4.50   20.70
  -1   1  10   13.90   23.70
  -1   1  10  -34.60   17.90
  -1   1  10   -1.30    6.20
  -1   1  10    1.50   24.40
   0  -1 -10   14.50   21.20
   0  -1 -10   13.80   20.90
   0  -1 -10   37.80   21.10
   0   1  10   48.10   25.10
   0   1  10   53.59   24.90
   0   1  10   14.60   11.50
  -1  -1 -10  -18.60   20.30
  -1  -1 -10  -17.00   17.10
   1   1  10   -7.80   21.50
   1   1  10   -1.90   12.80
   1   1  10   -3.60   27.60
  -2  -1 -10   13.70   22.00
  -2  -1 -10   16.30   23.10
   2   1  10  -27.50   18.10
   2   1  10  -15.80   23.30
   7  -2 -10  -18.30   47.00
   7  -2 -10   42.40   29.60
  -7   2  10   36.40   28.40
   6  -2 -10  -16.10   25.90
   6  -2 -10   19.20   21.70
   6  -2 -10    1.90    9.30
  -6   2  10   18.50   25.30
  -6   2  10   66.99   29.70
   5  -2 -10    4.70   12.00
   5  -2 -10   -1.90   19.40
  -5   2  10   21.90   25.00
  -5   2  10  -11.70   23.30
   4  -2 -10   73.19   21.90
   4  -2 -10   48.60   17.20
   4  -2 -10   78.39   30.50
   4  -2 -10   37.50   28.50
  -4   2  10   87.09   33.00
  -4   2  10   67.09   31.30
   3  -2 -10    7.50   14.60
   3  -2 -10   13.10   20.40
   3  -2 -10  -11.00   13.40
   3  -2 -10   -8.70   22.60
  -3   2  10   83.99   28.40
  -3   2  10  -40.20   18.60
  -3   2  10   12.40   24.70
   2  -2 -10   33.80   29.10
   2  -2 -10   53.39   24.20
   2  -2 -10   53.99   20.20
   2  -2 -10   56.29   14.90
  -2   2  10   46.10   25.00
  -2   2  10   62.59   31.00
  -2   2  10   75.49   32.20
   1  -2 -10   61.89   27.60
   1  -2 -10   40.00   20.70
   1  -2 -10   31.90   21.90
  -1   2  10   20.90   24.90
  -1   2  10   46.00   29.70
  -1   2  10  104.29   30.90
   0  -2 -10   51.49   22.20
   0  -2 -10  -17.00   24.40
   0   2  10   14.70   10.30
   0   2  10   19.10   26.30
   0   2  10   45.10   25.10
   0   2  10  -17.00   26.00
  -1  -2 -10   49.70   25.50
  -1  -2 -10   19.00   25.10
   1   2  10   11.80   24.00
   1   2  10   23.80   15.50
   1   2  10   -7.90   21.60
   1   2  10  -16.60   31.50
   6  -3 -10   13.00   21.90
   6  -3 -10   62.89   29.80
  -6   3  10   12.80   22.60
  -6   3  10   23.50   29.10
   5  -3 -10  102.89   18.40
  -5   3  10   59.89   36.50
   4  -3 -10   36.60   17.00
   4  -3 -10   15.90   20.00
   4  -3 -10    3.00   25.20
  -4   3  10   35.10   25.40
  -4   3  10   64.29   30.70
   3  -3 -10   46.10   23.80
   3  -3 -10   59.99   36.10
   3  -3 -10   50.49   19.70
  -3   3  10   14.90   27.70
  -3   3  10   92.49   35.00
   2  -3 -10  138.89   21.20
   2  -3 -10  166.68   39.20
   2  -3 -10  125.79   34.00
   2  -3 -10  140.19   26.90
  -2   3  10  134.99   32.00
  -2   3  10   45.50   31.60
  -2   3  10   70.79   36.00
   1  -3 -10   23.50   25.20
   1  -3 -10   41.10   26.90
   1  -3 -10   -4.40   18.80
  -1   3  10  -44.60   25.20
  -1   3  10   -2.20   25.40
  -1   3  10   15.50   26.70
   0  -3 -10  -17.60   23.60
   0  -3 -10    5.10   20.60
   0   3  10   -6.00    7.40
   0   3  10    1.30   12.70
   0   3  10   28.80   31.90
   0   3  10   36.20   23.70
   4  -4 -10   66.49   19.80
   4  -4 -10   29.00   23.00
   4  -4 -10   74.89   31.20
  -4   4  10   -7.40   31.00
  -4   4  10   77.29   30.90
  -4   4  10   98.29   27.20
   3  -4 -10  197.38   30.90
   3  -4 -10  151.68   40.10
   3  -4 -10  128.89   29.70
  -3   4  10  119.79   41.60
  -3   4  10  239.78   48.80
   2  -4 -10   42.50   32.60
   2  -4 -10   66.89   23.10
  -2   4  10   83.69   31.70
  -2   4  10    5.00   35.10
  -2   4  10   72.69   35.00
   4   8 -11   54.59   27.70
   4   8 -11  -11.50   21.80
  -4  -8  11   51.49   26.00
  -4  -8  11   -6.80   18.30
   3   8 -11   68.19   28.00
   3   8 -11   42.80   27.60
   3   8 -11   70.79   26.20
  -3  -8  11   -4.50   17.80
  -3  -8  11   45.40   25.90
  -3  -8  11   23.10   26.30
   2   8 -11   12.20   23.60
   2   8 -11   49.50   26.90
   2   8 -11   -2.60   17.20
  -2  -8  11    4.30   24.20
  -2  -8  11   37.70   23.10
  -2  -8  11  -12.70   20.30
   1   8 -11    4.10   24.60
   1   8 -11   34.80   18.00
   1   8 -11   29.80   28.60
  -1  -8  11  -16.20   16.30
  -1  -8  11   28.60   21.70
  -1  -8  11   12.70   25.20
   0   8 -11   -9.30   25.40
   0   8 -11   -7.30   17.70
   0   8 -11    3.00   23.60
   0  -8  11  -27.50   20.40
   0  -8  11  -24.60   19.10
   5   7 -11   62.49   36.10
   5   7 -11  -26.20   19.90
  -5  -7  11   34.40   28.00
  -5  -7  11  -24.40   33.20
  -5  -7  11   -0.20   11.30
   4   7 -11  -62.39   21.50
   4   7 -11    1.20   21.70
  -4  -7  11   25.90   21.70
  -4  -7  11   66.29   29.50
   3   7 -11   11.70   21.10
   3   7 -11   22.80   20.20
  -3  -7  11  -11.40   17.40
  -3  -7  11   39.10   24.60
  -3  -7  11   10.90   20.00
  -3  -7  11   16.00   28.00
   2   7 -11   57.39   22.80
   2   7 -11  -20.60   20.50
   2   7 -11  -23.50   21.30
  -2  -7  11  -17.00   16.50
  -2  -7  11  -19.90   16.60
  -2  -7  11  -17.00   20.90
   1   7 -11   -3.80   25.50
   1   7 -11   19.70   21.50
   1   7 -11   40.60   19.50
  -1  -7  11   30.70   17.50
  -1  -7  11   15.40   23.70
  -1  -7  11   -9.90   21.90
   0   7 -11    2.20   25.10
   0   7 -11   -8.50   20.20
   0  -7  11   22.10   11.40
   0  -7  11   -5.30   23.00
   0  -7  11   14.30   22.20
  -1   7 -11   31.70   26.00
  -1   7 -11   18.70   19.70
  -1   7 -11   31.30   29.70
   1  -7  11   23.00   25.60
   1  -7  11  -12.70   22.90
   6   6 -11   46.00   25.60
   6   6 -11   63.19   31.90
  -6  -6  11   45.40   24.80
  -6  -6  11   35.30   28.80
   5   6 -11  -12.20   22.00
   5   6 -11    5.00   22.50
   5   6 -11  -32.20   16.80
  -5  -6  11  -17.90   19.50
  -5  -6  11   26.40   15.30
  -5  -6  11  -29.90   22.80
   4   6 -11  -25.70   21.70
   4   6 -11   -2.70   18.60
   4   6 -11   -8.10   19.60
   4   6 -11   53.19   24.30
  -4  -6  11   -4.00   18.40
  -4  -6  11   39.50   24.40
   3   6 -11   30.20   22.80
   3   6 -11   62.39   26.80
   3   6 -11   77.89   24.10
  -3  -6  11   31.40   24.00
  -3  -6  11   13.90   21.40
  -3  -6  11  -38.40   16.70
   2   6 -11   15.50   19.00
   2   6 -11  -10.70   17.60
   2   6 -11   31.20   27.10
   2   6 -11    4.60   19.70
  -2  -6  11   31.20   21.70
  -2  -6  11   10.40   24.70
  -2  -6  11   22.20   19.30
   1   6 -11   -1.50   19.50
   1   6 -11    2.20   18.40
  -1  -6  11   -2.50   14.90
  -1  -6  11  -15.30   22.20
  -1  -6  11   33.70   20.50
  -1  -6  11    4.00   21.30
   0   6 -11   35.20   22.80
   0   6 -11  -16.50   20.70
   0  -6  11    1.50   20.40
   0  -6  11   -2.50   22.60
  -1   6 -11   13.70   14.80
  -1   6 -11  -53.99   23.40
   1  -6  11   -8.60   22.80
   1  -6  11   23.30   22.00
  -2   6 -11   77.59   18.50
  -2   6 -11   54.09   32.60
   2  -6  11   23.50   27.10
   2  -6  11   50.39   30.60
   6   5 -11   26.80   20.50
   6   5 -11   -7.40   30.10
   6   5 -11   20.60   29.00
  -6  -5  11  -40.30   22.00
  -6  -5  11   -1.80   13.10
   5   5 -11   28.70   25.50
   5   5 -11   12.00   17.80
   5   5 -11   -1.70   21.10
  -5  -5  11    3.70   16.20
  -5  -5  11   14.60   21.50
  -5  -5  11   15.40   24.90
   4   5 -11    8.40   22.00
   4   5 -11   58.89   20.80
   4   5 -11   36.80   24.10
  -4  -5  11   60.29   29.20
  -4  -5  11   26.20   23.70
  -4  -5  11    9.20   18.80
   3   5 -11  187.88   37.20
   3   5 -11  137.99   31.70
   3   5 -11  152.68   34.20
   3   5 -11  137.29   28.60
  -3  -5  11  106.79   27.90
  -3  -5  11  157.28   36.80
  -3  -5  11  126.19   29.00
   2   5 -11   -7.60   23.60
   2   5 -11   21.40   17.70
   2   5 -11   -9.40   15.70
   2   5 -11  -20.20   15.20
  -2  -5  11  -24.00   17.40
  -2  -5  11   17.50   17.80
  -2  -5  11   30.00   22.50
   1   5 -11   70.99   21.60
   1   5 -11   98.69   31.00
   1   5 -11   58.49   26.70
   1   5 -11   14.10   19.40
  -1  -5  11   89.49   18.10
  -1  -5  11   43.20   20.40
  -1  -5  11   43.40   23.20
  -1  -5  11   91.89   29.10
   0   5 -11   -6.40   19.20
   0   5 -11   -2.70   13.40
   0   5 -11  -32.80   15.60
   0  -5  11   24.40   18.00
   0  -5  11   14.90   25.70
   0  -5  11  -32.10   21.10
  -1   5 -11   -0.40   23.50
  -1   5 -11  -15.70   12.00
  -1   5 -11   -3.30   12.30
   1  -5  11   49.99   28.20
   1  -5  11   19.40   23.10
  -2   5 -11   -5.30   25.30
  -2   5 -11    7.50   11.80
  -2   5 -11   23.00   10.90
   2  -5  11    7.40   22.00
   2  -5  11   53.69   31.20
   7   4 -11   29.50   28.70
   7   4 -11   61.99   31.30
   7   4 -11    1.70   18.70
  -7  -4  11  -12.80   23.30
   6   4 -11   26.20   23.70
   6   4 -11  -16.70   22.80
   6   4 -11   62.19   21.00
  -6  -4  11   14.20   17.40
  -6  -4  11    1.90   22.20
   5   4 -11   17.40   21.80
   5   4 -11    5.20   15.30
   5   4 -11   50.79   24.40
  -5  -4  11  -14.60   16.50
  -5  -4  11   63.59   27.10
  -5  -4  11    2.00   20.70
   4   4 -11   76.59   26.90
   4   4 -11   39.30   17.80
   4   4 -11   74.99   31.20
   4   4 -11  105.49   30.00
  -4  -4  11   26.00   21.60
  -4  -4  11   14.50   28.50
  -4  -4  11   56.69   25.90
   3   4 -11   18.10   18.70
   3   4 -11   -2.50   13.30
   3   4 -11  -10.30   20.20
   3   4 -11  -13.50   20.50
  -3  -4  11   10.80   15.00
  -3  -4  11  -23.30   19.00
  -3  -4  11   47.70   22.70
   2   4 -11   51.39   22.30
   2   4 -11   13.90   20.00
   2   4 -11   11.10   14.60
   2   4 -11    8.10   15.90
  -2  -4  11   -5.50   15.60
  -2  -4  11   17.30   21.10
  -2  -4  11   11.50   23.10
   1   4 -11  -13.70   18.60
   1   4 -11  -12.10   13.90
   1   4 -11    8.10   15.70
   1   4 -11   23.40   20.40
  -1  -4  11   27.20   17.80
  -1  -4  11  -33.20   19.50
   0   4 -11  -18.90   19.70
   0   4 -11   21.30   12.90
   0   4 -11   -2.60   19.00
   0  -4  11  -16.50   20.60
   0  -4  11   40.60   24.30
   0  -4  11   -6.90   16.30
  -1   4 -11    8.40   11.70
  -1   4 -11   37.20   11.90
   1  -4  11    0.80   26.00
   1  -4  11   84.09   30.30
   1  -4  11   47.80   22.10
  -2   4 -11   39.80   27.90
   2  -4  11   91.69   30.30
   2  -4  11  -11.70   27.10
   7   3 -11    4.50   25.40
   7   3 -11   -1.00   14.60
   7   3 -11   21.80   27.40
  -7  -3  11   19.10   27.00
   6   3 -11  128.09   32.60
   6   3 -11   43.60   16.60
  -6  -3  11   39.10   22.30
  -6  -3  11   66.99   27.80
   5   3 -11   71.49   27.30
   5   3 -11   61.99   17.60
   5   3 -11   42.00   26.20
  -5  -3  11   27.70   25.70
  -5  -3  11   26.10   23.10
   4   3 -11  209.18   36.00
   4   3 -11  151.48   23.60
   4   3 -11  253.17   43.90
   4   3 -11  203.28   38.40
  -4  -3  11  173.98   38.50
  -4  -3  11  162.08   34.50
  -4  -3  11  175.28   35.20
   3   3 -11  -22.20   12.10
   3   3 -11   54.99   23.20
   3   3 -11   29.70   18.50
   3   3 -11   18.70   21.70
  -3  -3  11   24.80   22.40
  -3  -3  11   18.70   23.50
   2   3 -11   -6.20   18.70
   2   3 -11   23.10   16.00
   2   3 -11   -7.80   18.30
  -2  -3  11   -2.30   22.30
  -2  -3  11   -8.30   21.10
  -2  -3  11    4.80   14.30
   1   3 -11  -14.00   20.10
   1   3 -11   27.50   24.30
   1   3 -11    8.80   12.20
  -1  -3  11   -6.20   21.60
  -1  -3  11   35.30   15.30
  -1  -3  11   19.90   23.30
   0   3 -11   -0.80    8.80
   0   3 -11   -4.50   20.40
   0   3 -11   -6.00   22.10
   0  -3  11   34.70   22.90
   0  -3  11    5.40   16.60
   0  -3  11   -6.90   21.70
  -1   3 -11  121.29   32.80
   1  -3  11   75.69   32.10
   1  -3  11  121.99   25.90
   1  -3  11   79.39   29.60
  -2   3 -11   51.09   29.10
   2  -3  11   46.20   25.90
   2  -3  11   83.89   51.99
   7   2 -11    3.90   12.10
   7   2 -11   31.00   24.50
  -7  -2  11    5.90   26.40
   6   2 -11   63.89   25.30
   6   2 -11   34.10   12.50
   6   2 -11   80.89   35.70
  -6  -2  11    6.20   24.80
  -6  -2  11   42.50   27.30
   5   2 -11    4.70   10.00
   5   2 -11   23.50   29.50
   5   2 -11   14.90   22.60
  -5  -2  11   57.99   23.40
  -5  -2  11  -12.80   20.50
   4   2 -11   -2.00   22.20
   4   2 -11   -1.30   16.40
   4   2 -11  -15.30   20.70
  -4  -2  11   -3.50   23.00
  -4  -2  11  -47.80   16.90
  -4  -2  11  -13.40   20.30
   3   2 -11   21.30   16.70
   3   2 -11   23.30   21.40
   3   2 -11   -9.00   21.70
  -3  -2  11  -36.90   20.10
  -3  -2  11   33.80   24.90
   2   2 -11  -12.20   17.50
   2   2 -11   14.60   19.80
   2   2 -11   27.90   14.20
  -2  -2  11   -7.90   20.30
  -2  -2  11   22.50   24.20
  -2  -2  11    8.80   12.00
   1   2 -11   37.40   22.00
   1   2 -11  -23.50   18.40
   1   2 -11    0.20   10.10
  -1  -2  11   11.50   12.10
  -1  -2  11  -11.10   21.80
  -1  -2  11    8.40   22.50
   0   2 -11  -14.50   19.20
   0   2 -11   -7.30   19.10
   0   2 -11    7.10    4.80
   0   2 -11    8.40    5.90
   0  -2  11    2.70   14.40
   0  -2  11   18.10   21.90
   0  -2  11   33.60   25.90
  -1   2 -11   36.40   25.60
  -1   2 -11   26.60   21.30
   1  -2  11   22.50   25.40
   1  -2  11    3.40   25.50
   1  -2  11   13.40   19.50
  -2   2 -11   -3.00   26.70
   2  -2  11   28.30   29.70
   2  -2  11   91.69   23.80
   2  -2  11   46.40   30.40
   7   1 -11    7.20   27.40
   7   1 -11   -8.00    7.00
   6   1 -11   59.69   28.60
   6   1 -11   58.39   27.30
   6   1 -11    3.00   22.90
  -6  -1  11   51.39   27.50
  -6  -1  11    9.40   29.80
   5   1 -11  -29.60   23.90
  -5  -1  11  -19.20   22.40
  -5  -1  11   17.10   29.60
   4   1 -11   -4.40   22.00
   4   1 -11    4.40   18.40
   4   1 -11  -20.10   17.90
  -4  -1  11   29.90   24.60
  -4  -1  11   22.30   23.90
   3   1 -11   11.80   15.10
   3   1 -11   41.50   21.40
   3   1 -11   18.70   20.60
  -3  -1  11  -37.30   23.30
  -3  -1  11   29.90   23.40
  -3  -1  11    2.40   22.30
   2   1 -11   60.89   16.10
   2   1 -11   41.90   26.00
   2   1 -11  -18.70   21.90
  -2  -1  11   -6.70   25.70
  -2  -1  11   37.50   24.10
  -2  -1  11   26.60   26.30
  -2  -1  11   26.10   10.30
   1   1 -11   -6.60    8.10
   1   1 -11   18.90   20.80
   1   1 -11   36.00   23.00
  -1  -1  11   13.70   22.10
  -1  -1  11   11.10   11.10
  -1  -1  11   25.50   25.40
   0   1 -11   16.80   19.90
   0   1 -11   65.59   27.50
   0   1 -11   51.39   26.60
   0  -1  11   30.10   15.60
   0  -1  11   54.99   28.70
   0  -1  11   24.00   25.90
  -1   1 -11    0.70   27.50
  -1   1 -11   26.50   21.50
   1  -1  11   -5.40   16.00
   1  -1  11  -21.70   24.50
   1  -1  11   10.70   31.80
   6   0 -11   52.49   16.80
   6   0 -11    5.20   26.50
   6   0 -11   31.90   21.70
  -6   0  11   29.00   31.80
   5   0 -11   67.89   19.90
   5   0 -11  123.89   37.40
   5   0 -11   55.99   28.50
  -5   0  11   74.39   29.10
  -5   0  11   56.29   31.10
   4   0 -11   22.30   21.20
   4   0 -11   50.79   29.20
   4   0 -11  -19.80   27.00
   4   0 -11   51.79   18.90
  -4   0  11   23.30   24.30
  -4   0  11   44.20   26.70
  -4   0  11   36.80   25.40
   3   0 -11   30.60   17.30
   3   0 -11   28.80   28.40
   3   0 -11    3.80   15.80
  -3   0  11   57.99   29.50
  -3   0  11    5.00   24.90
  -3   0  11   -9.50   24.00
   2   0 -11    8.20   12.50
   2   0 -11   64.59   19.10
   2   0 -11   79.59   31.50
   2   0 -11   31.10   28.50
  -2   0  11   34.80   25.30
  -2   0  11   50.69   25.90
  -2   0  11   36.90   28.70
   1   0 -11   50.59   27.00
   1   0 -11   85.59   27.70
   1   0 -11    3.80   17.60
  -1   0  11   18.80   25.80
  -1   0  11   44.90   29.40
  -1   0  11   22.90   10.90
  -1   0  11   36.40   26.70
   0   0 -11   -7.10   19.60
   0   0 -11   60.09   30.40
   0   0  11    2.70   21.30
   0   0  11   28.70   15.50
   0   0  11  -10.50   20.80
  -1   0 -11   30.30   24.10
   1   0  11   18.90   17.10
   1   0  11  -23.60   23.00
   1   0  11  -46.00   23.40
   6  -1 -11   12.90   25.90
   6  -1 -11    0.40   12.40
   6  -1 -11   -5.50   21.30
  -6   1  11   16.60   28.30
  -6   1  11   17.70   28.10
   5  -1 -11    7.10   14.50
   5  -1 -11   47.70   25.20
  -5   1  11  -18.70   28.30
   4  -1 -11  249.78   44.60
   4  -1 -11   94.09   30.40
   4  -1 -11  153.88   29.90
  -4   1  11   77.59   35.10
  -4   1  11  216.98   44.30
  -4   1  11  239.68   44.10
   3  -1 -11   44.20   23.60
   3  -1 -11  -16.30   15.80
   3  -1 -11   36.50   29.70
  -3   1  11   24.70   28.70
  -3   1  11   17.90   25.00
  -3   1  11    2.50   25.90
   2  -1 -11   16.30   13.00
   2  -1 -11   46.60   25.80
   2  -1 -11   57.09   20.70
   2  -1 -11   38.60   28.00
  -2   1  11    9.10   24.30
  -2   1  11    5.00   25.70
  -2   1  11 -114.59   47.50
   1  -1 -11   52.09   21.50
   1  -1 -11   38.00   38.50
   1  -1 -11   22.30   23.70
  -1   1  11   19.50   26.40
  -1   1  11    1.80   25.90
  -1   1  11    3.00   30.20
   0  -1 -11   -9.80   28.90
   0  -1 -11   31.80   22.60
   0   1  11   71.59   30.60
   0   1  11    8.50   32.00
   0   1  11   64.49   30.90
   0   1  11    0.50   11.80
   4  -2 -11   -2.30   27.30
   4  -2 -11   -1.90   18.80
   4  -2 -11  -57.49   23.70
  -4   2  11   -3.80   25.70
  -4   2  11   59.99   28.80
  -4   2  11  -12.30   25.40
   3  -2 -11  -12.60   24.40
   3  -2 -11   43.00   29.10
   3  -2 -11   -2.00   15.30
   3  -2 -11  -44.70   14.50
  -3   2  11   20.70   25.60
  -3   2  11    8.30   28.70
   2  -2 -11   10.00   12.20
   2  -2 -11    2.50   24.20
   2  -2 -11   26.00   19.90
   2  -2 -11   -1.70   16.70
  -2   2  11   16.90   34.70
  -2   2  11   -3.70   26.10
  -2   2  11  -50.59   24.20
   1  -2 -11    8.20   22.70
   1  -2 -11   -6.50   23.30
   1  -2 -11  -10.70   19.10
  -1   2  11   55.99   32.90
  -1   2  11   -9.20   27.70
  -1   2  11    6.90   31.30
   4   6 -12   45.30   28.20
   4   6 -12   14.10   21.70
   4   6 -12   -6.70   24.20
   4   6 -12  -26.00   23.50
  -4  -6  12   -2.90   25.30
  -4  -6  12   41.30   33.10
   3   6 -12    5.50   22.20
   3   6 -12   27.80   25.30
   3   6 -12   15.80   24.00
   3   6 -12   52.19   24.60
  -3  -6  12   -6.20   28.10
  -3  -6  12  -11.00   22.20
  -3  -6  12    0.40   21.10
   2   6 -12   21.40   29.30
   2   6 -12    9.70   34.40
   2   6 -12   38.50   25.30
   2   6 -12  -36.30   17.50
  -2  -6  12   16.20   30.70
  -2  -6  12   19.70   25.10
  -2  -6  12  -55.79   20.40
  -2  -6  12   22.80   18.70
   1   6 -12   20.30   22.10
   1   6 -12    1.30   20.00
   1   6 -12   -0.70   21.50
  -1  -6  12   46.30   26.10
  -1  -6  12   29.40   23.00
  -1  -6  12   24.30   25.80
  -1  -6  12  -36.30   16.30
   5   5 -12   30.70   28.00
   5   5 -12  -37.70   30.30
   5   5 -12   13.40   27.10
  -5  -5  12    4.60   21.10
   4   5 -12   64.99   29.60
   4   5 -12  106.29   33.40
   4   5 -12   51.59   30.00
   4   5 -12  126.89   29.80
  -4  -5  12  113.99   32.50
  -4  -5  12  133.29   34.70
   3   5 -12  174.08   36.80
   3   5 -12   96.49   33.90
   3   5 -12  199.38   38.40
  -3  -5  12  138.09   26.60
  -3  -5  12  204.08   38.20
   2   5 -12    2.40   20.30
   2   5 -12   -2.10   25.00
   2   5 -12  -14.00   22.00
   2   5 -12    3.70   19.80
  -2  -5  12   36.50   24.90
  -2  -5  12   20.20   19.10
   1   5 -12   13.60   21.50
   1   5 -12   21.80   18.50
   1   5 -12   17.20   19.70
   1   5 -12  -16.70   20.00
  -1  -5  12   44.10   26.50
  -1  -5  12   16.50   32.10
  -1  -5  12   52.79   21.20
   0   5 -12   17.50   16.60
   0   5 -12   22.70   15.70
   0   5 -12   20.70   44.70
   0  -5  12  -19.70   25.00
   0  -5  12    9.60   21.60
   0  -5  12   -2.50   28.90
   5   4 -12  -21.80   26.40
   5   4 -12  128.19   33.00
   5   4 -12   41.50   20.60
   5   4 -12   52.49   29.60
  -5  -4  12   22.20   26.90
  -5  -4  12   75.19   27.70
   4   4 -12  268.17   44.50
   4   4 -12  171.38   27.10
   4   4 -12  167.98   38.80
  -4  -4  12  157.38   35.60
  -4  -4  12  120.49   32.70
   3   4 -12   82.59   27.30
   3   4 -12   83.59   22.50
   3   4 -12   72.79   28.60
   3   4 -12   44.70   28.90
  -3  -4  12   82.09   37.80
  -3  -4  12  122.49   35.40
   2   4 -12   32.00   23.00
   2   4 -12  -10.80   16.40
   2   4 -12  -43.40   21.90
  -2  -4  12   27.90   26.20
  -2  -4  12   41.70   19.90
  -2  -4  12   -0.40   32.00
   1   4 -12   29.80   25.80
   1   4 -12    6.90   14.90
   1   4 -12   56.99   27.00
  -1  -4  12   47.80   21.60
  -1  -4  12   52.99   32.70
   0   4 -12  -23.40   21.90
   0   4 -12    3.90   12.10
   0   4 -12   -8.20   10.90
   0  -4  12   23.90   31.10
   0  -4  12  -25.20   24.60
   0  -4  12  -41.80   16.50
   5   3 -12  -27.30   21.80
   5   3 -12   11.10   13.40
   5   3 -12    3.40   24.50
   5   3 -12  -13.00   29.20
  -5  -3  12   51.29   34.80
  -5  -3  12   16.70   26.40
  -5  -3  12   12.70   26.60
   4   3 -12   67.89   31.90
   4   3 -12   42.40   26.80
   4   3 -12   47.80   16.10
  -4  -3  12   57.59   31.20
   3   3 -12   26.50   18.90
   3   3 -12   14.20   25.20
   3   3 -12   44.70   24.30
  -3  -3  12  -10.30   29.60
  -3  -3  12   31.20   27.10
  -3  -3  12   -0.90   25.70
   2   3 -12    9.10   21.60
   2   3 -12   45.10   25.90
   2   3 -12   20.00   16.10
  -2  -3  12   25.70   26.30
  -2  -3  12   -0.10   15.40
  -2  -3  12   36.40   29.70
   1   3 -12   28.80   24.40
   1   3 -12   15.10   12.60
   1   3 -12  -27.20   22.80
  -1  -3  12  -29.50   21.60
  -1  -3  12   15.80   16.60
   0   3 -12   -5.70    9.00
   0   3 -12    8.30   27.50
   0   3 -12   15.70   10.20
   0  -3  12   25.90   18.50
   0  -3  12  -74.49   27.50
   5   2 -12  -22.80   26.50
   5   2 -12   39.90   32.90
   5   2 -12   37.40   23.80
  -5  -2  12    9.30   28.00
  -5  -2  12  -62.59   23.50
   4   2 -12  -13.00   20.10
   4   2 -12    4.20   26.40
   4   2 -12   51.49   28.10
  -4  -2  12  -30.00   26.40
  -4  -2  12   10.70   28.20
  -4  -2  12  -57.39   21.60
   3   2 -12   26.10   25.50
   3   2 -12  -12.80   17.70
   3   2 -12  -18.80   26.30
  -3  -2  12   24.20   27.70
  -3  -2  12   37.70   28.90
   2   2 -12  -15.00   24.50
   2   2 -12   33.10   26.70
   2   2 -12    9.00   13.80
  -2  -2  12    5.90   11.90
  -2  -2  12    1.10   25.80
   1   2 -12   33.00   28.90
   1   2 -12   46.00   13.20
   1   2 -12   -1.60   25.70
  -1  -2  12   36.00   16.50
   4   1 -12   10.10   32.20
   4   1 -12  -50.49   16.00
   4   1 -12  -37.10   25.70
  -4  -1  12  -45.20   23.40
  -4  -1  12   22.20   31.20
   3   1 -12   14.70   23.30
   3   1 -12  -19.10   24.10
   3   1 -12    1.70   16.50
  -3  -1  12    2.40   29.10
  -3  -1  12  -13.10   26.00
   2   1 -12  -10.60   25.70
   2   1 -12   18.10   20.40
   2   1 -12   20.60   13.10
   2   1 -12   25.40   24.90
  -2  -1  12  -64.79   28.50
   1   1 -12   29.60   22.50
   1   1 -12   49.50   31.80
   1   1 -12   32.30   13.80
   1   1 -12  -30.40   23.90
  -1  -1  12   -5.50   12.50
  -1  -1  12    4.60   29.60
  -1  -1  12  -58.09   27.90
   0   0   0    0.00    0.00

_computing_structure_solution     'SHELXT 2018/2 (Sheldrick, 2018)'
;
_shelx_hkl_checksum              89889
_olex2_submission_special_instructions 'No special instructions were received'
loop_
_space_group_symop_operation_xyz
'x, y, z'
'-x, -y, -z'
loop_
_atom_site_label
_atom_site_type_symbol
_atom_site_fract_x
_atom_site_fract_y
_atom_site_fract_z
_atom_site_U_iso_or_equiv
_atom_site_adp_type
_atom_site_occupancy
_atom_site_site_symmetry_order
_atom_site_calc_flag
_atom_site_refinement_flags_posn
_atom_site_refinement_flags_adp
_atom_site_refinement_flags_occupancy
_atom_site_disorder_assembly
_atom_site_disorder_group
F001 F 0.78301(17) 0.80296(14) 0.16399(15) 0.0373(4) Uani 1 1 d . . . . .
N002 N 0.0955(3) 0.3756(2) 0.1373(2) 0.0356(5) Uani 1 1 d . . . . .
C003 C 0.4667(3) 0.2500(2) 0.2688(2) 0.0235(5) Uani 1 1 d . . . . .
C004 C 0.4093(3) 0.3586(2) 0.2203(2) 0.0245(5) Uani 1 1 d . . . . .
C005 C 0.3582(3) 0.1213(2) 0.2492(3) 0.0248(5) Uani 1 1 d . . . . .
C006 C 0.6928(3) 0.6949(2) 0.1792(2) 0.0274(6) Uani 1 1 d . . . . .
C007 C 0.2335(3) 0.3629(2) 0.1717(3) 0.0272(6) Uani 1 1 d . . . . .
C008 C 0.6428(3) 0.2516(2) 0.3426(2) 0.0240(5) Uani 1 1 d . . . . .
C009 C 0.6521(3) 0.4534(2) 0.1622(2) 0.0267(6) Uani 1 1 d . . . . .
H009 H 0.685175 0.360528 0.139878 0.032 Uiso 1 1 calc R . . . .
C00A C 0.5534(3) 0.7244(2) 0.2232(2) 0.0281(6) Uani 1 1 d . . . . .
H00A H 0.520256 0.817318 0.242853 0.034 Uiso 1 1 calc R . . . .
C00B C 0.5110(3) 0.4775(2) 0.2092(2) 0.0236(5) Uani 1 1 d . . . . .
C00C C 0.4624(3) 0.6144(2) 0.2380(2) 0.0268(6) Uani 1 1 d . . . . .
H00C H 0.365185 0.632169 0.268248 0.032 Uiso 1 1 calc R . . . .
C00D C 0.3577(3) 0.0720(3) 0.3663(3) 0.0294(6) Uani 1 1 d . . . . .
H00D H 0.423781 0.123524 0.460630 0.035 Uiso 1 1 calc R . . . .
C00E C 0.7276(3) 0.1364(2) 0.2938(3) 0.0296(6) Uani 1 1 d . . . . .
H00E H 0.670759 0.056373 0.215723 0.035 Uiso 1 1 calc R . . . .
C00F C 0.7452(3) 0.5620(2) 0.1473(3) 0.0275(6) Uani 1 1 d . . . . .
H00F H 0.842059 0.545441 0.116184 0.033 Uiso 1 1 calc R . . . .
C00G C 0.7279(3) 0.3659(2) 0.4610(3) 0.0283(6) Uani 1 1 d . . . . .
H00G H 0.672303 0.444976 0.496134 0.034 Uiso 1 1 calc R . . . .
C00H C 0.2614(3) 0.0429(2) 0.1118(3) 0.0309(6) Uani 1 1 d . . . . .
H00H H 0.259337 0.075313 0.030976 0.037 Uiso 1 1 calc R . . . .
C00I C 0.8927(3) 0.3649(3) 0.5276(3) 0.0327(6) Uani 1 1 d . . . . .
H00I H 0.948597 0.441839 0.609696 0.039 Uiso 1 1 calc R . . . .
C00J C 0.2622(3) -0.0507(3) 0.3466(3) 0.0343(6) Uani 1 1 d . . . . .
H00J H 0.260888 -0.081824 0.427581 0.041 Uiso 1 1 calc R . . . .
C00K C 0.1680(3) -0.0822(3) 0.0920(3) 0.0364(7) Uani 1 1 d . . . . .
H00K H 0.103965 -0.135745 -0.002398 0.044 Uiso 1 1 calc R . . . .
C00L C 0.1681(3) -0.1287(3) 0.2093(3) 0.0364(7) Uani 1 1 d . . . . .
H00L H 0.103919 -0.213931 0.195820 0.044 Uiso 1 1 calc R . . . .
C00M C 0.8928(3) 0.1375(3) 0.3577(3) 0.0356(6) Uani 1 1 d . . . . .
H00M H 0.949669 0.059822 0.321461 0.043 Uiso 1 1 calc R . . . .
C00N C 0.9759(3) 0.2518(3) 0.4746(3) 0.0364(6) Uani 1 1 d . . . . .
H00N H 1.089652 0.252529 0.518352 0.044 Uiso 1 1 calc R . . . .
loop_
_atom_site_aniso_label
_atom_site_aniso_U_11
_atom_site_aniso_U_22
_atom_site_aniso_U_33
_atom_site_aniso_U_23
_atom_site_aniso_U_13
_atom_site_aniso_U_12
F001 0.0351(9) 0.0307(8) 0.0511(10) 0.0149(7) 0.0179(7) 0.0007(7)
N002 0.0283(13) 0.0318(12) 0.0454(14) 0.0101(10) 0.0094(10) 0.0072(10)
C003 0.0234(13) 0.0224(12) 0.0231(13) 0.0049(10) 0.0061(10) 0.0045(10)
C004 0.0215(13) 0.0232(12) 0.0264(13) 0.0052(10) 0.0047(10) 0.0039(10)
C005 0.0208(13) 0.0221(12) 0.0308(14) 0.0080(10) 0.0054(10) 0.0053(10)
C006 0.0280(14) 0.0252(13) 0.0281(13) 0.0096(10) 0.0049(11) -0.0023(11)
C007 0.0310(15) 0.0205(12) 0.0309(13) 0.0072(10) 0.0103(11) 0.0039(10)
C008 0.0241(13) 0.0240(12) 0.0260(13) 0.0100(10) 0.0079(10) 0.0027(10)
C009 0.0285(14) 0.0261(13) 0.0280(13) 0.0100(10) 0.0094(11) 0.0103(11)
C00A 0.0298(14) 0.0239(13) 0.0314(14) 0.0088(10) 0.0092(11) 0.0059(11)
C00B 0.0251(13) 0.0228(12) 0.0212(12) 0.0055(9) 0.0046(10) 0.0022(10)
C00C 0.0254(13) 0.0266(13) 0.0294(13) 0.0088(10) 0.0091(11) 0.0054(10)
C00D 0.0252(14) 0.0327(14) 0.0317(14) 0.0109(11) 0.0090(11) 0.0054(11)
C00E 0.0285(14) 0.0260(13) 0.0331(14) 0.0064(11) 0.0092(11) 0.0050(11)
C00F 0.0231(13) 0.0313(13) 0.0308(14) 0.0127(11) 0.0083(11) 0.0057(11)
C00G 0.0289(14) 0.0260(13) 0.0308(14) 0.0093(10) 0.0087(11) 0.0060(11)
C00H 0.0303(14) 0.0261(13) 0.0347(14) 0.0105(11) 0.0045(11) 0.0036(11)
C00I 0.0308(15) 0.0346(14) 0.0296(14) 0.0084(11) 0.0050(11) -0.0017(12)
C00J 0.0260(14) 0.0394(15) 0.0506(17) 0.0264(13) 0.0179(13) 0.0108(12)
C00K 0.0263(14) 0.0288(14) 0.0457(16) 0.0064(12) 0.0011(12) 0.0016(11)
C00L 0.0211(14) 0.0283(14) 0.0636(19) 0.0209(13) 0.0102(13) 0.0054(11)
C00M 0.0284(15) 0.0394(15) 0.0394(16) 0.0107(12) 0.0109(12) 0.0107(12)
C00N 0.0260(14) 0.0453(16) 0.0386(16) 0.0157(13) 0.0063(12) 0.0050(12)
loop_
_atom_type_symbol
_atom_type_description
_atom_type_scat_dispersion_real
_atom_type_scat_dispersion_imag
_atom_type_scat_source
C C 0.0033 0.0016 'International Tables Vol C Tables 4.2.6.8 and 6.1.1.4'
H H 0.0000 0.0000 'International Tables Vol C Tables 4.2.6.8 and 6.1.1.4'
F F 0.0171 0.0103 'International Tables Vol C Tables 4.2.6.8 and 6.1.1.4'
N N 0.0061 0.0033 'International Tables Vol C Tables 4.2.6.8 and 6.1.1.4'
loop_
_geom_angle_atom_site_label_1
_geom_angle_atom_site_label_2
_geom_angle_atom_site_label_3
_geom_angle
_geom_angle_site_symmetry_1
_geom_angle_site_symmetry_3
_geom_angle_publ_flag
C004 C003 C005 122.3(2) . . ?
C004 C003 C008 121.7(2) . . ?
C008 C003 C005 115.93(19) . . ?
C003 C004 C007 119.2(2) . . ?
C003 C004 C00B 126.1(2) . . ?
C007 C004 C00B 114.6(2) . . ?
C00D C005 C003 120.9(2) . . ?
C00H C005 C003 120.6(2) . . ?
C00H C005 C00D 118.5(2) . . ?
F001 C006 C00A 118.2(2) . . ?
F001 C006 C00F 118.3(2) . . ?
C00A C006 C00F 123.5(2) . . ?
N002 C007 C004 175.6(2) . . ?
C00E C008 C003 119.8(2) . . ?
C00E C008 C00G 118.4(2) . . ?
C00G C008 C003 121.8(2) . . ?
C00F C009 C00B 121.3(2) . . ?
C006 C00A C00C 117.8(2) . . ?
C009 C00B C004 120.6(2) . . ?
C009 C00B C00C 118.3(2) . . ?
C00C C00B C004 120.9(2) . . ?
C00A C00C C00B 121.2(2) . . ?
C00J C00D C005 120.7(2) . . ?
C00M C00E C008 120.8(2) . . ?
C006 C00F C009 117.7(2) . . ?
C00I C00G C008 120.6(2) . . ?
C00K C00H C005 120.6(2) . . ?
C00N C00I C00G 120.1(2) . . ?
C00D C00J C00L 120.3(2) . . ?
C00L C00K C00H 120.0(2) . . ?
C00K C00L C00J 119.8(2) . . ?
C00E C00M C00N 120.2(2) . . ?
C00I C00N C00M 119.9(2) . . ?
loop_
_geom_bond_atom_site_label_1
_geom_bond_atom_site_label_2
_geom_bond_distance
_geom_bond_site_symmetry_2
_geom_bond_publ_flag
F001 C006 1.366(3) . ?
N002 C007 1.152(3) . ?
C003 C004 1.358(3) . ?
C003 C005 1.488(3) . ?
C003 C008 1.483(3) . ?
C004 C007 1.449(3) . ?
C004 C00B 1.489(3) . ?
C005 C00D 1.396(3) . ?
C005 C00H 1.394(3) . ?
C006 C00A 1.370(3) . ?
C006 C00F 1.376(3) . ?
C008 C00E 1.397(3) . ?
C008 C00G 1.398(3) . ?
C009 C00B 1.393(3) . ?
C009 C00F 1.383(3) . ?
C00A C00C 1.384(3) . ?
C00B C00C 1.398(3) . ?
C00D C00J 1.380(3) . ?
C00E C00M 1.380(3) . ?
C00G C00I 1.386(3) . ?
C00H C00K 1.390(3) . ?
C00I C00N 1.385(4) . ?
C00J C00L 1.385(4) . ?
C00K C00L 1.380(4) . ?
C00M C00N 1.386(3) . ?
